data_PCOD8140461
_publ_section_title
;
Structure prediction by ZEFSAII (Michael W. Deem and Ramdas Pophale) SiO2 
 PCOD8140461
Probable space group: C 2/C
;
_chemical_formula_sum "Si O2"
_cell_formula_units_Z 60
_cell_length_a 24.427479
_cell_length_b 25.104816
_cell_length_c 13.410024
_cell_angle_alpha 90.000000
_cell_angle_beta 21.201803
_cell_angle_gamma 90.000000
_cell_volume 2974.119465
_symmetry_space_group_name_H-M "C 2/C"
_symmetry_group_IT_number 15
_symmetry_cell_setting 'monoclinic'
loop_
_space_group_symop_operation_xyz
x,y,z
-x,y,1/2-z
-x,-y,-z
x,-y,1/2+z
1/2+x,1/2+y,z
1/2-x,1/2+y,1/2-z
1/2-x,1/2-y,-z
1/2+x,1/2-y,1/2+z
loop_
_atom_site_type_symbol
_atom_site_label
_atom_site_fract_x
_atom_site_fract_y
_atom_site_fract_z
Si Si1 0.000000 0.426148 0.750000
Si Si2 0.237856 0.504321 0.436321
Si Si3 0.977247 0.978366 0.175930
Si Si4 0.643852 0.176561 0.949522
Si Si5 0.846759 0.376456 0.455765
Si Si6 0.962570 0.856694 0.424556
Si Si7 0.864324 0.292171 0.262069
Si Si8 0.864576 0.776746 0.229902
O O1 0.104575 0.461492 0.645318
O O2 0.111907 0.387389 0.496086
O O3 0.312832 0.499555 0.418803
O O4 0.162035 0.561251 0.551577
O O5 0.380518 0.494841 0.121107
O O6 0.000000 0.995664 0.250000
O O7 0.969487 0.915091 0.174448
O O8 0.669340 0.200098 0.797362
O O9 0.789833 0.190154 0.767338
O O10 0.500000 0.204025 0.250000
O O11 0.841633 0.347386 0.358121
O O12 0.000000 0.361581 0.250000
O O13 0.716765 0.357636 0.752548
O O14 0.031861 0.817972 0.387636
O O15 0.000000 0.835905 0.250000
O O16 0.750000 0.250000 0.500000
O O17 0.034097 0.270291 0.988866
O O18 0.750000 0.750000 0.500000
#
# Coordination Sequence:
#
# PCOD8140461 Si02
#       8
#     4   8   8   8   8   8   8   8
#     4  10  20  44  68  96 140 168 220 280 340 396
#     4  10  20  41  69  95 135 173 217 278 335 400
#     4   9  20  39  64  96 128 172 222 267 331 401
#     4  10  25  44  64  97 132 172 226 270 335 407
#     4  11  25  44  65 102 136 173 222 278 341 401
#     4  10  23  41  67  97 130 175 226 267 328 407
#     4  12  27  45  66  98 137 174 225 281 337 388
#     4  12  24  41  71  93 126 180 223 273 328 394
#
# _framework density 20.174037999999999
#
# number of rings (size 3 to 8) (size 9 to 14) (size 15 to 20)
#    0.400    1.067    3.333    0.800    5.600    1.067 
#    4.800    1.333    0.000    0.000    0.000    0.000 
#    0.000    0.000    0.000    0.000    0.000    0.000 
#
# Total GULP energy -371972.390464 kJ/mol
# GULP energy per Si atom -12399.079682 kJ/mol
# Density = 2.012812 g / cm^3
# Si number density = 20.174038 Si / 1000 Ang^3
#
#
#
# Elastic Constant Matrix: (Units=GPa)
#
#
# Indices 1 2 3 4 5 6 
#
# 1 149.5017 55.9489 56.2441 0.0203 -3.9872 0.0018
# 2 55.9489 90.7360 49.8628 0.0408 -4.1170 -0.0201
# 3 56.2441 49.8628 110.3908 0.0353 -2.0579 -0.0162
# 4 0.0203 0.0408 0.0353 34.2735 -0.0216 -2.4980
# 5 -3.9872 -4.1170 -2.0579 -0.0216 37.1843 0.0060
# 6 0.0018 -0.0201 -0.0162 -2.4980 0.0060 33.3604
#
#
#
# Elastic Compliance Matrix: (Units=1/GPa)
#
#
# Indices 1 2 3 4 5 6 
#
# 1 0.009336 -0.004163 -0.002870 0.000002 0.000381 -0.000004
# 2 -0.004163 0.016575 -0.005345 -0.000011 0.001093 0.000007
# 3 -0.002870 -0.005345 0.012932 -0.000005 -0.000184 0.000003
# 4 0.000002 -0.000011 -0.000005 0.029337 0.000015 0.002197
# 5 0.000381 0.001093 -0.000184 0.000015 0.027045 -0.000003
# 6 -0.000004 0.000007 0.000003 0.002197 -0.000003 0.030140
#
#
# Mechanical properties :
#
#
# Convention : Reuss Voigt Hill
#
# Bulk Modulus (GPa) = 70.98392 74.97112 72.97752
# Shear Modulus (GPa) = 32.29623 33.53515 32.91569
#
# Velocity S-wave (km/s) = 4.00544 4.08155 4.04367
# Velocity P-wave (km/s) = 7.52686 7.71070 7.61933
#
# Compressibility (1/GPa) = 0.01408770
#
# Stress axis : x y z
#
# Youngs Moduli (GPa) = 107.10702 60.33207 77.32847
#
# Poissons Ratio (x) = 0.25115 0.22190
# Poissons Ratio (y) = 0.44586 0.41336
# Poissons Ratio (z) = 0.30735 0.32250
#
# Static dielectric constant tensor:
#      x y z
#    x 3.809440 -0.000010 0.122660 
#    y -0.000010 3.709280 0.000170 
#    z 0.122660 0.000170 4.033670 
# 
# 
# High freq. dielectric constant tensor:
#      x y z
#    x 1.789330 0.000000 -0.008540 
#    y 0.000000 1.793620 0.000010 
#    z -0.008540 0.000010 1.788540 
# 
# From -- ./inp_files/179278.got.cif
#   From: 2010.06.25/outbox.cif.g09.slc.cpg/sg15_90_cif.got.tgz:179278.got - 2010.06.28 07:06:18.
