data_PCOD8140611
_publ_section_title
;
Structure prediction by ZEFSAII (Michael W. Deem and Ramdas Pophale) SiO2 
 PCOD8140611
Probable space group: C 2/C
;
_chemical_formula_sum "Si O2"
_cell_formula_units_Z 64
_cell_length_a 12.051601
_cell_length_b 15.012377
_cell_length_c 26.075736
_cell_angle_alpha 90.000000
_cell_angle_beta 40.292450
_cell_angle_gamma 90.000000
_cell_volume 3050.889239
_symmetry_space_group_name_H-M "C 2/C"
_symmetry_group_IT_number 15
_symmetry_cell_setting 'monoclinic'
loop_
_space_group_symop_operation_xyz
x,y,z
-x,y,1/2-z
-x,-y,-z
x,-y,1/2+z
1/2+x,1/2+y,z
1/2-x,1/2+y,1/2-z
1/2-x,1/2-y,-z
1/2+x,1/2-y,1/2+z
loop_
_atom_site_type_symbol
_atom_site_label
_atom_site_fract_x
_atom_site_fract_y
_atom_site_fract_z
Si Si1 0.695577 0.753265 0.900178
Si Si2 0.179384 0.539248 0.158523
Si Si3 0.415285 0.221863 0.912548
Si Si4 0.481239 0.043020 0.642032
Si Si5 0.604595 0.381716 0.161901
Si Si6 0.354892 0.962698 0.588956
Si Si7 0.362430 0.277749 0.582823
Si Si8 0.185297 0.890790 0.319026
O O1 0.876690 0.733185 0.865619
O O2 0.683545 0.859242 0.902601
O O3 0.707893 0.702665 0.841392
O O4 0.529296 0.715527 0.988080
O O5 0.138086 0.493833 0.119362
O O6 0.258597 0.632288 0.114862
O O7 0.310509 0.476100 0.143938
O O8 0.000000 0.556370 0.250000
O O9 0.439171 0.119629 0.921385
O O10 0.581653 0.272723 0.876624
O O11 0.250000 0.250000 0.000000
O O12 0.340936 0.095258 0.725304
O O13 0.404538 0.969434 0.631523
O O14 0.500000 0.357957 0.250000
O O15 0.684818 0.479769 0.138965
O O16 0.749040 0.306001 0.104422
O O17 0.490251 0.384598 0.150927
O O18 0.500000 0.000000 0.500000
#
# Coordination Sequence:
#
# PCOD8140611 Si02
#       8
#     8   8   8   8   8   8   8   8
#     4  11  25  43  68 100 135 182 226 277 339 405
#     4  10  24  43  69  97 131 179 224 274 344 403
#     4  10  20  42  66  94 133 173 221 270 334 398
#     4  11  22  47  68  91 139 177 219 292 332 399
#     4  12  24  45  67  98 139 175 226 290 342 408
#     4  12  24  46  71 100 135 183 227 281 350 407
#     4  11  23  43  67 101 134 177 223 275 345 401
#     4  11  25  45  66  99 137 174 232 280 339 409
#
# _framework density 20.97749
#
# number of rings (size 3 to 8) (size 9 to 14) (size 15 to 20)
#    0.000    1.000    5.000    1.125    3.500    2.000 
#    4.500    0.000    0.000    0.000    0.000    0.000 
#    0.000    0.000    0.000    0.000    0.000    0.000 
#
# Total GULP energy -396625.404808 kJ/mol
# GULP energy per Si atom -12394.543900 kJ/mol
# Density = 2.092974 g / cm^3
# Si number density = 20.977490 Si / 1000 Ang^3
#
#
#
# Elastic Constant Matrix: (Units=GPa)
#
#
# Indices 1 2 3 4 5 6 
#
# 1 173.1606 32.2229 33.6978 0.0001 -2.2186 0.0000
# 2 32.2229 118.6965 29.9911 0.0001 -4.0252 0.0000
# 3 33.6978 29.9911 51.3897 0.0003 -0.4840 0.0001
# 4 0.0001 0.0001 0.0003 38.3991 -0.0002 -1.9877
# 5 -2.2186 -4.0252 -0.4840 -0.0002 29.3352 0.0001
# 6 0.0000 0.0000 0.0001 -1.9877 0.0001 28.0460
#
#
#
# Elastic Compliance Matrix: (Units=1/GPa)
#
#
# Indices 1 2 3 4 5 6 
#
# 1 0.006692 -0.000818 -0.003907 0.000000 0.000329 0.000000
# 2 -0.000818 0.010029 -0.005305 0.000000 0.001227 0.000000
# 3 -0.003907 -0.005305 0.025112 0.000000 -0.000609 0.000000
# 4 0.000000 0.000000 0.000000 0.026138 0.000000 0.001852
# 5 0.000329 0.001227 -0.000609 0.000000 0.034272 0.000000
# 6 0.000000 0.000000 0.000000 0.001852 0.000000 0.035787
#
#
# Mechanical properties :
#
#
# Convention : Reuss Voigt Hill
#
# Bulk Modulus (GPa) = 45.93179 59.45226 52.69203
# Shear Modulus (GPa) = 30.23931 35.64504 32.94218
#
# Velocity S-wave (km/s) = 3.80084 4.12661 3.96707
# Velocity P-wave (km/s) = 6.41913 7.14897 6.79385
#
# Compressibility (1/GPa) = 0.02177141
#
# Stress axis : x y z
#
# Youngs Moduli (GPa) = 149.43510 99.71141 39.82226
#
# Poissons Ratio (x) = 0.08158 0.15560
# Poissons Ratio (y) = 0.12227 0.21125
# Poissons Ratio (z) = 0.58391 0.52895
#
# Static dielectric constant tensor:
#      x y z
#    x 4.250490 0.000000 -0.122150 
#    y 0.000000 3.814590 0.000000 
#    z -0.122150 0.000000 3.694460 
# 
# 
# High freq. dielectric constant tensor:
#      x y z
#    x 1.843470 0.000000 -0.001870 
#    y 0.000000 1.829760 0.000000 
#    z -0.001870 0.000000 1.809360 
# 
# From -- ./inp_files/293067.got.cif
#   From: 2010.06.25/outbox.cif.g09.slc.cpg/sg15_147_cif.got.tgz:293067.got - 2010.06.28 07:06:18.
