data_PCOD8140650
_publ_section_title
;
Structure prediction by ZEFSAII (Michael W. Deem and Ramdas Pophale) SiO2 
 PCOD8140650
Probable space group: C 2/C
;
_chemical_formula_sum "Si O2"
_cell_formula_units_Z 56
_cell_length_a 8.472280
_cell_length_b 21.740385
_cell_length_c 22.434118
_cell_angle_alpha 90.000000
_cell_angle_beta 42.972546
_cell_angle_gamma 90.000000
_cell_volume 2816.674075
_symmetry_space_group_name_H-M "C 2/C"
_symmetry_group_IT_number 15
_symmetry_cell_setting 'monoclinic'
loop_
_space_group_symop_operation_xyz
x,y,z
-x,y,1/2-z
-x,-y,-z
x,-y,1/2+z
1/2+x,1/2+y,z
1/2-x,1/2+y,1/2-z
1/2-x,1/2-y,-z
1/2+x,1/2-y,1/2+z
loop_
_atom_site_type_symbol
_atom_site_label
_atom_site_fract_x
_atom_site_fract_y
_atom_site_fract_z
Si Si1 0.264296 0.594946 0.175102
Si Si2 0.000744 0.561683 0.460771
Si Si3 0.772578 0.801740 0.072535
Si Si4 0.421319 0.082340 0.836273
Si Si5 0.582235 0.406790 0.999007
Si Si6 0.734189 0.508407 0.215055
Si Si7 0.787294 0.169856 0.433671
O O1 0.311786 0.573174 0.094091
O O2 0.297952 0.537252 0.210325
O O3 0.446120 0.647441 0.144946
O O4 0.000000 0.620046 0.250000
O O5 0.158724 0.559203 0.358285
O O6 0.104046 0.617144 0.470036
O O7 0.000000 0.500000 0.500000
O O8 0.741544 0.576734 0.511031
O O9 0.575135 0.843055 0.160173
O O10 0.751100 0.730260 0.097870
O O11 0.719829 0.809248 0.017717
O O12 0.025661 0.832672 0.016092
O O13 0.500000 0.060069 0.750000
O O14 0.599540 0.050859 0.832276
O O15 0.163113 0.057660 0.924337
O O16 0.500000 0.484505 0.250000
#
# Coordination Sequence:
#
# PCOD8140650 Si02
#       7
#     8   8   8   8   8   8   8
#     4  11  21  41  62  94 128 174 211 260 327 398
#     4  12  25  37  62 101 131 163 210 273 335 382
#     4   8  20  44  67  86 121 176 214 262 320 383
#     4  10  23  43  61  90 124 171 219 258 320 394
#     4   9  23  43  64  92 125 177 216 258 332 384
#     4  12  25  38  60  97 130 164 210 271 327 381
#     4  10  20  42  68  91 130 164 220 268 323 380
#
# _framework density 19.881606000000001
#
# number of rings (size 3 to 8) (size 9 to 14) (size 15 to 20)
#    0.857    0.857    2.857    1.286    2.000    2.286 
#    2.571    0.714    3.143    0.000    0.000    0.000 
#    0.000    0.000    0.000    0.000    0.000    0.000 
#
# Total GULP energy -346932.119254 kJ/mol
# GULP energy per Si atom -12390.432831 kJ/mol
# Density = 1.983635 g / cm^3
# Si number density = 19.881606 Si / 1000 Ang^3
#
#
#
# Elastic Constant Matrix: (Units=GPa)
#
#
# Indices 1 2 3 4 5 6 
#
# 1 151.9900 71.8464 44.3922 0.0002 -25.9383 -0.0009
# 2 71.8464 129.9713 27.7288 0.0000 -5.1278 0.0000
# 3 44.3922 27.7288 109.1620 -0.0001 -10.5063 -0.0003
# 4 0.0002 0.0000 -0.0001 18.5311 0.0000 0.4122
# 5 -25.9383 -5.1278 -10.5063 0.0000 31.2106 0.0005
# 6 -0.0009 0.0000 -0.0003 0.4122 0.0005 29.1880
#
#
#
# Elastic Compliance Matrix: (Units=1/GPa)
#
#
# Indices 1 2 3 4 5 6 
#
# 1 0.011084 -0.005311 -0.002435 0.000000 0.007520 0.000000
# 2 -0.005311 0.010693 -0.000839 0.000000 -0.002940 0.000000
# 3 -0.002435 -0.000839 0.010496 0.000000 0.001372 0.000000
# 4 0.000000 0.000000 0.000000 0.053980 0.000000 -0.000762
# 5 0.007520 -0.002940 0.001372 0.000000 0.038269 0.000000
# 6 0.000000 0.000000 0.000000 -0.000762 0.000000 0.034271
#
#
# Mechanical properties :
#
#
# Convention : Reuss Voigt Hill
#
# Bulk Modulus (GPa) = 66.21166 75.45089 70.83128
# Shear Modulus (GPa) = 27.62452 32.26302 29.94377
#
# Velocity S-wave (km/s) = 3.73158 4.03272 3.88507
# Velocity P-wave (km/s) = 7.20705 7.72763 7.47187
#
# Compressibility (1/GPa) = 0.01510308
#
# Stress axis : x y z
#
# Youngs Moduli (GPa) = 90.21643 93.51879 95.27394
#
# Poissons Ratio (x) = 0.49670 0.23197
# Poissons Ratio (y) = 0.47916 0.07996
# Poissons Ratio (z) = 0.21966 0.07849
#
# Static dielectric constant tensor:
#      x y z
#    x 3.715180 0.000000 -0.021880 
#    y 0.000000 3.715970 0.000000 
#    z -0.021880 0.000000 3.567410 
# 
# 
# High freq. dielectric constant tensor:
#      x y z
#    x 1.776430 0.000000 0.001020 
#    y 0.000000 1.761170 0.000000 
#    z 0.001020 0.000000 1.773660 
# 
# From -- ./inp_files/265462.got.cif
#   From: 2010.06.25/outbox.cif.g09.slc.cpg/sg15_133_cif.got.tgz:265462.got - 2010.06.28 07:06:18.
