data_PCOD8140738
_publ_section_title
;
Structure prediction by ZEFSAII (Michael W. Deem and Ramdas Pophale) SiO2 
 PCOD8140738
Probable space group: C 2/C
;
_chemical_formula_sum "Si O2"
_cell_formula_units_Z 48
_cell_length_a 12.384298
_cell_length_b 16.783233
_cell_length_c 11.461220
_cell_angle_alpha 90.000000
_cell_angle_beta 70.628698
_cell_angle_gamma 90.000000
_cell_volume 2247.339233
_symmetry_space_group_name_H-M "C 2/C"
_symmetry_group_IT_number 15
_symmetry_cell_setting 'monoclinic'
loop_
_space_group_symop_operation_xyz
x,y,z
-x,y,1/2-z
-x,-y,-z
x,-y,1/2+z
1/2+x,1/2+y,z
1/2-x,1/2+y,1/2-z
1/2-x,1/2-y,-z
1/2+x,1/2-y,1/2+z
loop_
_atom_site_type_symbol
_atom_site_label
_atom_site_fract_x
_atom_site_fract_y
_atom_site_fract_z
Si Si1 0.764420 0.569354 0.093643
Si Si2 0.112851 0.807772 0.272894
Si Si3 0.637422 0.302413 0.525251
Si Si4 0.475793 0.854424 0.391331
Si Si5 0.125383 0.627843 0.222781
Si Si6 0.701508 0.109688 0.943014
O O1 0.800185 0.575405 0.215787
O O2 0.740253 0.476978 0.079451
O O3 0.649498 0.621732 0.108533
O O4 0.861226 0.600416 0.970431
O O5 0.123543 0.839989 0.400764
O O6 0.105134 0.712908 0.290382
O O7 0.222934 0.829444 0.157823
O O8 0.000000 0.842255 0.250000
O O9 0.750000 0.250000 0.500000
O O10 0.532513 0.242436 0.592623
O O11 0.500000 0.877091 0.250000
O O12 0.574749 0.890116 0.436376
O O13 0.000000 0.587612 0.250000
O O14 0.195210 0.638287 0.078535
#
# Coordination Sequence:
#
# PCOD8140738 Si02
#       6
#     8   8   8   8   8   8
#     4  11  24  40  62  99 141 171 205 285 340 383
#     4  11  23  45  67  89 128 175 227 273 321 392
#     4  10  20  43  62  89 132 174 210 265 324 392
#     4  11  22  38  68  98 129 171 224 270 332 403
#     4  11  22  40  63  94 137 166 218 274 328 396
#     4  12  25  38  68 100 128 176 223 272 342 391
#
# _framework density 21.358591000000001
#
# number of rings (size 3 to 8) (size 9 to 14) (size 15 to 20)
#    0.000    1.000    5.000    4.000    4.667    0.000 
#    0.000    1.667    0.000    0.000    0.000    0.000 
#    0.000    0.000    0.000    0.000    0.000    0.000 
#
# Total GULP energy -297651.098444 kJ/mol
# GULP energy per Si atom -12402.129102 kJ/mol
# Density = 2.130998 g / cm^3
# Si number density = 21.358591 Si / 1000 Ang^3
#
#
#
# Elastic Constant Matrix: (Units=GPa)
#
#
# Indices 1 2 3 4 5 6 
#
# 1 61.2586 17.6042 14.9801 0.0000 26.4899 0.0000
# 2 17.6042 68.0116 -7.4190 0.0000 7.5522 0.0000
# 3 14.9801 -7.4190 111.0063 0.0000 29.3156 0.0000
# 4 0.0000 0.0000 0.0000 22.4369 0.0000 0.7053
# 5 26.4899 7.5522 29.3156 0.0000 37.9803 0.0000
# 6 0.0000 0.0000 0.0000 0.7053 0.0000 28.1593
#
#
#
# Elastic Compliance Matrix: (Units=1/GPa)
#
#
# Indices 1 2 3 4 5 6 
#
# 1 0.024759 -0.004419 0.000869 0.000000 -0.017061 0.000000
# 2 -0.004419 0.016287 0.002168 0.000000 -0.001830 0.000000
# 3 0.000869 0.002168 0.011694 0.000000 -0.010063 0.000000
# 4 0.000000 0.000000 0.000000 0.044605 0.000000 -0.001117
# 5 -0.017061 -0.001830 -0.010063 0.000000 0.046360 0.000000
# 6 0.000000 0.000000 0.000000 -0.001117 0.000000 0.035540
#
#
# Mechanical properties :
#
#
# Convention : Reuss Voigt Hill
#
# Bulk Modulus (GPa) = 20.00996 32.28970 26.14983
# Shear Modulus (GPa) = 25.16764 32.05603 28.61183
#
# Velocity S-wave (km/s) = 3.43642 3.87828 3.66402
# Velocity P-wave (km/s) = 5.01340 5.93342 5.49271
#
# Compressibility (1/GPa) = 0.04997512
#
# Stress axis : x y z
#
# Youngs Moduli (GPa) = 40.38894 61.39866 85.51606
#
# Poissons Ratio (x) = 0.27135 -0.07431
# Poissons Ratio (y) = 0.17850 -0.18541
# Poissons Ratio (z) = -0.03510 -0.13312
#
# Static dielectric constant tensor:
#      x y z
#    x 3.992710 0.000000 0.245280 
#    y 0.000000 3.918220 0.000000 
#    z 0.245280 0.000000 3.797250 
# 
# 
# High freq. dielectric constant tensor:
#      x y z
#    x 1.824590 0.000000 0.024520 
#    y 0.000000 1.822930 0.000000 
#    z 0.024520 0.000000 1.841980 
# 
# From -- ./inp_files/87457.got.cif
#   From: 2010.06.25/outbox.cif.g09.slc.cpg/sg15_44_cif.got.tgz:87457.got - 2010.06.28 07:06:18.
