data_PCOD8140673
_publ_section_title
;
Structure prediction by ZEFSAII (Michael W. Deem and Ramdas Pophale) SiO2 
 PCOD8140673
Probable space group: C 2/C
;
_chemical_formula_sum "Si O2"
_cell_formula_units_Z 56
_cell_length_a 9.269707
_cell_length_b 20.029348
_cell_length_c 17.180686
_cell_angle_alpha 90.000000
_cell_angle_beta 55.145675
_cell_angle_gamma 90.000000
_cell_volume 2617.633965
_symmetry_space_group_name_H-M "C 2/C"
_symmetry_group_IT_number 15
_symmetry_cell_setting 'monoclinic'
loop_
_space_group_symop_operation_xyz
x,y,z
-x,y,1/2-z
-x,-y,-z
x,-y,1/2+z
1/2+x,1/2+y,z
1/2-x,1/2+y,1/2-z
1/2-x,1/2-y,-z
1/2+x,1/2-y,1/2+z
loop_
_atom_site_type_symbol
_atom_site_label
_atom_site_fract_x
_atom_site_fract_y
_atom_site_fract_z
Si Si1 0.727752 0.672077 0.507619
Si Si2 0.518087 0.925070 0.653864
Si Si3 0.897872 0.834739 0.004932
Si Si4 0.345190 0.122110 0.630837
Si Si5 0.687572 0.955835 0.018252
Si Si6 0.539972 0.763105 0.151080
Si Si7 0.801017 0.010974 0.319144
O O1 0.750000 0.750000 0.500000
O O2 0.542416 0.654428 0.526366
O O3 0.727303 0.650008 0.597389
O O4 0.889352 0.639139 0.411544
O O5 0.500000 0.912963 0.750000
O O6 0.629946 0.992317 0.602802
O O7 0.320647 0.932208 0.681191
O O8 0.844730 0.909770 0.999680
O O9 0.977663 0.797487 0.904587
O O10 0.736228 0.792574 0.088855
O O11 0.526214 0.091079 0.541209
O O12 0.394902 0.180149 0.676297
O O13 0.235623 0.062481 0.707345
O O14 0.752162 0.998277 0.924871
O O15 0.500000 0.736146 0.250000
O O16 0.000000 0.034518 0.250000
#
# Coordination Sequence:
#
# PCOD8140673 Si02
#       7
#     8   8   8   8   8   8   8
#     4  12  23  44  68  95 137 176 221 278 340 403
#     4  11  25  45  70 100 136 175 222 284 345 397
#     4  10  24  39  69  99 130 186 227 270 342 404
#     4  10  20  42  69  91 133 180 219 273 346 387
#     4  10  21  44  68  92 134 178 216 281 336 398
#     4  10  22  44  65  96 139 181 233 278 325 399
#     4  11  23  40  69 100 133 178 227 278 335 409
#
# _framework density 21.393366
#
# number of rings (size 3 to 8) (size 9 to 14) (size 15 to 20)
#    0.000    1.429    4.286    0.857    2.000    8.571 
#    2.571    0.714    0.000    0.000    0.000    0.000 
#    0.000    0.000    0.000    0.000    0.000    0.000 
#
# Total GULP energy -347257.332379 kJ/mol
# GULP energy per Si atom -12402.047585 kJ/mol
# Density = 2.134467 g / cm^3
# Si number density = 21.393366 Si / 1000 Ang^3
#
#
#
# Elastic Constant Matrix: (Units=GPa)
#
#
# Indices 1 2 3 4 5 6 
#
# 1 157.6410 44.7129 30.2436 0.0000 -6.5836 0.0000
# 2 44.7129 112.5320 14.0610 0.0000 -6.9843 0.0000
# 3 30.2436 14.0610 78.4016 0.0000 8.8912 0.0000
# 4 0.0000 0.0000 0.0000 23.0374 0.0000 -2.0205
# 5 -6.5836 -6.9843 8.8912 0.0000 27.7124 0.0000
# 6 0.0000 0.0000 0.0000 -2.0205 0.0000 31.8858
#
#
#
# Elastic Compliance Matrix: (Units=1/GPa)
#
#
# Indices 1 2 3 4 5 6 
#
# 1 0.007687 -0.002585 -0.002734 0.000000 0.002052 0.000000
# 2 -0.002585 0.010193 -0.001092 0.000000 0.002305 0.000000
# 3 -0.002734 -0.001092 0.014643 0.000000 -0.005623 0.000000
# 4 0.000000 0.000000 0.000000 0.043650 0.000000 0.002766
# 5 0.002052 0.002305 -0.005623 0.000000 0.038957 0.000000
# 6 0.000000 0.000000 0.000000 0.002766 0.000000 0.031537
#
#
# Mechanical properties :
#
#
# Convention : Reuss Voigt Hill
#
# Bulk Modulus (GPa) = 50.76240 58.51219 54.63730
# Shear Modulus (GPa) = 30.10982 33.83092 31.97037
#
# Velocity S-wave (km/s) = 3.75565 3.98096 3.86995
# Velocity P-wave (km/s) = 6.52581 6.96712 6.75007
#
# Compressibility (1/GPa) = 0.01969962
#
# Stress axis : x y z
#
# Youngs Moduli (GPa) = 130.08786 98.10506 68.29111
#
# Poissons Ratio (x) = 0.25364 0.18673
# Poissons Ratio (y) = 0.33632 0.07459
# Poissons Ratio (z) = 0.35571 0.10715
#
# Static dielectric constant tensor:
#      x y z
#    x 3.244860 0.000000 -0.268910 
#    y 0.000000 3.858890 0.000000 
#    z -0.268910 0.000000 3.489610 
# 
# 
# High freq. dielectric constant tensor:
#      x y z
#    x 1.847330 0.000000 0.001860 
#    y 0.000000 1.844430 0.000000 
#    z 0.001860 0.000000 1.817990 
# 
# From -- ./inp_files/192036.got.cif
#   From: 2010.06.25/outbox.cif.g09.slc.cpg/sg15_97_cif.got.tgz:192036.got - 2010.06.28 07:06:18.
