data_PCOD8140293
_publ_section_title
;
Structure prediction by ZEFSAII (Michael W. Deem and Ramdas Pophale) SiO2 
 PCOD8140293
Probable space group: C 2/C
;
_chemical_formula_sum "Si O2"
_cell_formula_units_Z 60
_cell_length_a 10.542438
_cell_length_b 15.744036
_cell_length_c 17.976103
_cell_angle_alpha 90.000000
_cell_angle_beta 100.971685
_cell_angle_gamma 90.000000
_cell_volume 2929.145316
_symmetry_space_group_name_H-M "C 2/C"
_symmetry_group_IT_number 15
_symmetry_cell_setting 'monoclinic'
loop_
_space_group_symop_operation_xyz
x,y,z
-x,y,1/2-z
-x,-y,-z
x,-y,1/2+z
1/2+x,1/2+y,z
1/2-x,1/2+y,1/2-z
1/2-x,1/2-y,-z
1/2+x,1/2-y,1/2+z
loop_
_atom_site_type_symbol
_atom_site_label
_atom_site_fract_x
_atom_site_fract_y
_atom_site_fract_z
Si Si1 0.714710 0.031221 0.857102
Si Si2 0.469762 0.051881 0.923411
Si Si3 0.461014 0.242197 0.540696
Si Si4 0.000000 0.070824 0.250000
Si Si5 0.716713 0.282456 0.108146
Si Si6 0.349813 0.260091 0.232477
Si Si7 0.723553 0.550919 0.803806
Si Si8 0.844583 0.139911 0.364939
O O1 0.569630 0.024701 0.870650
O O2 0.783026 0.115236 0.897003
O O3 0.708077 0.033631 0.767364
O O4 0.799468 0.950596 0.892888
O O5 0.475354 0.151158 0.940995
O O6 0.326175 0.030529 0.879631
O O7 0.500000 0.000000 0.000000
O O8 0.407220 0.249718 0.451130
O O9 0.346626 0.256986 0.587650
O O10 0.572164 0.312363 0.563296
O O11 0.896996 0.010899 0.196527
O O12 0.933089 0.130882 0.302204
O O13 0.708232 0.250449 0.191394
O O14 0.500000 0.238182 0.250000
O O15 0.326669 0.353172 0.196726
O O16 0.281668 0.193288 0.170844
#
# Coordination Sequence:
#
# PCOD8140293 Si02
#       8
#     8   8   8   4   8   8   8   8
#     4   9  22  39  60  92 122 164 206 253 310 363
#     4  11  23  40  63  89 124 166 208 253 315 371
#     4  10  21  40  62  89 121 163 208 252 309 371
#     4  10  22  36  64  94 118 162 212 254 306 362
#     4   9  21  40  62  87 124 162 205 252 308 370
#     4  11  22  39  63  90 124 163 202 256 312 361
#     4  10  20  41  63  87 125 162 210 252 305 373
#     4  11  22  38  62  94 122 156 210 255 305 368
#
# _framework density 20.483791
#
# number of rings (size 3 to 8) (size 9 to 14) (size 15 to 20)
#    0.000    1.867    2.000    1.200    0.000    9.067 
#    2.400    1.333    0.000    0.000    0.000    0.000 
#    0.000    0.000    0.000    0.000    0.000    0.000 
#
# Total GULP energy -372142.873446 kJ/mol
# GULP energy per Si atom -12404.762448 kJ/mol
# Density = 2.043717 g / cm^3
# Si number density = 20.483791 Si / 1000 Ang^3
#
#
#
# Elastic Constant Matrix: (Units=GPa)
#
#
# Indices 1 2 3 4 5 6 
#
# 1 88.1967 26.3155 25.5731 0.0000 31.7459 0.0000
# 2 26.3155 72.7864 15.3863 0.0000 16.8688 0.0000
# 3 25.5731 15.3863 66.7795 0.0000 32.3683 0.0000
# 4 0.0000 0.0000 0.0000 28.2062 0.0000 5.0193
# 5 31.7459 16.8688 32.3683 0.0000 36.4808 0.0000
# 6 0.0000 0.0000 0.0000 5.0193 0.0000 34.7126
#
#
#
# Elastic Compliance Matrix: (Units=1/GPa)
#
#
# Indices 1 2 3 4 5 6 
#
# 1 0.017153 -0.003079 0.001203 0.000000 -0.014570 0.000000
# 2 -0.003079 0.015942 -0.000385 0.000000 -0.004350 0.000000
# 3 0.001203 -0.000385 0.026360 0.000000 -0.024257 0.000000
# 4 0.000000 0.000000 0.000000 0.036390 0.000000 -0.005262
# 5 -0.014570 -0.004350 -0.024257 0.000000 0.063625 0.000000
# 6 0.000000 0.000000 0.000000 -0.005262 0.000000 0.029569
#
#
# Mechanical properties :
#
#
# Convention : Reuss Voigt Hill
#
# Bulk Modulus (GPa) = 18.20438 40.25693 29.23066
# Shear Modulus (GPa) = 23.59921 30.57909 27.08915
#
# Velocity S-wave (km/s) = 3.39793 3.86792 3.64052
# Velocity P-wave (km/s) = 4.92961 6.29631 5.65441
#
# Compressibility (1/GPa) = 0.05493182
#
# Stress axis : x y z
#
# Youngs Moduli (GPa) = 58.30045 62.72867 37.93556
#
# Poissons Ratio (x) = 0.19314 -0.04564
# Poissons Ratio (y) = 0.17951 0.01462
# Poissons Ratio (z) = -0.07013 0.02418
#
# Static dielectric constant tensor:
#      x y z
#    x 3.718920 0.000000 0.048030 
#    y 0.000000 3.820670 0.000000 
#    z 0.048030 0.000000 3.519110 
# 
# 
# High freq. dielectric constant tensor:
#      x y z
#    x 1.804110 0.000000 0.009110 
#    y 0.000000 1.809430 0.000000 
#    z 0.009110 0.000000 1.787110 
# 
# From -- ./inp_files/198395.got.cif
#   From: 2010.06.25/outbox.cif.g09.slc.cpg/sg15_100_cif.got.tgz:198395.got - 2010.06.28 07:06:18.
