data_PCOD8140797
_publ_section_title
;
Structure prediction by ZEFSAII (Michael W. Deem and Ramdas Pophale) SiO2 
 PCOD8140797
Probable space group: C 2/C
;
_chemical_formula_sum "Si O2"
_cell_formula_units_Z 48
_cell_length_a 13.624367
_cell_length_b 11.511741
_cell_length_c 23.532539
_cell_angle_alpha 90.000000
_cell_angle_beta 146.669086
_cell_angle_gamma 90.000000
_cell_volume 2028.023766
_symmetry_space_group_name_H-M "C 2/C"
_symmetry_group_IT_number 15
_symmetry_cell_setting 'monoclinic'
loop_
_space_group_symop_operation_xyz
x,y,z
-x,y,1/2-z
-x,-y,-z
x,-y,1/2+z
1/2+x,1/2+y,z
1/2-x,1/2+y,1/2-z
1/2-x,1/2-y,-z
1/2+x,1/2-y,1/2+z
loop_
_atom_site_type_symbol
_atom_site_label
_atom_site_fract_x
_atom_site_fract_y
_atom_site_fract_z
Si Si1 0.710816 0.125405 0.937668
Si Si2 0.263057 0.101526 0.884555
Si Si3 0.452335 0.920638 0.786175
Si Si4 0.493691 0.319764 0.339734
Si Si5 0.551238 0.500581 0.590243
Si Si6 0.649216 0.151526 0.034968
O O1 0.613116 0.151870 0.949524
O O2 0.598283 0.022340 0.855738
O O3 0.726107 0.232125 0.898827
O O4 0.913602 0.088849 0.052702
O O5 0.153528 0.126301 0.774256
O O6 0.456581 0.160124 0.971282
O O7 0.186206 0.158499 0.904604
O O8 0.259633 0.962361 0.894145
O O9 0.500000 0.855491 0.750000
O O10 0.473890 0.818294 0.842625
O O11 0.254203 0.966352 0.697446
O O12 0.477256 0.375075 0.394006
O O13 0.500000 0.500000 0.500000
#
# Coordination Sequence:
#
# PCOD8140797 Si02
#       6
#     8   8   8   8   8   8
#     4  11  24  44  69 105 149 189 242 303 369 433
#     4  10  20  43  74 101 139 191 244 298 367 436
#     4  12  25  47  71 107 148 190 246 303 371 440
#     4  11  24  46  71 102 142 190 245 301 362 447
#     4  12  26  48  70 102 143 192 242 300 365 433
#     4  10  22  43  70 105 144 187 243 308 365 439
#
# _framework density 23.668361000000001
#
# number of rings (size 3 to 8) (size 9 to 14) (size 15 to 20)
#    0.000    1.000    5.000    2.000    0.000    2.000 
#   15.000    0.000    0.000    0.000    0.000    0.000 
#    0.000    0.000    0.000    0.000    0.000    0.000 
#
# Total GULP energy -297414.067216 kJ/mol
# GULP energy per Si atom -12392.252801 kJ/mol
# Density = 2.361449 g / cm^3
# Si number density = 23.668361 Si / 1000 Ang^3
#
#
#
# Elastic Constant Matrix: (Units=GPa)
#
#
# Indices 1 2 3 4 5 6 
#
# 1 136.0901 64.4168 50.0067 0.0000 16.4178 0.0000
# 2 64.4168 195.5948 65.0642 0.0000 13.3000 0.0000
# 3 50.0067 65.0642 80.8338 -0.0001 24.1676 0.0000
# 4 0.0000 0.0000 -0.0001 32.2218 -0.0001 -3.9437
# 5 16.4178 13.3000 24.1676 -0.0001 43.6486 0.0000
# 6 0.0000 0.0000 0.0000 -3.9437 0.0000 32.7115
#
#
#
# Elastic Compliance Matrix: (Units=1/GPa)
#
#
# Indices 1 2 3 4 5 6 
#
# 1 0.009910 -0.001702 -0.004556 0.000000 -0.000687 0.000000
# 2 -0.001702 0.007325 -0.005234 0.000000 0.001306 0.000000
# 3 -0.004556 -0.005234 0.022066 0.000000 -0.008909 0.000000
# 4 0.000000 0.000000 0.000000 0.031500 0.000000 0.003798
# 5 -0.000687 0.001306 -0.008909 0.000000 0.027703 0.000000
# 6 0.000000 0.000000 0.000000 0.003798 0.000000 0.031028
#
#
# Mechanical properties :
#
#
# Convention : Reuss Voigt Hill
#
# Bulk Modulus (GPa) = 61.27971 85.72157 73.50064
# Shear Modulus (GPa) = 31.65434 37.25177 34.45305
#
# Velocity S-wave (km/s) = 3.66103 3.97155 3.81945
# Velocity P-wave (km/s) = 6.61952 7.57148 7.11145
#
# Compressibility (1/GPa) = 0.01631862
#
# Stress axis : x y z
#
# Youngs Moduli (GPa) = 100.90319 136.51310 45.31824
#
# Poissons Ratio (x) = 0.23230 0.20647
# Poissons Ratio (y) = 0.17170 0.23720
# Poissons Ratio (z) = 0.45972 0.71451
#
# Static dielectric constant tensor:
#      x y z
#    x 4.835930 0.000000 0.992760 
#    y 0.000000 4.593810 0.000000 
#    z 0.992760 0.000000 5.990850 
# 
# 
# High freq. dielectric constant tensor:
#      x y z
#    x 1.954000 0.000000 0.020810 
#    y 0.000000 1.950950 0.000000 
#    z 0.020810 0.000000 1.917250 
# 
# From -- ./inp_files/296204.got.cif
#   From: 2010.06.25/outbox.cif.g09.slc.cpg/sg15_149_cif.got.tgz:296204.got - 2010.06.28 07:06:18.
