data_PCOD8140730
_publ_section_title
;
Structure prediction by ZEFSAII (Michael W. Deem and Ramdas Pophale) SiO2 
 PCOD8140730
Probable space group: C 2/C
;
_chemical_formula_sum "Si O2"
_cell_formula_units_Z 60
_cell_length_a 23.711718
_cell_length_b 8.628250
_cell_length_c 21.900782
_cell_angle_alpha 90.000000
_cell_angle_beta 37.400422
_cell_angle_gamma 90.000000
_cell_volume 2721.491987
_symmetry_space_group_name_H-M "C 2/C"
_symmetry_group_IT_number 15
_symmetry_cell_setting 'monoclinic'
loop_
_space_group_symop_operation_xyz
x,y,z
-x,y,1/2-z
-x,-y,-z
x,-y,1/2+z
1/2+x,1/2+y,z
1/2-x,1/2+y,1/2-z
1/2-x,1/2-y,-z
1/2+x,1/2-y,1/2+z
loop_
_atom_site_type_symbol
_atom_site_label
_atom_site_fract_x
_atom_site_fract_y
_atom_site_fract_z
Si Si1 0.317461 0.866276 0.868209
Si Si2 0.986959 0.875027 0.433910
Si Si3 0.000000 0.115139 0.250000
Si Si4 0.984224 0.773057 0.960975
Si Si5 0.786010 0.660288 0.154214
Si Si6 0.116823 0.317003 0.240865
Si Si7 0.700919 0.330321 0.231610
Si Si8 0.878163 0.861400 0.413812
O O1 0.277252 0.765205 0.847652
O O2 0.384967 0.765484 0.853875
O O3 0.375062 0.008805 0.791233
O O4 0.227965 0.916306 0.984759
O O5 0.970577 0.778635 0.510177
O O6 0.094135 0.880481 0.323136
O O7 0.925205 0.792404 0.434849
O O8 0.954941 0.052870 0.468138
O O9 0.932977 0.218688 0.267577
O O10 0.935910 0.013418 0.348415
O O11 0.057324 0.688130 0.854278
O O12 0.890555 0.673698 0.040212
O O13 0.718681 0.748320 0.165068
O O14 0.764278 0.480487 0.176503
O O15 0.772960 0.729263 0.232580
#
# Coordination Sequence:
#
# PCOD8140730 Si02
#       8
#     8   8   4   8   8   8   8   8
#     4  11  27  44  70 102 142 182 243 284 356 411
#     4  10  20  42  76  98 142 184 236 277 362 424
#     4  12  26  46  74  98 138 190 234 280 362 412
#     4  10  22  41  72 113 133 184 231 295 353 419
#     4  11  23  43  72 101 147 177 238 281 361 411
#     4  12  25  46  71 108 139 181 236 301 341 425
#     4  11  23  45  68 104 137 191 224 293 345 429
#     4  11  23  47  69 100 139 199 228 285 349 432
#
# _framework density 22.046728999999999
#
# number of rings (size 3 to 8) (size 9 to 14) (size 15 to 20)
#    0.000    1.067    2.667    3.200    1.867    2.133 
#    9.600    2.000    0.000    0.000    0.000    0.000 
#    0.000    0.000    0.000    0.000    0.000    0.000 
#
# Total GULP energy -372172.075417 kJ/mol
# GULP energy per Si atom -12405.735847 kJ/mol
# Density = 2.199655 g / cm^3
# Si number density = 22.046729 Si / 1000 Ang^3
#
#
#
# Elastic Constant Matrix: (Units=GPa)
#
#
# Indices 1 2 3 4 5 6 
#
# 1 162.1258 69.7107 38.3777 -0.0022 10.7937 0.0032
# 2 69.7107 120.1572 45.6895 -0.0028 3.3191 0.0033
# 3 38.3777 45.6895 99.8717 -0.0031 6.9548 0.0036
# 4 -0.0022 -0.0028 -0.0031 37.8011 0.0012 -5.0592
# 5 10.7937 3.3191 6.9548 0.0012 27.0985 -0.0003
# 6 0.0032 0.0033 0.0036 -5.0592 -0.0003 44.0933
#
#
#
# Elastic Compliance Matrix: (Units=1/GPa)
#
#
# Indices 1 2 3 4 5 6 
#
# 1 0.008508 -0.004467 -0.001047 0.000000 -0.002573 0.000000
# 2 -0.004467 0.012420 -0.004056 0.000000 0.001299 0.000000
# 3 -0.001047 -0.004056 0.012429 0.000001 -0.002276 -0.000001
# 4 0.000000 0.000000 0.000001 0.026867 -0.000001 0.003083
# 5 -0.002573 0.001299 -0.002276 -0.000001 0.038352 0.000000
# 6 0.000000 0.000000 -0.000001 0.003083 0.000000 0.023033
#
#
# Mechanical properties :
#
#
# Convention : Reuss Voigt Hill
#
# Bulk Modulus (GPa) = 70.33231 76.63447 73.48339
# Shear Modulus (GPa) = 34.36718 37.02371 35.69545
#
# Velocity S-wave (km/s) = 3.95249 4.10241 4.02815
# Velocity P-wave (km/s) = 7.26638 7.56803 7.41874
#
# Compressibility (1/GPa) = 0.01421822
#
# Stress axis : x y z
#
# Youngs Moduli (GPa) = 117.54007 80.51309 80.45625
#
# Poissons Ratio (x) = 0.35964 0.08421
# Poissons Ratio (y) = 0.52503 0.32634
# Poissons Ratio (z) = 0.12302 0.32657
#
# Static dielectric constant tensor:
#      x y z
#    x 4.243210 0.000000 0.139670 
#    y 0.000000 3.816230 0.000010 
#    z 0.139670 0.000010 4.044000 
# 
# 
# High freq. dielectric constant tensor:
#      x y z
#    x 1.885840 0.000000 0.003230 
#    y 0.000000 1.856070 0.000000 
#    z 0.003230 0.000000 1.877070 
# 
# From -- ./inp_files/255154.got.cif
#   From: 2010.06.25/outbox.cif.g09.slc.cpg/sg15_128_cif.got.tgz:255154.got - 2010.06.28 07:06:18.
