data_PCOD8140297
_publ_section_title
;
Structure prediction by ZEFSAII (Michael W. Deem and Ramdas Pophale) SiO2 
 PCOD8140297
Probable space group: C 2/C
;
_chemical_formula_sum "Si O2"
_cell_formula_units_Z 60
_cell_length_a 8.165070
_cell_length_b 25.615766
_cell_length_c 13.721276
_cell_angle_alpha 90.000000
_cell_angle_beta 97.822846
_cell_angle_gamma 90.000000
_cell_volume 2843.158934
_symmetry_space_group_name_H-M "C 2/C"
_symmetry_group_IT_number 15
_symmetry_cell_setting 'monoclinic'
loop_
_space_group_symop_operation_xyz
x,y,z
-x,y,1/2-z
-x,-y,-z
x,-y,1/2+z
1/2+x,1/2+y,z
1/2-x,1/2+y,1/2-z
1/2-x,1/2-y,-z
1/2+x,1/2-y,1/2+z
loop_
_atom_site_type_symbol
_atom_site_label
_atom_site_fract_x
_atom_site_fract_y
_atom_site_fract_z
Si Si1 0.189054 0.701363 0.742539
Si Si2 0.109314 0.772508 0.054368
Si Si3 0.331058 0.917439 0.290331
Si Si4 0.419412 0.638969 0.427759
Si Si5 0.500000 0.582192 0.250000
Si Si6 0.854935 0.995676 0.348283
Si Si7 0.184117 0.958543 0.462447
Si Si8 0.125731 0.708044 0.345289
O O1 0.307103 0.701004 0.845483
O O2 0.200103 0.643807 0.697259
O O3 0.256915 0.743121 0.671786
O O4 0.000000 0.716389 0.750000
O O5 0.983073 0.725962 0.071207
O O6 0.250000 0.750000 0.000000
O O7 0.014091 0.814675 0.985233
O O8 0.500000 0.930029 0.250000
O O9 0.194518 0.942174 0.207702
O O10 0.328588 0.944207 0.397181
O O11 0.532532 0.619675 0.345612
O O12 0.401340 0.593753 0.505147
O O13 0.237825 0.658019 0.378189
O O14 0.346158 0.544676 0.271486
O O15 0.046805 0.992138 0.394728
O O16 0.748342 0.008601 0.438083
O O17 0.000000 0.691653 0.250000
#
# Coordination Sequence:
#
# PCOD8140297 Si02
#       8
#     8   8   8   8   4   8   8   8
#     4  10  22  40  61  90 126 172 208 257 318 378
#     4  11  23  37  61  92 125 169 212 262 309 370
#     4  11  22  37  63  90 125 158 204 260 320 369
#     4  11  23  38  65  94 125 167 214 262 313 387
#     4  10  22  38  66  90 120 172 208 260 326 368
#     4  10  20  41  63  89 120 158 211 264 301 388
#     4  10  21  38  65  87 119 159 211 254 315 368
#     4  10  23  40  61  88 132 169 208 258 319 374
#
# _framework density 21.103286000000001
#
# number of rings (size 3 to 8) (size 9 to 14) (size 15 to 20)
#    0.000    1.600    1.333    2.800    4.667    4.800 
#    0.000    2.667    2.933    0.000    0.000    0.000 
#    0.000    0.000    0.000    0.000    0.000    0.000 
#
# Total GULP energy -371880.040597 kJ/mol
# GULP energy per Si atom -12396.001353 kJ/mol
# Density = 2.105525 g / cm^3
# Si number density = 21.103286 Si / 1000 Ang^3
#
#
#
# Elastic Constant Matrix: (Units=GPa)
#
#
# Indices 1 2 3 4 5 6 
#
# 1 81.5200 23.5206 37.2894 0.0000 -14.4015 0.0000
# 2 23.5206 65.8491 26.9807 0.0000 -2.9073 0.0000
# 3 37.2894 26.9807 94.5009 0.0000 -25.3623 0.0000
# 4 0.0000 0.0000 0.0000 19.9079 0.0000 0.2629
# 5 -14.4015 -2.9073 -25.3623 0.0000 42.9542 0.0000
# 6 0.0000 0.0000 0.0000 0.2629 0.0000 19.8139
#
#
#
# Elastic Compliance Matrix: (Units=1/GPa)
#
#
# Indices 1 2 3 4 5 6 
#
# 1 0.015834 -0.003682 -0.004562 0.000000 0.002366 0.000000
# 2 -0.003682 0.018209 -0.004452 0.000000 -0.002631 0.000000
# 3 -0.004562 -0.004452 0.015640 0.000000 0.007404 0.000000
# 4 0.000000 0.000000 0.000000 0.050240 0.000000 -0.000667
# 5 0.002366 -0.002631 0.007404 0.000000 0.028268 0.000000
# 6 0.000000 0.000000 0.000000 -0.000667 0.000000 0.050478
#
#
# Mechanical properties :
#
#
# Convention : Reuss Voigt Hill
#
# Bulk Modulus (GPa) = 41.16621 46.38349 43.77485
# Shear Modulus (GPa) = 23.56728 26.80716 25.18722
#
# Velocity S-wave (km/s) = 3.34542 3.56797 3.45849
# Velocity P-wave (km/s) = 5.87127 6.24507 6.06105
#
# Compressibility (1/GPa) = 0.02429177
#
# Stress axis : x y z
#
# Youngs Moduli (GPa) = 63.15548 54.91654 63.93837
#
# Poissons Ratio (x) = 0.20221 0.29167
# Poissons Ratio (y) = 0.23255 0.28465
# Poissons Ratio (z) = 0.28809 0.24449
#
# Static dielectric constant tensor:
#      x y z
#    x 3.776390 0.000000 -0.293500 
#    y 0.000000 3.859700 0.000000 
#    z -0.293500 0.000000 4.201640 
# 
# 
# High freq. dielectric constant tensor:
#      x y z
#    x 1.804010 0.000000 -0.020270 
#    y 0.000000 1.832290 0.000000 
#    z -0.020270 0.000000 1.842690 
# 
# From -- ./inp_files/137418.got.cif
#   From: 2010.06.25/outbox.cif.g09.slc.cpg/sg15_69_cif.got.tgz:137418.got - 2010.06.28 07:06:18.
