data_PCOD8140211
_publ_section_title
;
Structure prediction by ZEFSAII (Michael W. Deem and Ramdas Pophale) SiO2 
 PCOD8140211
Probable space group: C 2/C
;
_chemical_formula_sum "Si O2"
_cell_formula_units_Z 52
_cell_length_a 5.363972
_cell_length_b 18.525789
_cell_length_c 27.404215
_cell_angle_alpha 90.000000
_cell_angle_beta 118.006113
_cell_angle_gamma 90.000000
_cell_volume 2404.312245
_symmetry_space_group_name_H-M "C 2/C"
_symmetry_group_IT_number 15
_symmetry_cell_setting 'monoclinic'
loop_
_space_group_symop_operation_xyz
x,y,z
-x,y,1/2-z
-x,-y,-z
x,-y,1/2+z
1/2+x,1/2+y,z
1/2-x,1/2+y,1/2-z
1/2-x,1/2-y,-z
1/2+x,1/2-y,1/2+z
loop_
_atom_site_type_symbol
_atom_site_label
_atom_site_fract_x
_atom_site_fract_y
_atom_site_fract_z
Si Si1 0.482094 0.524191 0.053782
Si Si2 0.247453 0.208011 0.194535
Si Si3 0.000000 0.104517 0.250000
Si Si4 0.998893 0.597533 0.143460
Si Si5 0.365524 0.845061 0.947821
Si Si6 0.792973 0.124036 0.562788
Si Si7 0.873435 0.302359 0.099165
O O1 0.785563 0.534462 0.107778
O O2 0.323433 0.600153 0.038244
O O3 0.308657 0.463143 0.067339
O O4 0.500000 0.500000 0.000000
O O5 0.500000 0.240626 0.250000
O O6 0.076783 0.152490 0.211198
O O7 0.347242 0.165023 0.155593
O O8 0.054120 0.275116 0.161784
O O9 0.271065 0.061394 0.297211
O O10 0.144397 0.631799 0.109296
O O11 0.239108 0.765339 0.942600
O O12 0.679326 0.849221 0.999425
O O13 0.577798 0.149025 0.584809
O O14 0.110156 0.153903 0.597236
#
# Coordination Sequence:
#
# PCOD8140211 Si02
#       7
#     8   8   4   8   8   8   8
#     4  12  25  43  67 100 146 193 233 278 352 433
#     4  10  22  40  71 100 128 176 239 302 345 412
#     4  10  20  40  70 106 124 168 246 312 340 394
#     4  11  21  40  71 101 135 172 250 295 346 402
#     4  12  24  43  69  99 140 189 240 283 338 422
#     4  12  28  41  66 104 153 186 221 283 359 426
#     4  12  25  45  67 105 140 183 234 292 351 414
#
# _framework density 21.627804999999999
#
# number of rings (size 3 to 8) (size 9 to 14) (size 15 to 20)
#    0.000    0.615    4.615    3.231    4.308    0.000 
#    0.000    0.000    1.692    1.846    0.000    0.000 
#    0.000    0.000    0.000    0.000    0.000    0.000 
#
# Total GULP energy -322348.186883 kJ/mol
# GULP energy per Si atom -12398.007188 kJ/mol
# Density = 2.157858 g / cm^3
# Si number density = 21.627805 Si / 1000 Ang^3
#
#
#
# Elastic Constant Matrix: (Units=GPa)
#
#
# Indices 1 2 3 4 5 6 
#
# 1 100.5324 13.1887 25.5182 0.0000 6.0186 0.0000
# 2 13.1887 56.2160 -2.3094 0.0000 12.2394 0.0000
# 3 25.5182 -2.3094 136.8997 0.0000 27.8103 0.0000
# 4 0.0000 0.0000 0.0000 27.3092 0.0000 8.1476
# 5 6.0186 12.2394 27.8103 0.0000 47.0652 0.0000
# 6 0.0000 0.0000 0.0000 8.1476 0.0000 46.7405
#
#
#
# Elastic Compliance Matrix: (Units=1/GPa)
#
#
# Indices 1 2 3 4 5 6 
#
# 1 0.010829 -0.002768 -0.002193 0.000000 0.000631 0.000000
# 2 -0.002768 0.019836 0.002076 0.000000 -0.006031 0.000000
# 3 -0.002193 0.002076 0.008865 0.000000 -0.005498 0.000000
# 4 0.000000 0.000000 0.000000 0.038626 0.000000 -0.006733
# 5 0.000631 -0.006031 -0.005498 0.000000 0.025983 0.000000
# 6 0.000000 0.000000 0.000000 -0.006733 0.000000 0.022568
#
#
# Mechanical properties :
#
#
# Convention : Reuss Voigt Hill
#
# Bulk Modulus (GPa) = 29.62156 40.71589 35.16872
# Shear Modulus (GPa) = 34.78653 41.37303 38.07978
#
# Velocity S-wave (km/s) = 4.01486 4.37848 4.20061
# Velocity P-wave (km/s) = 5.93447 6.66544 6.31054
#
# Compressibility (1/GPa) = 0.03375920
#
# Stress axis : x y z
#
# Youngs Moduli (GPa) = 92.34317 50.41260 112.79888
#
# Poissons Ratio (x) = 0.13955 0.24742
# Poissons Ratio (y) = 0.25562 -0.23415
# Poissons Ratio (z) = 0.20255 -0.10465
#
# Static dielectric constant tensor:
#      x y z
#    x 4.015970 0.000000 0.361240 
#    y 0.000000 3.822130 0.000000 
#    z 0.361240 0.000000 4.221420 
# 
# 
# High freq. dielectric constant tensor:
#      x y z
#    x 1.867360 0.000000 0.015540 
#    y 0.000000 1.817620 0.000000 
#    z 0.015540 0.000000 1.861900 
# 
# From -- ./inp_files/286154.got.cif
#   From: 2010.06.25/outbox.cif.g09.slc.cpg/sg15_144_cif.got.tgz:286154.got - 2010.06.28 07:06:18.
