data_PCOD8140831
_publ_section_title
;
Structure prediction by ZEFSAII (Michael W. Deem and Ramdas Pophale) SiO2 
 PCOD8140831
Probable space group: C 2/C
;
_chemical_formula_sum "Si O2"
_cell_formula_units_Z 40
_cell_length_a 21.624690
_cell_length_b 8.867340
_cell_length_c 9.834241
_cell_angle_alpha 90.000000
_cell_angle_beta 62.873913
_cell_angle_gamma 90.000000
_cell_volume 1678.327426
_symmetry_space_group_name_H-M "C 2/C"
_symmetry_group_IT_number 15
_symmetry_cell_setting 'monoclinic'
loop_
_space_group_symop_operation_xyz
x,y,z
-x,y,1/2-z
-x,-y,-z
x,-y,1/2+z
1/2+x,1/2+y,z
1/2-x,1/2+y,1/2-z
1/2-x,1/2-y,-z
1/2+x,1/2-y,1/2+z
loop_
_atom_site_type_symbol
_atom_site_label
_atom_site_fract_x
_atom_site_fract_y
_atom_site_fract_z
Si Si1 0.000000 0.499739 0.250000
Si Si2 0.297852 0.145083 0.201965
Si Si3 0.344519 0.799199 0.155032
Si Si4 0.596733 0.244005 0.197184
Si Si5 0.402910 0.244366 0.889965
Si Si6 0.500000 0.499864 0.250000
O O1 0.049007 0.604409 0.294940
O O2 0.049429 0.395056 0.107278
O O3 0.216190 0.174042 0.284363
O O4 0.330064 0.230186 0.300612
O O5 0.311429 0.966379 0.188318
O O6 0.329602 0.230168 0.038710
O O7 0.391930 0.767793 0.238776
O O8 0.392038 0.768110 0.976245
O O9 0.553084 0.393618 0.282282
O O10 0.446429 0.393992 0.888117
#
# Coordination Sequence:
#
# PCOD8140831 Si02
#       6
#     4   8   8   8   8   4
#     4  10  20  44  66  96 124 172 216 274 324 400
#     4  12  26  45  70  98 134 179 225 276 329 394
#     4  12  26  45  70  98 134 179 225 276 329 394
#     4  11  25  44  71  98 134 174 224 275 336 394
#     4  11  25  44  71  98 134 174 224 275 336 394
#     4  10  28  44  70 104 136 176 216 282 332 400
#
# _framework density 23.833252000000002
#
# number of rings (size 3 to 8) (size 9 to 14) (size 15 to 20)
#    0.000    0.800    4.000    1.200    5.600    9.600 
#    0.000    0.000    0.000    0.000    0.000    0.000 
#    0.000    0.000    0.000    0.000    0.000    0.000 
#
# Total GULP energy -247847.219111 kJ/mol
# GULP energy per Si atom -12392.360956 kJ/mol
# Density = 2.377901 g / cm^3
# Si number density = 23.833252 Si / 1000 Ang^3
#
#
#
# Elastic Constant Matrix: (Units=GPa)
#
#
# Indices 1 2 3 4 5 6 
#
# 1 79.7621 36.8340 70.2937 0.0000 -19.2367 0.0000
# 2 36.8340 159.2292 21.1751 0.0000 -12.7940 0.0000
# 3 70.2937 21.1751 86.7105 0.0000 28.3985 0.0000
# 4 0.0000 0.0000 0.0000 20.1561 0.0000 -14.0319
# 5 -19.2367 -12.7940 28.3985 0.0000 34.2350 0.0000
# 6 0.0000 0.0000 0.0000 -14.0319 0.0000 36.5387
#
#
#
# Elastic Compliance Matrix: (Units=1/GPa)
#
#
# Indices 1 2 3 4 5 6 
#
# 1 -0.019916 -0.001981 0.028196 0.000000 -0.035320 0.000000
# 2 -0.001981 0.007026 -0.000831 0.000000 0.002202 0.000000
# 3 0.028196 -0.000831 -0.022256 0.000000 0.033994 0.000000
# 4 0.000000 0.000000 0.000000 0.067716 0.000000 0.026005
# 5 -0.035320 0.002202 0.033994 0.000000 -0.018012 0.000000
# 6 0.000000 0.000000 0.000000 0.026005 0.000000 0.037355
#
#
# Mechanical properties :
#
#
# Convention : Reuss Voigt Hill
#
# Bulk Modulus (GPa) = 64.00769 64.70084 64.35426
# Shear Modulus (GPa) = 787.00863 31.34590 409.17727
#
# Velocity S-wave (km/s) = 18.19152 3.63053 13.11701
# Velocity P-wave (km/s) = 21.63693 6.69183 16.01464
#
# Compressibility (1/GPa) = 0.01562312
#
# Stress axis : x y z
#
# Youngs Moduli (GPa) = -50.21202 142.32918 -44.93252
#
# Poissons Ratio (x) = 0.28190 1.26693
# Poissons Ratio (y) = -0.09945 -0.03736
# Poissons Ratio (z) = 1.41579 0.11834
#
# Static dielectric constant tensor:
#      x y z
#    x 4.197960 0.000000 -0.162160 
#    y 0.000000 4.573410 0.000000 
#    z -0.162160 0.000000 4.010740 
# 
# 
# High freq. dielectric constant tensor:
#      x y z
#    x 1.949040 0.000000 -0.022000 
#    y 0.000000 1.961090 0.000000 
#    z -0.022000 0.000000 1.923300 
# 
# From -- ./inp_files/116195.got.cif
#   From: 2010.06.25/outbox.cif.g09.slc.cpg/sg15_59_cif.got.tgz:116195.got - 2010.06.28 07:06:18.
