data_PCOD8140014
_publ_section_title
;
Structure prediction by ZEFSAII (Michael W. Deem and Ramdas Pophale) SiO2 
 PCOD8140014
Probable space group: C 2/C
;
_chemical_formula_sum "Si O2"
_cell_formula_units_Z 48
_cell_length_a 21.470160
_cell_length_b 18.102401
_cell_length_c 9.851354
_cell_angle_alpha 90.000000
_cell_angle_beta 140.891837
_cell_angle_gamma 90.000000
_cell_volume 2415.181006
_symmetry_space_group_name_H-M "C 2/C"
_symmetry_group_IT_number 15
_symmetry_cell_setting 'monoclinic'
loop_
_space_group_symop_operation_xyz
x,y,z
-x,y,1/2-z
-x,-y,-z
x,-y,1/2+z
1/2+x,1/2+y,z
1/2-x,1/2+y,1/2-z
1/2-x,1/2-y,-z
1/2+x,1/2-y,1/2+z
loop_
_atom_site_type_symbol
_atom_site_label
_atom_site_fract_x
_atom_site_fract_y
_atom_site_fract_z
Si Si1 0.545902 0.213669 0.465381
Si Si2 0.720929 0.536656 0.588829
Si Si3 0.941328 0.193201 0.017811
Si Si4 0.551557 0.956554 0.972306
Si Si5 0.606116 0.463790 0.156799
Si Si6 0.763691 0.792198 0.383754
O O1 0.500000 0.246873 0.250000
O O2 0.508932 0.255175 0.538059
O O3 0.521629 0.128200 0.444442
O O4 0.661933 0.219504 0.633763
O O5 0.688328 0.487520 0.405651
O O6 0.647696 0.509929 0.582973
O O7 0.708440 0.623207 0.533916
O O8 0.832672 0.524026 0.827177
O O9 0.905264 0.124927 0.864365
O O10 0.847472 0.238374 0.921512
O O11 0.000000 0.164420 0.250000
O O12 0.500000 0.986339 0.750000
O O13 0.500000 0.000000 0.000000
O O14 0.500000 0.500000 0.000000
O O15 0.750000 0.750000 0.500000
#
# Coordination Sequence:
#
# PCOD8140014 Si02
#       6
#     8   8   8   8   8   8
#     4  10  23  40  61  93 127 157 206 263 313 367
#     4  10  22  39  61  89 122 162 205 253 311 369
#     4  11  22  40  64  92 126 169 209 252 314 381
#     4  10  21  41  64  88 121 159 203 262 317 365
#     4  11  22  38  58  89 127 165 207 251 303 372
#     4  10  20  40  65  85 121 164 207 256 306 369
#
# _framework density 19.874286999999999
#
# number of rings (size 3 to 8) (size 9 to 14) (size 15 to 20)
#    0.000    1.667    1.667    3.500    0.000    4.000 
#    3.000    0.000    0.000    0.000    0.000    0.000 
#    0.000    0.000    0.000    0.000    0.000    0.000 
#
# Total GULP energy -297482.475471 kJ/mol
# GULP energy per Si atom -12395.103145 kJ/mol
# Density = 1.982905 g / cm^3
# Si number density = 19.874287 Si / 1000 Ang^3
#
#
#
# Elastic Constant Matrix: (Units=GPa)
#
#
# Indices 1 2 3 4 5 6 
#
# 1 153.4392 55.2928 48.2344 0.0000 5.5685 0.0000
# 2 55.2928 55.2277 51.2532 0.0000 -4.7863 0.0000
# 3 48.2344 51.2532 140.7151 0.0000 -5.8080 0.0000
# 4 0.0000 0.0000 0.0000 31.4526 0.0000 -0.4373
# 5 5.5685 -4.7863 -5.8080 0.0000 36.6071 0.0000
# 6 0.0000 0.0000 0.0000 -0.4373 0.0000 32.2762
#
#
#
# Elastic Compliance Matrix: (Units=1/GPa)
#
#
# Indices 1 2 3 4 5 6 
#
# 1 0.010522 -0.011077 0.000304 0.000000 -0.003001 0.000000
# 2 -0.011077 0.039160 -0.010253 0.000000 0.005178 0.000000
# 3 0.000304 -0.010253 0.010750 0.000000 0.000319 0.000000
# 4 0.000000 0.000000 0.000000 0.031800 0.000000 0.000431
# 5 -0.003001 0.005178 0.000319 0.000000 0.028501 0.000000
# 6 0.000000 0.000000 0.000000 0.000431 0.000000 0.030988
#
#
# Mechanical properties :
#
#
# Convention : Reuss Voigt Hill
#
# Bulk Modulus (GPa) = 54.40357 73.21588 63.80973
# Shear Modulus (GPa) = 25.01245 33.04061 29.02653
#
# Velocity S-wave (km/s) = 3.55143 4.08178 3.82580
# Velocity P-wave (km/s) = 6.65208 7.68986 7.18972
#
# Compressibility (1/GPa) = 0.01838115
#
# Stress axis : x y z
#
# Youngs Moduli (GPa) = 95.03773 25.53603 93.02281
#
# Poissons Ratio (x) = 0.28285 -0.02826
# Poissons Ratio (y) = 1.05269 0.95376
# Poissons Ratio (z) = -0.02887 0.26182
#
# Static dielectric constant tensor:
#      x y z
#    x 3.777690 0.000000 0.107900 
#    y 0.000000 4.325800 0.000000 
#    z 0.107900 0.000000 3.835190 
# 
# 
# High freq. dielectric constant tensor:
#      x y z
#    x 1.792050 0.000000 0.010440 
#    y 0.000000 1.754850 0.000000 
#    z 0.010440 0.000000 1.789900 
# 
# From -- ./inp_files/57682.got.cif
#   From: 2010.06.25/outbox.cif.g09.slc.cpg/sg15_29_cif.got.tgz:57682.got - 2010.06.28 07:06:18.
