data_PCOD8140637
_publ_section_title
;
Structure prediction by ZEFSAII (Michael W. Deem and Ramdas Pophale) SiO2 
 PCOD8140637
Probable space group: C 2/C
;
_chemical_formula_sum "Si O2"
_cell_formula_units_Z 64
_cell_length_a 29.054778
_cell_length_b 8.837914
_cell_length_c 14.548663
_cell_angle_alpha 90.000000
_cell_angle_beta 128.739122
_cell_angle_gamma 90.000000
_cell_volume 2913.981966
_symmetry_space_group_name_H-M "C 2/C"
_symmetry_group_IT_number 15
_symmetry_cell_setting 'monoclinic'
loop_
_space_group_symop_operation_xyz
x,y,z
-x,y,1/2-z
-x,-y,-z
x,-y,1/2+z
1/2+x,1/2+y,z
1/2-x,1/2+y,1/2-z
1/2-x,1/2-y,-z
1/2+x,1/2-y,1/2+z
loop_
_atom_site_type_symbol
_atom_site_label
_atom_site_fract_x
_atom_site_fract_y
_atom_site_fract_z
Si Si1 0.120974 0.917860 0.385378
Si Si2 0.637274 0.045373 0.954662
Si Si3 0.456435 0.641422 0.451830
Si Si4 0.955075 0.309556 0.622699
Si Si5 0.807209 0.674324 0.113338
Si Si6 0.710696 0.210332 0.203404
Si Si7 0.326908 0.448154 0.859200
Si Si8 0.942411 0.789321 0.735383
O O1 0.061124 0.852038 0.353366
O O2 0.141788 0.800456 0.333512
O O3 0.169771 0.940040 0.526016
O O4 0.106027 0.077791 0.322339
O O5 0.586943 0.142175 0.843326
O O6 0.603853 0.908820 0.964878
O O7 0.679989 0.977655 0.929533
O O8 0.671536 0.141731 0.073102
O O9 0.500000 0.500000 0.500000
O O10 0.481218 0.764572 0.556144
O O11 0.390240 0.584512 0.392600
O O12 0.459699 0.737420 0.362419
O O13 0.000000 0.391655 0.750000
O O14 0.803301 0.630894 0.215922
O O15 0.750000 0.750000 0.000000
O O16 0.698507 0.387849 0.199709
O O17 0.779502 0.177546 0.266223
O O18 0.000000 0.834239 0.750000
#
# Coordination Sequence:
#
# PCOD8140637 Si02
#       8
#     8   8   8   8   8   8   8   8
#     4  10  20  42  67  97 137 176 228 281 342 413
#     4  11  27  43  66 104 144 183 228 293 351 416
#     4  11  25  44  78 105 133 186 242 287 351 416
#     4  10  22  44  67  97 136 179 232 284 343 409
#     4  11  23  44  69  99 137 187 229 278 353 421
#     4  12  25  44  73  98 149 183 230 287 355 422
#     4  11  24  43  70 108 137 185 231 287 347 420
#     4  12  24  45  67 101 141 176 238 294 342 413
#
# _framework density 21.963073999999999
#
# number of rings (size 3 to 8) (size 9 to 14) (size 15 to 20)
#    0.000    1.000    2.500    4.500    5.250    1.000 
#    0.000    3.125    0.000    0.000    0.000    0.000 
#    0.000    0.000    0.000    0.000    0.000    0.000 
#
# Total GULP energy -396766.472009 kJ/mol
# GULP energy per Si atom -12398.952250 kJ/mol
# Density = 2.191308 g / cm^3
# Si number density = 21.963074 Si / 1000 Ang^3
#
#
#
# Elastic Constant Matrix: (Units=GPa)
#
#
# Indices 1 2 3 4 5 6 
#
# 1 105.4854 30.6109 55.4195 0.0000 -7.3777 0.0000
# 2 30.6109 69.9626 24.8700 0.0000 -0.0891 0.0000
# 3 55.4195 24.8700 133.9498 0.0000 -9.6290 0.0000
# 4 0.0000 0.0000 0.0000 40.8876 0.0000 3.2983
# 5 -7.3777 -0.0891 -9.6290 0.0000 38.9703 0.0000
# 6 0.0000 0.0000 0.0000 3.2983 0.0000 25.4911
#
#
#
# Elastic Compliance Matrix: (Units=1/GPa)
#
#
# Indices 1 2 3 4 5 6 
#
# 1 0.013187 -0.004136 -0.004591 0.000000 0.001353 0.000000
# 2 -0.004136 0.016618 -0.001454 0.000000 -0.001104 0.000000
# 3 -0.004591 -0.001454 0.009745 0.000000 0.001535 0.000000
# 4 0.000000 0.000000 0.000000 0.024715 0.000000 -0.003198
# 5 0.001353 -0.001104 0.001535 0.000000 0.026294 0.000000
# 6 0.000000 0.000000 0.000000 -0.003198 0.000000 0.039643
#
#
# Mechanical properties :
#
#
# Convention : Reuss Voigt Hill
#
# Bulk Modulus (GPa) = 52.11181 59.02205 55.56693
# Shear Modulus (GPa) = 31.85550 34.30298 33.07924
#
# Velocity S-wave (km/s) = 3.81256 3.95631 3.88510
# Velocity P-wave (km/s) = 6.56958 6.91386 6.74392
#
# Compressibility (1/GPa) = 0.01918951
#
# Stress axis : x y z
#
# Youngs Moduli (GPa) = 75.83453 60.17458 102.61651
#
# Poissons Ratio (x) = 0.24888 0.47107
# Poissons Ratio (y) = 0.31365 0.14917
# Poissons Ratio (z) = 0.34812 0.08747
#
# Static dielectric constant tensor:
#      x y z
#    x 4.125260 0.000000 -0.159300 
#    y 0.000000 3.890890 0.000000 
#    z -0.159300 0.000000 4.160300 
# 
# 
# High freq. dielectric constant tensor:
#      x y z
#    x 1.862910 0.000000 0.000730 
#    y 0.000000 1.859120 0.000000 
#    z 0.000730 0.000000 1.875610 
# 
# From -- ./inp_files/181199.got.cif
#   From: 2010.06.25/outbox.cif.g09.slc.cpg/sg15_91_cif.got.tgz:181199.got - 2010.06.28 07:06:18.
