data_PCOD8140629
_publ_section_title
;
Structure prediction by ZEFSAII (Michael W. Deem and Ramdas Pophale) SiO2 
 PCOD8140629
Probable space group: C 2/C
;
_chemical_formula_sum "Si O2"
_cell_formula_units_Z 56
_cell_length_a 14.865322
_cell_length_b 22.992731
_cell_length_c 8.522150
_cell_angle_alpha 90.000000
_cell_angle_beta 117.706754
_cell_angle_gamma 90.000000
_cell_volume 2578.835042
_symmetry_space_group_name_H-M "C 2/C"
_symmetry_group_IT_number 15
_symmetry_cell_setting 'monoclinic'
loop_
_space_group_symop_operation_xyz
x,y,z
-x,y,1/2-z
-x,-y,-z
x,-y,1/2+z
1/2+x,1/2+y,z
1/2-x,1/2+y,1/2-z
1/2-x,1/2-y,-z
1/2+x,1/2-y,1/2+z
loop_
_atom_site_type_symbol
_atom_site_label
_atom_site_fract_x
_atom_site_fract_y
_atom_site_fract_z
Si Si1 0.500000 0.634446 0.250000
Si Si2 0.311700 0.803818 0.123143
Si Si3 0.631456 0.176944 0.159359
Si Si4 0.864014 0.206766 0.369499
Si Si5 0.500000 0.736312 0.750000
Si Si6 0.681463 0.418058 0.042536
Si Si7 0.731783 0.991688 0.121458
Si Si8 0.102601 0.553005 0.257211
O O1 0.416821 0.672381 0.271823
O O2 0.562292 0.595469 0.424696
O O3 0.364683 0.775970 0.321149
O O4 0.244529 0.858720 0.120977
O O5 0.250000 0.750000 0.000000
O O6 0.387784 0.822698 0.044786
O O7 0.750733 0.181915 0.298484
O O8 0.570477 0.228679 0.188596
O O9 0.584423 0.117969 0.185515
O O10 0.924959 0.197675 0.581372
O O11 0.688998 0.458436 0.202280
O O12 0.718632 0.450964 0.915205
O O13 0.632946 0.010867 0.139781
O O14 0.693864 0.947450 0.957728
O O15 0.000000 0.528049 0.250000
#
# Coordination Sequence:
#
# PCOD8140629 Si02
#       8
#     4   8   8   8   4   8   8   8
#     4  12  22  44  72  97 129 180 230 270 330 420
#     4  10  20  42  67  91 130 177 214 272 332 393
#     4  11  22  41  61  92 130 167 214 271 322 391
#     4  11  25  41  64  97 136 173 220 271 333 404
#     4  12  26  38  60  95 135 174 216 260 338 404
#     4  11  23  42  70  95 130 176 223 275 336 398
#     4  10  24  42  63  94 132 173 220 278 335 382
#     4  11  21  40  62  90 124 168 218 271 325 392
#
# _framework density 21.715232
#
# number of rings (size 3 to 8) (size 9 to 14) (size 15 to 20)
#    0.000    1.143    5.000    1.714    4.000    1.714 
#    0.000    0.000    0.000    0.000    0.000    0.000 
#    0.000    0.000    0.000    0.000    0.000    0.000 
#
# Total GULP energy -347169.026064 kJ/mol
# GULP energy per Si atom -12398.893788 kJ/mol
# Density = 2.166581 g / cm^3
# Si number density = 21.715232 Si / 1000 Ang^3
#
#
#
# Elastic Constant Matrix: (Units=GPa)
#
#
# Indices 1 2 3 4 5 6 
#
# 1 75.8234 5.0417 1.2033 0.0000 5.8996 0.0000
# 2 5.0417 86.7716 19.1681 0.0000 -0.0782 0.0000
# 3 1.2033 19.1681 96.3939 0.0000 0.0759 0.0000
# 4 0.0000 0.0000 0.0000 29.8250 0.0000 -1.7044
# 5 5.8996 -0.0782 0.0759 0.0000 26.5465 0.0000
# 6 0.0000 0.0000 0.0000 -1.7044 0.0000 16.9374
#
#
#
# Elastic Compliance Matrix: (Units=1/GPa)
#
#
# Indices 1 2 3 4 5 6 
#
# 1 0.013474 -0.000783 -0.000010 0.000000 -0.002997 0.000000
# 2 -0.000783 0.012100 -0.002396 0.000000 0.000217 0.000000
# 3 -0.000010 -0.002396 0.010851 0.000000 -0.000036 0.000000
# 4 0.000000 0.000000 0.000000 0.033723 0.000000 0.003394
# 5 -0.002997 0.000217 -0.000036 0.000000 0.038336 0.000000
# 6 0.000000 0.000000 0.000000 0.003394 0.000000 0.059383
#
#
# Mechanical properties :
#
#
# Convention : Reuss Voigt Hill
#
# Bulk Modulus (GPa) = 33.28379 34.42390 33.85385
# Shear Modulus (GPa) = 27.13544 30.23348 28.68446
#
# Velocity S-wave (km/s) = 3.53881 3.73536 3.63841
# Velocity P-wave (km/s) = 5.66200 5.87288 5.76840
#
# Compressibility (1/GPa) = 0.03004465
#
# Stress axis : x y z
#
# Youngs Moduli (GPa) = 74.21732 82.64740 92.15925
#
# Poissons Ratio (x) = 0.06474 0.00093
# Poissons Ratio (y) = 0.05814 0.22085
# Poissons Ratio (z) = 0.00075 0.19806
#
# Static dielectric constant tensor:
#      x y z
#    x 3.913430 0.000000 -0.120030 
#    y 0.000000 3.901300 0.000000 
#    z -0.120030 0.000000 4.288880 
# 
# 
# High freq. dielectric constant tensor:
#      x y z
#    x 1.850060 0.000000 -0.007960 
#    y 0.000000 1.844950 0.000000 
#    z -0.007960 0.000000 1.857780 
# 
# From -- ./inp_files/42795.got.cif
#   From: 2010.06.25/outbox.cif.g09.slc.cpg/sg15_22_cif.got.tgz:42795.got - 2010.06.28 07:06:18.
