data_PCOD8140503
_publ_section_title
;
Structure prediction by ZEFSAII (Michael W. Deem and Ramdas Pophale) SiO2 
 PCOD8140503
Probable space group: C 2/C
;
_chemical_formula_sum "Si O2"
_cell_formula_units_Z 48
_cell_length_a 19.798503
_cell_length_b 7.567445
_cell_length_c 20.597648
_cell_angle_alpha 90.000000
_cell_angle_beta 48.740493
_cell_angle_gamma 90.000000
_cell_volume 2319.857819
_symmetry_space_group_name_H-M "C 2/C"
_symmetry_group_IT_number 15
_symmetry_cell_setting 'monoclinic'
loop_
_space_group_symop_operation_xyz
x,y,z
-x,y,1/2-z
-x,-y,-z
x,-y,1/2+z
1/2+x,1/2+y,z
1/2-x,1/2+y,1/2-z
1/2-x,1/2-y,-z
1/2+x,1/2-y,1/2+z
loop_
_atom_site_type_symbol
_atom_site_label
_atom_site_fract_x
_atom_site_fract_y
_atom_site_fract_z
Si Si1 0.540117 0.374163 0.118567
Si Si2 0.327951 0.455306 0.574634
Si Si3 0.371686 0.733763 0.647072
Si Si4 0.637036 0.111934 0.711079
Si Si5 0.000000 0.362065 0.750000
Si Si6 0.191191 0.366234 0.317849
Si Si7 0.000000 0.137253 0.250000
O O1 0.468963 0.274929 0.117702
O O2 0.568039 0.249328 0.161338
O O3 0.496369 0.540544 0.183001
O O4 0.628455 0.425867 0.023014
O O5 0.379463 0.615221 0.577508
O O6 0.226357 0.519159 0.627217
O O7 0.338051 0.272377 0.608626
O O8 0.299270 0.644835 0.741960
O O9 0.341783 0.933740 0.646090
O O10 0.651214 0.192446 0.773565
O O11 0.594511 0.254719 0.688747
O O12 0.560321 0.963734 0.764041
#
# Coordination Sequence:
#
# PCOD8140503 Si02
#       7
#     8   8   8   8   4   8   4
#     4  11  23  41  61  94 125 166 215 258 320 371
#     4  11  24  39  63  99 126 160 211 274 310 377
#     4  11  21  39  64  94 125 164 207 260 325 377
#     4  10  21  41  62  92 122 168 217 246 319 378
#     4  10  20  42  62  80 126 172 206 250 302 388
#     4  11  20  39  68  92 125 167 206 263 322 375
#     4  10  24  40  68  82 130 182 206 264 302 384
#
# _framework density 20.690922
#
# number of rings (size 3 to 8) (size 9 to 14) (size 15 to 20)
#    0.000    1.333    5.000    1.500    2.333    2.000 
#    6.000    0.000    0.000    0.000    0.000    0.000 
#    0.000    0.000    0.000    0.000    0.000    0.000 
#
# Total GULP energy -297328.199095 kJ/mol
# GULP energy per Si atom -12388.674962 kJ/mol
# Density = 2.064383 g / cm^3
# Si number density = 20.690922 Si / 1000 Ang^3
#
#
#
# Elastic Constant Matrix: (Units=GPa)
#
#
# Indices 1 2 3 4 5 6 
#
# 1 87.8410 30.7929 32.6277 0.0001 -10.5739 0.0003
# 2 30.7929 118.8389 36.4513 0.0008 -3.0647 0.0016
# 3 32.6277 36.4513 125.7200 0.0005 2.0538 0.0000
# 4 0.0001 0.0008 0.0005 4.1238 0.0002 -11.9643
# 5 -10.5739 -3.0647 2.0538 0.0002 19.0677 0.0000
# 6 0.0003 0.0016 0.0000 -11.9643 0.0000 9.6990
#
#
#
# Elastic Compliance Matrix: (Units=1/GPa)
#
#
# Indices 1 2 3 4 5 6 
#
# 1 0.014396 -0.002569 -0.003120 0.000000 0.007906 0.000000
# 2 -0.002569 0.009755 -0.002168 0.000002 0.000377 0.000001
# 3 -0.003120 -0.002168 0.009443 0.000000 -0.003096 0.000000
# 4 0.000000 0.000002 0.000000 -0.094031 0.000001 -0.115993
# 5 0.007906 0.000377 -0.003096 0.000001 0.057223 0.000002
# 6 0.000000 0.000001 0.000000 -0.115993 0.000002 -0.039980
#
#
# Mechanical properties :
#
#
# Convention : Reuss Voigt Hill
#
# Bulk Modulus (GPa) = 55.93060 59.12707 57.52883
# Shear Modulus (GPa) = -232.33411 22.07998 -105.12706
#
# Velocity S-wave (km/s) = -10.60810 3.27025 -7.13573
# Velocity P-wave (km/s) = 11.08838 6.54963 6.32671
#
# Compressibility (1/GPa) = 0.01787930
#
# Stress axis : x y z
#
# Youngs Moduli (GPa) = 69.46605 102.51059 105.89758
#
# Poissons Ratio (x) = 0.26336 0.33043
# Poissons Ratio (y) = 0.17847 0.22956
# Poissons Ratio (z) = 0.21675 0.22222
#
# Static dielectric constant tensor:
#      x y z
#    x 3.738620 0.000000 0.023750 
#    y 0.000000 4.026920 0.000000 
#    z 0.023750 0.000000 3.439070 
# 
# 
# High freq. dielectric constant tensor:
#      x y z
#    x 1.813110 0.000000 0.002420 
#    y 0.000000 1.823530 0.000000 
#    z 0.002420 0.000000 1.779150 
# 
# From -- ./inp_files/180731.got.cif
#   From: 2010.06.25/outbox.cif.g09.slc.cpg/sg15_91_cif.got.tgz:180731.got - 2010.06.28 07:06:18.
