data_PCOD8140322
_publ_section_title
;
Structure prediction by ZEFSAII (Michael W. Deem and Ramdas Pophale) SiO2 
 PCOD8140322
Probable space group: C 2/C
;
_chemical_formula_sum "Si O2"
_cell_formula_units_Z 56
_cell_length_a 29.460769
_cell_length_b 8.261311
_cell_length_c 18.659549
_cell_angle_alpha 90.000000
_cell_angle_beta 145.059232
_cell_angle_gamma 90.000000
_cell_volume 2601.019401
_symmetry_space_group_name_H-M "C 2/C"
_symmetry_group_IT_number 15
_symmetry_cell_setting 'monoclinic'
loop_
_space_group_symop_operation_xyz
x,y,z
-x,y,1/2-z
-x,-y,-z
x,-y,1/2+z
1/2+x,1/2+y,z
1/2-x,1/2+y,1/2-z
1/2-x,1/2-y,-z
1/2+x,1/2-y,1/2+z
loop_
_atom_site_type_symbol
_atom_site_label
_atom_site_fract_x
_atom_site_fract_y
_atom_site_fract_z
Si Si1 0.800726 0.558031 0.575340
Si Si2 0.916006 0.459723 0.620663
Si Si3 0.630838 0.603694 0.342306
Si Si4 0.598342 0.601715 0.933363
Si Si5 0.742636 0.967013 0.321882
Si Si6 0.649001 0.825275 0.589663
Si Si7 0.988327 0.911458 0.559504
O O1 0.861629 0.428438 0.621038
O O2 0.713309 0.509406 0.431646
O O3 0.834465 0.725508 0.584053
O O4 0.804939 0.571991 0.666778
O O5 0.933049 0.282410 0.613081
O O6 0.873098 0.576774 0.509567
O O7 0.000000 0.541099 0.750000
O O8 0.582961 0.509371 0.342885
O O9 0.575662 0.634590 0.202088
O O10 0.548786 0.537877 0.934948
O O11 0.691145 0.599917 0.072950
O O12 0.783842 0.806899 0.342477
O O13 0.681394 0.044168 0.187521
O O14 0.570070 0.743368 0.521622
O O15 0.000000 0.000000 0.500000
#
# Coordination Sequence:
#
# PCOD8140322 Si02
#       7
#     8   8   8   8   8   8   8
#     4  10  22  38  65  91 116 161 209 259 303 365
#     4  12  24  40  63  94 128 162 205 258 315 372
#     4  10  20  41  64  88 121 160 209 252 308 370
#     4  10  23  41  64  90 125 166 205 257 311 370
#     4  10  23  43  64  92 125 165 214 254 310 372
#     4  11  24  41  64  91 129 170 205 259 314 367
#     4  11  24  40  63  91 124 167 207 253 310 374
#
# _framework density 21.530018999999999
#
# number of rings (size 3 to 8) (size 9 to 14) (size 15 to 20)
#    0.000    1.429    0.000    6.429    0.000   11.429 
#    0.000    2.143    0.000    0.000    0.000    0.000 
#    0.000    0.000    0.000    0.000    0.000    0.000 
#
# Total GULP energy -347091.411715 kJ/mol
# GULP energy per Si atom -12396.121847 kJ/mol
# Density = 2.148102 g / cm^3
# Si number density = 21.530019 Si / 1000 Ang^3
#
#
#
# Elastic Constant Matrix: (Units=GPa)
#
#
# Indices 1 2 3 4 5 6 
#
# 1 123.2607 42.9730 63.4526 0.0000 2.4536 0.0000
# 2 42.9730 95.4340 51.9078 0.0000 -7.1507 0.0000
# 3 63.4526 51.9078 164.9094 0.0000 -4.1497 0.0000
# 4 0.0000 0.0000 0.0000 33.9175 0.0000 -3.0407
# 5 2.4536 -7.1507 -4.1497 0.0000 27.1238 0.0000
# 6 0.0000 0.0000 0.0000 -3.0407 0.0000 25.7000
#
#
#
# Elastic Compliance Matrix: (Units=1/GPa)
#
#
# Indices 1 2 3 4 5 6 
#
# 1 0.010999 -0.003374 -0.003230 0.000000 -0.002379 0.000000
# 2 -0.003374 0.013883 -0.002983 0.000000 0.003509 0.000000
# 3 -0.003230 -0.002983 0.008265 0.000000 0.000770 0.000000
# 4 0.000000 0.000000 0.000000 0.029799 0.000000 0.003526
# 5 -0.002379 0.003509 0.000770 0.000000 0.038126 0.000000
# 6 0.000000 0.000000 0.000000 0.003526 0.000000 0.039328
#
#
# Mechanical properties :
#
#
# Convention : Reuss Voigt Hill
#
# Bulk Modulus (GPa) = 71.56840 77.80789 74.68815
# Shear Modulus (GPa) = 30.44431 32.36629 31.40530
#
# Velocity S-wave (km/s) = 3.76445 3.88146 3.82340
# Velocity P-wave (km/s) = 7.22552 7.50369 7.36592
#
# Compressibility (1/GPa) = 0.01397265
#
# Stress axis : x y z
#
# Youngs Moduli (GPa) = 90.91412 72.02797 120.98912
#
# Poissons Ratio (x) = 0.24304 0.39080
# Poissons Ratio (y) = 0.30677 0.36096
# Poissons Ratio (z) = 0.29365 0.21489
#
# Static dielectric constant tensor:
#      x y z
#    x 3.998660 0.000000 0.168820 
#    y 0.000000 3.794500 0.000000 
#    z 0.168820 0.000000 4.152150 
# 
# 
# High freq. dielectric constant tensor:
#      x y z
#    x 1.848790 0.000000 0.009890 
#    y 0.000000 1.836540 0.000000 
#    z 0.009890 0.000000 1.854500 
# 
# From -- ./inp_files/222090.got.cif
#   From: 2010.06.25/outbox.cif.g09.slc.cpg/sg15_112_cif.got.tgz:222090.got - 2010.06.28 07:06:18.
