data_PCOD8140799
_publ_section_title
;
Structure prediction by ZEFSAII (Michael W. Deem and Ramdas Pophale) SiO2 
 PCOD8140799
Probable space group: C 2/C
;
_chemical_formula_sum "Si O2"
_cell_formula_units_Z 56
_cell_length_a 8.879106
_cell_length_b 30.867580
_cell_length_c 14.579945
_cell_angle_alpha 90.000000
_cell_angle_beta 136.038352
_cell_angle_gamma 90.000000
_cell_volume 2773.944377
_symmetry_space_group_name_H-M "C 2/C"
_symmetry_group_IT_number 15
_symmetry_cell_setting 'monoclinic'
loop_
_space_group_symop_operation_xyz
x,y,z
-x,y,1/2-z
-x,-y,-z
x,-y,1/2+z
1/2+x,1/2+y,z
1/2-x,1/2+y,1/2-z
1/2-x,1/2-y,-z
1/2+x,1/2-y,1/2+z
loop_
_atom_site_type_symbol
_atom_site_label
_atom_site_fract_x
_atom_site_fract_y
_atom_site_fract_z
Si Si1 0.286612 0.796593 0.718495
Si Si2 0.432069 0.850081 0.415367
Si Si3 0.059144 0.259315 0.986639
Si Si4 0.000000 0.098386 0.750000
Si Si5 0.264322 0.960596 0.687422
Si Si6 0.386241 0.554208 0.878113
Si Si7 0.500000 0.118001 0.750000
Si Si8 0.221478 0.118020 0.296466
O O1 0.500000 0.795603 0.750000
O O2 0.074309 0.779556 0.568864
O O3 0.243010 0.846060 0.726210
O O4 0.335838 0.765987 0.830475
O O5 0.404545 0.801534 0.436786
O O6 0.511811 0.851555 0.344897
O O7 0.591257 0.878201 0.547097
O O8 0.201390 0.870896 0.326632
O O9 0.250000 0.250000 0.000000
O O10 0.981629 0.068377 0.653287
O O11 0.500000 0.950306 0.750000
O O12 0.231482 0.930265 0.761032
O O13 0.069768 0.951292 0.533511
O O14 0.246764 0.010905 0.706871
O O15 0.215024 0.588903 0.840287
O O16 0.000000 0.127096 0.250000
#
# Coordination Sequence:
#
# PCOD8140799 Si02
#       8
#     8   8   8   4   8   8   4   8
#     4   9  19  38  59  87 122 154 204 251 302 362
#     4  10  22  40  63  92 120 163 202 250 307 361
#     4   9  19  36  61  91 121 154 205 254 300 364
#     4  10  22  38  62  88 122 150 214 242 300 360
#     4  11  22  39  62  86 120 158 205 245 310 353
#     4  10  22  39  59  90 119 160 198 255 298 366
#     4  10  20  44  58  86 130 154 200 250 306 370
#     4  11  23  40  59  89 120 159 205 248 303 365
#
# _framework density 20.187860000000001
#
# number of rings (size 3 to 8) (size 9 to 14) (size 15 to 20)
#    0.000    2.000    0.714    2.143    4.000    2.286 
#    6.429    3.571    0.000    0.000    0.000    0.000 
#    0.000    0.000    0.000    0.000    0.000    0.000 
#
# Total GULP energy -347065.257792 kJ/mol
# GULP energy per Si atom -12395.187778 kJ/mol
# Density = 2.014191 g / cm^3
# Si number density = 20.187860 Si / 1000 Ang^3
#
#
#
# Elastic Constant Matrix: (Units=GPa)
#
#
# Indices 1 2 3 4 5 6 
#
# 1 86.1670 40.4143 36.0449 0.0000 -21.9366 0.0000
# 2 40.4143 83.8058 39.0173 0.0000 -21.6976 0.0000
# 3 36.0449 39.0173 81.6940 0.0000 -18.0437 0.0000
# 4 0.0000 0.0000 0.0000 70.9174 0.0000 16.9563
# 5 -21.9366 -21.6976 -18.0437 0.0000 31.9419 0.0000
# 6 0.0000 0.0000 0.0000 16.9563 0.0000 23.2272
#
#
#
# Elastic Compliance Matrix: (Units=1/GPa)
#
#
# Indices 1 2 3 4 5 6 
#
# 1 0.017072 -0.004817 -0.003845 0.000000 0.006281 0.000000
# 2 -0.004817 0.018293 -0.005253 0.000000 0.006151 0.000000
# 3 -0.003845 -0.005253 0.017224 0.000000 0.003521 0.000000
# 4 0.000000 0.000000 0.000000 0.017083 0.000000 -0.012471
# 5 0.006281 0.006151 0.003521 0.000000 0.041787 0.000000
# 6 0.000000 0.000000 0.000000 -0.012471 0.000000 0.052157
#
#
# Mechanical properties :
#
#
# Convention : Reuss Voigt Hill
#
# Bulk Modulus (GPa) = 40.38821 53.62441 47.00631
# Shear Modulus (GPa) = 25.03786 34.29666 29.66726
#
# Velocity S-wave (km/s) = 3.52553 4.12621 3.83764
# Velocity P-wave (km/s) = 6.05162 7.02291 6.55528
#
# Compressibility (1/GPa) = 0.02475970
#
# Stress axis : x y z
#
# Youngs Moduli (GPa) = 58.57654 54.66479 58.05944
#
# Poissons Ratio (x) = 0.26330 0.22322
# Poissons Ratio (y) = 0.28214 0.30500
# Poissons Ratio (z) = 0.22521 0.28717
#
# Static dielectric constant tensor:
#      x y z
#    x 4.136330 0.000000 -0.384050 
#    y 0.000000 3.825650 0.000000 
#    z -0.384050 0.000000 4.062410 
# 
# 
# High freq. dielectric constant tensor:
#      x y z
#    x 1.785770 0.000000 -0.006950 
#    y 0.000000 1.790350 0.000000 
#    z -0.006950 0.000000 1.800650 
# 
# From -- ./inp_files/139595.got.cif
#   From: 2010.06.25/outbox.cif.g09.slc.cpg/sg15_70_cif.got.tgz:139595.got - 2010.06.28 07:06:18.
