data_PCOD8140548
_publ_section_title
;
Structure prediction by ZEFSAII (Michael W. Deem and Ramdas Pophale) SiO2 
 PCOD8140548
Probable space group: C 2/C
;
_chemical_formula_sum "Si O2"
_cell_formula_units_Z 36
_cell_length_a 20.685740
_cell_length_b 11.409284
_cell_length_c 12.016624
_cell_angle_alpha 90.000000
_cell_angle_beta 145.445010
_cell_angle_gamma 90.000000
_cell_volume 1608.591617
_symmetry_space_group_name_H-M "C 2/C"
_symmetry_group_IT_number 15
_symmetry_cell_setting 'monoclinic'
loop_
_space_group_symop_operation_xyz
x,y,z
-x,y,1/2-z
-x,-y,-z
x,-y,1/2+z
1/2+x,1/2+y,z
1/2-x,1/2+y,1/2-z
1/2-x,1/2-y,-z
1/2+x,1/2-y,1/2+z
loop_
_atom_site_type_symbol
_atom_site_label
_atom_site_fract_x
_atom_site_fract_y
_atom_site_fract_z
Si Si1 0.060957 0.732782 0.704707
Si Si2 0.000000 0.942787 0.750000
Si Si3 0.643490 0.192382 0.218089
Si Si4 0.233541 0.656731 0.115384
Si Si5 0.693901 0.567979 0.902664
O O1 0.180416 0.747038 0.810692
O O2 0.992726 0.855390 0.632321
O O3 0.980062 0.656958 0.508183
O O4 0.103666 0.673878 0.882435
O O5 0.889094 0.022601 0.615399
O O6 0.734611 0.181215 0.247858
O O7 0.636603 0.321628 0.261235
O O8 0.684238 0.101800 0.370227
O O9 0.280817 0.528042 0.155155
#
# Coordination Sequence:
#
# PCOD8140548 Si02
#       5
#     8   4   8   8   8
#     4  10  21  39  65  96 122 168 213 250 319 373
#     4  10  20  42  64  92 124 164 220 260 300 386
#     4  11  23  43  61  97 129 164 213 265 309 382
#     4  10  22  40  65  92 129 165 206 267 309 381
#     4  10  26  39  64  98 125 167 216 257 325 362
#
# _framework density 22.379826000000001
#
# number of rings (size 3 to 8) (size 9 to 14) (size 15 to 20)
#    0.000    1.778    2.222    0.000    6.222    2.667 
#    0.000    2.222    0.000    0.000    0.000    0.000 
#    0.000    0.000    0.000    0.000    0.000    0.000 
#
# Total GULP energy -223047.849574 kJ/mol
# GULP energy per Si atom -12391.547199 kJ/mol
# Density = 2.232889 g / cm^3
# Si number density = 22.379826 Si / 1000 Ang^3
#
#
#
# Elastic Constant Matrix: (Units=GPa)
#
#
# Indices 1 2 3 4 5 6 
#
# 1 84.2255 19.9017 12.8137 0.0000 3.4112 0.0000
# 2 19.9017 53.9593 -4.1444 0.0000 11.6898 0.0000
# 3 12.8137 -4.1444 92.9239 0.0000 8.6478 0.0000
# 4 0.0000 0.0000 0.0000 19.0035 0.0000 0.2491
# 5 3.4112 11.6898 8.6478 0.0000 28.8611 0.0000
# 6 0.0000 0.0000 0.0000 0.2491 0.0000 27.3871
#
#
#
# Elastic Compliance Matrix: (Units=1/GPa)
#
#
# Indices 1 2 3 4 5 6 
#
# 1 0.013434 -0.005398 -0.002210 0.000000 0.001261 0.000000
# 2 -0.005398 0.022755 0.002631 0.000000 -0.009367 0.000000
# 3 -0.002210 0.002631 0.011581 0.000000 -0.004275 0.000000
# 4 0.000000 0.000000 0.000000 0.052628 0.000000 -0.000479
# 5 0.001261 -0.009367 -0.004275 0.000000 0.039574 0.000000
# 6 0.000000 0.000000 0.000000 -0.000479 0.000000 0.036518
#
#
# Mechanical properties :
#
#
# Convention : Reuss Voigt Hill
#
# Bulk Modulus (GPa) = 26.44447 32.02786 29.23616
# Shear Modulus (GPa) = 25.11941 28.55286 26.83614
#
# Velocity S-wave (km/s) = 3.35388 3.57575 3.46659
# Velocity P-wave (km/s) = 5.18072 5.60269 5.39583
#
# Compressibility (1/GPa) = 0.03781510
#
# Stress axis : x y z
#
# Youngs Moduli (GPa) = 74.44066 43.94728 86.34503
#
# Poissons Ratio (x) = 0.23721 0.19086
# Poissons Ratio (y) = 0.40180 -0.22716
# Poissons Ratio (z) = 0.16455 -0.11562
#
# Static dielectric constant tensor:
#      x y z
#    x 4.080930 0.000000 0.107250 
#    y 0.000000 3.824730 0.000000 
#    z 0.107250 0.000000 3.962620 
# 
# 
# High freq. dielectric constant tensor:
#      x y z
#    x 1.887200 0.000000 0.003060 
#    y 0.000000 1.858190 0.000000 
#    z 0.003060 0.000000 1.881700 
# 
# From -- ./inp_files/85782.got.cif
#   From: 2010.06.25/outbox.cif.g09.slc.cpg/sg15_43_cif.got.tgz:85782.got - 2010.06.28 07:06:18.
