data_PCOD8140180
_publ_section_title
;
Structure prediction by ZEFSAII (Michael W. Deem and Ramdas Pophale) SiO2 
 PCOD8140180
Probable space group: C 2/C
;
_chemical_formula_sum "Si O2"
_cell_formula_units_Z 64
_cell_length_a 14.382147
_cell_length_b 16.537988
_cell_length_c 15.416064
_cell_angle_alpha 90.000000
_cell_angle_beta 125.019999
_cell_angle_gamma 90.000000
_cell_volume 3002.881789
_symmetry_space_group_name_H-M "C 2/C"
_symmetry_group_IT_number 15
_symmetry_cell_setting 'monoclinic'
loop_
_space_group_symop_operation_xyz
x,y,z
-x,y,1/2-z
-x,-y,-z
x,-y,1/2+z
1/2+x,1/2+y,z
1/2-x,1/2+y,1/2-z
1/2-x,1/2-y,-z
1/2+x,1/2-y,1/2+z
loop_
_atom_site_type_symbol
_atom_site_label
_atom_site_fract_x
_atom_site_fract_y
_atom_site_fract_z
Si Si1 0.752504 0.391796 0.455031
Si Si2 0.998346 0.380184 0.845643
Si Si3 0.736161 0.834056 0.718245
Si Si4 0.738606 0.082952 0.041093
Si Si5 0.124201 0.098680 0.053414
Si Si6 0.230525 0.346403 0.221471
Si Si7 0.490892 0.952780 0.404345
Si Si8 0.623071 0.410106 0.047893
O O1 0.740105 0.487717 0.434704
O O2 0.672129 0.360823 0.490454
O O3 0.715009 0.347587 0.346031
O O4 0.881708 0.366012 0.543844
O O5 0.900861 0.334862 0.848675
O O6 0.970287 0.476343 0.823128
O O7 0.000000 0.343960 0.750000
O O8 0.775505 0.870763 0.647883
O O9 0.787047 0.888428 0.822095
O O10 0.784391 0.744075 0.752101
O O11 0.606225 0.096481 0.947709
O O12 0.810510 0.122691 0.001103
O O13 0.110103 0.004790 0.027132
O O14 0.000011 0.133652 0.011525
O O15 0.108873 0.388609 0.151904
O O16 0.310975 0.395327 0.328291
O O17 0.500000 0.000000 0.500000
#
# Coordination Sequence:
#
# PCOD8140180 Si02
#       8
#     8   8   8   8   8   8   8   8
#     4  10  20  40  68  96 124 160 228 278 324 372
#     4  11  20  38  69 102 119 162 217 287 327 371
#     4  12  24  39  62  94 139 167 202 263 350 401
#     4  10  21  41  68  92 120 167 217 292 313 372
#     4  10  22  42  64  89 120 178 218 271 307 401
#     4  12  25  39  59  99 133 171 200 272 336 405
#     4  11  20  39  70  97 121 158 228 282 315 376
#     4  10  24  42  63  88 126 171 232 259 314 386
#
# _framework density 21.312860000000001
#
# number of rings (size 3 to 8) (size 9 to 14) (size 15 to 20)
#    0.000    1.250    5.000    1.500    3.500    4.000 
#    2.250    5.000    0.000    0.000    0.000    0.000 
#    0.000    0.000    0.000    0.000    0.000    0.000 
#
# Total GULP energy -396817.622224 kJ/mol
# GULP energy per Si atom -12400.550695 kJ/mol
# Density = 2.126435 g / cm^3
# Si number density = 21.312860 Si / 1000 Ang^3
#
#
#
# Elastic Constant Matrix: (Units=GPa)
#
#
# Indices 1 2 3 4 5 6 
#
# 1 177.6076 24.4893 77.8863 0.0000 -2.2531 0.0000
# 2 24.4893 45.5565 26.2920 0.0000 8.5821 0.0000
# 3 77.8863 26.2920 122.0605 0.0000 -18.8951 0.0000
# 4 0.0000 0.0000 0.0000 22.9356 0.0000 -0.7106
# 5 -2.2531 8.5821 -18.8951 0.0000 36.5224 0.0000
# 6 0.0000 0.0000 0.0000 -0.7106 0.0000 10.5561
#
#
#
# Elastic Compliance Matrix: (Units=1/GPa)
#
#
# Indices 1 2 3 4 5 6 
#
# 1 0.008026 -0.000919 -0.005233 0.000000 -0.001996 0.000000
# 2 -0.000919 0.028572 -0.007192 0.000000 -0.010492 0.000000
# 3 -0.005233 -0.007192 0.014450 0.000000 0.008843 0.000000
# 4 0.000000 0.000000 0.000000 0.043691 0.000000 0.002941
# 5 -0.001996 -0.010492 0.008843 0.000000 0.034298 0.000000
# 6 0.000000 0.000000 0.000000 0.002941 0.000000 0.094930
#
#
# Mechanical properties :
#
#
# Convention : Reuss Voigt Hill
#
# Bulk Modulus (GPa) = 41.04978 66.95111 54.00044
# Shear Modulus (GPa) = 19.32176 28.43994 23.88085
#
# Velocity S-wave (km/s) = 3.01421 3.65691 3.35100
# Velocity P-wave (km/s) = 5.60503 7.02227 6.35329
#
# Compressibility (1/GPa) = 0.02436067
#
# Stress axis : x y z
#
# Youngs Moduli (GPa) = 124.58768 34.99925 69.20485
#
# Poissons Ratio (x) = 0.03215 0.36214
# Poissons Ratio (y) = 0.11445 0.49775
# Poissons Ratio (z) = 0.65194 0.25173
#
# Static dielectric constant tensor:
#      x y z
#    x 4.384370 0.000000 -0.073570 
#    y 0.000000 3.543020 0.000000 
#    z -0.073570 0.000000 3.877770 
# 
# 
# High freq. dielectric constant tensor:
#      x y z
#    x 1.847850 0.000000 -0.007740 
#    y 0.000000 1.804210 0.000000 
#    z -0.007740 0.000000 1.838970 
# 
# From -- ./inp_files/155512.got.cif
#   From: 2010.06.25/outbox.cif.g09.slc.cpg/sg15_78_cif.got.tgz:155512.got - 2010.06.28 07:06:18.
