data_PCOD8140973
_publ_section_title
;
Structure prediction by ZEFSAII (Michael W. Deem and Ramdas Pophale) SiO2 
 PCOD8140973
Probable space group: C 2/C
;
_chemical_formula_sum "Si O2"
_cell_formula_units_Z 40
_cell_length_a 5.156809
_cell_length_b 19.225205
_cell_length_c 21.378677
_cell_angle_alpha 90.000000
_cell_angle_beta 93.863163
_cell_angle_gamma 90.000000
_cell_volume 2114.681302
_symmetry_space_group_name_H-M "C 2/C"
_symmetry_group_IT_number 15
_symmetry_cell_setting 'monoclinic'
loop_
_space_group_symop_operation_xyz
x,y,z
-x,y,1/2-z
-x,-y,-z
x,-y,1/2+z
1/2+x,1/2+y,z
1/2-x,1/2+y,1/2-z
1/2-x,1/2-y,-z
1/2+x,1/2-y,1/2+z
loop_
_atom_site_type_symbol
_atom_site_label
_atom_site_fract_x
_atom_site_fract_y
_atom_site_fract_z
Si Si1 0.246454 0.386138 0.085045
Si Si2 0.485776 0.250068 0.118247
Si Si3 0.036905 0.394961 0.945056
Si Si4 0.483650 0.204592 0.821622
Si Si5 0.521733 0.476409 0.929751
O O1 0.440406 0.320615 0.076649
O O2 0.045161 0.366218 0.137518
O O3 0.415794 0.453629 0.108990
O O4 0.086220 0.403692 0.019860
O O5 0.451544 0.185848 0.071487
O O6 0.269051 0.246925 0.169920
O O7 0.767386 0.250942 0.154088
O O8 0.250326 0.438490 0.908005
O O9 0.753209 0.421994 0.923306
O O10 0.500000 0.182591 0.750000
O O11 0.500000 0.500000 0.000000
#
# Coordination Sequence:
#
# PCOD8140973 Si02
#       5
#     8   8   8   8   8
#     4   9  22  33  60  82 116 144 185 222 279 335
#     4  10  22  35  59  82 111 143 188 233 275 330
#     4  11  21  35  55  88 119 144 175 227 289 340
#     4  10  22  37  58  82 106 147 195 240 270 321
#     4  10  21  34  53  82 122 148 171 213 279 347
#
# _framework density 18.915379999999999
#
# number of rings (size 3 to 8) (size 9 to 14) (size 15 to 20)
#    1.200    0.800    0.000    4.800    8.400    0.800 
#    0.000    0.000    0.000    4.800    0.000    0.000 
#    0.000    0.000    0.000    0.000    0.000    0.000 
#
# Total GULP energy -247826.684676 kJ/mol
# GULP energy per Si atom -12391.334234 kJ/mol
# Density = 1.887233 g / cm^3
# Si number density = 18.915380 Si / 1000 Ang^3
#
#
#
# Elastic Constant Matrix: (Units=GPa)
#
#
# Indices 1 2 3 4 5 6 
#
# 1 123.2191 25.8733 23.6109 0.0000 -18.0865 0.0000
# 2 25.8733 104.6608 21.8044 0.0000 -5.8434 0.0000
# 3 23.6109 21.8044 69.1048 0.0000 -10.8703 0.0000
# 4 0.0000 0.0000 0.0000 7.8885 0.0000 -6.3276
# 5 -18.0865 -5.8434 -10.8703 0.0000 19.3941 0.0000
# 6 0.0000 0.0000 0.0000 -6.3276 0.0000 21.6617
#
#
#
# Elastic Compliance Matrix: (Units=1/GPa)
#
#
# Indices 1 2 3 4 5 6 
#
# 1 0.009931 -0.001678 -0.001630 0.000000 0.007843 0.000000
# 2 -0.001678 0.010545 -0.002742 0.000000 0.000076 0.000000
# 3 -0.001630 -0.002742 0.017025 0.000000 0.007196 0.000000
# 4 0.000000 0.000000 0.000000 0.165561 0.000000 0.048362
# 5 0.007843 0.000076 0.007196 0.000000 0.062932 0.000000
# 6 0.000000 0.000000 0.000000 0.048362 0.000000 0.060292
#
#
# Mechanical properties :
#
#
# Convention : Reuss Voigt Hill
#
# Bulk Modulus (GPa) = 39.36811 48.84019 44.10415
# Shear Modulus (GPa) = 14.41534 24.83526 19.62530
#
# Velocity S-wave (km/s) = 2.76360 3.62742 3.22457
# Velocity P-wave (km/s) = 5.57147 6.58943 6.10172
#
# Compressibility (1/GPa) = 0.02540127
#
# Stress axis : x y z
#
# Youngs Moduli (GPa) = 100.69035 94.83248 58.73745
#
# Poissons Ratio (x) = 0.15910 0.09576
# Poissons Ratio (y) = 0.16892 0.16106
# Poissons Ratio (z) = 0.16415 0.26004
#
# Static dielectric constant tensor:
#      x y z
#    x 3.769370 0.000000 -0.239000 
#    y 0.000000 3.712010 0.000000 
#    z -0.239000 0.000000 3.008850 
# 
# 
# High freq. dielectric constant tensor:
#      x y z
#    x 1.750370 0.000000 -0.018270 
#    y 0.000000 1.736600 0.000000 
#    z -0.018270 0.000000 1.681230 
# 
# From -- ./inp_files/260538.got.cif
#   From: 2010.06.25/outbox.cif.g09.slc.cpg/sg15_131_cif.got.tgz:260538.got - 2010.06.28 07:06:18.
