data_PCOD8140020
_publ_section_title
;
Structure prediction by ZEFSAII (Michael W. Deem and Ramdas Pophale) SiO2 
 PCOD8140020
Probable space group: C 2/C
;
_chemical_formula_sum "Si O2"
_cell_formula_units_Z 40
_cell_length_a 22.882559
_cell_length_b 9.248830
_cell_length_c 14.931463
_cell_angle_alpha 90.000000
_cell_angle_beta 36.241150
_cell_angle_gamma 90.000000
_cell_volume 1868.173523
_symmetry_space_group_name_H-M "C 2/C"
_symmetry_group_IT_number 15
_symmetry_cell_setting 'monoclinic'
loop_
_space_group_symop_operation_xyz
x,y,z
-x,y,1/2-z
-x,-y,-z
x,-y,1/2+z
1/2+x,1/2+y,z
1/2-x,1/2+y,1/2-z
1/2-x,1/2-y,-z
1/2+x,1/2-y,1/2+z
loop_
_atom_site_type_symbol
_atom_site_label
_atom_site_fract_x
_atom_site_fract_y
_atom_site_fract_z
Si Si1 0.886185 0.422684 0.708694
Si Si2 0.747675 0.684001 0.601133
Si Si3 0.190231 0.869333 0.689984
Si Si4 0.596316 0.823757 0.450461
Si Si5 0.111654 0.341534 0.146725
O O1 0.800599 0.314532 0.783660
O O2 0.890664 0.529289 0.620426
O O3 0.864628 0.511180 0.827305
O O4 0.979281 0.314873 0.608744
O O5 0.750000 0.750000 0.500000
O O6 0.679289 0.541683 0.694687
O O7 0.854955 0.655477 0.512008
O O8 0.146220 0.812540 0.838465
O O9 0.123569 0.797842 0.694908
O O10 0.307048 0.828825 0.533062
O O11 0.000000 0.344163 0.250000
#
# Coordination Sequence:
#
# PCOD8140020 Si02
#       5
#     8   8   8   8   8
#     4  10  22  41  66  92 123 174 219 250 325 392
#     4  12  23  39  63  96 129 165 208 278 321 378
#     4  10  22  40  60  94 125 163 216 259 318 378
#     4  10  23  42  65  90 128 171 214 263 316 396
#     4  10  20  40  65  87 125 171 213 257 315 393
#
# _framework density 21.411286
#
# number of rings (size 3 to 8) (size 9 to 14) (size 15 to 20)
#    0.000    1.600    2.000    2.400    0.000    4.000 
#    3.600    0.000    0.000    0.000    0.000    0.000 
#    0.000    0.000    0.000    0.000    0.000    0.000 
#
# Total GULP energy -247858.264174 kJ/mol
# GULP energy per Si atom -12392.913209 kJ/mol
# Density = 2.136255 g / cm^3
# Si number density = 21.411286 Si / 1000 Ang^3
#
#
#
# Elastic Constant Matrix: (Units=GPa)
#
#
# Indices 1 2 3 4 5 6 
#
# 1 122.2755 41.6423 17.4430 -0.0002 -9.1647 0.0001
# 2 41.6423 118.8758 12.1203 -0.0003 -6.6116 0.0003
# 3 17.4430 12.1203 57.6013 -0.0002 -2.9398 0.0001
# 4 -0.0002 -0.0003 -0.0002 28.5156 0.0001 -4.9553
# 5 -9.1647 -6.6116 -2.9398 0.0001 34.4429 -0.0001
# 6 0.0001 0.0003 0.0001 -4.9553 -0.0001 24.6747
#
#
#
# Elastic Compliance Matrix: (Units=1/GPa)
#
#
# Indices 1 2 3 4 5 6 
#
# 1 0.009669 -0.003064 -0.002192 0.000000 0.001798 0.000000
# 2 -0.003064 0.009645 -0.001054 0.000000 0.000946 0.000000
# 3 -0.002192 -0.001054 0.018286 0.000000 0.000775 0.000000
# 4 0.000000 0.000000 0.000000 0.036337 0.000000 0.007297
# 5 0.001798 0.000946 0.000775 0.000000 0.029760 0.000000
# 6 0.000000 0.000000 0.000000 0.007297 0.000000 0.041993
#
#
# Mechanical properties :
#
#
# Convention : Reuss Voigt Hill
#
# Bulk Modulus (GPa) = 40.02798 49.01817 44.52308
# Shear Modulus (GPa) = 30.00583 32.69643 31.35113
#
# Velocity S-wave (km/s) = 3.74759 3.91201 3.83068
# Velocity P-wave (km/s) = 6.12057 6.58395 6.35648
#
# Compressibility (1/GPa) = 0.02498252
#
# Stress axis : x y z
#
# Youngs Moduli (GPa) = 103.42353 103.67654 54.68772
#
# Poissons Ratio (x) = 0.31763 0.11985
# Poissons Ratio (y) = 0.31685 0.05761
# Poissons Ratio (z) = 0.22666 0.10922
#
# Static dielectric constant tensor:
#      x y z
#    x 3.787360 0.000000 -0.151140 
#    y 0.000000 4.176860 0.000000 
#    z -0.151140 0.000000 4.150310 
# 
# 
# High freq. dielectric constant tensor:
#      x y z
#    x 1.836660 0.000000 0.001520 
#    y 0.000000 1.845260 0.000000 
#    z 0.001520 0.000000 1.838580 
# 
# From -- ./inp_files/166034.got.cif
#   From: 2010.06.25/outbox.cif.g09.slc.cpg/sg15_84_cif.got.tgz:166034.got - 2010.06.28 07:06:18.
