data_PCOD8140579
_publ_section_title
;
Structure prediction by ZEFSAII (Michael W. Deem and Ramdas Pophale) SiO2 
 PCOD8140579
Probable space group: C 2/C
;
_chemical_formula_sum "Si O2"
_cell_formula_units_Z 56
_cell_length_a 26.188657
_cell_length_b 9.060187
_cell_length_c 17.051478
_cell_angle_alpha 90.000000
_cell_angle_beta 139.231267
_cell_angle_gamma 90.000000
_cell_volume 2641.986077
_symmetry_space_group_name_H-M "C 2/C"
_symmetry_group_IT_number 15
_symmetry_cell_setting 'monoclinic'
loop_
_space_group_symop_operation_xyz
x,y,z
-x,y,1/2-z
-x,-y,-z
x,-y,1/2+z
1/2+x,1/2+y,z
1/2-x,1/2+y,1/2-z
1/2-x,1/2-y,-z
1/2+x,1/2-y,1/2+z
loop_
_atom_site_type_symbol
_atom_site_label
_atom_site_fract_x
_atom_site_fract_y
_atom_site_fract_z
Si Si1 0.166216 0.237704 0.442856
Si Si2 0.946136 0.279116 0.981336
Si Si3 0.061461 0.478342 0.385881
Si Si4 0.664142 0.384142 0.678508
Si Si5 0.790124 0.154449 0.844441
Si Si6 0.061202 0.062993 0.200241
Si Si7 0.526060 0.723815 0.916383
O O1 0.250000 0.250000 0.500000
O O2 0.141599 0.402277 0.446347
O O3 0.176872 0.132168 0.529814
O O4 0.097752 0.158928 0.313423
O O5 0.959191 0.422093 0.050842
O O6 0.989486 0.145145 0.075503
O O7 0.854459 0.241165 0.867516
O O8 0.979298 0.305158 0.932786
O O9 0.058032 0.656771 0.389952
O O10 0.000000 0.425742 0.250000
O O11 0.706856 0.234024 0.751140
O O12 0.726950 0.496945 0.714927
O O13 0.628537 0.458950 0.714245
O O14 0.600240 0.357531 0.538158
O O15 0.029784 0.900449 0.189726
#
# Coordination Sequence:
#
# PCOD8140579 Si02
#       7
#     8   8   8   8   8   8   8
#     4  11  24  43  66  96 136 184 221 266 345 409
#     4  10  20  42  65  97 127 170 219 272 335 395
#     4  11  24  41  64  99 132 170 220 276 333 397
#     4  11  23  40  64  99 130 173 222 273 335 401
#     4  11  23  39  65  97 131 171 223 272 332 401
#     4  11  20  44  70  89 130 177 222 275 328 412
#     4  11  23  41  70  98 132 166 229 281 333 393
#
# _framework density 21.196175
#
# number of rings (size 3 to 8) (size 9 to 14) (size 15 to 20)
#    0.000    1.143    5.714    1.286    4.000    1.143 
#    2.571    0.000    0.000    2.571    0.000    0.000 
#    0.000    0.000    0.000    0.000    0.000    0.000 
#
# Total GULP energy -346993.477480 kJ/mol
# GULP energy per Si atom -12392.624196 kJ/mol
# Density = 2.114793 g / cm^3
# Si number density = 21.196175 Si / 1000 Ang^3
#
#
#
# Elastic Constant Matrix: (Units=GPa)
#
#
# Indices 1 2 3 4 5 6 
#
# 1 87.4980 54.7446 24.8856 0.0000 7.8747 0.0000
# 2 54.7446 123.1747 27.5038 0.0000 0.0957 0.0000
# 3 24.8856 27.5038 67.2828 0.0000 0.2937 0.0000
# 4 0.0000 0.0000 0.0000 10.8931 0.0000 2.3212
# 5 7.8747 0.0957 0.2937 0.0000 22.9420 0.0000
# 6 0.0000 0.0000 0.0000 2.3212 0.0000 36.6304
#
#
#
# Elastic Compliance Matrix: (Units=1/GPa)
#
#
# Indices 1 2 3 4 5 6 
#
# 1 0.017268 -0.006878 -0.003550 0.000000 -0.005853 0.000000
# 2 -0.006878 0.011673 -0.002238 0.000000 0.002341 0.000000
# 3 -0.003550 -0.002238 0.017086 0.000000 0.001009 0.000000
# 4 0.000000 0.000000 0.000000 0.093058 0.000000 -0.005897
# 5 -0.005853 0.002341 0.001009 0.000000 0.045574 0.000000
# 6 0.000000 0.000000 0.000000 -0.005897 0.000000 0.027673
#
#
# Mechanical properties :
#
#
# Convention : Reuss Voigt Hill
#
# Bulk Modulus (GPa) = 48.31819 54.69152 51.50485
# Shear Modulus (GPa) = 20.44454 25.48121 22.96287
#
# Velocity S-wave (km/s) = 3.10907 3.47098 3.29500
# Velocity P-wave (km/s) = 5.97776 6.47473 6.23120
#
# Compressibility (1/GPa) = 0.02069614
#
# Stress axis : x y z
#
# Youngs Moduli (GPa) = 57.90932 85.66594 58.52687
#
# Poissons Ratio (x) = 0.58918 0.20777
# Poissons Ratio (y) = 0.39828 0.13099
# Poissons Ratio (z) = 0.20558 0.19174
#
# Static dielectric constant tensor:
#      x y z
#    x 3.986450 0.000000 -0.006030 
#    y 0.000000 3.723710 0.000000 
#    z -0.006030 0.000000 3.780110 
# 
# 
# High freq. dielectric constant tensor:
#      x y z
#    x 1.829840 0.000000 0.000050 
#    y 0.000000 1.822570 0.000000 
#    z 0.000050 0.000000 1.825760 
# 
# From -- ./inp_files/218688.got.cif
#   From: 2010.06.25/outbox.cif.g09.slc.cpg/sg15_110_cif.got.tgz:218688.got - 2010.06.28 07:06:18.
