data_PCOD8140351
_publ_section_title
;
Structure prediction by ZEFSAII (Michael W. Deem and Ramdas Pophale) SiO2 
 PCOD8140351
Probable space group: C 2/C
;
_chemical_formula_sum "Si O2"
_cell_formula_units_Z 64
_cell_length_a 25.792719
_cell_length_b 18.613655
_cell_length_c 15.223835
_cell_angle_alpha 90.000000
_cell_angle_beta 154.133592
_cell_angle_gamma 90.000000
_cell_volume 3188.691442
_symmetry_space_group_name_H-M "C 2/C"
_symmetry_group_IT_number 15
_symmetry_cell_setting 'monoclinic'
loop_
_space_group_symop_operation_xyz
x,y,z
-x,y,1/2-z
-x,-y,-z
x,-y,1/2+z
1/2+x,1/2+y,z
1/2-x,1/2+y,1/2-z
1/2-x,1/2-y,-z
1/2+x,1/2-y,1/2+z
loop_
_atom_site_type_symbol
_atom_site_label
_atom_site_fract_x
_atom_site_fract_y
_atom_site_fract_z
Si Si1 0.470393 0.309707 0.468041
Si Si2 0.969759 0.277233 0.609838
Si Si3 0.121592 0.962350 0.166618
Si Si4 0.797306 0.775555 0.347456
Si Si5 0.734004 0.435733 0.164163
Si Si6 0.740650 0.315653 0.920575
Si Si7 0.708680 0.032164 0.935997
Si Si8 0.993736 0.439836 0.640474
O O1 0.473067 0.267366 0.381539
O O2 0.386435 0.378117 0.326057
O O3 0.406973 0.262379 0.447549
O O4 0.601872 0.334839 0.696519
O O5 0.827822 0.277441 0.392801
O O6 0.000000 0.242127 0.750000
O O7 0.029247 0.355954 0.692618
O O8 0.150986 0.975619 0.108672
O O9 0.224414 0.991563 0.384784
O O10 0.000000 0.000000 0.000000
O O11 0.807256 0.852929 0.410309
O O12 0.801164 0.709704 0.421897
O O13 0.718446 0.470839 0.044476
O O14 0.867297 0.446430 0.401493
O O15 0.750000 0.250000 0.000000
O O16 0.810634 0.384719 0.064548
O O17 0.585115 0.991510 0.728398
O O18 0.000000 0.467734 0.750000
#
# Coordination Sequence:
#
# PCOD8140351 Si02
#       8
#     8   8   8   8   8   8   8   8
#     4  10  22  42  64  87 126 165 206 253 311 371
#     4   9  20  39  63  90 122 160 207 253 300 367
#     4  11  23  43  61  89 129 169 209 253 311 378
#     4   9  20  40  63  88 120 162 202 253 310 363
#     4  10  21  41  66  87 124 167 206 253 319 373
#     4  11  22  42  63  91 123 156 210 260 306 368
#     4  12  23  41  65  94 127 165 207 259 312 373
#     4  10  20  41  65  90 126 163 202 260 321 365
#
# _framework density 20.070930000000001
#
# number of rings (size 3 to 8) (size 9 to 14) (size 15 to 20)
#    0.000    1.750    3.750    0.375    1.750    1.500 
#    6.750    0.000    0.000    0.000    0.000    0.000 
#    0.000    0.000    0.000    0.000    0.000    0.000 
#
# Total GULP energy -396755.202644 kJ/mol
# GULP energy per Si atom -12398.600083 kJ/mol
# Density = 2.002525 g / cm^3
# Si number density = 20.070930 Si / 1000 Ang^3
#
#
#
# Elastic Constant Matrix: (Units=GPa)
#
#
# Indices 1 2 3 4 5 6 
#
# 1 156.2589 48.0115 26.1675 0.0000 6.7745 0.0000
# 2 48.0115 80.4604 25.6217 0.0000 0.8296 0.0000
# 3 26.1675 25.6217 33.1789 0.0000 2.0831 0.0000
# 4 0.0000 0.0000 0.0000 32.4068 0.0000 0.7734
# 5 6.7745 0.8296 2.0831 0.0000 32.1805 0.0000
# 6 0.0000 0.0000 0.0000 0.7734 0.0000 28.9522
#
#
#
# Elastic Compliance Matrix: (Units=1/GPa)
#
#
# Indices 1 2 3 4 5 6 
#
# 1 0.008201 -0.003776 -0.003464 0.000000 -0.001405 0.000000
# 2 -0.003776 0.018225 -0.011162 0.000000 0.001048 0.000000
# 3 -0.003464 -0.011162 0.041596 0.000000 -0.001676 0.000000
# 4 0.000000 0.000000 0.000000 0.030877 0.000000 -0.000825
# 5 -0.001405 0.001048 -0.001676 0.000000 0.031452 0.000000
# 6 0.000000 0.000000 0.000000 -0.000825 0.000000 0.034562
#
#
# Mechanical properties :
#
#
# Convention : Reuss Voigt Hill
#
# Bulk Modulus (GPa) = 32.03165 52.16664 42.09915
# Shear Modulus (GPa) = 23.57133 30.04771 26.80952
#
# Velocity S-wave (km/s) = 3.43067 3.87340 3.65874
# Velocity P-wave (km/s) = 5.62908 6.78616 6.23452
#
# Compressibility (1/GPa) = 0.03121912
#
# Stress axis : x y z
#
# Youngs Moduli (GPa) = 121.93961 54.86908 24.04086
#
# Poissons Ratio (x) = 0.20719 0.08327
# Poissons Ratio (y) = 0.46045 0.26834
# Poissons Ratio (z) = 0.42235 0.61243
#
# Static dielectric constant tensor:
#      x y z
#    x 3.857430 0.000000 0.127450 
#    y 0.000000 3.744360 0.000000 
#    z 0.127450 0.000000 1.715050 
# 
# 
# High freq. dielectric constant tensor:
#      x y z
#    x 1.794220 0.000000 -0.003690 
#    y 0.000000 1.772610 0.000000 
#    z -0.003690 0.000000 1.778220 
# 
# From -- ./inp_files/155213.got.cif
#   From: 2010.06.25/outbox.cif.g09.slc.cpg/sg15_78_cif.got.tgz:155213.got - 2010.06.28 07:06:18.
