data_PCOD8140366
_publ_section_title
;
Structure prediction by ZEFSAII (Michael W. Deem and Ramdas Pophale) SiO2 
 PCOD8140366
Probable space group: C 2/C
;
_chemical_formula_sum "Si O2"
_cell_formula_units_Z 48
_cell_length_a 19.160150
_cell_length_b 27.991058
_cell_length_c 10.198338
_cell_angle_alpha 90.000000
_cell_angle_beta 24.292608
_cell_angle_gamma 90.000000
_cell_volume 2250.134605
_symmetry_space_group_name_H-M "C 2/C"
_symmetry_group_IT_number 15
_symmetry_cell_setting 'monoclinic'
loop_
_space_group_symop_operation_xyz
x,y,z
-x,y,1/2-z
-x,-y,-z
x,-y,1/2+z
1/2+x,1/2+y,z
1/2-x,1/2+y,1/2-z
1/2-x,1/2-y,-z
1/2+x,1/2-y,1/2+z
loop_
_atom_site_type_symbol
_atom_site_label
_atom_site_fract_x
_atom_site_fract_y
_atom_site_fract_z
Si Si1 0.704202 0.407382 0.652908
Si Si2 0.698746 0.602272 0.637428
Si Si3 0.698574 0.250214 0.434595
Si Si4 0.304645 0.657198 0.104117
Si Si5 0.701986 0.355824 0.397874
Si Si6 0.614779 0.993382 0.678859
O O1 0.781802 0.378770 0.643487
O O2 0.776458 0.381625 0.398905
O O3 0.763596 0.461706 0.556491
O O4 0.502966 0.402366 0.006559
O O5 0.767651 0.642703 0.415878
O O6 0.773818 0.616539 0.649646
O O7 0.765990 0.550420 0.486503
O O8 0.750000 0.250000 0.500000
O O9 0.785858 0.210916 0.191249
O O10 0.763882 0.301507 0.275309
O O11 0.500000 0.243368 0.750000
O O12 0.500000 0.645841 0.750000
O O13 0.500000 0.356647 0.750000
O O14 0.500000 0.982662 0.750000
O O15 0.500000 0.000000 0.000000
#
# Coordination Sequence:
#
# PCOD8140366 Si02
#       6
#     8   8   8   8   8   8
#     4  10  20  41  66  84 119 173 214 252 313 394
#     4  10  22  41  62  90 121 171 214 260 311 391
#     4  11  23  43  68  97 132 174 217 263 330 392
#     4  10  22  40  65  94 127 162 219 267 315 381
#     4   9  19  38  64  87 122 163 215 257 308 380
#     4  12  25  40  60  93 131 159 206 274 326 379
#
# _framework density 21.332056999999999
#
# number of rings (size 3 to 8) (size 9 to 14) (size 15 to 20)
#    0.000    1.667    1.667    2.500    2.333    2.667 
#    3.000    6.667    0.000    0.000    0.000    0.000 
#    0.000    0.000    0.000    0.000    0.000    0.000 
#
# Total GULP energy -297430.319169 kJ/mol
# GULP energy per Si atom -12392.929965 kJ/mol
# Density = 2.128350 g / cm^3
# Si number density = 21.332057 Si / 1000 Ang^3
#
#
#
# Elastic Constant Matrix: (Units=GPa)
#
#
# Indices 1 2 3 4 5 6 
#
# 1 114.3324 30.5120 45.5406 -0.0029 35.4392 -0.0011
# 2 30.5120 146.4235 38.9039 -0.0017 24.7563 0.0003
# 3 45.5406 38.9039 60.2532 -0.0018 32.5734 -0.0014
# 4 -0.0029 -0.0017 -0.0018 34.7299 0.0023 8.5620
# 5 35.4392 24.7563 32.5734 0.0023 32.7663 0.0012
# 6 -0.0011 0.0003 -0.0014 8.5620 0.0012 36.9259
#
#
#
# Elastic Compliance Matrix: (Units=1/GPa)
#
#
# Indices 1 2 3 4 5 6 
#
# 1 0.013856 0.000179 -0.005217 0.000001 -0.009935 0.000000
# 2 0.000179 0.008309 -0.004327 0.000000 -0.002169 0.000000
# 3 -0.005217 -0.004327 0.040028 0.000003 -0.030880 0.000002
# 4 0.000001 0.000000 0.000003 0.030539 -0.000007 -0.007081
# 5 -0.009935 -0.002169 -0.030880 -0.000007 0.073602 -0.000002
# 6 0.000000 0.000000 0.000002 -0.007081 -0.000002 0.028723
#
#
# Mechanical properties :
#
#
# Convention : Reuss Voigt Hill
#
# Bulk Modulus (GPa) = 23.00875 61.21357 42.11116
# Shear Modulus (GPa) = 21.90328 34.62126 28.26227
#
# Velocity S-wave (km/s) = 3.20781 4.03298 3.64383
# Velocity P-wave (km/s) = 4.95273 7.10242 6.12266
#
# Compressibility (1/GPa) = 0.04346173
#
# Stress axis : x y z
#
# Youngs Moduli (GPa) = 72.16851 120.35570 24.98259
#
# Poissons Ratio (x) = -0.02149 0.13034
# Poissons Ratio (y) = -0.01288 0.10810
# Poissons Ratio (z) = 0.37652 0.52078
#
# Static dielectric constant tensor:
#      x y z
#    x 4.188910 -0.000020 0.351520 
#    y -0.000020 4.111530 0.000020 
#    z 0.351520 0.000020 3.716810 
# 
# 
# High freq. dielectric constant tensor:
#      x y z
#    x 1.844460 0.000000 0.019610 
#    y 0.000000 1.847760 0.000000 
#    z 0.019610 0.000000 1.826650 
# 
# From -- ./inp_files/52718.got.cif
#   From: 2010.06.25/outbox.cif.g09.slc.cpg/sg15_27_cif.got.tgz:52718.got - 2010.06.28 07:06:18.
