data_PCOD8140774
_publ_section_title
;
Structure prediction by ZEFSAII (Michael W. Deem and Ramdas Pophale) SiO2 
 PCOD8140774
Probable space group: C 2/C
;
_chemical_formula_sum "Si O2"
_cell_formula_units_Z 44
_cell_length_a 10.743496
_cell_length_b 14.980233
_cell_length_c 12.709448
_cell_angle_alpha 90.000000
_cell_angle_beta 103.577647
_cell_angle_gamma 90.000000
_cell_volume 1988.294348
_symmetry_space_group_name_H-M "C 2/C"
_symmetry_group_IT_number 15
_symmetry_cell_setting 'monoclinic'
loop_
_space_group_symop_operation_xyz
x,y,z
-x,y,1/2-z
-x,-y,-z
x,-y,1/2+z
1/2+x,1/2+y,z
1/2-x,1/2+y,1/2-z
1/2-x,1/2-y,-z
1/2+x,1/2-y,1/2+z
loop_
_atom_site_type_symbol
_atom_site_label
_atom_site_fract_x
_atom_site_fract_y
_atom_site_fract_z
Si Si1 0.915440 0.160277 0.838209
Si Si2 0.500000 0.405414 0.750000
Si Si3 0.088818 0.355577 0.673796
Si Si4 0.610442 0.672614 0.061131
Si Si5 0.355098 0.872117 0.494115
Si Si6 0.733378 0.513616 0.795222
O O1 0.849428 0.258416 0.844241
O O2 0.804365 0.084484 0.804657
O O3 0.000000 0.156264 0.750000
O O4 0.005971 0.139431 0.955468
O O5 0.439247 0.347347 0.831492
O O6 0.606264 0.470929 0.821505
O O7 0.188662 0.428789 0.734002
O O8 0.000000 0.325558 0.750000
O O9 0.996676 0.394811 0.564592
O O10 0.639565 0.776905 0.061424
O O11 0.746358 0.624862 0.063679
O O12 0.321640 0.943939 0.400402
#
# Coordination Sequence:
#
# PCOD8140774 Si02
#       6
#     8   4   8   8   8   8
#     4  10  20  43  67  94 124 174 220 257 320 393
#     4  12  26  38  64 106 128 164 224 280 316 372
#     4  10  23  40  65  95 129 171 218 262 324 396
#     4  10  22  42  70  95 129 175 217 266 322 390
#     4  10  21  42  69  92 129 180 215 257 329 398
#     4  12  23  39  65 100 130 168 217 276 320 383
#
# _framework density 22.129519999999999
#
# number of rings (size 3 to 8) (size 9 to 14) (size 15 to 20)
#    0.000    1.455    2.727    1.636    5.091    4.364 
#    1.636    3.636    4.000    0.000    0.000    0.000 
#    0.000    0.000    0.000    0.000    0.000    0.000 
#
# Total GULP energy -272586.703951 kJ/mol
# GULP energy per Si atom -12390.304725 kJ/mol
# Density = 2.207915 g / cm^3
# Si number density = 22.129520 Si / 1000 Ang^3
#
#
#
# Elastic Constant Matrix: (Units=GPa)
#
#
# Indices 1 2 3 4 5 6 
#
# 1 87.0226 69.1105 34.3897 0.0000 16.0629 0.0000
# 2 69.1105 131.9750 45.6289 0.0000 19.0426 0.0000
# 3 34.3897 45.6289 104.9555 0.0000 1.9365 0.0000
# 4 0.0000 0.0000 0.0000 36.9227 0.0000 22.1880
# 5 16.0629 19.0426 1.9365 0.0000 33.7006 0.0000
# 6 0.0000 0.0000 0.0000 22.1880 0.0000 49.7226
#
#
#
# Elastic Compliance Matrix: (Units=1/GPa)
#
#
# Indices 1 2 3 4 5 6 
#
# 1 0.020763 -0.009300 -0.002677 0.000000 -0.004488 0.000000
# 2 -0.009300 0.013941 -0.002953 0.000000 -0.003275 0.000000
# 3 -0.002677 -0.002953 0.011647 0.000000 0.002276 0.000000
# 4 0.000000 0.000000 0.000000 0.037007 0.000000 -0.016514
# 5 -0.004488 -0.003275 0.002276 0.000000 0.033532 0.000000
# 6 0.000000 0.000000 0.000000 -0.016514 0.000000 0.027481
#
#
# Mechanical properties :
#
#
# Convention : Reuss Voigt Hill
#
# Bulk Modulus (GPa) = 60.64135 69.13458 64.88797
# Shear Modulus (GPa) = 27.81979 35.72413 31.77196
#
# Velocity S-wave (km/s) = 3.54946 4.02222 3.79321
# Velocity P-wave (km/s) = 6.65286 7.27184 6.96923
#
# Compressibility (1/GPa) = 0.01649040
#
# Stress axis : x y z
#
# Youngs Moduli (GPa) = 48.16201 71.73277 85.85908
#
# Poissons Ratio (x) = 0.66709 0.22989
# Poissons Ratio (y) = 0.44789 0.25355
# Poissons Ratio (z) = 0.12895 0.21183
#
# Static dielectric constant tensor:
#      x y z
#    x 4.201580 0.000000 0.582770 
#    y 0.000000 4.140220 0.000000 
#    z 0.582770 0.000000 3.981770 
# 
# 
# High freq. dielectric constant tensor:
#      x y z
#    x 1.851180 0.000000 0.036000 
#    y 0.000000 1.884740 0.000000 
#    z 0.036000 0.000000 1.862810 
# 
# From -- ./inp_files/86193.got.cif
#   From: 2010.06.25/outbox.cif.g09.slc.cpg/sg15_44_cif.got.tgz:86193.got - 2010.06.28 07:06:18.
