data_PCOD8140976
_publ_section_title
;
Structure prediction by ZEFSAII (Michael W. Deem and Ramdas Pophale) SiO2 
 PCOD8140976
Probable space group: C 2/C
;
_chemical_formula_sum "Si O2"
_cell_formula_units_Z 44
_cell_length_a 21.254277
_cell_length_b 20.467013
_cell_length_c 5.324740
_cell_angle_alpha 90.000000
_cell_angle_beta 102.663602
_cell_angle_gamma 90.000000
_cell_volume 2259.976606
_symmetry_space_group_name_H-M "C 2/C"
_symmetry_group_IT_number 15
_symmetry_cell_setting 'monoclinic'
loop_
_space_group_symop_operation_xyz
x,y,z
-x,y,1/2-z
-x,-y,-z
x,-y,1/2+z
1/2+x,1/2+y,z
1/2-x,1/2+y,1/2-z
1/2-x,1/2-y,-z
1/2+x,1/2-y,1/2+z
loop_
_atom_site_type_symbol
_atom_site_label
_atom_site_fract_x
_atom_site_fract_y
_atom_site_fract_z
Si Si1 0.716151 0.477840 0.271561
Si Si2 0.073432 0.967780 0.676913
Si Si3 0.000000 0.153263 0.250000
Si Si4 0.681954 0.800867 0.693516
Si Si5 0.247900 0.164945 0.746167
Si Si6 0.034963 0.720955 0.024746
O O1 0.754726 0.493770 0.563548
O O2 0.649955 0.519278 0.245443
O O3 0.705255 0.400519 0.233515
O O4 0.056022 0.890683 0.668118
O O5 0.042854 0.002105 0.405398
O O6 0.033476 0.199819 0.489342
O O7 0.714415 0.836808 0.485056
O O8 0.698586 0.724406 0.709132
O O9 0.606076 0.807945 0.599853
O O10 0.703140 0.832344 0.976112
O O11 0.000000 0.700481 0.250000
O O12 0.000000 0.688803 0.750000
#
# Coordination Sequence:
#
# PCOD8140976 Si02
#       6
#     8   8   4   8   8   8
#     4  10  21  34  54  81 111 149 189 238 287 336
#     4  10  22  34  48  72 107 155 198 224 268 314
#     4  10  24  34  54  76 118 158 192 234 260 336
#     4  10  21  38  58  81 110 155 198 251 290 339
#     4  10  21  37  58  80 112 153 205 243 290 338
#     4  10  23  35  57  83 115 148 193 238 288 333
#
# _framework density 19.469227
#
# number of rings (size 3 to 8) (size 9 to 14) (size 15 to 20)
#    0.545    1.455    0.000    2.727    7.636    1.455 
#    3.273    0.000    0.000    0.000    0.000    0.000 
#    0.000   50.909    0.000    0.000    0.000    0.000 
#
# Total GULP energy -272644.310114 kJ/mol
# GULP energy per Si atom -12392.923187 kJ/mol
# Density = 1.942491 g / cm^3
# Si number density = 19.469227 Si / 1000 Ang^3
#
#
#
# Elastic Constant Matrix: (Units=GPa)
#
#
# Indices 1 2 3 4 5 6 
#
# 1 74.7798 9.1341 32.5884 0.0000 7.2564 0.0000
# 2 9.1341 58.7448 9.8303 0.0000 -7.1198 0.0000
# 3 32.5884 9.8303 167.6553 0.0000 -21.3715 0.0000
# 4 0.0000 0.0000 0.0000 17.4773 0.0000 -2.7609
# 5 7.2564 -7.1198 -21.3715 0.0000 28.4421 0.0000
# 6 0.0000 0.0000 0.0000 -2.7609 0.0000 17.8148
#
#
#
# Elastic Compliance Matrix: (Units=1/GPa)
#
#
# Indices 1 2 3 4 5 6 
#
# 1 0.016212 -0.002803 -0.003985 0.000000 -0.007832 0.000000
# 2 -0.002803 0.018081 0.000169 0.000000 0.005368 0.000000
# 3 -0.003985 0.000169 0.007591 0.000000 0.006763 0.000000
# 4 0.000000 0.000000 0.000000 0.058653 0.000000 0.009090
# 5 -0.007832 0.005368 0.006763 0.000000 0.043583 0.000000
# 6 0.000000 0.000000 0.000000 0.009090 0.000000 0.057542
#
#
# Mechanical properties :
#
#
# Convention : Reuss Voigt Hill
#
# Bulk Modulus (GPa) = 34.90944 44.92061 39.91503
# Shear Modulus (GPa) = 22.27670 29.38863 25.83267
#
# Velocity S-wave (km/s) = 3.38627 3.88943 3.64654
# Velocity P-wave (km/s) = 5.76703 6.57974 6.18674
#
# Compressibility (1/GPa) = 0.02864554
#
# Stress axis : x y z
#
# Youngs Moduli (GPa) = 61.68364 55.30667 131.72647
#
# Poissons Ratio (x) = 0.15503 0.52496
# Poissons Ratio (y) = 0.17291 -0.02226
# Poissons Ratio (z) = 0.24582 -0.00935
#
# Static dielectric constant tensor:
#      x y z
#    x 3.237810 0.000000 -0.262750 
#    y 0.000000 3.209400 0.000000 
#    z -0.262750 0.000000 4.577100 
# 
# 
# High freq. dielectric constant tensor:
#      x y z
#    x 1.731290 0.000000 -0.010660 
#    y 0.000000 1.721770 0.000000 
#    z -0.010660 0.000000 1.793730 
# 
# From -- ./inp_files/10372.got.cif
#   From: 2010.06.25/outbox.cif.g09.slc.cpg/sg15_6_cif.got.tgz:10372.got - 2010.06.28 07:06:18.
