data_PCOD8140615
_publ_section_title
;
Structure prediction by ZEFSAII (Michael W. Deem and Ramdas Pophale) SiO2 
 PCOD8140615
Probable space group: C 2/C
;
_chemical_formula_sum "Si O2"
_cell_formula_units_Z 44
_cell_length_a 16.408017
_cell_length_b 15.388470
_cell_length_c 9.553024
_cell_angle_alpha 90.000000
_cell_angle_beta 41.169215
_cell_angle_gamma 90.000000
_cell_volume 1587.838868
_symmetry_space_group_name_H-M "C 2/C"
_symmetry_group_IT_number 15
_symmetry_cell_setting 'monoclinic'
loop_
_space_group_symop_operation_xyz
x,y,z
-x,y,1/2-z
-x,-y,-z
x,-y,1/2+z
1/2+x,1/2+y,z
1/2-x,1/2+y,1/2-z
1/2-x,1/2-y,-z
1/2+x,1/2-y,1/2+z
loop_
_atom_site_type_symbol
_atom_site_label
_atom_site_fract_x
_atom_site_fract_y
_atom_site_fract_z
Si Si1 0.671651 0.137358 0.120573
Si Si2 0.850603 0.894579 0.628346
Si Si3 0.000000 0.790288 0.750000
Si Si4 0.318126 0.862267 0.426017
Si Si5 0.000000 0.785269 0.250000
Si Si6 0.000000 0.501343 0.250000
Si Si7 0.823083 0.905516 0.153512
O O1 0.736426 0.143247 0.185308
O O2 0.618499 0.230290 0.144310
O O3 0.558593 0.067558 0.288369
O O4 0.773232 0.109832 0.874008
O O5 0.819237 0.861771 0.826448
O O6 0.973911 0.846558 0.417213
O O7 0.872369 0.996458 0.582159
O O8 0.111530 0.729089 0.663571
O O9 0.059448 0.846923 0.546412
O O10 0.388118 0.935465 0.432198
O O11 0.296251 0.891251 0.294036
#
# Coordination Sequence:
#
# PCOD8140615 Si02
#       7
#     8   8   4   8   4   4   8
#     4  11  25  43  69  99 133 174 226 270 326 396
#     4  12  24  46  68 100 134 175 223 273 328 396
#     4  11  27  43  69 100 138 176 215 279 337 385
#     4  11  25  43  69  99 133 174 226 270 326 396
#     4  11  27  43  69 100 138 176 215 279 337 385
#     4  10  20  42  66  96 122 170 218 266 320 374
#     4  12  24  46  68 100 134 175 223 273 328 396
#
# _framework density 27.710622000000001
#
# number of rings (size 3 to 8) (size 9 to 14) (size 15 to 20)
#    0.000    0.727    3.636    2.727    0.000   11.636 
#    0.000    3.636    0.000    0.000    0.000    0.000 
#    0.000    0.000    0.000    0.000    0.000    0.000 
#
# Total GULP energy -272725.140325 kJ/mol
# GULP energy per Si atom -12396.597287 kJ/mol
# Density = 2.764755 g / cm^3
# Si number density = 27.710622 Si / 1000 Ang^3
#
#
#
# Elastic Constant Matrix: (Units=GPa)
#
#
# Indices 1 2 3 4 5 6 
#
# 1 39.9117 -1.5562 16.8911 0.0000 -1.1423 0.0000
# 2 -1.5562 188.8053 37.4036 0.0000 -11.9839 0.0000
# 3 16.8911 37.4036 102.2044 0.0000 -18.7464 0.0000
# 4 0.0000 0.0000 0.0000 49.1750 0.0000 -7.0759
# 5 -1.1423 -11.9839 -18.7464 0.0000 42.3103 0.0000
# 6 0.0000 0.0000 0.0000 -7.0759 0.0000 11.2423
#
#
#
# Elastic Compliance Matrix: (Units=1/GPa)
#
#
# Indices 1 2 3 4 5 6 
#
# 1 0.027247 0.001168 -0.005154 0.000000 -0.001217 0.000000
# 2 0.001168 0.005783 -0.002180 0.000000 0.000703 0.000000
# 3 -0.005154 -0.002180 0.012294 0.000000 0.004691 0.000000
# 4 0.000000 0.000000 0.000000 0.022361 0.000000 0.014074
# 5 -0.001217 0.000703 0.004691 0.000000 0.025879 0.000000
# 6 0.000000 0.000000 0.000000 0.014074 0.000000 0.097808
#
#
# Mechanical properties :
#
#
# Convention : Reuss Voigt Hill
#
# Bulk Modulus (GPa) = 30.30992 48.48869 39.39930
# Shear Modulus (GPa) = 23.28811 39.09104 31.18957
#
# Velocity S-wave (km/s) = 2.90212 3.75999 3.35856
# Velocity P-wave (km/s) = 4.71078 6.03210 5.41192
#
# Compressibility (1/GPa) = 0.03299250
#
# Stress axis : x y z
#
# Youngs Moduli (GPa) = 36.70095 172.93014 81.33796
#
# Poissons Ratio (x) = -0.20205 0.41921
# Poissons Ratio (y) = -0.04288 0.17735
# Poissons Ratio (z) = 0.18915 0.37705
#
# Static dielectric constant tensor:
#      x y z
#    x 5.175160 0.000000 -0.339920 
#    y 0.000000 5.378560 0.000000 
#    z -0.339920 0.000000 4.894340 
# 
# 
# High freq. dielectric constant tensor:
#      x y z
#    x 2.136380 0.000000 -0.023670 
#    y 0.000000 2.144170 0.000000 
#    z -0.023670 0.000000 2.111550 
# 
# From -- ./inp_files/112632.got.cif
#   From: 2010.06.25/outbox.cif.g09.slc.cpg/sg15_57_cif.got.tgz:112632.got - 2010.06.28 07:06:18.
