data_PCOD8140311
_publ_section_title
;
Structure prediction by ZEFSAII (Michael W. Deem and Ramdas Pophale) SiO2 
 PCOD8140311
Probable space group: C 2/C
;
_chemical_formula_sum "Si O2"
_cell_formula_units_Z 64
_cell_length_a 26.030933
_cell_length_b 14.988947
_cell_length_c 13.076744
_cell_angle_alpha 90.000000
_cell_angle_beta 37.767082
_cell_angle_gamma 90.000000
_cell_volume 3124.879227
_symmetry_space_group_name_H-M "C 2/C"
_symmetry_group_IT_number 15
_symmetry_cell_setting 'monoclinic'
loop_
_space_group_symop_operation_xyz
x,y,z
-x,y,1/2-z
-x,-y,-z
x,-y,1/2+z
1/2+x,1/2+y,z
1/2-x,1/2+y,1/2-z
1/2-x,1/2-y,-z
1/2+x,1/2-y,1/2+z
loop_
_atom_site_type_symbol
_atom_site_label
_atom_site_fract_x
_atom_site_fract_y
_atom_site_fract_z
Si Si1 0.588224 0.554327 0.151815
Si Si2 0.632886 0.366300 0.790629
Si Si3 0.903514 0.426374 0.935205
Si Si4 0.093093 0.123912 0.573465
Si Si5 0.320584 0.705228 0.591174
Si Si6 0.669327 0.889996 0.018570
Si Si7 0.353232 0.837825 0.224596
Si Si8 0.213086 0.720567 0.950655
O O1 0.500000 0.518605 0.250000
O O2 0.586747 0.588950 0.268472
O O3 0.635918 0.458764 0.069149
O O4 0.610727 0.629613 0.033743
O O5 0.730433 0.392087 0.635124
O O6 0.610506 0.261462 0.822188
O O7 0.591678 0.405552 0.957214
O O8 0.844618 0.367870 0.951873
O O9 0.000000 0.419883 0.750000
O O10 0.870028 0.527409 0.980999
O O11 0.895279 0.391909 0.065081
O O12 0.156541 0.205360 0.485925
O O13 0.000000 0.156540 0.750000
O O14 0.357914 0.800640 0.498991
O O15 0.246106 0.673762 0.633632
O O16 0.293092 0.704880 0.752220
O O17 0.631919 0.890473 0.192705
O O18 0.250000 0.750000 0.000000
#
# Coordination Sequence:
#
# PCOD8140311 Si02
#       8
#     8   8   8   8   8   8   8   8
#     4  11  25  39  65 101 132 164 219 278 329 377
#     4  11  21  42  71  89 128 177 221 263 327 392
#     4  11  26  43  63  98 139 170 216 271 332 395
#     4  11  25  42  66  96 135 174 212 272 342 388
#     4  10  20  41  63  95 124 167 227 269 314 387
#     4  11  21  38  70  94 120 177 222 267 315 388
#     4  10  20  41  69  90 123 179 220 259 326 382
#     4  11  25  40  66  97 129 178 223 268 323 397
#
# _framework density 20.480791
#
# number of rings (size 3 to 8) (size 9 to 14) (size 15 to 20)
#    0.000    1.250    6.250    1.125    5.250    5.000 
#    0.000    0.000    0.000    0.000    0.000    0.000 
#    0.000    0.000    0.000    0.000    0.000    0.000 
#
# Total GULP energy -396708.753944 kJ/mol
# GULP energy per Si atom -12397.148561 kJ/mol
# Density = 2.043418 g / cm^3
# Si number density = 20.480791 Si / 1000 Ang^3
#
#
#
# Elastic Constant Matrix: (Units=GPa)
#
#
# Indices 1 2 3 4 5 6 
#
# 1 51.3256 9.9518 35.6403 0.0000 18.0397 0.0000
# 2 9.9518 108.4531 30.5305 0.0000 4.1667 0.0000
# 3 35.6403 30.5305 118.9999 0.0000 20.3473 0.0000
# 4 0.0000 0.0000 0.0000 26.3846 0.0000 9.2950
# 5 18.0397 4.1667 20.3473 0.0000 29.4277 0.0000
# 6 0.0000 0.0000 0.0000 9.2950 0.0000 30.1354
#
#
#
# Elastic Compliance Matrix: (Units=1/GPa)
#
#
# Indices 1 2 3 4 5 6 
#
# 1 0.028461 -0.000366 -0.006187 0.000000 -0.013117 0.000000
# 2 -0.000366 0.009947 -0.002540 0.000000 0.000572 0.000000
# 3 -0.006187 -0.002540 0.011566 0.000000 -0.003844 0.000000
# 4 0.000000 0.000000 0.000000 0.042521 0.000000 -0.013115
# 5 -0.013117 0.000572 -0.003844 0.000000 0.044600 0.000000
# 6 0.000000 0.000000 0.000000 -0.013115 0.000000 0.037229
#
#
# Mechanical properties :
#
#
# Convention : Reuss Voigt Hill
#
# Bulk Modulus (GPa) = 31.45953 47.89155 39.67554
# Shear Modulus (GPa) = 24.61760 30.69994 27.65877
#
# Velocity S-wave (km/s) = 3.47073 3.87584 3.67887
# Velocity P-wave (km/s) = 5.60849 6.59272 6.12042
#
# Compressibility (1/GPa) = 0.03178687
#
# Stress axis : x y z
#
# Youngs Moduli (GPa) = 35.13542 100.52990 86.46383
#
# Poissons Ratio (x) = 0.03678 0.53499
# Poissons Ratio (y) = 0.01286 0.21965
# Poissons Ratio (z) = 0.21740 0.25538
#
# Static dielectric constant tensor:
#      x y z
#    x 3.435250 0.000000 0.167690 
#    y 0.000000 3.893440 0.000000 
#    z 0.167690 0.000000 3.796110 
# 
# 
# High freq. dielectric constant tensor:
#      x y z
#    x 1.775170 0.000000 0.015240 
#    y 0.000000 1.817290 0.000000 
#    z 0.015240 0.000000 1.807430 
# 
# From -- ./inp_files/123489.got.cif
#   From: 2010.06.25/outbox.cif.g09.slc.cpg/sg15_62_cif.got.tgz:123489.got - 2010.06.28 07:06:18.
