data_PCOD8140957
_publ_section_title
;
Structure prediction by ZEFSAII (Michael W. Deem and Ramdas Pophale) SiO2 
 PCOD8140957
Probable space group: C 2/C
;
_chemical_formula_sum "Si O2"
_cell_formula_units_Z 48
_cell_length_a 27.446736
_cell_length_b 12.874007
_cell_length_c 14.060503
_cell_angle_alpha 90.000000
_cell_angle_beta 29.353203
_cell_angle_gamma 90.000000
_cell_volume 2435.406925
_symmetry_space_group_name_H-M "C 2/C"
_symmetry_group_IT_number 15
_symmetry_cell_setting 'monoclinic'
loop_
_space_group_symop_operation_xyz
x,y,z
-x,y,1/2-z
-x,-y,-z
x,-y,1/2+z
1/2+x,1/2+y,z
1/2-x,1/2+y,1/2-z
1/2-x,1/2-y,-z
1/2+x,1/2-y,1/2+z
loop_
_atom_site_type_symbol
_atom_site_label
_atom_site_fract_x
_atom_site_fract_y
_atom_site_fract_z
Si Si1 0.470536 0.548592 0.202928
Si Si2 0.641773 0.246044 0.576215
Si Si3 0.861212 0.983428 0.710489
Si Si4 0.362681 0.978883 0.470177
Si Si5 0.024234 0.443483 0.557319
Si Si6 0.860177 0.255101 0.202680
O O1 0.500000 0.485418 0.250000
O O2 0.435550 0.660490 0.302195
O O3 0.383038 0.496997 0.286819
O O4 0.568977 0.559151 0.970137
O O5 0.749846 0.275458 0.347272
O O6 0.651728 0.211570 0.668184
O O7 0.604466 0.141446 0.588865
O O8 0.892344 0.864574 0.635723
O O9 0.748248 0.003156 0.875745
O O10 0.379895 0.007869 0.551415
O O11 0.429983 0.049891 0.287002
O O12 0.053031 0.323345 0.491934
O O13 0.000000 0.500000 0.500000
#
# Coordination Sequence:
#
# PCOD8140957 Si02
#       6
#     8   8   8   8   8   8
#     4  10  21  33  62  87 107 146 188 237 280 328
#     4   9  18  35  60  86 107 144 198 231 271 335
#     4   9  21  41  55  82 118 143 190 234 280 341
#     4  10  22  37  55  85 114 148 186 236 278 341
#     4  11  22  34  58  88 115 149 191 237 289 334
#     4   9  18  36  60  79 115 154 178 232 290 335
#
# _framework density 19.709233000000001
#
# number of rings (size 3 to 8) (size 9 to 14) (size 15 to 20)
#    0.000    2.333    1.667    1.000    4.667    0.000 
#    3.000    0.000    0.000   11.000    0.000    0.000 
#    0.000    0.000    0.000    0.000    0.000    0.000 
#
# Total GULP energy -297329.855956 kJ/mol
# GULP energy per Si atom -12388.743998 kJ/mol
# Density = 1.966437 g / cm^3
# Si number density = 19.709233 Si / 1000 Ang^3
#
#
#
# Elastic Constant Matrix: (Units=GPa)
#
#
# Indices 1 2 3 4 5 6 
#
# 1 172.3427 15.5094 46.1709 0.0000 -11.1926 0.0000
# 2 15.5094 56.7401 30.3612 0.0000 -6.5595 0.0000
# 3 46.1709 30.3612 82.2824 0.0000 -18.4700 0.0000
# 4 0.0000 0.0000 0.0000 41.7011 0.0000 -2.4522
# 5 -11.1926 -6.5595 -18.4700 0.0000 33.5046 0.0000
# 6 0.0000 0.0000 0.0000 -2.4522 0.0000 15.4058
#
#
#
# Elastic Compliance Matrix: (Units=1/GPa)
#
#
# Indices 1 2 3 4 5 6 
#
# 1 0.006832 0.000228 -0.003875 0.000000 0.000191 0.000000
# 2 0.000228 0.021969 -0.008276 0.000000 -0.000185 0.000000
# 3 -0.003875 -0.008276 0.019089 0.000000 0.007609 0.000000
# 4 0.000000 0.000000 0.000000 0.024207 0.000000 0.003853
# 5 0.000191 -0.000185 0.007609 0.000000 0.034069 0.000000
# 6 0.000000 0.000000 0.000000 0.003853 0.000000 0.065524
#
#
# Mechanical properties :
#
#
# Convention : Reuss Voigt Hill
#
# Bulk Modulus (GPa) = 41.58893 55.04980 48.31936
# Shear Modulus (GPa) = 24.56395 32.74387 28.65391
#
# Velocity S-wave (km/s) = 3.53415 4.08038 3.81705
# Velocity P-wave (km/s) = 6.14823 7.08456 6.63294
#
# Compressibility (1/GPa) = 0.02404486
#
# Stress axis : x y z
#
# Youngs Moduli (GPa) = 146.36076 45.51914 52.38549
#
# Poissons Ratio (x) = -0.01038 0.20300
# Poissons Ratio (y) = -0.03338 0.43353
# Poissons Ratio (z) = 0.56717 0.37670
#
# Static dielectric constant tensor:
#      x y z
#    x 3.954630 0.000000 -0.119610 
#    y 0.000000 3.343820 0.000000 
#    z -0.119610 0.000000 3.447570 
# 
# 
# High freq. dielectric constant tensor:
#      x y z
#    x 1.787840 0.000000 -0.015360 
#    y 0.000000 1.737790 0.000000 
#    z -0.015360 0.000000 1.754040 
# 
# From -- ./inp_files/151960.got.cif
#   From: 2010.06.25/outbox.cif.g09.slc.cpg/sg15_76_cif.got.tgz:151960.got - 2010.06.28 07:06:18.
