data_PCOD8140906
_publ_section_title
;
Structure prediction by ZEFSAII (Michael W. Deem and Ramdas Pophale) SiO2 
 PCOD8140906
Probable space group: C 2/C
;
_chemical_formula_sum "Si O2"
_cell_formula_units_Z 52
_cell_length_a 32.828693
_cell_length_b 15.531564
_cell_length_c 9.033716
_cell_angle_alpha 90.000000
_cell_angle_beta 141.714175
_cell_angle_gamma 90.000000
_cell_volume 2853.882001
_symmetry_space_group_name_H-M "C 2/C"
_symmetry_group_IT_number 15
_symmetry_cell_setting 'monoclinic'
loop_
_space_group_symop_operation_xyz
x,y,z
-x,y,1/2-z
-x,-y,-z
x,-y,1/2+z
1/2+x,1/2+y,z
1/2-x,1/2+y,1/2-z
1/2-x,1/2-y,-z
1/2+x,1/2-y,1/2+z
loop_
_atom_site_type_symbol
_atom_site_label
_atom_site_fract_x
_atom_site_fract_y
_atom_site_fract_z
Si Si1 0.402186 0.365684 0.183345
Si Si2 0.427552 0.696645 0.067719
Si Si3 0.000000 0.142113 0.750000
Si Si4 0.728753 0.422755 0.116596
Si Si5 0.922533 0.052196 0.288394
Si Si6 0.742306 0.408394 0.817353
Si Si7 0.209344 0.748928 0.231327
O O1 0.391316 0.324831 0.310956
O O2 0.452062 0.304929 0.226531
O O3 0.445886 0.454194 0.322044
O O4 0.334142 0.383341 0.909715
O O5 0.500000 0.741278 0.250000
O O6 0.441749 0.612154 0.204954
O O7 0.370582 0.753202 0.981340
O O8 0.947783 0.084343 0.515923
O O9 0.764119 0.500559 0.306908
O O10 0.735633 0.332905 0.221248
O O11 0.654629 0.454626 0.902334
O O12 0.760006 0.412560 0.042128
O O13 0.780829 0.334219 0.841432
O O14 0.250000 0.750000 0.500000
#
# Coordination Sequence:
#
# PCOD8140906 Si02
#       7
#     8   8   4   8   8   8   8
#     4  11  21  29  46  71 109 146 186 215 259 318
#     4  11  22  35  48  75 108 148 181 227 273 334
#     4  12  18  28  42  70 104 150 182 210 252 318
#     4  10  22  36  55  82 111 145 188 233 276 330
#     4  10  21  28  45  71 108 145 184 212 259 321
#     4  11  21  38  55  79 113 148 188 237 274 325
#     4  11  22  38  58  82 111 150 190 230 282 329
#
# _framework density 18.220794999999999
#
# number of rings (size 3 to 8) (size 9 to 14) (size 15 to 20)
#    0.000    1.231    4.615    2.769   10.769    0.000 
#    0.000    0.000    0.000    0.000    0.000    4.308 
#    0.000    0.000    0.000    0.000    0.000    0.000 
#
# Total GULP energy -322128.570701 kJ/mol
# GULP energy per Si atom -12389.560412 kJ/mol
# Density = 1.817932 g / cm^3
# Si number density = 18.220795 Si / 1000 Ang^3
#
#
#
# Elastic Constant Matrix: (Units=GPa)
#
#
# Indices 1 2 3 4 5 6 
#
# 1 131.1180 54.0237 34.3572 0.0000 -14.2556 0.0000
# 2 54.0237 93.3600 23.1322 0.0000 -5.6055 0.0000
# 3 34.3572 23.1322 54.7189 0.0000 -13.1480 0.0000
# 4 0.0000 0.0000 0.0000 21.7285 0.0000 -2.7518
# 5 -14.2556 -5.6055 -13.1480 0.0000 36.0150 0.0000
# 6 0.0000 0.0000 0.0000 -2.7518 0.0000 20.2031
#
#
#
# Elastic Compliance Matrix: (Units=1/GPa)
#
#
# Indices 1 2 3 4 5 6 
#
# 1 0.011137 -0.005262 -0.004281 0.000000 0.002026 0.000000
# 2 -0.005262 0.014451 -0.003031 0.000000 -0.000940 0.000000
# 3 -0.004281 -0.003031 0.023813 0.000000 0.006527 0.000000
# 4 0.000000 0.000000 0.000000 0.046830 0.000000 0.006379
# 5 0.002026 -0.000940 0.006527 0.000000 0.030805 0.000000
# 6 0.000000 0.000000 0.000000 0.006379 0.000000 0.050366
#
#
# Mechanical properties :
#
#
# Convention : Reuss Voigt Hill
#
# Bulk Modulus (GPa) = 41.23358 55.80257 48.51808
# Shear Modulus (GPa) = 23.73779 26.76825 25.25302
#
# Velocity S-wave (km/s) = 3.61333 3.83705 3.72687
# Velocity P-wave (km/s) = 6.33145 7.09386 6.72347
#
# Compressibility (1/GPa) = 0.02425208
#
# Stress axis : x y z
#
# Youngs Moduli (GPa) = 89.79117 69.20088 41.99376
#
# Poissons Ratio (x) = 0.36414 0.17979
# Poissons Ratio (y) = 0.47248 0.12728
# Poissons Ratio (z) = 0.38443 0.20974
#
# Static dielectric constant tensor:
#      x y z
#    x 3.655430 0.000000 -0.124850 
#    y 0.000000 3.062770 0.000000 
#    z -0.124850 0.000000 3.394670 
# 
# 
# High freq. dielectric constant tensor:
#      x y z
#    x 1.734400 0.000000 -0.016420 
#    y 0.000000 1.649610 0.000000 
#    z -0.016420 0.000000 1.700960 
# 
# From -- ./inp_files/55283.got.cif
#   From: 2010.06.25/outbox.cif.g09.slc.cpg/sg15_28_cif.got.tgz:55283.got - 2010.06.28 07:06:18.
