data_PCOD8140006
_publ_section_title
;
Structure prediction by ZEFSAII (Michael W. Deem and Ramdas Pophale) SiO2 
 PCOD8140006
Probable space group: C 2/C
;
_chemical_formula_sum "Si O2"
_cell_formula_units_Z 52
_cell_length_a 15.556052
_cell_length_b 8.549948
_cell_length_c 18.348975
_cell_angle_alpha 90.000000
_cell_angle_beta 81.309642
_cell_angle_gamma 90.000000
_cell_volume 2412.458403
_symmetry_space_group_name_H-M "C 2/C"
_symmetry_group_IT_number 15
_symmetry_cell_setting 'monoclinic'
loop_
_space_group_symop_operation_xyz
x,y,z
-x,y,1/2-z
-x,-y,-z
x,-y,1/2+z
1/2+x,1/2+y,z
1/2-x,1/2+y,1/2-z
1/2-x,1/2-y,-z
1/2+x,1/2-y,1/2+z
loop_
_atom_site_type_symbol
_atom_site_label
_atom_site_fract_x
_atom_site_fract_y
_atom_site_fract_z
Si Si1 0.438105 0.608235 0.964462
Si Si2 0.300500 0.014571 0.690169
Si Si3 0.000000 0.012268 0.750000
Si Si4 0.207121 0.779390 0.928866
Si Si5 0.860094 0.117951 0.363735
Si Si6 0.264482 0.093792 0.857004
Si Si7 0.585732 0.270197 0.348640
O O1 0.364852 0.507860 0.928968
O O2 0.495301 0.724466 0.906108
O O3 0.500000 0.500000 0.000000
O O4 0.392739 0.694244 0.037357
O O5 0.298574 0.141098 0.627177
O O6 0.293785 0.095989 0.769000
O O7 0.215198 0.911150 0.686424
O O8 0.388178 0.907703 0.675782
O O9 0.046273 0.896168 0.687089
O O10 0.071665 0.124399 0.778291
O O11 0.264513 0.918550 0.886936
O O12 0.250000 0.750000 0.000000
O O13 0.835261 0.296138 0.391703
O O14 0.166546 0.157024 0.882626
#
# Coordination Sequence:
#
# PCOD8140006 Si02
#       7
#     8   8   4   8   8   8   8
#     4  11  23  42  63  91 129 174 219 276 331 396
#     4  11  23  41  67 101 131 178 223 278 337 407
#     4  10  20  40  64  98 132 172 216 290 338 396
#     4  12  25  43  67  97 138 172 221 279 335 401
#     4  10  22  39  66  94 129 175 227 266 342 399
#     4  11  23  41  69  98 131 179 227 278 330 416
#     4  10  22  39  66  92 133 173 222 272 339 400
#
# _framework density 21.554773999999998
#
# number of rings (size 3 to 8) (size 9 to 14) (size 15 to 20)
#    0.000    1.231    4.615    1.846    0.000    2.462 
#    0.000    3.846    0.000    0.000    0.000    0.000 
#    0.000    0.000    0.000    0.000    0.000    0.000 
#
# Total GULP energy -322170.668155 kJ/mol
# GULP energy per Si atom -12391.179544 kJ/mol
# Density = 2.150571 g / cm^3
# Si number density = 21.554774 Si / 1000 Ang^3
#
#
#
# Elastic Constant Matrix: (Units=GPa)
#
#
# Indices 1 2 3 4 5 6 
#
# 1 86.9105 46.5303 25.3168 0.0000 -5.5984 0.0000
# 2 46.5303 117.2099 32.6411 0.0000 -10.4590 0.0000
# 3 25.3168 32.6411 95.0383 0.0000 -9.9476 0.0000
# 4 0.0000 0.0000 0.0000 33.8652 0.0000 -0.2903
# 5 -5.5984 -10.4590 -9.9476 0.0000 29.9267 0.0000
# 6 0.0000 0.0000 0.0000 -0.2903 0.0000 44.8282
#
#
#
# Elastic Compliance Matrix: (Units=1/GPa)
#
#
# Indices 1 2 3 4 5 6 
#
# 1 0.015003 -0.005340 -0.002139 0.000000 0.000230 0.000000
# 2 -0.005340 0.011490 -0.002288 0.000000 0.002256 0.000000
# 3 -0.002139 -0.002288 0.012175 0.000000 0.002848 0.000000
# 4 0.000000 0.000000 0.000000 0.029530 0.000000 0.000191
# 5 0.000230 0.002256 0.002848 0.000000 0.035193 0.000000
# 6 0.000000 0.000000 0.000000 0.000191 0.000000 0.022309
#
#
# Mechanical properties :
#
#
# Convention : Reuss Voigt Hill
#
# Bulk Modulus (GPa) = 52.25692 56.45944 54.35818
# Shear Modulus (GPa) = 32.97921 34.70205 33.84063
#
# Velocity S-wave (km/s) = 3.91579 4.01677 3.96660
# Velocity P-wave (km/s) = 6.68887 6.91107 6.80088
#
# Compressibility (1/GPa) = 0.01913622
#
# Stress axis : x y z
#
# Youngs Moduli (GPa) = 66.65495 87.03297 82.13222
#
# Poissons Ratio (x) = 0.46474 0.17564
# Poissons Ratio (y) = 0.35592 0.18789
# Poissons Ratio (z) = 0.14254 0.19910
#
# Static dielectric constant tensor:
#      x y z
#    x 0.982810 0.000000 1.744810 
#    y 0.000000 3.945240 0.000000 
#    z 1.744810 0.000000 2.799020 
# 
# 
# High freq. dielectric constant tensor:
#      x y z
#    x 1.844350 0.000000 -0.008340 
#    y 0.000000 1.839970 0.000000 
#    z -0.008340 0.000000 1.849330 
# 
# From -- ./inp_files/242433.got.cif
#   From: 2010.06.25/outbox.cif.g09.slc.cpg/sg15_122_cif.got.tgz:242433.got - 2010.06.28 07:06:18.
