data_PCOD8140792
_publ_section_title
;
Structure prediction by ZEFSAII (Michael W. Deem and Ramdas Pophale) SiO2 
 PCOD8140792
Probable space group: C 2/C
;
_chemical_formula_sum "Si O2"
_cell_formula_units_Z 40
_cell_length_a 5.908507
_cell_length_b 16.591479
_cell_length_c 17.144470
_cell_angle_alpha 90.000000
_cell_angle_beta 72.094331
_cell_angle_gamma 90.000000
_cell_volume 1599.281517
_symmetry_space_group_name_H-M "C 2/C"
_symmetry_group_IT_number 15
_symmetry_cell_setting 'monoclinic'
loop_
_space_group_symop_operation_xyz
x,y,z
-x,y,1/2-z
-x,-y,-z
x,-y,1/2+z
1/2+x,1/2+y,z
1/2-x,1/2+y,1/2-z
1/2-x,1/2-y,-z
1/2+x,1/2-y,1/2+z
loop_
_atom_site_type_symbol
_atom_site_label
_atom_site_fract_x
_atom_site_fract_y
_atom_site_fract_z
Si Si1 0.418950 0.947931 0.121848
Si Si2 0.000000 0.750859 0.250000
Si Si3 0.500000 0.519303 0.250000
Si Si4 0.710822 0.437102 0.982544
Si Si5 0.563502 0.658657 0.361848
Si Si6 0.187228 0.694344 0.662173
O O1 0.632259 0.884674 0.117136
O O2 0.548239 0.030331 0.083682
O O3 0.265126 0.913365 0.065884
O O4 0.238604 0.964004 0.214164
O O5 0.778628 0.694066 0.289334
O O6 0.945005 0.805573 0.178487
O O7 0.504547 0.572903 0.327920
O O8 0.631033 0.356705 0.944789
O O9 0.500000 0.500000 0.000000
O O10 0.345644 0.722550 0.383978
O O11 0.000000 0.694559 0.750000
#
# Coordination Sequence:
#
# PCOD8140792 Si02
#       6
#     8   4   4   8   8   8
#     4  11  27  44  69 106 142 187 231 294 350 421
#     4  10  20  43  70  97 142 174 246 286 347 410
#     4  12  22  45  76 107 136 182 244 292 353 412
#     4  11  25  45  68 101 150 185 232 283 362 424
#     4  11  22  42  71 100 134 188 229 294 344 418
#     4  10  24  41  67 104 138 178 235 295 346 408
#
# _framework density 25.011233000000001
#
# number of rings (size 3 to 8) (size 9 to 14) (size 15 to 20)
#    0.000    1.200    5.000    1.200    2.800    7.200 
#    0.000    2.000    0.000    0.000    0.000    0.000 
#    0.000    0.000    0.000    0.000    0.000    0.000 
#
# Total GULP energy -247929.153329 kJ/mol
# GULP energy per Si atom -12396.457666 kJ/mol
# Density = 2.495431 g / cm^3
# Si number density = 25.011233 Si / 1000 Ang^3
#
#
#
# Elastic Constant Matrix: (Units=GPa)
#
#
# Indices 1 2 3 4 5 6 
#
# 1 110.7005 35.3963 27.0250 0.0000 30.4987 0.0000
# 2 35.3963 99.7580 39.4770 0.0000 29.2724 0.0000
# 3 27.0250 39.4770 62.1408 0.0000 12.5262 0.0000
# 4 0.0000 0.0000 0.0000 35.6090 0.0000 11.4055
# 5 30.4987 29.2724 12.5262 0.0000 54.8489 0.0000
# 6 0.0000 0.0000 0.0000 11.4055 0.0000 26.3681
#
#
#
# Elastic Compliance Matrix: (Units=1/GPa)
#
#
# Indices 1 2 3 4 5 6 
#
# 1 0.011631 -0.001414 -0.003154 0.000000 -0.004993 0.000000
# 2 -0.001414 0.015324 -0.007998 0.000000 -0.005566 0.000000
# 3 -0.003154 -0.007998 0.022361 0.000000 0.000916 0.000000
# 4 0.000000 0.000000 0.000000 0.032599 0.000000 -0.014101
# 5 -0.004993 -0.005566 0.000916 0.000000 0.023769 0.000000
# 6 0.000000 0.000000 0.000000 -0.014101 0.000000 0.044024
#
#
# Mechanical properties :
#
#
# Convention : Reuss Voigt Hill
#
# Bulk Modulus (GPa) = 41.34991 52.93287 47.14139
# Shear Modulus (GPa) = 27.33714 34.74527 31.04121
#
# Velocity S-wave (km/s) = 3.30963 3.73122 3.52673
# Velocity P-wave (km/s) = 5.58331 6.30653 5.95590
#
# Compressibility (1/GPa) = 0.02418385
#
# Stress axis : x y z
#
# Youngs Moduli (GPa) = 85.97836 65.25590 44.72129
#
# Poissons Ratio (x) = 0.09227 0.14103
# Poissons Ratio (y) = 0.12157 0.35770
# Poissons Ratio (z) = 0.27114 0.52195
#
# Static dielectric constant tensor:
#      x y z
#    x 7.318840 0.000000 1.825130 
#    y 0.000000 5.246330 0.000000 
#    z 1.825130 0.000000 5.171760 
# 
# 
# High freq. dielectric constant tensor:
#      x y z
#    x 2.006230 0.000000 0.018810 
#    y 0.000000 1.987530 0.000000 
#    z 0.018810 0.000000 1.981480 
# 
# From -- ./inp_files/184300.got.cif
#   From: 2010.06.25/outbox.cif.g09.slc.cpg/sg15_93_cif.got.tgz:184300.got - 2010.06.28 07:06:18.
