data_PCOD8140547
_publ_section_title
;
Structure prediction by ZEFSAII (Michael W. Deem and Ramdas Pophale) SiO2 
 PCOD8140547
Probable space group: C 2/C
;
_chemical_formula_sum "Si O2"
_cell_formula_units_Z 60
_cell_length_a 17.638977
_cell_length_b 6.075308
_cell_length_c 26.845711
_cell_angle_alpha 90.000000
_cell_angle_beta 76.116400
_cell_angle_gamma 90.000000
_cell_volume 2792.799467
_symmetry_space_group_name_H-M "C 2/C"
_symmetry_group_IT_number 15
_symmetry_cell_setting 'monoclinic'
loop_
_space_group_symop_operation_xyz
x,y,z
-x,y,1/2-z
-x,-y,-z
x,-y,1/2+z
1/2+x,1/2+y,z
1/2-x,1/2+y,1/2-z
1/2-x,1/2-y,-z
1/2+x,1/2-y,1/2+z
loop_
_atom_site_type_symbol
_atom_site_label
_atom_site_fract_x
_atom_site_fract_y
_atom_site_fract_z
Si Si1 0.000000 0.538073 0.250000
Si Si2 0.611488 0.223636 0.151481
Si Si3 0.203069 0.548118 0.445410
Si Si4 0.893198 0.810263 0.109575
Si Si5 0.780940 0.206257 0.141116
Si Si6 0.531678 0.593325 0.103712
Si Si7 0.839768 0.379950 0.440495
Si Si8 0.085089 0.420693 0.324801
O O1 0.039760 0.672088 0.199106
O O2 0.068975 0.405058 0.267687
O O3 0.690684 0.219698 0.172252
O O4 0.588991 0.457932 0.131495
O O5 0.627060 0.046851 0.105509
O O6 0.124887 0.646616 0.432796
O O7 0.220433 0.321345 0.413638
O O8 0.187436 0.491125 0.505675
O O9 0.270179 0.731801 0.429229
O O10 0.916991 0.672446 0.155062
O O11 0.817420 0.963314 0.131276
O O12 0.970535 0.946086 0.082501
O O13 0.828771 0.334367 0.175874
O O14 0.588878 0.716889 0.056185
O O15 0.482472 0.773575 0.141105
#
# Coordination Sequence:
#
# PCOD8140547 Si02
#       8
#     4   8   8   8   8   8   8   8
#     4  12  24  46  68  92 128 166 216 272 324 390
#     4  12  24  43  65  98 131 170 220 275 326 389
#     4  10  22  38  66  97 133 176 218 258 331 394
#     4  10  20  42  64  91 135 169 213 273 321 397
#     4  10  22  42  67  94 134 174 210 271 331 389
#     4  11  21  41  66  90 132 172 210 272 328 383
#     4  11  22  39  63 101 134 170 220 272 316 398
#     4  10  23  44  64  95 129 169 220 272 326 395
#
# _framework density 21.483817999999999
#
# number of rings (size 3 to 8) (size 9 to 14) (size 15 to 20)
#    0.000    1.333    5.333    0.000    0.000    2.667 
#    2.400    9.333    0.000    0.000    0.000    0.000 
#    0.000    0.000    0.000    0.000    0.000    0.000 
#
# Total GULP energy -371728.373444 kJ/mol
# GULP energy per Si atom -12390.945781 kJ/mol
# Density = 2.143492 g / cm^3
# Si number density = 21.483818 Si / 1000 Ang^3
#
#
#
# Elastic Constant Matrix: (Units=GPa)
#
#
# Indices 1 2 3 4 5 6 
#
# 1 131.3904 28.6154 30.7605 -0.0002 6.7336 -0.0001
# 2 28.6154 85.8481 29.6898 -0.0003 -0.3359 -0.0003
# 3 30.7605 29.6898 93.6838 0.0004 5.1008 0.0001
# 4 -0.0002 -0.0003 0.0004 12.0561 0.0000 7.3516
# 5 6.7336 -0.3359 5.1008 0.0000 30.9503 0.0001
# 6 -0.0001 -0.0003 0.0001 7.3516 0.0001 44.3509
#
#
#
# Elastic Compliance Matrix: (Units=1/GPa)
#
#
# Indices 1 2 3 4 5 6 
#
# 1 0.008648 -0.002175 -0.002065 0.000000 -0.001565 0.000000
# 2 -0.002175 0.013650 -0.003679 0.000000 0.001228 0.000000
# 3 -0.002065 -0.003679 0.012609 -0.000001 -0.001669 0.000000
# 4 0.000000 0.000000 -0.000001 0.092272 0.000000 -0.015295
# 5 -0.001565 0.001228 -0.001669 0.000000 0.032939 0.000000
# 6 0.000000 0.000000 0.000000 -0.015295 0.000000 0.025083
#
#
# Mechanical properties :
#
#
# Convention : Reuss Voigt Hill
#
# Bulk Modulus (GPa) = 52.43737 54.33932 53.38834
# Shear Modulus (GPa) = 24.10860 32.26191 28.18525
#
# Velocity S-wave (km/s) = 3.35352 3.87936 3.62599
# Velocity P-wave (km/s) = 6.28137 6.73899 6.51420
#
# Compressibility (1/GPa) = 0.01907037
#
# Stress axis : x y z
#
# Youngs Moduli (GPa) = 115.63104 73.25785 79.30810
#
# Poissons Ratio (x) = 0.15930 0.16379
# Poissons Ratio (y) = 0.25145 0.29176
# Poissons Ratio (z) = 0.23881 0.26951
#
# Static dielectric constant tensor:
#      x y z
#    x 4.458940 0.000000 0.143720 
#    y 0.000000 4.001910 0.000000 
#    z 0.143720 0.000000 3.493170 
# 
# 
# High freq. dielectric constant tensor:
#      x y z
#    x 1.875690 0.000000 0.011690 
#    y 0.000000 1.845470 0.000000 
#    z 0.011690 0.000000 1.801330 
# 
# From -- ./inp_files/314873.got.cif
#   From: 2010.06.25/outbox.cif.g09.slc.cpg/sg15_158_cif.got.tgz:314873.got - 2010.06.28 07:06:18.
