data_PCOD8140403
_publ_section_title
;
Structure prediction by ZEFSAII (Michael W. Deem and Ramdas Pophale) SiO2 
 PCOD8140403
Probable space group: C 2/C
;
_chemical_formula_sum "Si O2"
_cell_formula_units_Z 56
_cell_length_a 14.218340
_cell_length_b 28.392528
_cell_length_c 10.718698
_cell_angle_alpha 90.000000
_cell_angle_beta 39.301166
_cell_angle_gamma 90.000000
_cell_volume 2740.758279
_symmetry_space_group_name_H-M "C 2/C"
_symmetry_group_IT_number 15
_symmetry_cell_setting 'monoclinic'
loop_
_space_group_symop_operation_xyz
x,y,z
-x,y,1/2-z
-x,-y,-z
x,-y,1/2+z
1/2+x,1/2+y,z
1/2-x,1/2+y,1/2-z
1/2-x,1/2-y,-z
1/2+x,1/2-y,1/2+z
loop_
_atom_site_type_symbol
_atom_site_label
_atom_site_fract_x
_atom_site_fract_y
_atom_site_fract_z
Si Si1 0.342557 0.790256 0.467126
Si Si2 0.572013 0.781057 0.846965
Si Si3 0.915916 0.950743 0.966572
Si Si4 0.895801 0.054878 0.979086
Si Si5 0.842594 0.855330 0.979997
Si Si6 0.733895 0.308300 0.191791
Si Si7 0.337451 0.126403 0.388161
O O1 0.250000 0.750000 0.500000
O O2 0.339242 0.786389 0.617158
O O3 0.280345 0.841617 0.495140
O O4 0.500000 0.783288 0.250000
O O5 0.622963 0.729877 0.739997
O O6 0.633956 0.822508 0.698901
O O7 0.395745 0.784666 0.042410
O O8 0.800255 0.907877 0.070999
O O9 0.000000 0.954027 0.750000
O O10 0.835543 0.001304 0.063888
O O11 0.017540 0.934951 0.980954
O O12 0.000000 0.058160 0.750000
O O13 0.757211 0.090478 0.100800
O O14 0.000000 0.853051 0.750000
O O15 0.837631 0.819161 0.100381
O O16 0.744434 0.358396 0.106936
O O17 0.500000 0.103067 0.250000
#
# Coordination Sequence:
#
# PCOD8140403 Si02
#       7
#     8   8   8   8   8   8   8
#     4  12  22  38  56  85 117 163 201 251 307 360
#     4  11  23  38  59  84 123 159 205 247 299 357
#     4   9  21  38  63  95 121 153 204 259 304 367
#     4  10  20  41  67  90 122 159 202 256 312 362
#     4  11  23  36  60  89 122 153 202 249 302 368
#     4  11  23  40  57  86 122 158 203 250 291 364
#     4  10  24  41  62  89 123 163 205 250 306 365
#
# _framework density 20.432302
#
# number of rings (size 3 to 8) (size 9 to 14) (size 15 to 20)
#    0.000    1.429    2.857    1.714    6.000    1.143 
#    0.000    0.714    0.000    9.429    0.000    0.000 
#    0.000    0.000    0.000    0.000    0.000    0.000 
#
# Total GULP energy -346876.250803 kJ/mol
# GULP energy per Si atom -12388.437529 kJ/mol
# Density = 2.038580 g / cm^3
# Si number density = 20.432302 Si / 1000 Ang^3
#
#
#
# Elastic Constant Matrix: (Units=GPa)
#
#
# Indices 1 2 3 4 5 6 
#
# 1 111.5379 43.0380 25.7082 0.0000 4.7671 0.0000
# 2 43.0380 125.1147 31.8924 0.0000 -22.9031 0.0000
# 3 25.7082 31.8924 83.9740 0.0000 -1.2199 0.0000
# 4 0.0000 0.0000 0.0000 67.4102 0.0000 -21.8864
# 5 4.7671 -22.9031 -1.2199 0.0000 32.4263 0.0000
# 6 0.0000 0.0000 0.0000 -21.8864 0.0000 50.2750
#
#
#
# Elastic Compliance Matrix: (Units=1/GPa)
#
#
# Indices 1 2 3 4 5 6 
#
# 1 0.011245 -0.004249 -0.001897 0.000000 -0.004726 0.000000
# 2 -0.004249 0.011866 -0.003076 0.000000 0.008890 0.000000
# 3 -0.001897 -0.003076 0.013638 0.000000 -0.001381 0.000000
# 4 0.000000 0.000000 0.000000 0.017276 0.000000 0.007521
# 5 -0.004726 0.008890 -0.001381 0.000000 0.037761 0.000000
# 6 0.000000 0.000000 0.000000 0.007521 0.000000 0.023165
#
#
# Mechanical properties :
#
#
# Convention : Reuss Voigt Hill
#
# Bulk Modulus (GPa) = 54.63929 57.98931 56.31430
# Shear Modulus (GPa) = 35.84295 44.68818 40.26557
#
# Velocity S-wave (km/s) = 4.19290 4.68175 4.44405
# Velocity P-wave (km/s) = 7.08803 7.59394 7.34534
#
# Compressibility (1/GPa) = 0.01830185
#
# Stress axis : x y z
#
# Youngs Moduli (GPa) = 88.93209 84.27404 73.32664
#
# Poissons Ratio (x) = 0.35812 0.13912
# Poissons Ratio (y) = 0.37792 0.22559
# Poissons Ratio (z) = 0.16872 0.25927
#
# Static dielectric constant tensor:
#      x y z
#    x 6.312740 0.000000 0.454220 
#    y 0.000000 4.340280 0.000000 
#    z 0.454220 0.000000 3.717630 
# 
# 
# High freq. dielectric constant tensor:
#      x y z
#    x 1.807860 0.000000 0.021110 
#    y 0.000000 1.804790 0.000000 
#    z 0.021110 0.000000 1.785640 
# 
# From -- ./inp_files/101745.got.cif
#   From: 2010.06.25/outbox.cif.g09.slc.cpg/sg15_51_cif.got.tgz:101745.got - 2010.06.28 07:06:18.
