data_PCOD8140861
_publ_section_title
;
Structure prediction by ZEFSAII (Michael W. Deem and Ramdas Pophale) SiO2 
 PCOD8140861
Probable space group: C 2/C
;
_chemical_formula_sum "Si O2"
_cell_formula_units_Z 52
_cell_length_a 20.095899
_cell_length_b 15.990563
_cell_length_c 8.048148
_cell_angle_alpha 90.000000
_cell_angle_beta 123.778413
_cell_angle_gamma 90.000000
_cell_volume 2149.658881
_symmetry_space_group_name_H-M "C 2/C"
_symmetry_group_IT_number 15
_symmetry_cell_setting 'monoclinic'
loop_
_space_group_symop_operation_xyz
x,y,z
-x,y,1/2-z
-x,-y,-z
x,-y,1/2+z
1/2+x,1/2+y,z
1/2-x,1/2+y,1/2-z
1/2-x,1/2-y,-z
1/2+x,1/2-y,1/2+z
loop_
_atom_site_type_symbol
_atom_site_label
_atom_site_fract_x
_atom_site_fract_y
_atom_site_fract_z
Si Si1 0.052633 0.750977 0.108997
Si Si2 0.207034 0.626389 0.860644
Si Si3 0.525288 0.089994 0.595191
Si Si4 0.500000 0.642105 0.250000
Si Si5 0.644729 0.460490 0.069992
Si Si6 0.726160 0.786332 0.718175
Si Si7 0.641180 0.373053 0.416888
O O1 0.141066 0.751139 0.149977
O O2 0.068984 0.803502 0.303140
O O3 0.992222 0.799486 0.902359
O O4 0.018735 0.657845 0.086354
O O5 0.119198 0.594168 0.696745
O O6 0.268629 0.554592 0.891670
O O7 0.220410 0.712437 0.782072
O O8 0.214183 0.640544 0.067250
O O9 0.500000 0.107657 0.750000
O O10 0.500000 0.000000 0.500000
O O11 0.578800 0.585981 0.366927
O O12 0.643741 0.428769 0.255377
O O13 0.625140 0.560341 0.042209
O O14 0.774031 0.826039 0.939938
#
# Coordination Sequence:
#
# PCOD8140861 Si02
#       7
#     8   8   8   4   8   8   8
#     4  11  22  45  72  98 139 189 233 301 357 431
#     4  11  24  44  75 104 137 187 248 292 369 427
#     4  12  28  49  72 104 148 192 241 304 362 431
#     4  10  20  44  72  98 136 184 232 286 384 408
#     4  11  25  43  70 104 142 188 234 310 356 444
#     4  11  22  44  74 102 134 187 243 295 353 442
#     4  11  25  44  70 104 144 185 242 295 369 428
#
# _framework density 24.189883999999999
#
# number of rings (size 3 to 8) (size 9 to 14) (size 15 to 20)
#    0.000    0.923    5.385    1.385    4.308    4.923 
#    2.769    0.000    0.000    0.000    0.000    0.000 
#    0.000    0.000    0.000    0.000    0.000    0.000 
#
# Total GULP energy -322460.287061 kJ/mol
# GULP energy per Si atom -12402.318733 kJ/mol
# Density = 2.413483 g / cm^3
# Si number density = 24.189884 Si / 1000 Ang^3
#
#
#
# Elastic Constant Matrix: (Units=GPa)
#
#
# Indices 1 2 3 4 5 6 
#
# 1 71.5097 17.3588 31.3718 0.0000 34.8122 0.0000
# 2 17.3588 164.7744 69.9852 0.0000 22.1917 0.0000
# 3 31.3718 69.9852 144.7963 0.0000 24.9831 0.0000
# 4 0.0000 0.0000 0.0000 46.0520 0.0000 1.4837
# 5 34.8122 22.1917 24.9831 0.0000 37.2796 0.0000
# 6 0.0000 0.0000 0.0000 1.4837 0.0000 26.4295
#
#
#
# Elastic Compliance Matrix: (Units=1/GPa)
#
#
# Indices 1 2 3 4 5 6 
#
# 1 0.026225 0.001400 -0.002250 0.000000 -0.023815 0.000000
# 2 0.001400 0.007897 -0.003487 0.000000 -0.003672 0.000000
# 3 -0.002250 -0.003487 0.009451 0.000000 -0.002158 0.000000
# 4 0.000000 0.000000 0.000000 0.021754 0.000000 -0.001221
# 5 -0.023815 -0.003672 -0.002158 0.000000 0.052694 0.000000
# 6 0.000000 0.000000 0.000000 -0.001221 0.000000 0.037905
#
#
# Mechanical properties :
#
#
# Convention : Reuss Voigt Hill
#
# Bulk Modulus (GPa) = 28.65310 68.72354 48.68832
# Shear Modulus (GPa) = 28.37178 39.44320 33.90749
#
# Velocity S-wave (km/s) = 3.42845 4.04241 3.74802
# Velocity P-wave (km/s) = 5.24815 7.08941 6.23710
#
# Compressibility (1/GPa) = 0.03490023
#
# Stress axis : x y z
#
# Youngs Moduli (GPa) = 38.13215 126.63371 105.80740
#
# Poissons Ratio (x) = -0.17730 0.23802
# Poissons Ratio (y) = -0.05339 0.36891
# Poissons Ratio (z) = 0.08578 0.44153
#
# Static dielectric constant tensor:
#      x y z
#    x 4.054810 0.000000 0.057810 
#    y 0.000000 4.687890 0.000000 
#    z 0.057810 0.000000 4.614350 
# 
# 
# High freq. dielectric constant tensor:
#      x y z
#    x 1.944200 0.000000 0.010090 
#    y 0.000000 1.973300 0.000000 
#    z 0.010090 0.000000 1.975360 
# 
# From -- ./inp_files/57090.got.cif
#   From: 2010.06.25/outbox.cif.g09.slc.cpg/sg15_29_cif.got.tgz:57090.got - 2010.06.28 07:06:18.
