data_PCOD8140105
_publ_section_title
;
Structure prediction by ZEFSAII (Michael W. Deem and Ramdas Pophale) SiO2 
 PCOD8140105
Probable space group: C 2/C
;
_chemical_formula_sum "Si O2"
_cell_formula_units_Z 56
_cell_length_a 9.222888
_cell_length_b 16.474293
_cell_length_c 17.860006
_cell_angle_alpha 90.000000
_cell_angle_beta 111.872068
_cell_angle_gamma 90.000000
_cell_volume 2518.324614
_symmetry_space_group_name_H-M "C 2/C"
_symmetry_group_IT_number 15
_symmetry_cell_setting 'monoclinic'
loop_
_space_group_symop_operation_xyz
x,y,z
-x,y,1/2-z
-x,-y,-z
x,-y,1/2+z
1/2+x,1/2+y,z
1/2-x,1/2+y,1/2-z
1/2-x,1/2-y,-z
1/2+x,1/2-y,1/2+z
loop_
_atom_site_type_symbol
_atom_site_label
_atom_site_fract_x
_atom_site_fract_y
_atom_site_fract_z
Si Si1 0.097801 0.513195 0.636254
Si Si2 0.990930 0.161886 0.469245
Si Si3 0.000000 0.610736 0.750000
Si Si4 0.000000 0.268096 0.750000
Si Si5 0.026465 0.338742 0.028459
Si Si6 0.648511 0.875581 0.902185
Si Si7 0.773457 0.877131 0.600184
Si Si8 0.302019 0.708335 0.847869
O O1 0.120084 0.588100 0.583640
O O2 0.244570 0.454771 0.648023
O O3 0.104039 0.552675 0.718203
O O4 0.935888 0.462317 0.601238
O O5 0.958436 0.252032 0.427845
O O6 0.832401 0.112152 0.451463
O O7 0.066348 0.113975 0.413947
O O8 0.093415 0.169546 0.565057
O O9 0.864632 0.661968 0.683771
O O10 0.112545 0.329214 0.817882
O O11 0.102085 0.210620 0.713110
O O12 0.086005 0.317699 0.956137
O O13 0.849359 0.370171 0.991701
O O14 0.752799 0.799682 0.648637
#
# Coordination Sequence:
#
# PCOD8140105 Si02
#       8
#     8   8   4   4   8   8   8   8
#     4  11  23  43  68  98 137 189 220 271 353 420
#     4  11  22  42  71 105 128 173 238 291 321 399
#     4  12  27  46  68  97 142 184 228 286 353 410
#     4  12  23  42  64 103 138 174 224 278 353 394
#     4  10  20  40  66  97 132 180 227 270 334 407
#     4  11  23  40  71  96 137 181 223 277 346 408
#     4  10  20  40  66  96 132 173 230 277 327 412
#     4  11  25  42  68 101 135 177 233 283 336 407
#
# _framework density 22.237006999999998
#
# number of rings (size 3 to 8) (size 9 to 14) (size 15 to 20)
#    0.000    1.143    4.286    6.000    4.000    0.000 
#    0.000    7.857    0.000    5.143    0.000    0.000 
#    0.000    0.000    0.000    0.000    0.000    0.000 
#
# Total GULP energy -346881.345309 kJ/mol
# GULP energy per Si atom -12388.619475 kJ/mol
# Density = 2.218639 g / cm^3
# Si number density = 22.237007 Si / 1000 Ang^3
#
#
#
# Elastic Constant Matrix: (Units=GPa)
#
#
# Indices 1 2 3 4 5 6 
#
# 1 127.9178 44.6744 46.6047 0.0000 -3.9796 0.0000
# 2 44.6744 102.7711 44.6028 0.0000 -8.7998 0.0000
# 3 46.6047 44.6028 94.6153 0.0000 -9.6570 0.0000
# 4 0.0000 0.0000 0.0000 38.6515 0.0000 -9.9247
# 5 -3.9796 -8.7998 -9.6570 0.0000 37.3784 0.0000
# 6 0.0000 0.0000 0.0000 -9.9247 0.0000 28.3216
#
#
#
# Elastic Compliance Matrix: (Units=1/GPa)
#
#
# Indices 1 2 3 4 5 6 
#
# 1 0.010147 -0.002847 -0.003712 0.000000 -0.000549 0.000000
# 2 -0.002847 0.013107 -0.004614 0.000000 0.001590 0.000000
# 3 -0.003712 -0.004614 0.014812 0.000000 0.002345 0.000000
# 4 0.000000 0.000000 0.000000 0.028430 0.000000 0.009963
# 5 -0.000549 0.001590 0.002345 0.000000 0.027675 0.000000
# 6 0.000000 0.000000 0.000000 0.009963 0.000000 0.038800
#
#
# Mechanical properties :
#
#
# Convention : Reuss Voigt Hill
#
# Bulk Modulus (GPa) = 63.61418 66.34090 64.97754
# Shear Modulus (GPa) = 31.14147 33.49844 32.31996
#
# Velocity S-wave (km/s) = 3.74630 3.88548 3.81652
# Velocity P-wave (km/s) = 6.88349 7.07302 6.97890
#
# Compressibility (1/GPa) = 0.01571977
#
# Stress axis : x y z
#
# Youngs Moduli (GPa) = 98.54981 76.29777 67.51250
#
# Poissons Ratio (x) = 0.21721 0.25062
# Poissons Ratio (y) = 0.28056 0.31150
# Poissons Ratio (z) = 0.36583 0.35204
#
# Static dielectric constant tensor:
#      x y z
#    x 4.148510 0.000000 -0.105210 
#    y 0.000000 3.978430 0.000000 
#    z -0.105210 0.000000 4.063190 
# 
# 
# High freq. dielectric constant tensor:
#      x y z
#    x 1.877340 0.000000 -0.022810 
#    y 0.000000 1.866650 0.000000 
#    z -0.022810 0.000000 1.862420 
# 
# From -- ./inp_files/191080.got.cif
#   From: 2010.06.25/outbox.cif.g09.slc.cpg/sg15_96_cif.got.tgz:191080.got - 2010.06.28 07:06:18.
