data_PCOD8140131
_publ_section_title
;
Structure prediction by ZEFSAII (Michael W. Deem and Ramdas Pophale) SiO2 
 PCOD8140131
Probable space group: C 2/C
;
_chemical_formula_sum "Si O2"
_cell_formula_units_Z 56
_cell_length_a 14.210392
_cell_length_b 11.045989
_cell_length_c 19.005849
_cell_angle_alpha 90.000000
_cell_angle_beta 113.918943
_cell_angle_gamma 90.000000
_cell_volume 2727.100421
_symmetry_space_group_name_H-M "C 2/C"
_symmetry_group_IT_number 15
_symmetry_cell_setting 'monoclinic'
loop_
_space_group_symop_operation_xyz
x,y,z
-x,y,1/2-z
-x,-y,-z
x,-y,1/2+z
1/2+x,1/2+y,z
1/2-x,1/2+y,1/2-z
1/2-x,1/2-y,-z
1/2+x,1/2-y,1/2+z
loop_
_atom_site_type_symbol
_atom_site_label
_atom_site_fract_x
_atom_site_fract_y
_atom_site_fract_z
Si Si1 0.929229 0.533168 0.563911
Si Si2 0.441651 0.766615 0.611477
Si Si3 0.821703 0.718154 0.317237
Si Si4 0.107528 0.063674 0.014020
Si Si5 0.149026 0.480672 0.102908
Si Si6 0.750942 0.237649 0.355175
Si Si7 0.249113 0.845130 0.062233
O O1 0.931743 0.387764 0.563273
O O2 0.876940 0.563823 0.472926
O O3 0.864611 0.599313 0.605648
O O4 0.045478 0.581910 0.603019
O O5 0.560815 0.749456 0.669093
O O6 0.405286 0.652679 0.555289
O O7 0.365406 0.788432 0.654177
O O8 0.805340 0.575793 0.327489
O O9 0.747844 0.743879 0.229018
O O10 0.787328 0.798506 0.373279
O O11 0.164463 0.138672 0.093940
O O12 0.179516 0.954127 0.012557
O O13 0.000000 0.000000 0.000000
O O14 0.225546 0.371876 0.108857
O O15 0.250000 0.750000 0.000000
#
# Coordination Sequence:
#
# PCOD8140131 Si02
#       7
#     8   8   8   8   8   8   8
#     4  10  20  40  67  92 118 168 223 267 301 386
#     4  11  22  44  67  94 121 176 226 268 318 395
#     4  11  26  42  62  97 138 171 211 275 338 391
#     4  12  25  41  69 100 132 168 226 277 324 388
#     4  10  22  39  66  93 126 163 221 265 318 384
#     4  12  25  42  67  96 133 174 216 272 336 389
#     4  12  24  41  66  96 130 171 219 269 329 389
#
# _framework density 20.534631000000001
#
# number of rings (size 3 to 8) (size 9 to 14) (size 15 to 20)
#    0.000    0.857    5.714    1.714    4.000    0.000 
#    0.000    0.714    0.000    0.000    0.000    0.000 
#    0.000    0.000    0.000    0.000    0.000    0.000 
#
# Total GULP energy -347055.560546 kJ/mol
# GULP energy per Si atom -12394.841448 kJ/mol
# Density = 2.048789 g / cm^3
# Si number density = 20.534631 Si / 1000 Ang^3
#
#
#
# Elastic Constant Matrix: (Units=GPa)
#
#
# Indices 1 2 3 4 5 6 
#
# 1 115.2447 32.2271 15.4113 0.0000 0.6376 0.0000
# 2 32.2271 96.6503 35.9754 0.0000 4.2387 0.0000
# 3 15.4113 35.9754 90.2894 0.0000 -2.8270 0.0000
# 4 0.0000 0.0000 0.0000 18.8933 0.0000 -3.3997
# 5 0.6376 4.2387 -2.8270 0.0000 22.5320 0.0000
# 6 0.0000 0.0000 0.0000 -3.3997 0.0000 42.0741
#
#
#
# Elastic Compliance Matrix: (Units=1/GPa)
#
#
# Indices 1 2 3 4 5 6 
#
# 1 0.009585 -0.003054 -0.000411 0.000000 0.000252 0.000000
# 2 -0.003054 0.013314 -0.004878 0.000000 -0.003030 0.000000
# 3 -0.000411 -0.004878 0.013170 0.000000 0.002582 0.000000
# 4 0.000000 0.000000 0.000000 0.053710 0.000000 0.004340
# 5 0.000252 -0.003030 0.002582 0.000000 0.045268 0.000000
# 6 0.000000 0.000000 0.000000 0.004340 0.000000 0.024118
#
#
# Mechanical properties :
#
#
# Convention : Reuss Voigt Hill
#
# Bulk Modulus (GPa) = 51.59544 52.15689 51.87616
# Shear Modulus (GPa) = 27.42543 31.27126 29.34834
#
# Velocity S-wave (km/s) = 3.65851 3.90661 3.78459
# Velocity P-wave (km/s) = 6.55949 6.76782 6.66447
#
# Compressibility (1/GPa) = 0.01938156
#
# Stress axis : x y z
#
# Youngs Moduli (GPa) = 104.33195 75.11117 75.92838
#
# Poissons Ratio (x) = 0.22938 0.03123
# Poissons Ratio (y) = 0.31862 0.37041
# Poissons Ratio (z) = 0.04291 0.36642
#
# Static dielectric constant tensor:
#      x y z
#    x 4.325880 0.000000 0.019810 
#    y 0.000000 3.780630 0.000000 
#    z 0.019810 0.000000 3.428720 
# 
# 
# High freq. dielectric constant tensor:
#      x y z
#    x 1.817460 0.000000 0.000630 
#    y 0.000000 1.812300 0.000000 
#    z 0.000630 0.000000 1.776810 
# 
# From -- ./inp_files/204528.got.cif
#   From: 2010.06.25/outbox.cif.g09.slc.cpg/sg15_103_cif.got.tgz:204528.got - 2010.06.28 07:06:18.
