data_PCOD8140869
_publ_section_title
;
Structure prediction by ZEFSAII (Michael W. Deem and Ramdas Pophale) SiO2 
 PCOD8140869
Probable space group: C 2/C
;
_chemical_formula_sum "Si O2"
_cell_formula_units_Z 40
_cell_length_a 13.033866
_cell_length_b 7.533239
_cell_length_c 23.207165
_cell_angle_alpha 90.000000
_cell_angle_beta 125.260388
_cell_angle_gamma 90.000000
_cell_volume 1860.599521
_symmetry_space_group_name_H-M "C 2/C"
_symmetry_group_IT_number 15
_symmetry_cell_setting 'monoclinic'
loop_
_space_group_symop_operation_xyz
x,y,z
-x,y,1/2-z
-x,-y,-z
x,-y,1/2+z
1/2+x,1/2+y,z
1/2-x,1/2+y,1/2-z
1/2-x,1/2-y,-z
1/2+x,1/2-y,1/2+z
loop_
_atom_site_type_symbol
_atom_site_label
_atom_site_fract_x
_atom_site_fract_y
_atom_site_fract_z
Si Si1 0.738261 0.569812 0.030465
Si Si2 0.584332 0.782628 0.721554
Si Si3 0.223290 0.305389 0.129122
Si Si4 0.999388 0.387821 0.126827
Si Si5 0.576716 0.510221 0.379720
O O1 0.716348 0.622084 0.090043
O O2 0.864065 0.457788 0.064303
O O3 0.750000 0.750000 0.000000
O O4 0.623344 0.468779 0.961643
O O5 0.500000 0.765051 0.750000
O O6 0.724251 0.741688 0.789641
O O7 0.533475 0.637289 0.659315
O O8 0.573640 0.978512 0.692582
O O9 0.306409 0.457209 0.124245
O O10 0.081871 0.370991 0.095103
O O11 0.980697 0.201734 0.155053
#
# Coordination Sequence:
#
# PCOD8140869 Si02
#       5
#     8   8   8   8   8
#     4  10  20  45  65  95 137 161 213 280 307 381
#     4  10  21  45  60  92 137 161 214 279 307 378
#     4  10  24  43  64  97 131 168 217 268 319 382
#     4  12  23  41  71  91 125 179 210 260 336 375
#     4  10  23  43  66  94 131 167 216 265 320 386
#
# _framework density 21.498446000000001
#
# number of rings (size 3 to 8) (size 9 to 14) (size 15 to 20)
#    0.000    1.600    6.000    0.600    2.800    6.400 
#    3.600    0.000    0.000    0.000    0.000    0.000 
#    0.000    0.000    0.000    0.000    0.000    0.000 
#
# Total GULP energy -247872.789820 kJ/mol
# GULP energy per Si atom -12393.639491 kJ/mol
# Density = 2.144951 g / cm^3
# Si number density = 21.498446 Si / 1000 Ang^3
#
#
#
# Elastic Constant Matrix: (Units=GPa)
#
#
# Indices 1 2 3 4 5 6 
#
# 1 82.1458 46.0136 44.0342 0.0000 1.3906 0.0000
# 2 46.0136 153.0752 47.4125 0.0000 4.1152 0.0000
# 3 44.0342 47.4125 135.0493 0.0000 16.9478 0.0000
# 4 0.0000 0.0000 0.0000 18.3681 0.0000 -5.2623
# 5 1.3906 4.1152 16.9478 0.0000 10.5313 0.0000
# 6 0.0000 0.0000 0.0000 -5.2623 0.0000 25.0580
#
#
#
# Elastic Compliance Matrix: (Units=1/GPa)
#
#
# Indices 1 2 3 4 5 6 
#
# 1 0.016866 -0.003676 -0.005149 0.000000 0.007496 0.000000
# 2 -0.003676 0.008153 -0.001660 0.000000 -0.000029 0.000000
# 3 -0.005149 -0.001660 0.011904 0.000000 -0.017828 0.000000
# 4 0.000000 0.000000 0.000000 0.057927 0.000000 0.012165
# 5 0.007496 -0.000029 -0.017828 0.000000 0.122667 0.000000
# 6 0.000000 0.000000 0.000000 0.012165 0.000000 0.042462
#
#
# Mechanical properties :
#
#
# Convention : Reuss Voigt Hill
#
# Bulk Modulus (GPa) = 62.69089 71.68790 67.18939
# Shear Modulus (GPa) = 17.46614 26.31214 21.88914
#
# Velocity S-wave (km/s) = 2.85342 3.50224 3.19434
# Velocity P-wave (km/s) = 6.33087 7.05494 6.70269
#
# Compressibility (1/GPa) = 0.01595128
#
# Stress axis : x y z
#
# Youngs Moduli (GPa) = 59.28979 122.65787 84.00712
#
# Poissons Ratio (x) = 0.45095 0.43259
# Poissons Ratio (y) = 0.21798 0.13944
# Poissons Ratio (z) = 0.30531 0.20359
#
# Static dielectric constant tensor:
#      x y z
#    x 3.696340 0.000000 0.308140 
#    y 0.000000 3.924170 0.000000 
#    z 0.308140 0.000000 2.787090 
# 
# 
# High freq. dielectric constant tensor:
#      x y z
#    x 1.821930 0.000000 0.018770 
#    y 0.000000 1.842280 0.000000 
#    z 0.018770 0.000000 1.850550 
# 
# From -- ./inp_files/242104.got.cif
#   From: 2010.06.25/outbox.cif.g09.slc.cpg/sg15_122_cif.got.tgz:242104.got - 2010.06.28 07:06:18.
