data_PCOD8140318
_publ_section_title
;
Structure prediction by ZEFSAII (Michael W. Deem and Ramdas Pophale) SiO2 
 PCOD8140318
Probable space group: C 2/C
;
_chemical_formula_sum "Si O2"
_cell_formula_units_Z 56
_cell_length_a 17.621035
_cell_length_b 9.048292
_cell_length_c 18.539621
_cell_angle_alpha 90.000000
_cell_angle_beta 108.097903
_cell_angle_gamma 90.000000
_cell_volume 2809.722162
_symmetry_space_group_name_H-M "C 2/C"
_symmetry_group_IT_number 15
_symmetry_cell_setting 'monoclinic'
loop_
_space_group_symop_operation_xyz
x,y,z
-x,y,1/2-z
-x,-y,-z
x,-y,1/2+z
1/2+x,1/2+y,z
1/2-x,1/2+y,1/2-z
1/2-x,1/2-y,-z
1/2+x,1/2-y,1/2+z
loop_
_atom_site_type_symbol
_atom_site_label
_atom_site_fract_x
_atom_site_fract_y
_atom_site_fract_z
Si Si1 0.821896 0.664147 0.256125
Si Si2 0.503365 0.798701 0.667253
Si Si3 0.569186 0.682732 0.322528
Si Si4 0.797373 0.982176 0.187443
Si Si5 0.230987 0.918785 0.482377
Si Si6 0.450969 0.478625 0.058392
Si Si7 0.141234 0.510821 0.873112
O O1 0.907153 0.643721 0.321017
O O2 0.804112 0.835713 0.236949
O O3 0.755053 0.604406 0.289032
O O4 0.817849 0.574909 0.180547
O O5 0.500000 0.748687 0.750000
O O6 0.483325 0.662755 0.610356
O O7 0.442227 0.931316 0.631557
O O8 0.500000 0.739504 0.250000
O O9 0.614266 0.547120 0.297227
O O10 0.535425 0.625243 0.389201
O O11 0.628247 0.818963 0.350869
O O12 0.759020 0.950066 0.098904
O O13 0.250000 0.750000 0.500000
O O14 0.142950 0.958505 0.485988
O O15 0.297302 0.014724 0.542681
O O16 0.500000 0.500000 0.000000
#
# Coordination Sequence:
#
# PCOD8140318 Si02
#       7
#     8   8   8   8   8   8   8
#     4  11  22  39  62  94 122 161 217 266 307 378
#     4  10  20  41  64  86 123 169 208 257 320 377
#     4  11  23  42  63  93 125 164 208 261 321 377
#     4  11  24  40  66  93 127 170 211 261 327 380
#     4  11  21  45  66  88 129 178 209 257 331 388
#     4  11  24  40  64  93 123 167 214 260 315 385
#     4  11  22  40  66  91 126 167 209 260 319 382
#
# _framework density 19.930796000000001
#
# number of rings (size 3 to 8) (size 9 to 14) (size 15 to 20)
#    0.000    1.143    2.857    6.000    0.000    6.857 
#    5.143    1.429    0.000    0.000    0.000    0.000 
#    0.000    0.000    0.000    0.000    0.000    0.000 
#
# Total GULP energy -347312.253816 kJ/mol
# GULP energy per Si atom -12404.009065 kJ/mol
# Density = 1.988543 g / cm^3
# Si number density = 19.930796 Si / 1000 Ang^3
#
#
#
# Elastic Constant Matrix: (Units=GPa)
#
#
# Indices 1 2 3 4 5 6 
#
# 1 105.4697 30.6724 63.0284 0.0000 -4.7958 0.0000
# 2 30.6724 107.6800 40.2435 0.0000 -10.7176 0.0000
# 3 63.0284 40.2435 101.1274 0.0000 16.2976 0.0000
# 4 0.0000 0.0000 0.0000 33.4014 0.0000 3.1696
# 5 -4.7958 -10.7176 16.2976 0.0000 37.7846 0.0000
# 6 0.0000 0.0000 0.0000 3.1696 0.0000 29.9212
#
#
#
# Elastic Compliance Matrix: (Units=1/GPa)
#
#
# Indices 1 2 3 4 5 6 
#
# 1 0.016725 0.000347 -0.011736 0.000000 0.007283 0.000000
# 2 0.000347 0.012020 -0.005971 0.000000 0.006029 0.000000
# 3 -0.011736 -0.005971 0.021593 0.000000 -0.012497 0.000000
# 4 0.000000 0.000000 0.000000 0.030243 0.000000 -0.003204
# 5 0.007283 0.006029 -0.012497 0.000000 0.034491 0.000000
# 6 0.000000 0.000000 0.000000 -0.003204 0.000000 0.033760
#
#
# Mechanical properties :
#
#
# Convention : Reuss Voigt Hill
#
# Bulk Modulus (GPa) = 64.02910 64.68507 64.35709
# Shear Modulus (GPa) = 26.48907 32.24363 29.36635
#
# Velocity S-wave (km/s) = 3.64957 4.02653 3.84267
# Velocity P-wave (km/s) = 7.06786 7.35816 7.21447
#
# Compressibility (1/GPa) = 0.01561790
#
# Stress axis : x y z
#
# Youngs Moduli (GPa) = 59.79090 83.19765 46.31123
#
# Poissons Ratio (x) = -0.02886 0.54350
# Poissons Ratio (y) = -0.02074 0.27652
# Poissons Ratio (z) = 0.70169 0.49677
#
# Static dielectric constant tensor:
#      x y z
#    x 3.717920 0.000000 0.154460 
#    y 0.000000 3.650030 0.000000 
#    z 0.154460 0.000000 4.047970 
# 
# 
# High freq. dielectric constant tensor:
#      x y z
#    x 1.779030 0.000000 0.013300 
#    y 0.000000 1.787420 0.000000 
#    z 0.013300 0.000000 1.778240 
# 
# From -- ./inp_files/209537.got.cif
#   From: 2010.06.25/outbox.cif.g09.slc.cpg/sg15_105_cif.got.tgz:209537.got - 2010.06.28 07:06:18.
