data_PCOD8140670
_publ_section_title
;
Structure prediction by ZEFSAII (Michael W. Deem and Ramdas Pophale) SiO2 
 PCOD8140670
Probable space group: C 2/C
;
_chemical_formula_sum "Si O2"
_cell_formula_units_Z 40
_cell_length_a 9.233898
_cell_length_b 15.109192
_cell_length_c 13.483565
_cell_angle_alpha 90.000000
_cell_angle_beta 75.364765
_cell_angle_gamma 90.000000
_cell_volume 1820.146089
_symmetry_space_group_name_H-M "C 2/C"
_symmetry_group_IT_number 15
_symmetry_cell_setting 'monoclinic'
loop_
_space_group_symop_operation_xyz
x,y,z
-x,y,1/2-z
-x,-y,-z
x,-y,1/2+z
1/2+x,1/2+y,z
1/2-x,1/2+y,1/2-z
1/2-x,1/2-y,-z
1/2+x,1/2-y,1/2+z
loop_
_atom_site_type_symbol
_atom_site_label
_atom_site_fract_x
_atom_site_fract_y
_atom_site_fract_z
Si Si1 0.449299 0.325352 0.653958
Si Si2 0.848383 0.449115 0.552709
Si Si3 0.354032 0.198396 0.213955
Si Si4 0.645326 0.658928 0.949473
Si Si5 0.543186 0.472833 0.137787
O O1 0.500000 0.284219 0.750000
O O2 0.272021 0.308450 0.678193
O O3 0.549494 0.283839 0.547737
O O4 0.479279 0.429172 0.647048
O O5 0.870023 0.392729 0.649875
O O6 0.793505 0.384391 0.473031
O O7 0.722959 0.524385 0.593624
O O8 0.000000 0.500000 0.500000
O O9 0.500000 0.222021 0.250000
O O10 0.309425 0.277171 0.147142
O O11 0.532575 0.581753 0.936576
O O12 0.500000 0.427317 0.250000
#
# Coordination Sequence:
#
# PCOD8140670 Si02
#       5
#     8   8   8   8   8
#     4  10  20  42  69  87 128 187 213 260 336 401
#     4  11  24  42  71  99 131 171 227 283 327 389
#     4  12  26  43  65 101 140 172 221 281 335 388
#     4  11  24  44  69  96 133 177 223 268 339 403
#     4  10  20  43  70  93 128 180 220 259 339 408
#
# _framework density 21.976257
#
# number of rings (size 3 to 8) (size 9 to 14) (size 15 to 20)
#    0.000    1.200    6.000    3.600    5.600    0.800 
#    3.600    0.000    0.000    0.000    0.000    0.000 
#    0.000    0.000    0.000    0.000    0.000    0.000 
#
# Total GULP energy -247909.790082 kJ/mol
# GULP energy per Si atom -12395.489504 kJ/mol
# Density = 2.192624 g / cm^3
# Si number density = 21.976257 Si / 1000 Ang^3
#
#
#
# Elastic Constant Matrix: (Units=GPa)
#
#
# Indices 1 2 3 4 5 6 
#
# 1 160.8257 36.1551 60.7166 0.0000 -21.8560 0.0000
# 2 36.1551 37.5952 21.5718 0.0000 -11.4673 0.0000
# 3 60.7166 21.5718 101.1479 0.0000 -10.9334 0.0000
# 4 0.0000 0.0000 0.0000 30.2270 0.0000 8.1105
# 5 -21.8560 -11.4673 -10.9334 0.0000 48.6364 0.0000
# 6 0.0000 0.0000 0.0000 8.1105 0.0000 20.2263
#
#
#
# Elastic Compliance Matrix: (Units=1/GPa)
#
#
# Indices 1 2 3 4 5 6 
#
# 1 0.009407 -0.006102 -0.004145 0.000000 0.001857 0.000000
# 2 -0.006102 0.035973 -0.003473 0.000000 0.004959 0.000000
# 3 -0.004145 -0.003473 0.013145 0.000000 0.000274 0.000000
# 4 0.000000 0.000000 0.000000 0.037072 0.000000 -0.014865
# 5 0.001857 0.004959 0.000274 0.000000 0.022626 0.000000
# 6 0.000000 0.000000 0.000000 -0.014865 0.000000 0.055401
#
#
# Mechanical properties :
#
#
# Convention : Reuss Voigt Hill
#
# Bulk Modulus (GPa) = 32.16991 59.60621 45.88806
# Shear Modulus (GPa) = 23.64922 31.89295 27.77109
#
# Velocity S-wave (km/s) = 3.28399 3.81365 3.55869
# Velocity P-wave (km/s) = 5.38978 6.82450 6.14913
#
# Compressibility (1/GPa) = 0.03108495
#
# Stress axis : x y z
#
# Youngs Moduli (GPa) = 106.30703 27.79889 76.07648
#
# Poissons Ratio (x) = 0.16963 0.31530
# Poissons Ratio (y) = 0.64868 0.26422
# Poissons Ratio (z) = 0.44060 0.09655
#
# Static dielectric constant tensor:
#      x y z
#    x 4.048900 0.000000 -0.034500 
#    y 0.000000 3.713660 0.000000 
#    z -0.034500 0.000000 4.987060 
# 
# 
# High freq. dielectric constant tensor:
#      x y z
#    x 1.867060 0.000000 0.000970 
#    y 0.000000 1.841460 0.000000 
#    z 0.000970 0.000000 1.878110 
# 
# From -- ./inp_files/133062.got.cif
#   From: 2010.06.25/outbox.cif.g09.slc.cpg/sg15_67_cif.got.tgz:133062.got - 2010.06.28 07:06:18.
