data_PCOD8140232
_publ_section_title
;
Structure prediction by ZEFSAII (Michael W. Deem and Ramdas Pophale) SiO2 
 PCOD8140232
Probable space group: C 2/C
;
_chemical_formula_sum "Si O2"
_cell_formula_units_Z 56
_cell_length_a 18.339514
_cell_length_b 9.901305
_cell_length_c 26.995035
_cell_angle_alpha 90.000000
_cell_angle_beta 145.980063
_cell_angle_gamma 90.000000
_cell_volume 2742.519776
_symmetry_space_group_name_H-M "C 2/C"
_symmetry_group_IT_number 15
_symmetry_cell_setting 'monoclinic'
loop_
_space_group_symop_operation_xyz
x,y,z
-x,y,1/2-z
-x,-y,-z
x,-y,1/2+z
1/2+x,1/2+y,z
1/2-x,1/2+y,1/2-z
1/2-x,1/2-y,-z
1/2+x,1/2-y,1/2+z
loop_
_atom_site_type_symbol
_atom_site_label
_atom_site_fract_x
_atom_site_fract_y
_atom_site_fract_z
Si Si1 0.132696 0.034718 0.295581
Si Si2 0.368454 0.888590 0.115923
Si Si3 0.654531 0.985327 0.294183
Si Si4 0.790004 0.757128 0.324796
Si Si5 0.999548 0.343026 0.487810
Si Si6 0.713741 0.729558 0.793722
Si Si7 0.287740 0.121292 0.465797
O O1 0.181208 0.162409 0.290277
O O2 0.238616 0.008737 0.399015
O O3 0.000000 0.065529 0.250000
O O4 0.127251 0.902436 0.257742
O O5 0.328024 0.731238 0.093771
O O6 0.522408 0.906006 0.207229
O O7 0.302511 0.966812 0.124429
O O8 0.318987 0.949618 0.035738
O O9 0.641700 0.143672 0.277636
O O10 0.762550 0.914600 0.320739
O O11 0.783966 0.738984 0.262960
O O12 0.934285 0.726919 0.427031
O O13 0.857127 0.284789 0.397303
O O14 0.000000 0.500000 0.500000
O O15 0.081953 0.311845 0.484085
#
# Coordination Sequence:
#
# PCOD8140232 Si02
#       7
#     8   8   8   8   8   8   8
#     4  11  23  43  65  98 131 175 229 273 326 414
#     4  10  21  39  65  95 124 166 214 274 336 386
#     4  11  23  40  63  95 134 159 215 278 331 400
#     4  11  23  44  69  94 128 183 224 275 333 407
#     4  11  22  43  67  93 128 172 229 268 320 415
#     4  12  26  41  67  98 138 176 219 279 356 396
#     4  10  20  40  71  90 118 175 227 270 318 402
#
# _framework density 20.419177000000001
#
# number of rings (size 3 to 8) (size 9 to 14) (size 15 to 20)
#    0.000    1.143    5.714    2.571    4.000    1.714 
#    2.571    0.714    0.000    0.000    0.000    0.000 
#    0.000    0.000    0.000    0.000    0.000    0.000 
#
# Total GULP energy -347051.989592 kJ/mol
# GULP energy per Si atom -12394.713914 kJ/mol
# Density = 2.037270 g / cm^3
# Si number density = 20.419177 Si / 1000 Ang^3
#
#
#
# Elastic Constant Matrix: (Units=GPa)
#
#
# Indices 1 2 3 4 5 6 
#
# 1 102.0130 21.1058 54.6754 0.0000 -27.5018 0.0000
# 2 21.1058 62.3284 15.4885 0.0000 -14.7910 0.0000
# 3 54.6754 15.4885 97.1350 0.0001 -20.7352 0.0000
# 4 0.0000 0.0000 0.0001 17.3661 0.0000 1.5436
# 5 -27.5018 -14.7910 -20.7352 0.0000 46.3121 0.0000
# 6 0.0000 0.0000 0.0000 1.5436 0.0000 23.7548
#
#
#
# Elastic Compliance Matrix: (Units=1/GPa)
#
#
# Indices 1 2 3 4 5 6 
#
# 1 0.015598 -0.002213 -0.007298 0.000000 0.005288 0.000000
# 2 -0.002213 0.017948 -0.000744 0.000000 0.004085 0.000000
# 3 -0.007298 -0.000744 0.014977 0.000000 0.002134 0.000000
# 4 0.000000 0.000000 0.000000 0.057918 0.000000 -0.003764
# 5 0.005288 0.004085 0.002134 0.000000 0.026993 0.000000
# 6 0.000000 0.000000 0.000000 -0.003764 0.000000 0.042341
#
#
# Mechanical properties :
#
#
# Convention : Reuss Voigt Hill
#
# Bulk Modulus (GPa) = 35.69905 49.33510 42.51708
# Shear Modulus (GPa) = 24.31643 28.83372 26.57507
#
# Velocity S-wave (km/s) = 3.45463 3.76186 3.61151
# Velocity P-wave (km/s) = 5.78219 6.56371 6.18531
#
# Compressibility (1/GPa) = 0.02801195
#
# Stress axis : x y z
#
# Youngs Moduli (GPa) = 64.11243 55.71733 66.76902
#
# Poissons Ratio (x) = 0.12332 0.48727
# Poissons Ratio (y) = 0.14190 0.04968
# Poissons Ratio (z) = 0.46788 0.04146
#
# Static dielectric constant tensor:
#      x y z
#    x 3.971970 0.000000 -0.087890 
#    y 0.000000 3.491290 0.000000 
#    z -0.087890 0.000000 4.048270 
# 
# 
# High freq. dielectric constant tensor:
#      x y z
#    x 1.807740 0.000000 -0.009860 
#    y 0.000000 1.775370 0.000000 
#    z -0.009860 0.000000 1.801070 
# 
# From -- ./inp_files/317533.got.cif
#   From: 2010.06.25/outbox.cif.g09.slc.cpg/sg15_159_cif.got.tgz:317533.got - 2010.06.28 07:06:18.
