data_PCOD8140330
_publ_section_title
;
Structure prediction by ZEFSAII (Michael W. Deem and Ramdas Pophale) SiO2 
 PCOD8140330
Probable space group: C 2/C
;
_chemical_formula_sum "Si O2"
_cell_formula_units_Z 40
_cell_length_a 17.566647
_cell_length_b 23.636046
_cell_length_c 9.424908
_cell_angle_alpha 90.000000
_cell_angle_beta 30.615281
_cell_angle_gamma 90.000000
_cell_volume 1992.919393
_symmetry_space_group_name_H-M "C 2/C"
_symmetry_group_IT_number 15
_symmetry_cell_setting 'monoclinic'
loop_
_space_group_symop_operation_xyz
x,y,z
-x,y,1/2-z
-x,-y,-z
x,-y,1/2+z
1/2+x,1/2+y,z
1/2-x,1/2+y,1/2-z
1/2-x,1/2-y,-z
1/2+x,1/2-y,1/2+z
loop_
_atom_site_type_symbol
_atom_site_label
_atom_site_fract_x
_atom_site_fract_y
_atom_site_fract_z
Si Si1 0.345513 0.031197 0.254699
Si Si2 0.090272 0.856940 0.967462
Si Si3 0.406557 0.152942 0.042578
Si Si4 0.927845 0.250487 0.710919
Si Si5 0.158513 0.022790 0.287140
O O1 0.383579 0.097066 0.174814
O O2 0.213644 0.012613 0.358843
O O3 0.283318 0.012395 0.505098
O O4 0.500000 0.000000 0.000000
O O5 0.241310 0.824102 0.770164
O O6 0.143460 0.909335 0.783109
O O7 0.000000 0.880851 0.250000
O O8 0.986057 0.810339 0.056830
O O9 0.486471 0.200501 0.010778
O O10 0.500000 0.139854 0.750000
O O11 0.000000 0.260056 0.750000
O O12 0.750000 0.250000 0.000000
O O13 0.000000 0.000000 0.500000
#
# Coordination Sequence:
#
# PCOD8140330 Si02
#       5
#     8   8   8   8   8
#     4  11  23  42  63  93 130 166 214 265 327 379
#     4  10  20  41  64  88 133 170 214 258 337 379
#     4  11  23  42  66  95 132 175 211 270 331 381
#     4  11  22  42  70  96 128 172 219 266 323 394
#     4  11  22  38  65  90 125 171 213 261 319 389
#
# _framework density 20.071057
#
# number of rings (size 3 to 8) (size 9 to 14) (size 15 to 20)
#    0.000    1.200    4.000    6.000    0.000    2.400 
#    0.000    2.000    0.000    0.000    0.000    0.000 
#    0.000    0.000    0.000    0.000    0.000    0.000 
#
# Total GULP energy -247763.177143 kJ/mol
# GULP energy per Si atom -12388.158857 kJ/mol
# Density = 2.002537 g / cm^3
# Si number density = 20.071057 Si / 1000 Ang^3
#
#
#
# Elastic Constant Matrix: (Units=GPa)
#
#
# Indices 1 2 3 4 5 6 
#
# 1 85.5146 45.6725 10.6624 0.0004 -20.1028 -0.0004
# 2 45.6725 149.2357 42.6171 0.0006 7.1260 -0.0013
# 3 10.6624 42.6171 94.5945 -0.0005 -5.9768 -0.0047
# 4 0.0004 0.0006 -0.0005 36.4257 -0.0006 -5.7008
# 5 -20.1028 7.1260 -5.9768 -0.0006 44.0334 0.0019
# 6 -0.0004 -0.0013 -0.0047 -5.7008 0.0019 35.0964
#
#
#
# Elastic Compliance Matrix: (Units=1/GPa)
#
#
# Indices 1 2 3 4 5 6 
#
# 1 0.016763 -0.005932 0.001339 0.000000 0.008795 0.000000
# 2 -0.005932 0.009923 -0.004109 0.000000 -0.004872 0.000000
# 3 0.001339 -0.004109 0.012459 0.000000 0.002967 0.000001
# 4 0.000000 0.000000 0.000000 0.028169 0.000000 0.004576
# 5 0.008795 -0.004872 0.002967 0.000000 0.027916 -0.000001
# 6 0.000000 0.000000 0.000001 0.004576 -0.000001 0.029236
#
#
# Mechanical properties :
#
#
# Convention : Reuss Voigt Hill
#
# Bulk Modulus (GPa) = 46.00060 58.58319 52.29189
# Shear Modulus (GPa) = 33.53027 38.47062 36.00045
#
# Velocity S-wave (km/s) = 4.09170 4.38279 4.23974
# Velocity P-wave (km/s) = 6.72989 7.40696 7.07652
#
# Compressibility (1/GPa) = 0.02173885
#
# Stress axis : x y z
#
# Youngs Moduli (GPa) = 59.65560 100.78026 80.26045
#
# Poissons Ratio (x) = 0.59787 -0.10746
# Poissons Ratio (y) = 0.35390 0.32983
# Poissons Ratio (z) = -0.07987 0.41416
#
# Static dielectric constant tensor:
#      x y z
#    x 3.447070 0.000140 -0.064800 
#    y 0.000140 3.819840 -0.000010 
#    z -0.064800 -0.000010 3.624490 
# 
# 
# High freq. dielectric constant tensor:
#      x y z
#    x 1.772050 0.000000 -0.025720 
#    y 0.000000 1.790260 0.000000 
#    z -0.025720 0.000000 1.789790 
# 
# From -- ./inp_files/51649.got.cif
#   From: 2010.06.25/outbox.cif.g09.slc.cpg/sg15_26_cif.got.tgz:51649.got - 2010.06.28 07:06:18.
