data_PCOD8140588
_publ_section_title
;
Structure prediction by ZEFSAII (Michael W. Deem and Ramdas Pophale) SiO2 
 PCOD8140588
Probable space group: C 2/C
;
_chemical_formula_sum "Si O2"
_cell_formula_units_Z 52
_cell_length_a 8.837003
_cell_length_b 23.780853
_cell_length_c 11.517657
_cell_angle_alpha 90.000000
_cell_angle_beta 85.555805
_cell_angle_gamma 90.000000
_cell_volume 2413.174915
_symmetry_space_group_name_H-M "C 2/C"
_symmetry_group_IT_number 15
_symmetry_cell_setting 'monoclinic'
loop_
_space_group_symop_operation_xyz
x,y,z
-x,y,1/2-z
-x,-y,-z
x,-y,1/2+z
1/2+x,1/2+y,z
1/2-x,1/2+y,1/2-z
1/2-x,1/2-y,-z
1/2+x,1/2-y,1/2+z
loop_
_atom_site_type_symbol
_atom_site_label
_atom_site_fract_x
_atom_site_fract_y
_atom_site_fract_z
Si Si1 0.950020 0.173214 0.433237
Si Si2 0.360103 0.573386 0.596983
Si Si3 0.268950 0.321101 0.726956
Si Si4 0.145368 0.472603 0.541247
Si Si5 0.691168 0.597148 0.648360
Si Si6 0.899186 0.781479 0.367351
Si Si7 0.500000 0.099289 0.250000
O O1 0.858602 0.121492 0.497596
O O2 0.846492 0.202517 0.340335
O O3 0.103234 0.148394 0.360576
O O4 0.993488 0.222000 0.524161
O O5 0.283975 0.515783 0.556521
O O6 0.533832 0.565442 0.626066
O O7 0.268108 0.592121 0.717680
O O8 0.205547 0.272481 0.645401
O O9 0.135179 0.360247 0.785604
O O10 0.181707 0.430158 0.436631
O O11 0.000000 0.500000 0.500000
O O12 0.090405 0.439242 0.656095
O O13 0.697315 0.662125 0.610755
O O14 0.000000 0.792201 0.250000
#
# Coordination Sequence:
#
# PCOD8140588 Si02
#       7
#     8   8   8   8   8   8   4
#     4  10  22  42  67  96 128 170 224 260 316 394
#     4  10  20  42  66  88 121 168 218 267 309 378
#     4  11  24  41  66  98 132 171 213 268 327 382
#     4  12  25  40  61  94 131 169 209 268 334 379
#     4  10  21  41  67  91 120 169 222 260 312 387
#     4  11  20  43  68  95 131 170 213 266 322 378
#     4  12  24  42  60  96 136 168 212 272 326 382
#
# _framework density 21.548376000000001
#
# number of rings (size 3 to 8) (size 9 to 14) (size 15 to 20)
#    0.000    1.231    3.846    4.615    0.000    0.615 
#    0.000    7.692    0.000    0.000    0.000    0.000 
#    0.000    0.000    0.000    0.000    0.000    0.000 
#
# Total GULP energy -322102.961880 kJ/mol
# GULP energy per Si atom -12388.575457 kJ/mol
# Density = 2.149933 g / cm^3
# Si number density = 21.548376 Si / 1000 Ang^3
#
#
#
# Elastic Constant Matrix: (Units=GPa)
#
#
# Indices 1 2 3 4 5 6 
#
# 1 86.8249 56.9693 50.8351 0.0000 0.2920 0.0000
# 2 56.9693 116.0112 47.9450 0.0000 -2.7801 0.0000
# 3 50.8351 47.9450 145.4048 0.0000 2.2949 0.0000
# 4 0.0000 0.0000 0.0000 30.9255 0.0000 -8.4341
# 5 0.2920 -2.7801 2.2949 0.0000 38.7423 0.0000
# 6 0.0000 0.0000 0.0000 -8.4341 0.0000 33.5867
#
#
#
# Elastic Compliance Matrix: (Units=1/GPa)
#
#
# Indices 1 2 3 4 5 6 
#
# 1 0.018905 -0.007601 -0.004096 0.000000 -0.000445 0.000000
# 2 -0.007601 0.013069 -0.001669 0.000000 0.001094 0.000000
# 3 -0.004096 -0.001669 0.008869 0.000000 -0.000614 0.000000
# 4 0.000000 0.000000 0.000000 0.034713 0.000000 0.008717
# 5 -0.000445 0.001094 -0.000614 0.000000 0.025930 0.000000
# 6 0.000000 0.000000 0.000000 0.008717 0.000000 0.031963
#
#
# Mechanical properties :
#
#
# Convention : Reuss Voigt Hill
#
# Bulk Modulus (GPa) = 70.87025 73.30440 72.08733
# Shear Modulus (GPa) = 30.32446 33.48366 31.90406
#
# Velocity S-wave (km/s) = 3.75543 3.94621 3.85200
# Velocity P-wave (km/s) = 7.19477 7.40647 7.30139
#
# Compressibility (1/GPa) = 0.01411029
#
# Stress axis : x y z
#
# Youngs Moduli (GPa) = 52.89742 76.51938 112.74892
#
# Poissons Ratio (x) = 0.58165 0.46179
# Poissons Ratio (y) = 0.40209 0.18817
# Poissons Ratio (z) = 0.21665 0.12770
#
# Static dielectric constant tensor:
#      x y z
#    x 3.858690 0.000000 -0.041770 
#    y 0.000000 4.261450 0.000000 
#    z -0.041770 0.000000 4.279190 
# 
# 
# High freq. dielectric constant tensor:
#      x y z
#    x 1.839960 0.000000 -0.006420 
#    y 0.000000 1.825180 0.000000 
#    z -0.006420 0.000000 1.873630 
# 
# From -- ./inp_files/80701.got.cif
#   From: 2010.06.25/outbox.cif.g09.slc.cpg/sg15_41_cif.got.tgz:80701.got - 2010.06.28 07:06:18.
