data_PCOD8140485
_publ_section_title
;
Structure prediction by ZEFSAII (Michael W. Deem and Ramdas Pophale) SiO2 
 PCOD8140485
Probable space group: C 2/C
;
_chemical_formula_sum "Si O2"
_cell_formula_units_Z 60
_cell_length_a 15.098901
_cell_length_b 13.421655
_cell_length_c 14.071726
_cell_angle_alpha 90.000000
_cell_angle_beta 82.859756
_cell_angle_gamma 90.000000
_cell_volume 2829.551768
_symmetry_space_group_name_H-M "C 2/C"
_symmetry_group_IT_number 15
_symmetry_cell_setting 'monoclinic'
loop_
_space_group_symop_operation_xyz
x,y,z
-x,y,1/2-z
-x,-y,-z
x,-y,1/2+z
1/2+x,1/2+y,z
1/2-x,1/2+y,1/2-z
1/2-x,1/2-y,-z
1/2+x,1/2-y,1/2+z
loop_
_atom_site_type_symbol
_atom_site_label
_atom_site_fract_x
_atom_site_fract_y
_atom_site_fract_z
Si Si1 0.163731 0.025094 0.656276
Si Si2 0.025695 0.857709 0.641649
Si Si3 0.530487 0.100471 0.070849
Si Si4 0.000000 0.521639 0.750000
Si Si5 0.579372 0.145165 0.587920
Si Si6 0.019995 0.177880 0.637540
Si Si7 0.119702 0.012496 0.876343
Si Si8 0.712322 0.007074 0.514332
O O1 0.115149 0.122509 0.621139
O O2 0.168869 0.025027 0.768948
O O3 0.109948 0.928887 0.629052
O O4 0.263471 0.016784 0.598972
O O5 0.054031 0.759619 0.580736
O O6 0.000000 0.823479 0.750000
O O7 0.940821 0.913253 0.607701
O O8 0.472936 0.050410 0.165214
O O9 0.526835 0.219274 0.081664
O O10 0.634420 0.067087 0.061119
O O11 0.485877 0.079301 0.973123
O O12 0.926468 0.598345 0.804400
O O13 0.678632 0.121465 0.534580
O O14 0.000000 0.196079 0.750000
O O15 0.943117 0.109207 0.598447
O O16 0.194912 0.995216 0.943493
#
# Coordination Sequence:
#
# PCOD8140485 Si02
#       8
#     8   8   8   4   8   8   8   8
#     4   9  21  40  62  90 131 152 198 257 304 355
#     4   9  19  42  66  90 117 166 207 243 298 368
#     4  11  24  40  64  90 120 166 206 243 305 369
#     4  10  20  42  60  80 122 158 208 242 290 354
#     4  11  24  40  64  90 120 166 206 243 305 369
#     4   9  19  42  66  90 117 166 207 243 298 368
#     4   9  21  41  66  88 122 161 204 252 298 351
#     4  11  24  38  58  94 125 159 195 261 307 349
#
# _framework density 21.204771000000001
#
# number of rings (size 3 to 8) (size 9 to 14) (size 15 to 20)
#    0.000    2.133    1.333    3.200    3.733    6.400 
#    0.000    2.667    0.000    0.000    0.000    0.000 
#    0.000    0.000    0.000    0.000    0.000    0.000 
#
# Total GULP energy -371697.324582 kJ/mol
# GULP energy per Si atom -12389.910819 kJ/mol
# Density = 2.115651 g / cm^3
# Si number density = 21.204771 Si / 1000 Ang^3
#
#
#
# Elastic Constant Matrix: (Units=GPa)
#
#
# Indices 1 2 3 4 5 6 
#
# 1 73.8267 31.9921 28.8476 0.0000 -15.2737 0.0000
# 2 31.9921 115.4879 38.6384 0.0000 -9.4159 0.0000
# 3 28.8476 38.6384 86.5158 0.0000 -21.8609 0.0000
# 4 0.0000 0.0000 0.0000 17.5410 0.0000 -6.7890
# 5 -15.2737 -9.4159 -21.8609 0.0000 33.2709 0.0000
# 6 0.0000 0.0000 0.0000 -6.7890 0.0000 20.6691
#
#
#
# Elastic Compliance Matrix: (Units=1/GPa)
#
#
# Indices 1 2 3 4 5 6 
#
# 1 0.017196 -0.003363 -0.002971 0.000000 0.004990 0.000000
# 2 -0.003363 0.010838 -0.003998 0.000000 -0.001103 0.000000
# 3 -0.002971 -0.003998 0.016432 0.000000 0.008302 0.000000
# 4 0.000000 0.000000 0.000000 0.065312 0.000000 0.021453
# 5 0.004990 -0.001103 0.008302 0.000000 0.037490 0.000000
# 6 0.000000 0.000000 0.000000 0.021453 0.000000 0.055428
#
#
# Mechanical properties :
#
#
# Convention : Reuss Voigt Hill
#
# Bulk Modulus (GPa) = 42.01123 52.75407 47.38265
# Shear Modulus (GPa) = 21.61757 26.05302 23.83530
#
# Velocity S-wave (km/s) = 3.19637 3.50900 3.35633
# Velocity P-wave (km/s) = 5.78598 6.43038 6.11667
#
# Compressibility (1/GPa) = 0.02380316
#
# Stress axis : x y z
#
# Youngs Moduli (GPa) = 58.15403 92.26770 60.85544
#
# Poissons Ratio (x) = 0.31026 0.18080
# Poissons Ratio (y) = 0.19555 0.24329
# Poissons Ratio (z) = 0.17277 0.36887
#
# Static dielectric constant tensor:
#      x y z
#    x 3.495500 0.000000 -0.158090 
#    y 0.000000 3.948550 0.000000 
#    z -0.158090 0.000000 3.948050 
# 
# 
# High freq. dielectric constant tensor:
#      x y z
#    x 1.798170 0.000000 -0.007070 
#    y 0.000000 1.839990 0.000000 
#    z -0.007070 0.000000 1.853560 
# 
# From -- ./inp_files/153948.got.cif
#   From: 2010.06.25/outbox.cif.g09.slc.cpg/sg15_77_cif.got.tgz:153948.got - 2010.06.28 07:06:18.
