data_PCOD8140643
_publ_section_title
;
Structure prediction by ZEFSAII (Michael W. Deem and Ramdas Pophale) SiO2 
 PCOD8140643
Probable space group: C 2/C
;
_chemical_formula_sum "Si O2"
_cell_formula_units_Z 56
_cell_length_a 20.423231
_cell_length_b 9.478243
_cell_length_c 18.174549
_cell_angle_alpha 90.000000
_cell_angle_beta 129.500417
_cell_angle_gamma 90.000000
_cell_volume 2714.684610
_symmetry_space_group_name_H-M "C 2/C"
_symmetry_group_IT_number 15
_symmetry_cell_setting 'monoclinic'
loop_
_space_group_symop_operation_xyz
x,y,z
-x,y,1/2-z
-x,-y,-z
x,-y,1/2+z
1/2+x,1/2+y,z
1/2-x,1/2+y,1/2-z
1/2-x,1/2-y,-z
1/2+x,1/2-y,1/2+z
loop_
_atom_site_type_symbol
_atom_site_label
_atom_site_fract_x
_atom_site_fract_y
_atom_site_fract_z
Si Si1 0.610392 0.973854 0.505567
Si Si2 0.450439 0.504862 0.143143
Si Si3 0.164886 0.418409 0.703683
Si Si4 0.783338 0.869020 0.576871
Si Si5 0.186955 0.272954 0.250842
Si Si6 0.497006 0.230407 0.392113
Si Si7 0.495663 0.719156 0.435978
O O1 0.613919 0.975264 0.596229
O O2 0.705169 0.967582 0.542490
O O3 0.551938 0.842787 0.438975
O O4 0.571022 0.116249 0.447578
O O5 0.500000 0.562318 0.250000
O O6 0.350837 0.530654 0.084905
O O7 0.472272 0.341273 0.146708
O O8 0.480004 0.578664 0.089564
O O9 0.204390 0.557652 0.771233
O O10 0.236420 0.303290 0.736866
O O11 0.092161 0.339011 0.699420
O O12 0.750000 0.750000 0.500000
O O13 0.824531 0.793820 0.677142
O O14 0.103379 0.249656 0.143541
O O15 0.482807 0.300326 0.462539
#
# Coordination Sequence:
#
# PCOD8140643 Si02
#       7
#     8   8   8   8   8   8   8
#     4  10  20  42  68  89 124 165 211 265 314 380
#     4  12  26  42  62  95 133 168 212 264 308 383
#     4  10  22  39  64 100 128 158 212 270 322 374
#     4  11  24  42  62  91 126 173 219 249 313 384
#     4  11  22  38  67  94 130 163 209 270 316 377
#     4  11  23  42  67  95 129 164 213 262 328 371
#     4  11  20  42  70  89 121 170 209 260 320 372
#
# _framework density 20.628547000000001
#
# number of rings (size 3 to 8) (size 9 to 14) (size 15 to 20)
#    0.000    1.143    5.714    1.286    2.000    1.714 
#    2.571    0.714    0.000    0.000    0.000    0.000 
#    0.000    0.000    0.000    0.000    0.000    0.000 
#
# Total GULP energy -347242.579406 kJ/mol
# GULP energy per Si atom -12401.520693 kJ/mol
# Density = 2.058160 g / cm^3
# Si number density = 20.628547 Si / 1000 Ang^3
#
#
#
# Elastic Constant Matrix: (Units=GPa)
#
#
# Indices 1 2 3 4 5 6 
#
# 1 99.0673 62.4907 30.6847 0.0000 21.7863 0.0000
# 2 62.4907 131.5906 24.3859 0.0000 15.1951 0.0000
# 3 30.6847 24.3859 53.9134 0.0000 18.5751 0.0000
# 4 0.0000 0.0000 0.0000 31.6642 0.0000 4.4565
# 5 21.7863 15.1951 18.5751 0.0000 34.3511 0.0000
# 6 0.0000 0.0000 0.0000 4.4565 0.0000 30.8813
#
#
#
# Elastic Compliance Matrix: (Units=1/GPa)
#
#
# Indices 1 2 3 4 5 6 
#
# 1 0.016836 -0.006497 -0.004860 0.000000 -0.005176 0.000000
# 2 -0.006497 0.010917 -0.001224 0.000000 -0.000047 0.000000
# 3 -0.004860 -0.001224 0.025341 0.000000 -0.010079 0.000000
# 4 0.000000 0.000000 0.000000 0.032236 0.000000 -0.004652
# 5 -0.005176 -0.000047 -0.010079 0.000000 0.037864 0.000000
# 6 0.000000 0.000000 0.000000 -0.004652 0.000000 0.033053
#
#
# Mechanical properties :
#
#
# Convention : Reuss Voigt Hill
#
# Bulk Modulus (GPa) = 35.80253 57.74375 46.77314
# Shear Modulus (GPa) = 26.21641 30.51331 28.36486
#
# Velocity S-wave (km/s) = 3.56881 3.85018 3.71216
# Velocity P-wave (km/s) = 5.86305 6.91506 6.41067
#
# Compressibility (1/GPa) = 0.02793099
#
# Stress axis : x y z
#
# Youngs Moduli (GPa) = 59.39690 91.60181 39.46220
#
# Poissons Ratio (x) = 0.59512 0.19180
# Poissons Ratio (y) = 0.38589 0.04831
# Poissons Ratio (z) = 0.28869 0.11213
#
# Static dielectric constant tensor:
#      x y z
#    x 5.108140 0.000000 0.604530 
#    y 0.000000 3.777260 0.000000 
#    z 0.604530 0.000000 3.845880 
# 
# 
# High freq. dielectric constant tensor:
#      x y z
#    x 1.807850 0.000000 0.018470 
#    y 0.000000 1.809660 0.000000 
#    z 0.018470 0.000000 1.796910 
# 
# From -- ./inp_files/251980.got.cif
#   From: 2010.06.25/outbox.cif.g09.slc.cpg/sg15_126_cif.got.tgz:251980.got - 2010.06.28 07:06:18.
