data_PCOD8140504
_publ_section_title
;
Structure prediction by ZEFSAII (Michael W. Deem and Ramdas Pophale) SiO2 
 PCOD8140504
Probable space group: C 2/C
;
_chemical_formula_sum "Si O2"
_cell_formula_units_Z 28
_cell_length_a 17.039949
_cell_length_b 17.771534
_cell_length_c 5.295740
_cell_angle_alpha 90.000000
_cell_angle_beta 52.928567
_cell_angle_gamma 90.000000
_cell_volume 1279.557879
_symmetry_space_group_name_H-M "C 2/C"
_symmetry_group_IT_number 15
_symmetry_cell_setting 'monoclinic'
loop_
_space_group_symop_operation_xyz
x,y,z
-x,y,1/2-z
-x,-y,-z
x,-y,1/2+z
1/2+x,1/2+y,z
1/2-x,1/2+y,1/2-z
1/2-x,1/2-y,-z
1/2+x,1/2-y,1/2+z
loop_
_atom_site_type_symbol
_atom_site_label
_atom_site_fract_x
_atom_site_fract_y
_atom_site_fract_z
Si Si1 0.364344 0.771092 0.801789
Si Si2 0.661352 0.548639 0.218750
Si Si3 0.317428 0.176294 0.893778
Si Si4 0.500000 0.352304 0.250000
O O1 0.391881 0.813283 0.486814
O O2 0.428820 0.696401 0.709872
O O3 0.250000 0.750000 0.000000
O O4 0.380690 0.826577 0.011444
O O5 0.663508 0.488543 0.439897
O O6 0.562177 0.597072 0.436057
O O7 0.756169 0.601225 0.056681
O O8 0.250000 0.250000 0.000000
#
# Coordination Sequence:
#
# PCOD8140504 Si02
#       4
#     8   8   8   4
#     4  10  21  38  64  86 123 167 219 261 293 370
#     4  12  26  40  61  99 141 169 196 260 343 403
#     4  10  20  42  62  82 129 169 224 248 293 389
#     4  12  24  40  66  98 140 164 206 268 326 388
#
# _framework density 21.882558
#
# number of rings (size 3 to 8) (size 9 to 14) (size 15 to 20)
#    0.000    1.143    5.714    2.571    4.000    3.429 
#    0.000    0.000    0.000    0.000    0.000   20.000 
#    0.000    0.000    0.000    0.000    0.000    0.000 
#
# Total GULP energy -173532.746768 kJ/mol
# GULP energy per Si atom -12395.196198 kJ/mol
# Density = 2.183275 g / cm^3
# Si number density = 21.882558 Si / 1000 Ang^3
#
#
#
# Elastic Constant Matrix: (Units=GPa)
#
#
# Indices 1 2 3 4 5 6 
#
# 1 84.7949 44.8263 37.0726 0.0000 23.5486 0.0000
# 2 44.8263 96.3104 36.1797 0.0000 -11.7873 0.0000
# 3 37.0726 36.1797 100.7148 0.0000 43.8255 0.0000
# 4 0.0000 0.0000 0.0000 36.8896 0.0000 -11.7140
# 5 23.5486 -11.7873 43.8255 0.0000 42.3861 0.0000
# 6 0.0000 0.0000 0.0000 -11.7140 0.0000 27.8610
#
#
#
# Elastic Compliance Matrix: (Units=1/GPa)
#
#
# Indices 1 2 3 4 5 6 
#
# 1 0.027118 -0.021492 0.012535 0.000000 -0.034003 0.000000
# 2 -0.021492 0.036716 -0.027119 0.000000 0.050191 0.000000
# 3 0.012535 -0.027119 0.038847 0.000000 -0.054672 0.000000
# 4 0.000000 0.000000 0.000000 0.031285 0.000000 0.013153
# 5 -0.034003 0.050191 -0.054672 0.000000 0.112970 0.000000
# 6 0.000000 0.000000 0.000000 0.013153 0.000000 0.041423
#
#
# Mechanical properties :
#
#
# Convention : Reuss Voigt Hill
#
# Bulk Modulus (GPa) = 32.75497 57.55302 45.15400
# Shear Modulus (GPa) = 13.48851 32.34345 22.91598
#
# Velocity S-wave (km/s) = 2.48544 3.84871 3.23960
# Velocity P-wave (km/s) = 4.82054 6.79029 5.88836
#
# Compressibility (1/GPa) = 0.03052972
#
# Stress axis : x y z
#
# Youngs Moduli (GPa) = 36.87642 27.23583 25.74213
#
# Poissons Ratio (x) = 0.58535 -0.32268
# Poissons Ratio (y) = 0.79255 0.69809
# Poissons Ratio (z) = -0.46225 0.73860
#
# Static dielectric constant tensor:
#      x y z
#    x 0.892790 0.000000 -4.188910 
#    y 0.000000 3.900700 0.000000 
#    z -4.188910 0.000000 -2.303700 
# 
# 
# High freq. dielectric constant tensor:
#      x y z
#    x 1.856590 0.000000 0.029580 
#    y 0.000000 1.832320 0.000000 
#    z 0.029580 0.000000 1.876970 
# 
# From -- ./inp_files/6380.got.cif
#   From: 2010.06.25/outbox.cif.g09.slc.cpg/sg15_4_cif.got.tgz:6380.got - 2010.06.28 07:06:18.
