data_PCOD8140079
_publ_section_title
;
Structure prediction by ZEFSAII (Michael W. Deem and Ramdas Pophale) SiO2 
 PCOD8140079
Probable space group: C 2/C
;
_chemical_formula_sum "Si O2"
_cell_formula_units_Z 60
_cell_length_a 21.733701
_cell_length_b 20.784139
_cell_length_c 8.305143
_cell_angle_alpha 90.000000
_cell_angle_beta 133.460318
_cell_angle_gamma 90.000000
_cell_volume 2723.079268
_symmetry_space_group_name_H-M "C 2/C"
_symmetry_group_IT_number 15
_symmetry_cell_setting 'monoclinic'
loop_
_space_group_symop_operation_xyz
x,y,z
-x,y,1/2-z
-x,-y,-z
x,-y,1/2+z
1/2+x,1/2+y,z
1/2-x,1/2+y,1/2-z
1/2-x,1/2-y,-z
1/2+x,1/2-y,1/2+z
loop_
_atom_site_type_symbol
_atom_site_label
_atom_site_fract_x
_atom_site_fract_y
_atom_site_fract_z
Si Si1 0.405967 0.904729 0.086113
Si Si2 0.960274 0.798324 0.498832
Si Si3 0.000000 0.724889 0.250000
Si Si4 0.341955 0.993009 0.696897
Si Si5 0.813440 0.687122 0.930789
Si Si6 0.237003 0.062247 0.738413
Si Si7 0.951650 0.942128 0.500892
Si Si8 0.306353 0.791950 0.774087
O O1 0.500000 0.874703 0.250000
O O2 0.393173 0.944134 0.227769
O O3 0.398695 0.952260 0.920900
O O4 0.340665 0.844772 0.962219
O O5 0.006195 0.763828 0.430288
O O6 0.955957 0.872080 0.425938
O O7 0.867924 0.768166 0.351143
O O8 0.000000 0.790921 0.750000
O O9 0.085051 0.681254 0.410079
O O10 0.315061 0.949549 0.500106
O O11 0.253167 0.016659 0.615117
O O12 0.755300 0.636654 0.724605
O O13 0.781333 0.759209 0.821856
O O14 0.790753 0.672627 0.076834
O O15 0.146478 0.041928 0.644980
O O16 0.000000 0.931519 0.750000
O O17 0.000000 0.000000 0.500000
#
# Coordination Sequence:
#
# PCOD8140079 Si02
#       8
#     8   8   4   8   8   8   8   8
#     4  11  22  41  64  97 132 176 221 277 331 403
#     4  10  22  42  64  95 135 166 220 282 329 398
#     4  10  24  42  66 102 124 178 226 270 344 412
#     4  10  24  39  63  95 128 179 217 267 339 401
#     4  10  21  40  66  93 129 172 218 273 339 403
#     4  11  21  45  64  92 135 167 221 276 330 411
#     4  11  24  42  66  95 127 176 220 277 341 396
#     4  10  20  40  66  90 126 177 213 267 347 389
#
# _framework density 22.03388
#
# number of rings (size 3 to 8) (size 9 to 14) (size 15 to 20)
#    0.000    1.600    2.667    1.600    0.933    3.200 
#   14.400    1.333    0.000    0.000    0.000    0.000 
#    0.000    0.000    0.000    0.000    0.000    0.000 
#
# Total GULP energy -371666.278117 kJ/mol
# GULP energy per Si atom -12388.875937 kJ/mol
# Density = 2.198373 g / cm^3
# Si number density = 22.033880 Si / 1000 Ang^3
#
#
#
# Elastic Constant Matrix: (Units=GPa)
#
#
# Indices 1 2 3 4 5 6 
#
# 1 87.6906 24.6794 20.6278 0.0000 16.8219 0.0000
# 2 24.6794 103.8040 16.0219 0.0000 8.7148 0.0000
# 3 20.6278 16.0219 61.4153 0.0000 10.1284 0.0000
# 4 0.0000 0.0000 0.0000 32.5463 0.0000 7.0267
# 5 16.8219 8.7148 10.1284 0.0000 41.3908 0.0000
# 6 0.0000 0.0000 0.0000 7.0267 0.0000 31.2492
#
#
#
# Elastic Compliance Matrix: (Units=1/GPa)
#
#
# Indices 1 2 3 4 5 6 
#
# 1 0.013659 -0.002387 -0.003264 0.000000 -0.004250 0.000000
# 2 -0.002387 0.010549 -0.001817 0.000000 -0.000806 0.000000
# 3 -0.003264 -0.001817 0.018310 0.000000 -0.002771 0.000000
# 4 0.000000 0.000000 0.000000 0.032293 0.000000 -0.007261
# 5 -0.004250 -0.000806 -0.002771 0.000000 0.026735 0.000000
# 6 0.000000 0.000000 0.000000 -0.007261 0.000000 0.033634
#
#
# Mechanical properties :
#
#
# Convention : Reuss Voigt Hill
#
# Bulk Modulus (GPa) = 36.25629 41.72976 38.99302
# Shear Modulus (GPa) = 31.38540 33.80932 32.59736
#
# Velocity S-wave (km/s) = 3.77824 3.92142 3.85050
# Velocity P-wave (km/s) = 5.96020 6.28358 6.12403
#
# Compressibility (1/GPa) = 0.02758142
#
# Stress axis : x y z
#
# Youngs Moduli (GPa) = 73.21446 94.79391 54.61479
#
# Poissons Ratio (x) = 0.22625 0.17826
# Poissons Ratio (y) = 0.17474 0.09926
# Poissons Ratio (z) = 0.23897 0.17228
#
# Static dielectric constant tensor:
#      x y z
#    x 3.858650 0.000000 -0.065020 
#    y 0.000000 5.510000 0.000000 
#    z -0.065020 0.000000 3.954920 
# 
# 
# High freq. dielectric constant tensor:
#      x y z
#    x 1.850300 0.000000 0.006620 
#    y 0.000000 1.876270 0.000000 
#    z 0.006620 0.000000 1.864800 
# 
# From -- ./inp_files/58124.got.cif
#   From: 2010.06.25/outbox.cif.g09.slc.cpg/sg15_30_cif.got.tgz:58124.got - 2010.06.28 07:06:18.
