data_PCOD8140313
_publ_section_title
;
Structure prediction by ZEFSAII (Michael W. Deem and Ramdas Pophale) SiO2 
 PCOD8140313
Probable space group: C 2/C
;
_chemical_formula_sum "Si O2"
_cell_formula_units_Z 52
_cell_length_a 15.851348
_cell_length_b 9.209199
_cell_length_c 28.397023
_cell_angle_alpha 90.000000
_cell_angle_beta 37.329222
_cell_angle_gamma 90.000000
_cell_volume 2513.713558
_symmetry_space_group_name_H-M "C 2/C"
_symmetry_group_IT_number 15
_symmetry_cell_setting 'monoclinic'
loop_
_space_group_symop_operation_xyz
x,y,z
-x,y,1/2-z
-x,-y,-z
x,-y,1/2+z
1/2+x,1/2+y,z
1/2-x,1/2+y,1/2-z
1/2-x,1/2-y,-z
1/2+x,1/2-y,1/2+z
loop_
_atom_site_type_symbol
_atom_site_label
_atom_site_fract_x
_atom_site_fract_y
_atom_site_fract_z
Si Si1 0.775332 0.452780 0.783750
Si Si2 0.480861 0.084722 0.623776
Si Si3 0.344977 0.558637 0.067953
Si Si4 0.760129 0.670238 0.654037
Si Si5 0.501980 0.404900 0.851925
Si Si6 0.500000 0.516631 0.250000
Si Si7 0.255765 0.421415 0.503994
O O1 0.912575 0.527634 0.702577
O O2 0.739007 0.519784 0.851741
O O3 0.802636 0.279504 0.777959
O O4 0.645604 0.476203 0.806029
O O5 0.611809 0.989683 0.550393
O O6 0.372047 0.065456 0.629278
O O7 0.525946 0.251862 0.610339
O O8 0.340665 0.733108 0.078878
O O9 0.500000 0.500000 0.000000
O O10 0.274510 0.526454 0.049504
O O11 0.636851 0.582500 0.684603
O O12 0.509892 0.384052 0.792045
O O13 0.379920 0.516543 0.917706
O O14 0.250000 0.250000 0.500000
#
# Coordination Sequence:
#
# PCOD8140313 Si02
#       7
#     8   8   8   8   8   4   8
#     4   9  21  39  69  90 130 172 216 266 329 383
#     4  11  23  45  65  99 135 174 217 269 335 389
#     4  10  20  41  63  97 130 175 222 266 328 390
#     4   9  22  38  66  92 132 171 213 278 325 379
#     4  11  24  43  65  96 136 174 210 282 329 388
#     4  12  22  42  68  98 132 166 232 268 338 392
#     4  12  26  41  69  99 133 174 226 269 330 396
#
# _framework density 20.686526000000001
#
# number of rings (size 3 to 8) (size 9 to 14) (size 15 to 20)
#    0.923    0.615    3.077    1.385    4.308    1.846 
#    0.000    4.615    0.000    0.000    0.000    0.000 
#    0.000    0.000    0.000    0.000    0.000    0.000 
#
# Total GULP energy -322327.744641 kJ/mol
# GULP energy per Si atom -12397.220948 kJ/mol
# Density = 2.063944 g / cm^3
# Si number density = 20.686526 Si / 1000 Ang^3
#
#
#
# Elastic Constant Matrix: (Units=GPa)
#
#
# Indices 1 2 3 4 5 6 
#
# 1 107.5444 10.6968 16.2555 -0.0003 0.8015 0.0015
# 2 10.6968 75.4164 21.1314 0.0000 -21.7031 0.0010
# 3 16.2555 21.1314 57.0680 -0.0002 -8.6687 0.0006
# 4 -0.0003 0.0000 -0.0002 37.8088 0.0000 -2.4967
# 5 0.8015 -21.7031 -8.6687 0.0000 39.8093 0.0001
# 6 0.0015 0.0010 0.0006 -2.4967 0.0001 29.3988
#
#
#
# Elastic Compliance Matrix: (Units=1/GPa)
#
#
# Indices 1 2 3 4 5 6 
#
# 1 0.009807 -0.001044 -0.002610 0.000000 -0.001335 0.000000
# 2 -0.001044 0.017145 -0.004786 0.000000 0.008326 0.000000
# 3 -0.002610 -0.004786 0.020322 0.000000 0.001868 0.000000
# 4 0.000000 0.000000 0.000000 0.026598 0.000000 0.002259
# 5 -0.001335 0.008326 0.001868 0.000000 0.030093 0.000000
# 6 0.000000 0.000000 0.000000 0.002259 0.000000 0.034207
#
#
# Mechanical properties :
#
#
# Convention : Reuss Voigt Hill
#
# Bulk Modulus (GPa) = 32.90104 37.35512 35.12808
# Shear Modulus (GPa) = 30.26952 34.19971 32.23462
#
# Velocity S-wave (km/s) = 3.82939 4.07041 3.95174
# Velocity P-wave (km/s) = 5.95747 6.33939 6.15140
#
# Compressibility (1/GPa) = 0.03039418
#
# Stress axis : x y z
#
# Youngs Moduli (GPa) = 101.97106 58.32643 49.20669
#
# Poissons Ratio (x) = 0.06089 0.12841
# Poissons Ratio (y) = 0.10645 0.23553
# Poissons Ratio (z) = 0.26610 0.27918
#
# Static dielectric constant tensor:
#      x y z
#    x 3.883650 0.000000 0.034860 
#    y 0.000000 3.453450 0.000000 
#    z 0.034860 0.000000 3.594890 
# 
# 
# High freq. dielectric constant tensor:
#      x y z
#    x 1.820700 0.000000 -0.000560 
#    y 0.000000 1.787700 0.000000 
#    z -0.000560 0.000000 1.803740 
# 
# From -- ./inp_files/313095.got.cif
#   From: 2010.06.25/outbox.cif.g09.slc.cpg/sg15_157_cif.got.tgz:313095.got - 2010.06.28 07:06:18.
