data_PCOD8140326
_publ_section_title
;
Structure prediction by ZEFSAII (Michael W. Deem and Ramdas Pophale) SiO2 
 PCOD8140326
Probable space group: C 2/C
;
_chemical_formula_sum "Si O2"
_cell_formula_units_Z 60
_cell_length_a 17.984439
_cell_length_b 14.538640
_cell_length_c 11.641963
_cell_angle_alpha 90.000000
_cell_angle_beta 109.320242
_cell_angle_gamma 90.000000
_cell_volume 2872.589324
_symmetry_space_group_name_H-M "C 2/C"
_symmetry_group_IT_number 15
_symmetry_cell_setting 'monoclinic'
loop_
_space_group_symop_operation_xyz
x,y,z
-x,y,1/2-z
-x,-y,-z
x,-y,1/2+z
1/2+x,1/2+y,z
1/2-x,1/2+y,1/2-z
1/2-x,1/2-y,-z
1/2+x,1/2-y,1/2+z
loop_
_atom_site_type_symbol
_atom_site_label
_atom_site_fract_x
_atom_site_fract_y
_atom_site_fract_z
Si Si1 0.807050 0.662939 0.535784
Si Si2 0.728788 0.170285 0.734423
Si Si3 0.174972 0.139703 0.130711
Si Si4 0.265511 0.517814 0.152508
Si Si5 0.001216 0.105294 0.382294
Si Si6 0.898509 0.764148 0.407289
Si Si7 0.399489 0.437525 0.107149
Si Si8 0.000000 0.779976 0.250000
O O1 0.750000 0.750000 0.500000
O O2 0.827104 0.656596 0.681404
O O3 0.767754 0.566812 0.478194
O O4 0.879857 0.680017 0.485369
O O5 0.693947 0.252003 0.637954
O O6 0.819348 0.190995 0.813794
O O7 0.720194 0.076272 0.658159
O O8 0.238370 0.092039 0.246622
O O9 0.083881 0.121974 0.110816
O O10 0.177874 0.088924 0.009413
O O11 0.359460 0.498540 0.186588
O O12 0.062551 0.158836 0.493382
O O13 0.000000 0.140535 0.250000
O O14 0.027689 0.997482 0.404521
O O15 0.957590 0.726283 0.335290
O O16 0.430155 0.340821 0.165145
#
# Coordination Sequence:
#
# PCOD8140326 Si02
#       8
#     8   8   8   8   8   8   8   4
#     4  10  20  41  64  88 126 180 220 262 328 391
#     4  11  24  41  64  94 135 175 228 269 331 406
#     4  12  23  39  60  95 132 175 223 272 334 402
#     4  12  21  39  64  94 133 168 218 279 328 400
#     4  12  22  35  62  96 130 173 219 269 337 408
#     4  11  22  41  61  89 132 178 213 266 333 400
#     4  12  23  35  57  97 139 166 210 271 348 410
#     4  12  22  38  54  94 134 172 200 270 338 410
#
# _framework density 20.887077999999999
#
# number of rings (size 3 to 8) (size 9 to 14) (size 15 to 20)
#    0.000    0.533    7.333    4.400    0.000    0.533 
#    0.000    0.000    0.000    0.800    1.733    0.000 
#    0.000    0.000    0.000    0.000    0.000    0.000 
#
# Total GULP energy -371702.579882 kJ/mol
# GULP energy per Si atom -12390.085996 kJ/mol
# Density = 2.083954 g / cm^3
# Si number density = 20.887078 Si / 1000 Ang^3
#
#
#
# Elastic Constant Matrix: (Units=GPa)
#
#
# Indices 1 2 3 4 5 6 
#
# 1 83.9633 35.8148 18.8686 0.0000 -21.9598 0.0000
# 2 35.8148 116.4872 21.7357 0.0000 -1.3233 0.0000
# 3 18.8686 21.7357 68.2795 0.0000 -2.8421 0.0000
# 4 0.0000 0.0000 0.0000 41.5006 0.0000 -0.3840
# 5 -21.9598 -1.3233 -2.8421 0.0000 34.0754 0.0000
# 6 0.0000 0.0000 0.0000 -0.3840 0.0000 34.3979
#
#
#
# Elastic Compliance Matrix: (Units=1/GPa)
#
#
# Indices 1 2 3 4 5 6 
#
# 1 0.017368 -0.004684 -0.002860 0.000000 0.010772 0.000000
# 2 -0.004684 0.010390 -0.002129 0.000000 -0.002793 0.000000
# 3 -0.002860 -0.002129 0.016090 0.000000 -0.000584 0.000000
# 4 0.000000 0.000000 0.000000 0.024099 0.000000 0.000269
# 5 0.010772 -0.002793 -0.000584 0.000000 0.036132 0.000000
# 6 0.000000 0.000000 0.000000 0.000269 0.000000 0.029075
#
#
# Mechanical properties :
#
#
# Convention : Reuss Voigt Hill
#
# Bulk Modulus (GPa) = 40.81454 46.84092 43.82773
# Shear Modulus (GPa) = 31.12029 34.81548 32.96788
#
# Velocity S-wave (km/s) = 3.86415 4.08713 3.97720
# Velocity P-wave (km/s) = 6.28425 6.68934 6.48996
#
# Compressibility (1/GPa) = 0.02450107
#
# Stress axis : x y z
#
# Youngs Moduli (GPa) = 57.57704 96.24316 62.15172
#
# Poissons Ratio (x) = 0.45079 0.17776
# Poissons Ratio (y) = 0.26968 0.13235
# Poissons Ratio (z) = 0.16468 0.20495
#
# Static dielectric constant tensor:
#      x y z
#    x 3.879270 0.000000 -0.525340 
#    y 0.000000 3.617160 0.000000 
#    z -0.525340 0.000000 4.919520 
# 
# 
# High freq. dielectric constant tensor:
#      x y z
#    x 1.797720 0.000000 -0.026450 
#    y 0.000000 1.789800 0.000000 
#    z -0.026450 0.000000 1.829600 
# 
# From -- ./inp_files/105780.got.cif
#   From: 2010.06.25/outbox.cif.g09.slc.cpg/sg15_53_cif.got.tgz:105780.got - 2010.06.28 07:06:18.
