data_PCOD8140826
_publ_section_title
;
Structure prediction by ZEFSAII (Michael W. Deem and Ramdas Pophale) SiO2 
 PCOD8140826
Probable space group: C 2/C
;
_chemical_formula_sum "Si O2"
_cell_formula_units_Z 60
_cell_length_a 25.215390
_cell_length_b 21.266915
_cell_length_c 9.253910
_cell_angle_alpha 90.000000
_cell_angle_beta 37.071573
_cell_angle_gamma 90.000000
_cell_volume 2991.420648
_symmetry_space_group_name_H-M "C 2/C"
_symmetry_group_IT_number 15
_symmetry_cell_setting 'monoclinic'
loop_
_space_group_symop_operation_xyz
x,y,z
-x,y,1/2-z
-x,-y,-z
x,-y,1/2+z
1/2+x,1/2+y,z
1/2-x,1/2+y,1/2-z
1/2-x,1/2-y,-z
1/2+x,1/2-y,1/2+z
loop_
_atom_site_type_symbol
_atom_site_label
_atom_site_fract_x
_atom_site_fract_y
_atom_site_fract_z
Si Si1 0.983958 0.681958 0.454115
Si Si2 0.166096 0.019879 0.935370
Si Si3 0.919851 0.400067 0.520868
Si Si4 0.500000 0.604463 0.250000
Si Si5 0.020614 0.173739 0.918722
Si Si6 0.325874 0.131622 0.956866
Si Si7 0.866922 0.875351 0.565297
Si Si8 0.787705 0.499140 0.931686
O O1 0.001459 0.752952 0.460239
O O2 0.881784 0.668437 0.714294
O O3 0.000000 0.669451 0.250000
O O4 0.047990 0.637665 0.408505
O O5 0.233295 0.043263 0.664624
O O6 0.140829 0.948157 0.957573
O O7 0.215806 0.027107 0.978176
O O8 0.079040 0.061246 0.133552
O O9 0.863238 0.355063 0.537366
O O10 0.862108 0.458877 0.693895
O O11 0.000000 0.426468 0.250000
O O12 0.536208 0.649420 0.045888
O O13 0.940472 0.134097 0.026275
O O14 0.108166 0.162179 0.634438
O O15 0.335085 0.056978 0.908156
O O16 0.224325 0.153008 0.174792
#
# Coordination Sequence:
#
# PCOD8140826 Si02
#       8
#     8   8   8   4   8   8   8   8
#     4  11  25  45  65  91 122 166 222 263 302 373
#     4  11  23  38  65  98 130 161 208 254 314 383
#     4  10  23  42  66  91 128 167 202 260 320 367
#     4  12  24  36  64 102 122 170 210 252 314 376
#     4  11  24  42  64  90 132 167 216 257 308 364
#     4  10  23  40  68  94 128 166 205 257 320 369
#     4  10  20  44  66  89 130 172 199 260 320 367
#     4  11  21  41  63  97 133 158 200 264 315 384
#
# _framework density 20.057358000000001
#
# number of rings (size 3 to 8) (size 9 to 14) (size 15 to 20)
#    0.000    1.333    4.000    3.200    4.667    4.800 
#    0.000    0.667    0.000    0.000    0.000    0.000 
#    0.000    0.000    0.000    0.000    0.000    0.000 
#
# Total GULP energy -372013.670148 kJ/mol
# GULP energy per Si atom -12400.455672 kJ/mol
# Density = 2.001171 g / cm^3
# Si number density = 20.057358 Si / 1000 Ang^3
#
#
#
# Elastic Constant Matrix: (Units=GPa)
#
#
# Indices 1 2 3 4 5 6 
#
# 1 100.9658 27.2507 26.6901 0.0000 11.7383 0.0000
# 2 27.2507 81.6901 50.1932 0.0000 -2.6063 0.0000
# 3 26.6901 50.1932 128.4575 0.0000 -0.4829 0.0000
# 4 0.0000 0.0000 0.0000 24.5434 0.0000 7.4342
# 5 11.7383 -2.6063 -0.4829 0.0000 33.2635 0.0000
# 6 0.0000 0.0000 0.0000 7.4342 0.0000 15.9336
#
#
#
# Elastic Compliance Matrix: (Units=1/GPa)
#
#
# Indices 1 2 3 4 5 6 
#
# 1 0.011607 -0.003316 -0.001133 0.000000 -0.004372 0.000000
# 2 -0.003316 0.017102 -0.005984 0.000000 0.002423 0.000000
# 3 -0.001133 -0.005984 0.010359 0.000000 0.000081 0.000000
# 4 0.000000 0.000000 0.000000 0.047450 0.000000 -0.022139
# 5 -0.004372 0.002423 0.000081 0.000000 0.031797 0.000000
# 6 0.000000 0.000000 0.000000 -0.022139 0.000000 0.073090
#
#
# Mechanical properties :
#
#
# Convention : Reuss Voigt Hill
#
# Bulk Modulus (GPa) = 54.93767 57.70904 56.32335
# Shear Modulus (GPa) = 22.90043 28.54672 25.72357
#
# Velocity S-wave (km/s) = 3.38264 3.77670 3.58509
# Velocity P-wave (km/s) = 6.53499 6.91754 6.72898
#
# Compressibility (1/GPa) = 0.01820245
#
# Stress axis : x y z
#
# Youngs Moduli (GPa) = 86.15573 58.47390 96.53836
#
# Poissons Ratio (x) = 0.19387 0.10933
# Poissons Ratio (y) = 0.28565 0.57771
# Poissons Ratio (z) = 0.09758 0.34992
#
# Static dielectric constant tensor:
#      x y z
#    x 3.857520 0.000000 0.048430 
#    y 0.000000 3.356250 0.000000 
#    z 0.048430 0.000000 4.050150 
# 
# 
# High freq. dielectric constant tensor:
#      x y z
#    x 1.792130 0.000000 0.005120 
#    y 0.000000 1.758520 0.000000 
#    z 0.005120 0.000000 1.803470 
# 
# From -- ./inp_files/63926.got.cif
#   From: 2010.06.25/outbox.cif.g09.slc.cpg/sg15_32_cif.got.tgz:63926.got - 2010.06.28 07:06:18.
