data_PCOD8140080
_publ_section_title
;
Structure prediction by ZEFSAII (Michael W. Deem and Ramdas Pophale) SiO2 
 PCOD8140080
Probable space group: C 2/C
;
_chemical_formula_sum "Si O2"
_cell_formula_units_Z 56
_cell_length_a 18.976726
_cell_length_b 8.493653
_cell_length_c 29.896737
_cell_angle_alpha 90.000000
_cell_angle_beta 35.611028
_cell_angle_gamma 90.000000
_cell_volume 2805.892728
_symmetry_space_group_name_H-M "C 2/C"
_symmetry_group_IT_number 15
_symmetry_cell_setting 'monoclinic'
loop_
_space_group_symop_operation_xyz
x,y,z
-x,y,1/2-z
-x,-y,-z
x,-y,1/2+z
1/2+x,1/2+y,z
1/2-x,1/2+y,1/2-z
1/2-x,1/2-y,-z
1/2+x,1/2-y,1/2+z
loop_
_atom_site_type_symbol
_atom_site_label
_atom_site_fract_x
_atom_site_fract_y
_atom_site_fract_z
Si Si1 0.044720 0.948935 0.525384
Si Si2 0.925883 0.491250 0.329158
Si Si3 0.824465 0.232989 0.167596
Si Si4 0.338448 0.947192 0.244903
Si Si5 0.711349 0.710447 0.470162
Si Si6 0.254002 0.229563 0.874918
Si Si7 0.859885 0.553920 0.566068
O O1 0.143137 0.817151 0.463943
O O2 0.942606 0.877220 0.610320
O O3 0.096734 0.094306 0.527054
O O4 0.000000 0.000000 0.500000
O O5 0.824335 0.620997 0.390016
O O6 0.872481 0.320521 0.341870
O O7 0.000000 0.565961 0.250000
O O8 0.016712 0.454962 0.322864
O O9 0.818903 0.365428 0.207849
O O10 0.827090 0.310658 0.117744
O O11 0.706347 0.126148 0.234161
O O12 0.262096 0.857215 0.322736
O O13 0.750000 0.750000 0.500000
O O14 0.669827 0.871332 0.467024
O O15 0.236780 0.414561 0.875773
O O16 0.000000 0.500000 0.500000
#
# Coordination Sequence:
#
# PCOD8140080 Si02
#       7
#     8   8   8   8   8   8   8
#     4  11  19  42  67  89 126 176 214 266 332 380
#     4   9  21  43  64  83 132 177 209 257 338 396
#     4  12  24  40  67  95 132 170 221 272 328 387
#     4  11  24  41  63  97 128 174 216 270 326 397
#     4  11  25  40  66 100 128 171 221 275 326 385
#     4  10  20  40  66  90 127 167 218 263 329 392
#     4  12  23  39  67 100 128 167 220 274 327 384
#
# _framework density 19.957999000000001
#
# number of rings (size 3 to 8) (size 9 to 14) (size 15 to 20)
#    0.000    1.143    4.286    2.571    2.000    2.286 
#    0.000   10.714    0.000    0.000    0.000    0.000 
#    0.000    0.000    0.000    0.000    0.000    0.000 
#
# Total GULP energy -347119.599050 kJ/mol
# GULP energy per Si atom -12397.128538 kJ/mol
# Density = 1.991257 g / cm^3
# Si number density = 19.957999 Si / 1000 Ang^3
#
#
#
# Elastic Constant Matrix: (Units=GPa)
#
#
# Indices 1 2 3 4 5 6 
#
# 1 137.7601 57.0296 36.9101 0.0047 0.7958 0.1122
# 2 57.0296 111.4001 32.1355 0.0082 -6.1610 0.0131
# 3 36.9101 32.1355 72.5443 -0.0056 -10.9187 -0.0132
# 4 0.0047 0.0082 -0.0056 38.7792 -0.0011 0.7599
# 5 0.7958 -6.1610 -10.9187 -0.0011 30.1211 0.0056
# 6 0.1122 0.0131 -0.0132 0.7599 0.0056 37.4660
#
#
#
# Elastic Compliance Matrix: (Units=1/GPa)
#
#
# Indices 1 2 3 4 5 6 
#
# 1 0.009973 -0.004208 -0.003574 0.000000 -0.002420 -0.000029
# 2 -0.004208 0.012074 -0.002982 -0.000003 0.001500 0.000007
# 3 -0.003574 -0.002982 0.017819 0.000004 0.005944 0.000017
# 4 0.000000 -0.000003 0.000004 0.025797 0.000002 -0.000523
# 5 -0.002420 0.001500 0.005944 0.000002 0.035725 0.000003
# 6 -0.000029 0.000007 0.000017 -0.000523 0.000003 0.026702
#
#
# Mechanical properties :
#
#
# Convention : Reuss Voigt Hill
#
# Bulk Modulus (GPa) = 54.53348 63.76165 59.14757
# Shear Modulus (GPa) = 32.10702 34.31521 33.21112
#
# Velocity S-wave (km/s) = 4.01525 4.15103 4.08370
# Velocity P-wave (km/s) = 6.99140 7.41566 7.20665
#
# Compressibility (1/GPa) = 0.01833736
#
# Stress axis : x y z
#
# Youngs Moduli (GPa) = 100.27374 82.82236 56.12125
#
# Poissons Ratio (x) = 0.34853 0.20058
# Poissons Ratio (y) = 0.42197 0.16733
# Poissons Ratio (z) = 0.35839 0.24695
#
# Static dielectric constant tensor:
#      x y z
#    x 3.724610 -0.000130 -0.212030 
#    y -0.000130 3.688200 0.000060 
#    z -0.212030 0.000060 4.222960 
# 
# 
# High freq. dielectric constant tensor:
#      x y z
#    x 1.780400 0.000000 -0.009500 
#    y 0.000000 1.780210 0.000000 
#    z -0.009500 0.000000 1.779600 
# 
# From -- ./inp_files/209519.got.cif
#   From: 2010.06.25/outbox.cif.g09.slc.cpg/sg15_105_cif.got.tgz:209519.got - 2010.06.28 07:06:18.
