data_PCOD8140877
_publ_section_title
;
Structure prediction by ZEFSAII (Michael W. Deem and Ramdas Pophale) SiO2 
 PCOD8140877
Probable space group: C 2/C
;
_chemical_formula_sum "Si O2"
_cell_formula_units_Z 40
_cell_length_a 10.555356
_cell_length_b 11.586367
_cell_length_c 24.391461
_cell_angle_alpha 90.000000
_cell_angle_beta 35.627562
_cell_angle_gamma 90.000000
_cell_volume 1737.658304
_symmetry_space_group_name_H-M "C 2/C"
_symmetry_group_IT_number 15
_symmetry_cell_setting 'monoclinic'
loop_
_space_group_symop_operation_xyz
x,y,z
-x,y,1/2-z
-x,-y,-z
x,-y,1/2+z
1/2+x,1/2+y,z
1/2-x,1/2+y,1/2-z
1/2-x,1/2-y,-z
1/2+x,1/2-y,1/2+z
loop_
_atom_site_type_symbol
_atom_site_label
_atom_site_fract_x
_atom_site_fract_y
_atom_site_fract_z
Si Si1 0.076345 0.385391 0.814530
Si Si2 0.329671 0.814181 0.595122
Si Si3 0.036680 0.937734 0.616979
Si Si4 0.208326 0.073619 0.942865
Si Si5 0.199265 0.813597 0.074643
O O1 0.162472 0.350413 0.844355
O O2 0.281783 0.406744 0.703072
O O3 0.929243 0.499819 0.865547
O O4 0.937628 0.276342 0.839836
O O5 0.141740 0.890457 0.635249
O O6 0.266759 0.679912 0.607848
O O7 0.563303 0.841771 0.483370
O O8 0.162564 0.882865 0.520940
O O9 0.055628 0.075568 0.612146
O O10 0.000000 0.000000 0.000000
O O11 0.250000 0.750000 0.000000
#
# Coordination Sequence:
#
# PCOD8140877 Si02
#       5
#     8   8   8   8   8
#     4  11  25  46  71 110 144 187 249 301 363 434
#     4  11  23  46  72 102 142 193 240 302 374 423
#     4  12  25  43  75 108 140 193 249 300 368 446
#     4  12  24  47  73 101 145 195 235 298 365 442
#     4  10  20  45  70  94 144 189 231 300 367 420
#
# _framework density 23.019485
#
# number of rings (size 3 to 8) (size 9 to 14) (size 15 to 20)
#    0.000    0.800    6.000    3.000    2.800    0.800 
#    3.600    0.000    0.000    0.000    0.000    0.000 
#    0.000    0.000    0.000    0.000    0.000    0.000 
#
# Total GULP energy -247949.295515 kJ/mol
# GULP energy per Si atom -12397.464776 kJ/mol
# Density = 2.296709 g / cm^3
# Si number density = 23.019485 Si / 1000 Ang^3
#
#
#
# Elastic Constant Matrix: (Units=GPa)
#
#
# Indices 1 2 3 4 5 6 
#
# 1 68.6978 18.7788 12.9666 0.0003 -8.5257 -0.0002
# 2 18.7788 122.6250 28.9002 0.0008 -7.4334 -0.0005
# 3 12.9666 28.9002 94.8396 0.0013 -40.1576 -0.0013
# 4 0.0003 0.0008 0.0013 31.2402 -0.0005 -14.3496
# 5 -8.5257 -7.4334 -40.1576 -0.0005 31.2110 0.0000
# 6 -0.0002 -0.0005 -0.0013 -14.3496 0.0000 45.8715
#
#
#
# Elastic Compliance Matrix: (Units=1/GPa)
#
#
# Indices 1 2 3 4 5 6 
#
# 1 0.015616 -0.002207 0.000266 0.000000 0.004082 0.000000
# 2 -0.002207 0.009225 -0.004030 0.000000 -0.003591 0.000000
# 3 0.000266 -0.004030 0.024956 0.000000 0.031223 0.000001
# 4 0.000000 0.000000 0.000000 0.037381 0.000000 0.011694
# 5 0.004082 -0.003591 0.031223 0.000000 0.072473 0.000001
# 6 0.000000 0.000000 0.000001 0.011694 0.000001 0.025458
#
#
# Mechanical properties :
#
#
# Convention : Reuss Voigt Hill
#
# Bulk Modulus (GPa) = 26.41548 45.27261 35.84404
# Shear Modulus (GPa) = 23.84704 36.69899 30.27302
#
# Velocity S-wave (km/s) = 3.22211 3.99715 3.63037
# Velocity P-wave (km/s) = 5.03417 6.40412 5.76001
#
# Compressibility (1/GPa) = 0.03785659
#
# Stress axis : x y z
#
# Youngs Moduli (GPa) = 64.03627 108.40179 40.06994
#
# Poissons Ratio (x) = 0.23921 -0.01066
# Poissons Ratio (y) = 0.14131 0.16147
# Poissons Ratio (z) = -0.01703 0.43683
#
# Static dielectric constant tensor:
#      x y z
#    x 4.543700 -0.000020 -0.600710 
#    y -0.000020 4.991070 0.000030 
#    z -0.600710 0.000030 4.890030 
# 
# 
# High freq. dielectric constant tensor:
#      x y z
#    x 1.910300 0.000000 -0.025750 
#    y 0.000000 1.913620 0.000000 
#    z -0.025750 0.000000 1.901200 
# 
# From -- ./inp_files/292368.got.cif
#   From: 2010.06.25/outbox.cif.g09.slc.cpg/sg15_147_cif.got.tgz:292368.got - 2010.06.28 07:06:18.
