data_PCOD8140361
_publ_section_title
;
Structure prediction by ZEFSAII (Michael W. Deem and Ramdas Pophale) SiO2 
 PCOD8140361
Probable space group: C 2/C
;
_chemical_formula_sum "Si O2"
_cell_formula_units_Z 64
_cell_length_a 26.732934
_cell_length_b 14.993515
_cell_length_c 11.720079
_cell_angle_alpha 90.000000
_cell_angle_beta 142.488501
_cell_angle_gamma 90.000000
_cell_volume 2860.495825
_symmetry_space_group_name_H-M "C 2/C"
_symmetry_group_IT_number 15
_symmetry_cell_setting 'monoclinic'
loop_
_space_group_symop_operation_xyz
x,y,z
-x,y,1/2-z
-x,-y,-z
x,-y,1/2+z
1/2+x,1/2+y,z
1/2-x,1/2+y,1/2-z
1/2-x,1/2-y,-z
1/2+x,1/2-y,1/2+z
loop_
_atom_site_type_symbol
_atom_site_label
_atom_site_fract_x
_atom_site_fract_y
_atom_site_fract_z
Si Si1 0.168926 0.274594 0.467800
Si Si2 0.242123 0.988237 0.594255
Si Si3 0.589578 0.583490 0.939309
Si Si4 0.046895 0.565348 0.231312
Si Si5 0.864555 0.259399 0.603252
Si Si6 0.891291 0.418381 0.304361
Si Si7 0.811553 0.707163 0.246409
Si Si8 0.825928 0.877317 0.686359
O O1 0.118150 0.328563 0.282868
O O2 0.138591 0.285727 0.543813
O O3 0.156410 0.172660 0.402611
O O4 0.261771 0.313576 0.637234
O O5 0.165508 0.982985 0.544490
O O6 0.284185 0.892194 0.661548
O O7 0.316437 0.059369 0.758581
O O8 0.207897 0.024696 0.410191
O O9 0.500000 0.539625 0.750000
O O10 0.591899 0.671911 0.866294
O O11 0.598070 0.608176 0.089247
O O12 0.089640 0.653226 0.360399
O O13 0.112395 0.499735 0.293349
O O14 0.000000 0.515756 0.250000
O O15 0.979786 0.593505 0.017413
O O16 0.869994 0.256601 0.751639
O O17 0.770125 0.267346 0.392242
#
# Coordination Sequence:
#
# PCOD8140361 Si02
#       8
#     8   8   8   8   8   8   8   8
#     4  10  21  40  63  93 129 171 209 271 325 391
#     4  10  21  43  65  94 124 173 221 273 325 394
#     4  11  24  43  70  95 130 170 219 285 331 387
#     4  11  24  36  60  97 130 173 214 268 331 391
#     4  10  21  38  62  96 126 168 219 266 321 398
#     4  10  24  39  60  92 136 170 219 267 327 397
#     4  10  20  41  65  95 127 170 228 267 320 390
#     4  10  22  40  63  97 126 163 218 268 335 384
#
# _framework density 22.373745
#
# number of rings (size 3 to 8) (size 9 to 14) (size 15 to 20)
#    0.000    1.750    3.750    0.375    5.250    1.500 
#    6.750    0.000    0.000    0.000    0.000    0.000 
#    0.000    0.000    0.000    0.000    0.000    0.000 
#
# Total GULP energy -396496.917071 kJ/mol
# GULP energy per Si atom -12390.528658 kJ/mol
# Density = 2.232282 g / cm^3
# Si number density = 22.373745 Si / 1000 Ang^3
#
#
#
# Elastic Constant Matrix: (Units=GPa)
#
#
# Indices 1 2 3 4 5 6 
#
# 1 76.8417 25.8017 12.0787 0.0000 -13.7241 0.0000
# 2 25.8017 73.5633 30.8701 0.0000 -13.2627 0.0000
# 3 12.0787 30.8701 69.6088 0.0000 -12.4820 0.0000
# 4 0.0000 0.0000 0.0000 18.8119 0.0000 -4.1474
# 5 -13.7241 -13.2627 -12.4820 0.0000 39.4805 0.0000
# 6 0.0000 0.0000 0.0000 -4.1474 0.0000 14.9009
#
#
#
# Elastic Compliance Matrix: (Units=1/GPa)
#
#
# Indices 1 2 3 4 5 6 
#
# 1 0.015251 -0.004723 0.000121 0.000000 0.003753 0.000000
# 2 -0.004723 0.018624 -0.007010 0.000000 0.002398 0.000000
# 3 0.000121 -0.007010 0.018063 0.000000 0.003398 0.000000
# 4 0.000000 0.000000 0.000000 0.056633 0.000000 0.015763
# 5 0.003753 0.002398 0.003398 0.000000 0.028514 0.000000
# 6 0.000000 0.000000 0.000000 0.015763 0.000000 0.071498
#
#
# Mechanical properties :
#
#
# Convention : Reuss Voigt Hill
#
# Bulk Modulus (GPa) = 34.82554 39.72388 37.27471
# Shear Modulus (GPa) = 20.71436 24.72286 22.71861
#
# Velocity S-wave (km/s) = 3.04605 3.32775 3.19001
# Velocity P-wave (km/s) = 5.28870 5.70600 5.50131
#
# Compressibility (1/GPa) = 0.02871456
#
# Stress axis : x y z
#
# Youngs Moduli (GPa) = 65.56935 53.69276 55.36165
#
# Poissons Ratio (x) = 0.25361 -0.00672
# Poissons Ratio (y) = 0.30971 0.38808
# Poissons Ratio (z) = -0.00796 0.37638
#
# Static dielectric constant tensor:
#      x y z
#    x 4.046640 0.000000 -0.005930 
#    y 0.000000 3.940310 0.000000 
#    z -0.005930 0.000000 3.870740 
# 
# 
# High freq. dielectric constant tensor:
#      x y z
#    x 1.868840 0.000000 -0.007550 
#    y 0.000000 1.866850 0.000000 
#    z -0.007550 0.000000 1.871920 
# 
# From -- ./inp_files/123566.got.cif
#   From: 2010.06.25/outbox.cif.g09.slc.cpg/sg15_62_cif.got.tgz:123566.got - 2010.06.28 07:06:18.
