data_PCOD8140495
_publ_section_title
;
Structure prediction by ZEFSAII (Michael W. Deem and Ramdas Pophale) SiO2 
 PCOD8140495
Probable space group: C 2/C
;
_chemical_formula_sum "Si O2"
_cell_formula_units_Z 44
_cell_length_a 22.453027
_cell_length_b 8.779249
_cell_length_c 17.672227
_cell_angle_alpha 90.000000
_cell_angle_beta 139.700550
_cell_angle_gamma 90.000000
_cell_volume 2253.106807
_symmetry_space_group_name_H-M "C 2/C"
_symmetry_group_IT_number 15
_symmetry_cell_setting 'monoclinic'
loop_
_space_group_symop_operation_xyz
x,y,z
-x,y,1/2-z
-x,-y,-z
x,-y,1/2+z
1/2+x,1/2+y,z
1/2-x,1/2+y,1/2-z
1/2-x,1/2-y,-z
1/2+x,1/2-y,1/2+z
loop_
_atom_site_type_symbol
_atom_site_label
_atom_site_fract_x
_atom_site_fract_y
_atom_site_fract_z
Si Si1 0.250832 0.698981 0.174110
Si Si2 0.144517 0.481219 0.163423
Si Si3 0.000000 0.804374 0.250000
Si Si4 0.074952 0.242649 0.410024
Si Si5 0.899319 0.921358 0.714912
Si Si6 0.524093 0.932422 0.903759
O O1 0.225390 0.601634 0.223685
O O2 0.317920 0.836566 0.256490
O O3 0.305553 0.583304 0.171740
O O4 0.157561 0.769590 0.049586
O O5 0.073866 0.569707 0.148970
O O6 0.101696 0.420385 0.043455
O O7 0.966175 0.705013 0.146051
O O8 0.914874 0.909734 0.195776
O O9 0.112452 0.200460 0.363833
O O10 0.036402 0.413146 0.368944
O O11 0.990800 0.128476 0.351627
#
# Coordination Sequence:
#
# PCOD8140495 Si02
#       6
#     8   8   4   8   8   8
#     4  11  22  39  59  89 119 158 201 239 296 355
#     4  10  24  38  61  86 124 157 199 239 294 359
#     4  10  22  36  66  86 116 152 202 252 296 334
#     4   9  19  38  63  83 113 158 195 241 297 349
#     4  10  21  38  60  91 118 151 202 250 291 349
#     4  10  20  42  61  86 116 164 197 240 296 354
#
# _framework density 19.528590999999999
#
# number of rings (size 3 to 8) (size 9 to 14) (size 15 to 20)
#    0.000    2.182    1.818    1.636    2.545    2.909 
#    0.000    5.455    0.000    0.000    0.000    0.000 
#    0.000    0.000    0.000    0.000    0.000    0.000 
#
# Total GULP energy -272746.982569 kJ/mol
# GULP energy per Si atom -12397.590117 kJ/mol
# Density = 1.948414 g / cm^3
# Si number density = 19.528591 Si / 1000 Ang^3
#
#
#
# Elastic Constant Matrix: (Units=GPa)
#
#
# Indices 1 2 3 4 5 6 
#
# 1 95.6250 40.9858 22.7701 0.0000 5.0314 0.0000
# 2 40.9858 96.8168 32.0369 0.0000 -7.3145 0.0000
# 3 22.7701 32.0369 61.1021 0.0000 -4.5244 0.0000
# 4 0.0000 0.0000 0.0000 24.9158 0.0000 -6.6994
# 5 5.0314 -7.3145 -4.5244 0.0000 25.1797 0.0000
# 6 0.0000 0.0000 0.0000 -6.6994 0.0000 31.0816
#
#
#
# Elastic Compliance Matrix: (Units=1/GPa)
#
#
# Indices 1 2 3 4 5 6 
#
# 1 0.013579 -0.005220 -0.002672 0.000000 -0.004710 0.000000
# 2 -0.005220 0.014659 -0.005420 0.000000 0.004327 0.000000
# 3 -0.002672 -0.005420 0.020398 0.000000 0.002625 0.000000
# 4 0.000000 0.000000 0.000000 0.042604 0.000000 0.009183
# 5 -0.004710 0.004327 0.002625 0.000000 0.042384 0.000000
# 6 0.000000 0.000000 0.000000 0.009183 0.000000 0.034153
#
#
# Mechanical properties :
#
#
# Convention : Reuss Voigt Hill
#
# Bulk Modulus (GPa) = 45.43114 49.45883 47.44499
# Shear Modulus (GPa) = 24.78442 26.75216 25.76829
#
# Velocity S-wave (km/s) = 3.56636 3.70523 3.63645
# Velocity P-wave (km/s) = 6.34610 6.60956 6.47917
#
# Compressibility (1/GPa) = 0.02201133
#
# Stress axis : x y z
#
# Youngs Moduli (GPa) = 73.64322 68.21680 49.02413
#
# Poissons Ratio (x) = 0.35610 0.13100
# Poissons Ratio (y) = 0.38442 0.26573
# Poissons Ratio (z) = 0.19678 0.36976
#
# Static dielectric constant tensor:
#      x y z
#    x 3.614200 0.000000 0.036350 
#    y 0.000000 3.499890 0.000000 
#    z 0.036350 0.000000 3.469770 
# 
# 
# High freq. dielectric constant tensor:
#      x y z
#    x 1.767940 0.000000 0.002570 
#    y 0.000000 1.755390 0.000000 
#    z 0.002570 0.000000 1.749120 
# 
# From -- ./inp_files/172087.got.cif
#   From: 2010.06.25/outbox.cif.g09.slc.cpg/sg15_87_cif.got.tgz:172087.got - 2010.06.28 07:06:18.
