data_PCOD8140620
_publ_section_title
;
Structure prediction by ZEFSAII (Michael W. Deem and Ramdas Pophale) SiO2 
 PCOD8140620
Probable space group: C 2/C
;
_chemical_formula_sum "Si O2"
_cell_formula_units_Z 48
_cell_length_a 8.938232
_cell_length_b 19.546952
_cell_length_c 21.506091
_cell_angle_alpha 90.000000
_cell_angle_beta 40.417405
_cell_angle_gamma 90.000000
_cell_volume 2436.141288
_symmetry_space_group_name_H-M "C 2/C"
_symmetry_group_IT_number 15
_symmetry_cell_setting 'monoclinic'
loop_
_space_group_symop_operation_xyz
x,y,z
-x,y,1/2-z
-x,-y,-z
x,-y,1/2+z
1/2+x,1/2+y,z
1/2-x,1/2+y,1/2-z
1/2-x,1/2-y,-z
1/2+x,1/2-y,1/2+z
loop_
_atom_site_type_symbol
_atom_site_label
_atom_site_fract_x
_atom_site_fract_y
_atom_site_fract_z
Si Si1 0.250727 0.215791 0.690332
Si Si2 0.879597 0.956657 0.984665
Si Si3 0.416599 0.703923 0.489162
Si Si4 0.498494 0.446259 0.347149
Si Si5 0.736222 0.316659 0.327421
Si Si6 0.871471 0.570449 0.630972
O O1 0.329604 0.274086 0.616725
O O2 0.235267 0.236545 0.768732
O O3 0.421958 0.150277 0.631850
O O4 0.000000 0.188155 0.750000
O O5 0.605906 0.971949 0.065995
O O6 0.912474 0.876417 0.980508
O O7 0.000000 0.000000 0.000000
O O8 0.996553 0.983062 0.885098
O O9 0.250000 0.750000 0.500000
O O10 0.361821 0.720331 0.579150
O O11 0.573236 0.381829 0.366037
O O12 0.239425 0.433048 0.402811
O O13 0.685541 0.461539 0.235840
O O14 0.000000 0.342595 0.250000
#
# Coordination Sequence:
#
# PCOD8140620 Si02
#       6
#     8   8   8   8   8   8
#     4  11  22  42  66  92 127 171 223 269 327 407
#     4  12  24  39  64  98 131 165 220 276 329 399
#     4  12  23  41  65  96 133 173 217 278 337 397
#     4  10  21  39  64  92 121 171 221 263 331 395
#     4  11  20  38  67  95 123 174 226 271 333 411
#     4  10  20  42  67  87 126 175 216 265 328 409
#
# _framework density 19.703291
#
# number of rings (size 3 to 8) (size 9 to 14) (size 15 to 20)
#    0.000    1.000    8.333    1.500    0.000    0.667 
#    3.000    3.333    0.000    0.000    0.000    0.000 
#    0.000    0.000    0.000    0.000    0.000    0.000 
#
# Total GULP energy -297370.297868 kJ/mol
# GULP energy per Si atom -12390.429078 kJ/mol
# Density = 1.965845 g / cm^3
# Si number density = 19.703291 Si / 1000 Ang^3
#
#
#
# Elastic Constant Matrix: (Units=GPa)
#
#
# Indices 1 2 3 4 5 6 
#
# 1 135.2890 45.4643 61.4476 0.0056 4.3055 -0.0181
# 2 45.4643 89.4603 55.1191 -0.0139 6.7832 0.0034
# 3 61.4476 55.1191 122.0028 0.0225 19.4947 0.0082
# 4 0.0056 -0.0139 0.0225 35.3167 -0.0021 4.2946
# 5 4.3055 6.7832 19.4947 -0.0021 45.6517 0.0043
# 6 -0.0181 0.0034 0.0082 4.2946 0.0043 28.6552
#
#
#
# Elastic Compliance Matrix: (Units=1/GPa)
#
#
# Indices 1 2 3 4 5 6 
#
# 1 0.010110 -0.002735 -0.004045 -0.000001 0.001180 0.000008
# 2 -0.002735 0.016253 -0.006032 0.000011 0.000419 -0.000004
# 3 -0.004045 -0.006032 0.013689 -0.000010 -0.004568 -0.000004
# 4 -0.000001 0.000011 -0.000010 0.028841 0.000005 -0.004322
# 5 0.001180 0.000419 -0.004568 0.000005 0.023682 -0.000002
# 6 0.000008 -0.000004 -0.000004 -0.004322 -0.000002 0.035546
#
#
# Mechanical properties :
#
#
# Convention : Reuss Voigt Hill
#
# Bulk Modulus (GPa) = 69.31250 74.53490 71.92370
# Shear Modulus (GPa) = 31.53474 34.23946 32.88710
#
# Velocity S-wave (km/s) = 4.00494 4.17316 4.08992
# Velocity P-wave (km/s) = 7.52599 7.81864 7.67371
#
# Compressibility (1/GPa) = 0.01442741
#
# Stress axis : x y z
#
# Youngs Moduli (GPa) = 98.90717 61.52650 73.05170
#
# Poissons Ratio (x) = 0.16831 0.29549
# Poissons Ratio (y) = 0.27056 0.44066
# Poissons Ratio (z) = 0.40008 0.37114
#
# Static dielectric constant tensor:
#      x y z
#    x 3.950920 -0.000040 0.074920 
#    y -0.000040 3.540130 0.000160 
#    z 0.074920 0.000160 4.017510 
# 
# 
# High freq. dielectric constant tensor:
#      x y z
#    x 1.789230 0.000000 0.003030 
#    y 0.000000 1.730450 0.000010 
#    z 0.003030 0.000010 1.772820 
# 
# From -- ./inp_files/190628.got.cif
#   From: 2010.06.25/outbox.cif.g09.slc.cpg/sg15_96_cif.got.tgz:190628.got - 2010.06.28 07:06:18.
