data_PCOD8140438
_publ_section_title
;
Structure prediction by ZEFSAII (Michael W. Deem and Ramdas Pophale) SiO2 
 PCOD8140438
Probable space group: C 2/C
;
_chemical_formula_sum "Si O2"
_cell_formula_units_Z 48
_cell_length_a 13.443544
_cell_length_b 14.156235
_cell_length_c 11.842013
_cell_angle_alpha 90.000000
_cell_angle_beta 53.702767
_cell_angle_gamma 90.000000
_cell_volume 1816.347215
_symmetry_space_group_name_H-M "C 2/C"
_symmetry_group_IT_number 15
_symmetry_cell_setting 'monoclinic'
loop_
_space_group_symop_operation_xyz
x,y,z
-x,y,1/2-z
-x,-y,-z
x,-y,1/2+z
1/2+x,1/2+y,z
1/2-x,1/2+y,1/2-z
1/2-x,1/2-y,-z
1/2+x,1/2-y,1/2+z
loop_
_atom_site_type_symbol
_atom_site_label
_atom_site_fract_x
_atom_site_fract_y
_atom_site_fract_z
Si Si1 0.287391 0.291734 0.855741
Si Si2 0.551345 0.179898 0.369149
Si Si3 0.631272 0.983401 0.686583
Si Si4 0.621148 0.548117 0.066435
Si Si5 0.935791 0.114397 0.645461
Si Si6 0.169261 0.373856 0.341708
O O1 0.160529 0.325281 0.886365
O O2 0.379641 0.380763 0.823598
O O3 0.354400 0.215127 0.729178
O O4 0.250000 0.250000 0.000000
O O5 0.497905 0.284787 0.383630
O O6 0.432668 0.121171 0.492191
O O7 0.606166 0.129295 0.219948
O O8 0.500000 0.034503 0.750000
O O9 0.741085 0.002498 0.524441
O O10 0.670784 0.025576 0.779629
O O11 0.517979 0.466586 0.146978
O O12 0.594895 0.601747 0.966640
O O13 0.807577 0.128484 0.800409
#
# Coordination Sequence:
#
# PCOD8140438 Si02
#       6
#     8   8   8   8   8   8
#     4  11  20  41  67 104 135 179 239 296 353 408
#     4  11  23  39  68 101 136 182 230 288 360 418
#     4  11  23  40  68  92 134 183 229 283 350 425
#     4  10  20  41  68  93 133 180 230 294 342 415
#     4   9  21  39  65  93 134 182 224 281 359 411
#     4  10  22  39  66  99 140 172 236 297 347 422
#
# _framework density 26.426663999999999
#
# number of rings (size 3 to 8) (size 9 to 14) (size 15 to 20)
#    0.000    1.667    5.000    1.500    4.667    0.000 
#    0.000    0.833   18.333    0.000    0.000    0.000 
#    0.000    0.000    0.000    0.000    0.000    0.000 
#
# Total GULP energy -297396.722916 kJ/mol
# GULP energy per Si atom -12391.530121 kJ/mol
# Density = 2.636652 g / cm^3
# Si number density = 26.426664 Si / 1000 Ang^3
#
#
#
# Elastic Constant Matrix: (Units=GPa)
#
#
# Indices 1 2 3 4 5 6 
#
# 1 89.5198 20.1290 13.7702 0.0000 -23.3178 0.0000
# 2 20.1290 152.2005 17.5435 0.0000 -16.9262 0.0000
# 3 13.7702 17.5435 81.1159 0.0000 -1.4376 0.0000
# 4 0.0000 0.0000 0.0000 28.9793 0.0000 -12.1993
# 5 -23.3178 -16.9262 -1.4376 0.0000 30.4333 0.0000
# 6 0.0000 0.0000 0.0000 -12.1993 0.0000 37.1678
#
#
#
# Elastic Compliance Matrix: (Units=1/GPa)
#
#
# Indices 1 2 3 4 5 6 
#
# 1 0.014383 -0.000469 -0.002151 0.000000 0.010658 0.000000
# 2 -0.000469 0.007193 -0.001413 0.000000 0.003574 0.000000
# 3 -0.002151 -0.001413 0.012967 0.000000 -0.001822 0.000000
# 4 0.000000 0.000000 0.000000 0.040040 0.000000 0.013142
# 5 0.010658 0.003574 -0.001822 0.000000 0.042927 0.000000
# 6 0.000000 0.000000 0.000000 0.013142 0.000000 0.031218
#
#
# Mechanical properties :
#
#
# Convention : Reuss Voigt Hill
#
# Bulk Modulus (GPa) = 37.76954 47.30241 42.53597
# Shear Modulus (GPa) = 30.18986 37.40898 33.79942
#
# Velocity S-wave (km/s) = 3.38361 3.76650 3.58018
# Velocity P-wave (km/s) = 5.43951 6.07072 5.76377
#
# Compressibility (1/GPa) = 0.02647636
#
# Stress axis : x y z
#
# Youngs Moduli (GPa) = 69.52535 139.03126 77.12180
#
# Poissons Ratio (x) = 0.06520 0.16592
# Poissons Ratio (y) = 0.03261 0.10895
# Poissons Ratio (z) = 0.14958 0.19640
#
# Static dielectric constant tensor:
#      x y z
#    x 5.538310 0.000000 -0.690590 
#    y 0.000000 5.504220 0.000000 
#    z -0.690590 0.000000 5.166980 
# 
# 
# High freq. dielectric constant tensor:
#      x y z
#    x 2.070340 0.000000 -0.009690 
#    y 0.000000 2.066060 0.000000 
#    z -0.009690 0.000000 2.050180 
# 
# From -- ./inp_files/155072.got.cif
#   From: 2010.06.25/outbox.cif.g09.slc.cpg/sg15_78_cif.got.tgz:155072.got - 2010.06.28 07:06:18.
