data_PCOD8140237
_publ_section_title
;
Structure prediction by ZEFSAII (Michael W. Deem and Ramdas Pophale) SiO2 
 PCOD8140237
Probable space group: C 2/C
;
_chemical_formula_sum "Si O2"
_cell_formula_units_Z 36
_cell_length_a 16.320660
_cell_length_b 9.188743
_cell_length_c 10.850567
_cell_angle_alpha 90.000000
_cell_angle_beta 86.109118
_cell_angle_gamma 90.000000
_cell_volume 1623.469337
_symmetry_space_group_name_H-M "C 2/C"
_symmetry_group_IT_number 15
_symmetry_cell_setting 'monoclinic'
loop_
_space_group_symop_operation_xyz
x,y,z
-x,y,1/2-z
-x,-y,-z
x,-y,1/2+z
1/2+x,1/2+y,z
1/2-x,1/2+y,1/2-z
1/2-x,1/2-y,-z
1/2+x,1/2-y,1/2+z
loop_
_atom_site_type_symbol
_atom_site_label
_atom_site_fract_x
_atom_site_fract_y
_atom_site_fract_z
Si Si1 0.000000 0.388856 0.750000
Si Si2 0.456139 0.846412 0.007590
Si Si3 0.032454 0.915467 0.616064
Si Si4 0.788207 0.184999 0.373519
Si Si5 0.162715 0.444390 0.308267
O O1 0.028467 0.284017 0.632890
O O2 0.077537 0.492300 0.766363
O O3 0.497366 0.746979 0.106980
O O4 0.500000 0.000000 0.000000
O O5 0.360428 0.870920 0.055907
O O6 0.130756 0.908141 0.604389
O O7 0.000000 0.980128 0.750000
O O8 0.000000 0.000000 0.500000
O O9 0.750000 0.250000 0.500000
O O10 0.802476 0.320077 0.282598
O O11 0.727013 0.073544 0.314425
#
# Coordination Sequence:
#
# PCOD8140237 Si02
#       5
#     4   8   8   8   8
#     4  10  20  40  72 102 136 190 244 280 364 428
#     4  10  21  42  72 101 135 188 239 287 347 436
#     4  12  28  50  74 104 150 192 240 300 369 436
#     4  12  26  45  70 107 145 189 245 300 363 426
#     4  11  23  43  71 105 148 185 242 303 357 431
#
# _framework density 22.174734000000001
#
# number of rings (size 3 to 8) (size 9 to 14) (size 15 to 20)
#    0.000    0.889    2.222    6.667    6.222    1.778 
#    0.000    3.333    0.000    0.000    0.000    0.000 
#    0.000    0.000    0.000    0.000    0.000    0.000 
#
# Total GULP energy -223064.687868 kJ/mol
# GULP energy per Si atom -12392.482659 kJ/mol
# Density = 2.212426 g / cm^3
# Si number density = 22.174734 Si / 1000 Ang^3
#
#
#
# Elastic Constant Matrix: (Units=GPa)
#
#
# Indices 1 2 3 4 5 6 
#
# 1 176.6296 70.7251 68.4837 0.0000 -7.7454 0.0000
# 2 70.7251 80.4213 54.8104 0.0000 4.6848 0.0000
# 3 68.4837 54.8104 208.1720 0.0000 -30.7588 0.0000
# 4 0.0000 0.0000 0.0000 36.1875 0.0000 6.4925
# 5 -7.7454 4.6848 -30.7588 0.0000 42.9368 0.0000
# 6 0.0000 0.0000 0.0000 6.4925 0.0000 40.2056
#
#
#
# Elastic Compliance Matrix: (Units=1/GPa)
#
#
# Indices 1 2 3 4 5 6 
#
# 1 0.009065 -0.007622 -0.000683 0.000000 0.001977 0.000000
# 2 -0.007622 0.022607 -0.004487 0.000000 -0.007056 0.000000
# 3 -0.000683 -0.004487 0.007006 0.000000 0.005385 0.000000
# 4 0.000000 0.000000 0.000000 0.028458 0.000000 -0.004596
# 5 0.001977 -0.007056 0.005385 0.000000 0.028274 0.000000
# 6 0.000000 0.000000 0.000000 -0.004596 0.000000 0.025614
#
#
# Mechanical properties :
#
#
# Convention : Reuss Voigt Hill
#
# Bulk Modulus (GPa) = 76.37851 94.80680 85.59266
# Shear Modulus (GPa) = 33.11852 41.94623 37.53237
#
# Velocity S-wave (km/s) = 3.86881 4.35400 4.11855
# Velocity P-wave (km/s) = 7.38076 8.25370 7.82941
#
# Compressibility (1/GPa) = 0.01309269
#
# Stress axis : x y z
#
# Youngs Moduli (GPa) = 110.31462 44.23496 142.74075
#
# Poissons Ratio (x) = 0.33714 0.09754
# Poissons Ratio (y) = 0.84077 0.64054
# Poissons Ratio (z) = 0.07538 0.19850
#
# Static dielectric constant tensor:
#      x y z
#    x 3.025030 0.000000 -4.811230 
#    y 0.000000 3.988380 0.000000 
#    z -4.811230 0.000000 -10.111540 
# 
# 
# High freq. dielectric constant tensor:
#      x y z
#    x 1.866390 0.000000 -0.018760 
#    y 0.000000 1.871680 0.000000 
#    z -0.018760 0.000000 1.902970 
# 
# From -- ./inp_files/102460.got.cif
#   From: 2010.06.25/outbox.cif.g09.slc.cpg/sg15_52_cif.got.tgz:102460.got - 2010.06.28 07:06:18.
