data_PCOD8140115
_publ_section_title
;
Structure prediction by ZEFSAII (Michael W. Deem and Ramdas Pophale) SiO2 
 PCOD8140115
Probable space group: C 2/C
;
_chemical_formula_sum "Si O2"
_cell_formula_units_Z 52
_cell_length_a 26.870359
_cell_length_b 7.048250
_cell_length_c 13.248156
_cell_angle_alpha 90.000000
_cell_angle_beta 72.509619
_cell_angle_gamma 90.000000
_cell_volume 2393.055031
_symmetry_space_group_name_H-M "C 2/C"
_symmetry_group_IT_number 15
_symmetry_cell_setting 'monoclinic'
loop_
_space_group_symop_operation_xyz
x,y,z
-x,y,1/2-z
-x,-y,-z
x,-y,1/2+z
1/2+x,1/2+y,z
1/2-x,1/2+y,1/2-z
1/2-x,1/2-y,-z
1/2+x,1/2-y,1/2+z
loop_
_atom_site_type_symbol
_atom_site_label
_atom_site_fract_x
_atom_site_fract_y
_atom_site_fract_z
Si Si1 0.906666 0.940379 0.436696
Si Si2 0.841509 0.498642 0.186361
Si Si3 0.081968 0.811595 0.847908
Si Si4 0.165842 0.713489 0.494282
Si Si5 0.500000 0.567921 0.250000
Si Si6 0.776777 0.748884 0.846230
Si Si7 0.839975 0.106699 0.797491
O O1 0.922945 0.829468 0.527920
O O2 0.860720 0.842865 0.397864
O O3 0.884245 0.148808 0.477971
O O4 0.957905 0.942682 0.335270
O O5 0.892955 0.391991 0.194431
O O6 0.848540 0.527864 0.061822
O O7 0.791571 0.361024 0.234377
O O8 0.829515 0.699653 0.245509
O O9 0.027309 0.806973 0.821388
O O10 0.116544 0.985931 0.788014
O O11 0.182220 0.659129 0.597435
O O12 0.217675 0.804001 0.409662
O O13 0.787474 0.976555 0.835066
#
# Coordination Sequence:
#
# PCOD8140115 Si02
#       7
#     8   8   8   8   4   8   8
#     4  10  20  40  67  85 120 159 201 252 309 359
#     4  11  22  36  65  89 126 160 199 245 296 356
#     4  10  21  40  62  90 117 156 198 249 310 358
#     4  10  21  40  61  87 129 162 201 247 292 351
#     4  10  22  42  68  82 120 158 198 260 310 368
#     4   9  22  39  57  92 127 165 201 240 285 354
#     4   9  20  39  59  89 126 159 199 240 290 358
#
# _framework density 21.729547
#
# number of rings (size 3 to 8) (size 9 to 14) (size 15 to 20)
#    0.000    2.154    1.538    1.385    4.308    0.000 
#    0.000    6.154    0.000    0.000    0.000    0.000 
#    0.000    0.000    0.000    0.000    0.000    0.000 
#
# Total GULP energy -322119.233217 kJ/mol
# GULP energy per Si atom -12389.201278 kJ/mol
# Density = 2.168009 g / cm^3
# Si number density = 21.729547 Si / 1000 Ang^3
#
#
#
# Elastic Constant Matrix: (Units=GPa)
#
#
# Indices 1 2 3 4 5 6 
#
# 1 71.4184 23.3709 26.0194 0.0000 -0.8541 0.0000
# 2 23.3709 81.2924 24.2505 0.0000 2.8517 0.0000
# 3 26.0194 24.2505 99.0778 0.0000 4.4258 0.0000
# 4 0.0000 0.0000 0.0000 30.8432 0.0000 -2.1884
# 5 -0.8541 2.8517 4.4258 0.0000 43.8404 0.0000
# 6 0.0000 0.0000 0.0000 -2.1884 0.0000 16.1312
#
#
#
# Elastic Compliance Matrix: (Units=1/GPa)
#
#
# Indices 1 2 3 4 5 6 
#
# 1 0.016497 -0.003744 -0.003457 0.000000 0.000914 0.000000
# 2 -0.003744 0.014132 -0.002443 0.000000 -0.000746 0.000000
# 3 -0.003457 -0.002443 0.011647 0.000000 -0.001084 0.000000
# 4 0.000000 0.000000 0.000000 0.032737 0.000000 0.004441
# 5 0.000914 -0.000746 -0.001084 0.000000 0.022986 0.000000
# 6 0.000000 0.000000 0.000000 0.004441 0.000000 0.062594
#
#
# Mechanical properties :
#
#
# Convention : Reuss Voigt Hill
#
# Bulk Modulus (GPa) = 43.49627 44.34112 43.91870
# Shear Modulus (GPa) = 26.66039 30.03949 28.34994
#
# Velocity S-wave (km/s) = 3.50654 3.72213 3.61594
# Velocity P-wave (km/s) = 6.03780 6.23880 6.13912
#
# Compressibility (1/GPa) = 0.02299048
#
# Stress axis : x y z
#
# Youngs Moduli (GPa) = 60.61532 70.75950 85.85722
#
# Poissons Ratio (x) = 0.26490 0.29681
# Poissons Ratio (y) = 0.22692 0.20972
# Poissons Ratio (z) = 0.20955 0.17284
#
# Static dielectric constant tensor:
#      x y z
#    x 3.953660 0.000000 0.288320 
#    y 0.000000 3.508280 0.000000 
#    z 0.288320 0.000000 4.362500 
# 
# 
# High freq. dielectric constant tensor:
#      x y z
#    x 1.848600 0.000000 0.014550 
#    y 0.000000 1.816220 0.000000 
#    z 0.014550 0.000000 1.872370 
# 
# From -- ./inp_files/180064.got.cif
#   From: 2010.06.25/outbox.cif.g09.slc.cpg/sg15_91_cif.got.tgz:180064.got - 2010.06.28 07:06:18.
