data_PCOD8140654
_publ_section_title
;
Structure prediction by ZEFSAII (Michael W. Deem and Ramdas Pophale) SiO2 
 PCOD8140654
Probable space group: C 2/C
;
_chemical_formula_sum "Si O2"
_cell_formula_units_Z 64
_cell_length_a 15.486482
_cell_length_b 10.875159
_cell_length_c 30.469260
_cell_angle_alpha 90.000000
_cell_angle_beta 144.193842
_cell_angle_gamma 90.000000
_cell_volume 3002.198816
_symmetry_space_group_name_H-M "C 2/C"
_symmetry_group_IT_number 15
_symmetry_cell_setting 'monoclinic'
loop_
_space_group_symop_operation_xyz
x,y,z
-x,y,1/2-z
-x,-y,-z
x,-y,1/2+z
1/2+x,1/2+y,z
1/2-x,1/2+y,1/2-z
1/2-x,1/2-y,-z
1/2+x,1/2-y,1/2+z
loop_
_atom_site_type_symbol
_atom_site_label
_atom_site_fract_x
_atom_site_fract_y
_atom_site_fract_z
Si Si1 0.592924 0.687243 0.398356
Si Si2 0.726593 0.873987 0.933530
Si Si3 0.133084 0.568192 0.959560
Si Si4 0.176331 0.969806 0.709230
Si Si5 0.324883 0.015423 0.179228
Si Si6 0.337593 0.739449 0.166819
Si Si7 0.034258 0.814250 0.400148
Si Si8 0.626699 0.082716 0.131644
O O1 0.698719 0.569083 0.452655
O O2 0.590929 0.789281 0.435768
O O3 0.425205 0.647582 0.321303
O O4 0.660969 0.754069 0.384560
O O5 0.746000 0.904137 0.889784
O O6 0.647792 0.742112 0.910581
O O7 0.630010 0.985815 0.914096
O O8 0.884172 0.867912 0.022942
O O9 0.010778 0.503579 0.941073
O O10 0.260257 0.937510 0.698596
O O11 0.288668 0.992526 0.795315
O O12 0.067602 0.084556 0.663749
O O13 0.500000 0.033488 0.250000
O O14 0.280839 0.871425 0.160390
O O15 0.500000 0.706238 0.250000
O O16 0.233157 0.623319 0.135775
O O17 0.924676 0.709331 0.369412
#
# Coordination Sequence:
#
# PCOD8140654 Si02
#       8
#     8   8   8   8   8   8   8   8
#     4  11  23  42  65  95 130 169 215 261 319 391
#     4  10  20  42  68  92 134 169 216 267 323 385
#     4  10  22  41  65  94 130 171 210 261 326 383
#     4  12  24  40  68  96 131 167 219 266 330 383
#     4  11  23  41  66 100 127 167 220 271 313 379
#     4  11  22  40  65  95 127 169 220 263 315 384
#     4  10  22  40  65  97 127 174 211 266 332 382
#     4  11  24  41  67  93 129 173 217 271 325 385
#
# _framework density 21.317708
#
# number of rings (size 3 to 8) (size 9 to 14) (size 15 to 20)
#    0.000    1.250    5.000    1.500    3.500    1.000 
#    4.500    1.250    2.750    0.000    0.000    0.000 
#    0.000    0.000    0.000    0.000    0.000    0.000 
#
# Total GULP energy -396675.836142 kJ/mol
# GULP energy per Si atom -12396.119879 kJ/mol
# Density = 2.126919 g / cm^3
# Si number density = 21.317708 Si / 1000 Ang^3
#
#
#
# Elastic Constant Matrix: (Units=GPa)
#
#
# Indices 1 2 3 4 5 6 
#
# 1 87.2039 25.9230 17.9194 0.0000 2.2667 0.0000
# 2 25.9230 68.3091 31.4247 0.0000 7.2653 0.0000
# 3 17.9194 31.4247 72.5538 0.0000 9.6874 0.0000
# 4 0.0000 0.0000 0.0000 33.0578 0.0000 3.6804
# 5 2.2667 7.2653 9.6874 0.0000 29.5128 0.0000
# 6 0.0000 0.0000 0.0000 3.6804 0.0000 21.7724
#
#
#
# Elastic Compliance Matrix: (Units=1/GPa)
#
#
# Indices 1 2 3 4 5 6 
#
# 1 0.013038 -0.004359 -0.001403 0.000000 0.000532 0.000000
# 2 -0.004359 0.019852 -0.007231 0.000000 -0.002179 0.000000
# 3 -0.001403 -0.007231 0.017789 0.000000 -0.003951 0.000000
# 4 0.000000 0.000000 0.000000 0.030830 0.000000 -0.005212
# 5 0.000532 -0.002179 -0.003951 0.000000 0.035676 0.000000
# 6 0.000000 0.000000 0.000000 -0.005212 0.000000 0.046811
#
#
# Mechanical properties :
#
#
# Convention : Reuss Voigt Hill
#
# Bulk Modulus (GPa) = 40.49808 42.06679 41.28243
# Shear Modulus (GPa) = 25.22558 27.05524 26.14041
#
# Velocity S-wave (km/s) = 3.44367 3.56637 3.50556
# Velocity P-wave (km/s) = 5.90343 6.06092 5.98269
#
# Compressibility (1/GPa) = 0.02469253
#
# Stress axis : x y z
#
# Youngs Moduli (GPa) = 76.70113 50.37375 56.21507
#
# Poissons Ratio (x) = 0.21957 0.07888
# Poissons Ratio (y) = 0.33432 0.40648
# Poissons Ratio (z) = 0.10763 0.36424
#
# Static dielectric constant tensor:
#      x y z
#    x 3.790050 0.000000 0.204760 
#    y 0.000000 3.828310 0.000000 
#    z 0.204760 0.000000 3.868260 
# 
# 
# High freq. dielectric constant tensor:
#      x y z
#    x 1.820740 0.000000 0.018930 
#    y 0.000000 1.834720 0.000000 
#    z 0.018930 0.000000 1.837160 
# 
# From -- ./inp_files/313603.got.cif
#   From: 2010.06.25/outbox.cif.g09.slc.cpg/sg15_157_cif.got.tgz:313603.got - 2010.06.28 07:06:18.
