data_PCOD8140737
_publ_section_title
;
Structure prediction by ZEFSAII (Michael W. Deem and Ramdas Pophale) SiO2 
 PCOD8140737
Probable space group: C 2/C
;
_chemical_formula_sum "Si O2"
_cell_formula_units_Z 60
_cell_length_a 22.029666
_cell_length_b 8.837083
_cell_length_c 15.141714
_cell_angle_alpha 90.000000
_cell_angle_beta 75.050240
_cell_angle_gamma 90.000000
_cell_volume 2847.983856
_symmetry_space_group_name_H-M "C 2/C"
_symmetry_group_IT_number 15
_symmetry_cell_setting 'monoclinic'
loop_
_space_group_symop_operation_xyz
x,y,z
-x,y,1/2-z
-x,-y,-z
x,-y,1/2+z
1/2+x,1/2+y,z
1/2-x,1/2+y,1/2-z
1/2-x,1/2-y,-z
1/2+x,1/2-y,1/2+z
loop_
_atom_site_type_symbol
_atom_site_label
_atom_site_fract_x
_atom_site_fract_y
_atom_site_fract_z
Si Si1 0.262887 0.167880 0.670236
Si Si2 0.771126 0.495519 0.345533
Si Si3 0.500000 0.151293 0.250000
Si Si4 0.809826 0.956946 0.459322
Si Si5 0.098439 0.553815 0.625425
Si Si6 0.504064 0.344786 0.418371
Si Si7 0.066896 0.134073 0.067714
Si Si8 0.121983 0.693094 0.982945
O O1 0.226484 0.327123 0.679476
O O2 0.235351 0.050314 0.608214
O O3 0.338881 0.182807 0.623972
O O4 0.247597 0.098824 0.770680
O O5 0.724270 0.469782 0.444087
O O6 0.836853 0.421276 0.348460
O O7 0.520626 0.249840 0.326086
O O8 0.440915 0.050643 0.294959
O O9 0.831985 0.784508 0.468234
O O10 0.868574 0.065044 0.420626
O O11 0.059755 0.707580 0.621574
O O12 0.110282 0.473049 0.526756
O O13 0.489418 0.515720 0.390577
O O14 0.563789 0.340628 0.462084
O O15 0.444374 0.281186 0.498205
#
# Coordination Sequence:
#
# PCOD8140737 Si02
#       8
#     8   8   4   8   8   8   8   8
#     4  11  22  39  64  91 125 173 209 266 321 389
#     4  11  24  39  62  96 127 164 220 254 322 380
#     4  10  24  40  66  90 128 164 212 270 322 372
#     4  10  20  43  62  86 130 175 200 260 324 389
#     4  11  22  39  60  94 126 160 209 269 307 376
#     4   9  21  44  63  91 121 172 211 260 328 387
#     4  10  23  39  67  90 124 168 214 259 329 385
#     4   9  18  40  65  79 122 172 201 252 324 374
#
# _framework density 21.067536
#
# number of rings (size 3 to 8) (size 9 to 14) (size 15 to 20)
#    0.000    1.867    2.667    0.800    1.867    7.467 
#    0.000    1.333    0.000    0.000    0.000    0.000 
#    0.000    0.000    0.000    0.000    0.000    0.000 
#
# Total GULP energy -371892.707469 kJ/mol
# GULP energy per Si atom -12396.423582 kJ/mol
# Density = 2.101958 g / cm^3
# Si number density = 21.067536 Si / 1000 Ang^3
#
#
#
# Elastic Constant Matrix: (Units=GPa)
#
#
# Indices 1 2 3 4 5 6 
#
# 1 52.5246 29.8774 9.7601 0.0000 5.3665 0.0000
# 2 29.8774 114.8512 44.8514 0.0000 7.8534 0.0000
# 3 9.7601 44.8514 70.5950 0.0000 7.5277 0.0000
# 4 0.0000 0.0000 0.0000 27.9295 0.0000 9.3603
# 5 5.3665 7.8534 7.5277 0.0000 23.1103 0.0000
# 6 0.0000 0.0000 0.0000 9.3603 0.0000 17.8729
#
#
#
# Elastic Compliance Matrix: (Units=1/GPa)
#
#
# Indices 1 2 3 4 5 6 
#
# 1 0.022657 -0.006085 0.001113 0.000000 -0.003556 0.000000
# 2 -0.006085 0.013271 -0.007522 0.000000 -0.000647 0.000000
# 3 0.001113 -0.007522 0.019212 0.000000 -0.003961 0.000000
# 4 0.000000 0.000000 0.000000 0.043427 0.000000 -0.022743
# 5 -0.003556 -0.000647 -0.003961 0.000000 0.045606 0.000000
# 6 0.000000 0.000000 0.000000 -0.022743 0.000000 0.067861
#
#
# Mechanical properties :
#
#
# Convention : Reuss Voigt Hill
#
# Bulk Modulus (GPa) = 33.16438 45.21649 39.19043
# Shear Modulus (GPa) = 20.23688 24.01468 22.12578
#
# Velocity S-wave (km/s) = 3.10267 3.37989 3.24424
# Velocity P-wave (km/s) = 5.34898 6.06142 5.71631
#
# Compressibility (1/GPa) = 0.03015283
#
# Stress axis : x y z
#
# Youngs Moduli (GPa) = 44.13703 75.34946 52.04964
#
# Poissons Ratio (x) = 0.45853 -0.05793
# Poissons Ratio (y) = 0.26859 0.39149
# Poissons Ratio (z) = -0.04913 0.56674
#
# Static dielectric constant tensor:
#      x y z
#    x 3.814360 0.000000 -0.066870 
#    y 0.000000 3.858790 0.000000 
#    z -0.066870 0.000000 3.653900 
# 
# 
# High freq. dielectric constant tensor:
#      x y z
#    x 1.820620 0.000000 0.004870 
#    y 0.000000 1.828720 0.000000 
#    z 0.004870 0.000000 1.806960 
# 
# From -- ./inp_files/171860.got.cif
#   From: 2010.06.25/outbox.cif.g09.slc.cpg/sg15_86_cif.got.tgz:171860.got - 2010.06.28 07:06:18.
