data_PCOD8140407
_publ_section_title
;
Structure prediction by ZEFSAII (Michael W. Deem and Ramdas Pophale) SiO2 
 PCOD8140407
Probable space group: C 2/C
;
_chemical_formula_sum "Si O2"
_cell_formula_units_Z 64
_cell_length_a 18.524626
_cell_length_b 14.777943
_cell_length_c 16.728700
_cell_angle_alpha 90.000000
_cell_angle_beta 43.363239
_cell_angle_gamma 90.000000
_cell_volume 3144.436554
_symmetry_space_group_name_H-M "C 2/C"
_symmetry_group_IT_number 15
_symmetry_cell_setting 'monoclinic'
loop_
_space_group_symop_operation_xyz
x,y,z
-x,y,1/2-z
-x,-y,-z
x,-y,1/2+z
1/2+x,1/2+y,z
1/2-x,1/2+y,1/2-z
1/2-x,1/2-y,-z
1/2+x,1/2-y,1/2+z
loop_
_atom_site_type_symbol
_atom_site_label
_atom_site_fract_x
_atom_site_fract_y
_atom_site_fract_z
Si Si1 0.035004 0.566030 0.542710
Si Si2 0.470902 0.259839 0.639310
Si Si3 0.018856 0.404158 0.824315
Si Si4 0.227841 0.038208 0.147350
Si Si5 0.800443 0.650092 0.536340
Si Si6 0.153722 0.198502 0.115166
Si Si7 0.911727 0.075133 0.088712
Si Si8 0.758639 0.345009 0.882837
O O1 0.158356 0.584418 0.435541
O O2 0.000000 0.500000 0.500000
O O3 0.980395 0.663057 0.589079
O O4 0.999528 0.512332 0.651483
O O5 0.368719 0.257309 0.779246
O O6 0.562559 0.290934 0.624596
O O7 0.465961 0.331363 0.571409
O O8 0.137002 0.373217 0.752121
O O9 0.000000 0.373809 0.750000
O O10 0.926751 0.355386 0.950059
O O11 0.173483 0.091503 0.116842
O O12 0.162420 0.042597 0.280649
O O13 0.237647 0.932298 0.124677
O O14 0.773278 0.641609 0.464922
O O15 0.760815 0.738545 0.614430
O O16 0.250000 0.250000 0.000000
O O17 0.839519 0.094974 0.068903
O O18 0.000000 0.000000 0.000000
#
# Coordination Sequence:
#
# PCOD8140407 Si02
#       8
#     8   8   8   8   8   8   8   8
#     4  11  22  38  61  95 129 159 205 266 327 376
#     4  10  24  40  64  95 125 169 213 265 323 385
#     4   9  20  37  63  91 121 154 213 265 306 372
#     4  10  22  42  63  93 123 164 216 266 323 381
#     4   9  21  39  68  92 120 169 218 270 315 377
#     4  10  20  41  67  92 125 160 216 266 319 385
#     4  11  26  45  58  93 133 171 215 259 331 397
#     4  10  21  42  63  92 128 170 218 259 323 389
#
# _framework density 20.353407000000001
#
# number of rings (size 3 to 8) (size 9 to 14) (size 15 to 20)
#    0.000    2.000    1.250    0.750    7.000    2.000 
#    4.500    1.250    0.000    0.000    0.000    0.000 
#    0.000    0.000    0.000    0.000    0.000    0.000 
#
# Total GULP energy -396561.513966 kJ/mol
# GULP energy per Si atom -12392.547311 kJ/mol
# Density = 2.030708 g / cm^3
# Si number density = 20.353407 Si / 1000 Ang^3
#
#
#
# Elastic Constant Matrix: (Units=GPa)
#
#
# Indices 1 2 3 4 5 6 
#
# 1 83.5342 41.0131 33.0874 0.0000 -10.9871 0.0000
# 2 41.0131 154.4884 79.6032 0.0000 -15.6911 0.0000
# 3 33.0874 79.6032 121.9044 0.0000 -15.3357 0.0000
# 4 0.0000 0.0000 0.0000 27.3230 0.0000 -2.5575
# 5 -10.9871 -15.6911 -15.3357 0.0000 23.0147 0.0000
# 6 0.0000 0.0000 0.0000 -2.5575 0.0000 34.9483
#
#
#
# Elastic Compliance Matrix: (Units=1/GPa)
#
#
# Indices 1 2 3 4 5 6 
#
# 1 0.014433 -0.002511 -0.001775 0.000000 0.003995 0.000000
# 2 -0.002511 0.010340 -0.005822 0.000000 0.001971 0.000000
# 3 -0.001775 -0.005822 0.012968 0.000000 0.003824 0.000000
# 4 0.000000 0.000000 0.000000 0.036852 0.000000 0.002697
# 5 0.003995 0.001971 0.003824 0.000000 0.049250 0.000000
# 6 0.000000 0.000000 0.000000 0.002697 0.000000 0.028811
#
#
# Mechanical properties :
#
#
# Convention : Reuss Voigt Hill
#
# Bulk Modulus (GPa) = 57.06603 74.14827 65.60715
# Shear Modulus (GPa) = 27.97812 30.80544 29.39178
#
# Velocity S-wave (km/s) = 3.71160 3.89463 3.80422
# Velocity P-wave (km/s) = 6.81663 7.53217 7.18332
#
# Compressibility (1/GPa) = 0.01752356
#
# Stress axis : x y z
#
# Youngs Moduli (GPa) = 69.28769 96.71232 77.11292
#
# Poissons Ratio (x) = 0.24286 0.13687
# Poissons Ratio (y) = 0.17399 0.44898
# Poissons Ratio (z) = 0.12298 0.56310
#
# Static dielectric constant tensor:
#      x y z
#    x 3.684130 0.000000 -0.059190 
#    y 0.000000 3.817170 0.000000 
#    z -0.059190 0.000000 4.106750 
# 
# 
# High freq. dielectric constant tensor:
#      x y z
#    x 1.797490 0.000000 -0.004620 
#    y 0.000000 1.795440 0.000000 
#    z -0.004620 0.000000 1.800000 
# 
# From -- ./inp_files/211383.got.cif
#   From: 2010.06.25/outbox.cif.g09.slc.cpg/sg15_106_cif.got.tgz:211383.got - 2010.06.28 07:06:18.
