data_PCOD8140434
_publ_section_title
;
Structure prediction by ZEFSAII (Michael W. Deem and Ramdas Pophale) SiO2 
 PCOD8140434
Probable space group: C 2/C
;
_chemical_formula_sum "Si O2"
_cell_formula_units_Z 56
_cell_length_a 17.952563
_cell_length_b 15.882559
_cell_length_c 9.773105
_cell_angle_alpha 90.000000
_cell_angle_beta 77.074600
_cell_angle_gamma 90.000000
_cell_volume 2716.023936
_symmetry_space_group_name_H-M "C 2/C"
_symmetry_group_IT_number 15
_symmetry_cell_setting 'monoclinic'
loop_
_space_group_symop_operation_xyz
x,y,z
-x,y,1/2-z
-x,-y,-z
x,-y,1/2+z
1/2+x,1/2+y,z
1/2-x,1/2+y,1/2-z
1/2-x,1/2-y,-z
1/2+x,1/2-y,1/2+z
loop_
_atom_site_type_symbol
_atom_site_label
_atom_site_fract_x
_atom_site_fract_y
_atom_site_fract_z
Si Si1 0.596692 0.904518 0.966719
Si Si2 0.053666 0.003237 0.345831
Si Si3 0.424014 0.905567 0.998224
Si Si4 0.148739 0.154951 0.380990
Si Si5 0.413435 0.195417 0.764805
Si Si6 0.824861 0.670217 0.307882
Si Si7 0.584795 0.325090 0.204874
O O1 0.658764 0.893890 0.822014
O O2 0.600026 0.998891 0.023309
O O3 0.513573 0.889261 0.933398
O O4 0.618257 0.839044 0.078027
O O5 0.127210 0.063187 0.331809
O O6 0.000000 0.041226 0.250000
O O7 0.086707 0.912575 0.287361
O O8 0.000000 0.000000 0.500000
O O9 0.407491 0.882473 0.162256
O O10 0.374330 0.846372 0.922641
O O11 0.132992 0.224757 0.271424
O O12 0.237134 0.162065 0.384405
O O13 0.099764 0.165510 0.537565
O O14 0.500000 0.225291 0.750000
O O15 0.851565 0.764302 0.252326
O O16 0.500000 0.285415 0.250000
#
# Coordination Sequence:
#
# PCOD8140434 Si02
#       7
#     8   8   8   8   8   8   8
#     4  10  22  40  64 101 128 180 225 266 322 397
#     4  11  23  46  74 100 127 176 239 285 329 397
#     4  10  20  41  68  92 134 178 225 261 319 413
#     4  12  25  44  65 104 134 174 222 284 351 397
#     4  10  22  39  65  91 131 174 222 275 324 386
#     4  12  25  40  68 100 140 174 218 277 347 409
#     4  11  23  43  72  97 130 179 233 274 335 409
#
# _framework density 20.618373999999999
#
# number of rings (size 3 to 8) (size 9 to 14) (size 15 to 20)
#    0.000    1.143    4.286    3.000    2.000    5.143 
#    2.571    0.000    0.000    0.000    0.000    0.000 
#    0.000    0.000    0.000    0.000    0.000    0.000 
#
# Total GULP energy -347213.745146 kJ/mol
# GULP energy per Si atom -12400.490898 kJ/mol
# Density = 2.057145 g / cm^3
# Si number density = 20.618374 Si / 1000 Ang^3
#
#
#
# Elastic Constant Matrix: (Units=GPa)
#
#
# Indices 1 2 3 4 5 6 
#
# 1 103.4082 51.9039 42.9239 0.0000 -10.4123 0.0000
# 2 51.9039 115.7330 27.3976 0.0000 2.0922 0.0000
# 3 42.9239 27.3976 107.5743 0.0000 0.7286 0.0000
# 4 0.0000 0.0000 0.0000 32.8881 0.0000 6.0156
# 5 -10.4123 2.0922 0.7286 0.0000 25.3515 0.0000
# 6 0.0000 0.0000 0.0000 6.0156 0.0000 28.0328
#
#
#
# Elastic Compliance Matrix: (Units=1/GPa)
#
#
# Indices 1 2 3 4 5 6 
#
# 1 0.015223 -0.005855 -0.004629 0.000000 0.006868 0.000000
# 2 -0.005855 0.011459 -0.000560 0.000000 -0.003334 0.000000
# 3 -0.004629 -0.000560 0.011300 0.000000 -0.002180 0.000000
# 4 0.000000 0.000000 0.000000 0.031648 0.000000 -0.006791
# 5 0.006868 -0.003334 -0.002180 0.000000 0.042604 0.000000
# 6 0.000000 0.000000 0.000000 -0.006791 0.000000 0.037130
#
#
# Mechanical properties :
#
#
# Convention : Reuss Voigt Hill
#
# Bulk Modulus (GPa) = 62.91734 63.46292 63.19013
# Shear Modulus (GPa) = 28.28838 30.88714 29.58776
#
# Velocity S-wave (km/s) = 3.70807 3.87465 3.79227
# Velocity P-wave (km/s) = 6.99389 7.13189 7.06322
#
# Compressibility (1/GPa) = 0.01589387
#
# Stress axis : x y z
#
# Youngs Moduli (GPa) = 65.69200 87.26543 88.49273
#
# Poissons Ratio (x) = 0.51096 0.40966
# Poissons Ratio (y) = 0.38464 0.04952
# Poissons Ratio (z) = 0.30411 0.04883
#
# Static dielectric constant tensor:
#      x y z
#    x 3.578480 0.000000 0.050450 
#    y 0.000000 3.858870 0.000000 
#    z 0.050450 0.000000 3.710380 
# 
# 
# High freq. dielectric constant tensor:
#      x y z
#    x 1.786800 0.000000 0.006790 
#    y 0.000000 1.815770 0.000000 
#    z 0.006790 0.000000 1.812780 
# 
# From -- ./inp_files/49003.got.cif
#   From: 2010.06.25/outbox.cif.g09.slc.cpg/sg15_25_cif.got.tgz:49003.got - 2010.06.28 07:06:18.
