data_PCOD8140410
_publ_section_title
;
Structure prediction by ZEFSAII (Michael W. Deem and Ramdas Pophale) SiO2 
 PCOD8140410
Probable space group: C 2/C
;
_chemical_formula_sum "Si O2"
_cell_formula_units_Z 60
_cell_length_a 12.455713
_cell_length_b 15.467133
_cell_length_c 18.080180
_cell_angle_alpha 90.000000
_cell_angle_beta 60.210956
_cell_angle_gamma 90.000000
_cell_volume 3022.950730
_symmetry_space_group_name_H-M "C 2/C"
_symmetry_group_IT_number 15
_symmetry_cell_setting 'monoclinic'
loop_
_space_group_symop_operation_xyz
x,y,z
-x,y,1/2-z
-x,-y,-z
x,-y,1/2+z
1/2+x,1/2+y,z
1/2-x,1/2+y,1/2-z
1/2-x,1/2-y,-z
1/2+x,1/2-y,1/2+z
loop_
_atom_site_type_symbol
_atom_site_label
_atom_site_fract_x
_atom_site_fract_y
_atom_site_fract_z
Si Si1 0.123495 0.019094 0.670489
Si Si2 0.569935 0.717044 0.369229
Si Si3 0.000000 0.687049 0.750000
Si Si4 0.991905 0.457931 0.889790
Si Si5 0.581098 0.558762 0.025303
Si Si6 0.249252 0.414835 0.753723
Si Si7 0.374065 0.109775 0.572809
Si Si8 0.809161 0.545602 0.847880
O O1 0.229290 0.091659 0.634123
O O2 0.000000 0.058455 0.750000
O O3 0.095090 0.989103 0.597919
O O4 0.168772 0.936203 0.702152
O O5 0.498115 0.753661 0.322977
O O6 0.481683 0.651175 0.442215
O O7 0.697823 0.671520 0.301271
O O8 0.601919 0.791418 0.416236
O O9 0.124093 0.629273 0.709125
O O10 0.909915 0.479880 0.846908
O O11 0.107154 0.398597 0.825442
O O12 0.041439 0.548555 0.905234
O O13 0.909619 0.404920 0.975524
O O14 0.500000 0.500000 0.000000
O O15 0.714899 0.575449 0.943639
O O16 0.261515 0.496007 0.693558
#
# Coordination Sequence:
#
# PCOD8140410 Si02
#       8
#     8   8   4   8   8   8   8   8
#     4  11  20  41  66  91 123 186 219 253 330 406
#     4  12  24  41  61 105 135 162 220 290 321 368
#     4  12  24  40  68 100 132 164 224 286 320 374
#     4  10  20  41  67  93 127 183 215 250 336 402
#     4  12  25  42  67  94 132 176 218 266 334 396
#     4  11  22  38  68  92 133 172 216 265 330 395
#     4  10  22  39  65  95 134 164 219 277 316 388
#     4  12  21  43  69  96 125 180 221 257 325 407
#
# _framework density 19.848155999999999
#
# number of rings (size 3 to 8) (size 9 to 14) (size 15 to 20)
#    0.000    0.800    6.667    1.600    0.000    1.600 
#    0.000    4.000    0.000    0.000    0.000    0.000 
#    0.000    0.000    0.000    0.000    0.000    0.000 
#
# Total GULP energy -372165.985323 kJ/mol
# GULP energy per Si atom -12405.532844 kJ/mol
# Density = 1.980298 g / cm^3
# Si number density = 19.848156 Si / 1000 Ang^3
#
#
#
# Elastic Constant Matrix: (Units=GPa)
#
#
# Indices 1 2 3 4 5 6 
#
# 1 97.6818 42.2325 44.7072 0.0000 0.1778 0.0000
# 2 42.2325 114.8689 43.1214 0.0000 6.0004 0.0000
# 3 44.7072 43.1214 125.2215 0.0000 -8.6752 0.0000
# 4 0.0000 0.0000 0.0000 36.4135 0.0000 -6.7456
# 5 0.1778 6.0004 -8.6752 0.0000 43.2370 0.0000
# 6 0.0000 0.0000 0.0000 -6.7456 0.0000 25.3645
#
#
#
# Elastic Compliance Matrix: (Units=1/GPa)
#
#
# Indices 1 2 3 4 5 6 
#
# 1 0.013423 -0.003577 -0.003580 0.000000 -0.000277 0.000000
# 2 -0.003577 0.011144 -0.002704 0.000000 -0.002074 0.000000
# 3 -0.003580 -0.002704 0.010366 0.000000 0.002470 0.000000
# 4 0.000000 0.000000 0.000000 0.028885 0.000000 0.007682
# 5 -0.000277 -0.002074 0.002470 0.000000 0.023913 0.000000
# 6 0.000000 0.000000 0.000000 0.007682 0.000000 0.041468
#
#
# Mechanical properties :
#
#
# Convention : Reuss Voigt Hill
#
# Bulk Modulus (GPa) = 65.73966 66.43271 66.08619
# Shear Modulus (GPa) = 32.46932 34.85041 33.65987
#
# Velocity S-wave (km/s) = 4.04900 4.19483 4.12256
# Velocity P-wave (km/s) = 7.41973 7.55019 7.48524
#
# Compressibility (1/GPa) = 0.01521152
#
# Stress axis : x y z
#
# Youngs Moduli (GPa) = 74.50150 89.73334 96.46651
#
# Poissons Ratio (x) = 0.32094 0.34532
# Poissons Ratio (y) = 0.26646 0.26088
# Poissons Ratio (z) = 0.26670 0.24267
#
# Static dielectric constant tensor:
#      x y z
#    x 3.798850 0.000000 -0.147040 
#    y 0.000000 3.389150 0.000000 
#    z -0.147040 0.000000 3.990290 
# 
# 
# High freq. dielectric constant tensor:
#      x y z
#    x 1.782010 0.000000 -0.002520 
#    y 0.000000 1.744900 0.000000 
#    z -0.002520 0.000000 1.798900 
# 
# From -- ./inp_files/198309.got.cif
#   From: 2010.06.25/outbox.cif.g09.slc.cpg/sg15_100_cif.got.tgz:198309.got - 2010.06.28 07:06:18.
