data_PCOD8140808
_publ_section_title
;
Structure prediction by ZEFSAII (Michael W. Deem and Ramdas Pophale) SiO2 
 PCOD8140808
Probable space group: C 2/C
;
_chemical_formula_sum "Si O2"
_cell_formula_units_Z 44
_cell_length_a 20.095156
_cell_length_b 10.716226
_cell_length_c 12.191110
_cell_angle_alpha 90.000000
_cell_angle_beta 125.395638
_cell_angle_gamma 90.000000
_cell_volume 2140.058739
_symmetry_space_group_name_H-M "C 2/C"
_symmetry_group_IT_number 15
_symmetry_cell_setting 'monoclinic'
loop_
_space_group_symop_operation_xyz
x,y,z
-x,y,1/2-z
-x,-y,-z
x,-y,1/2+z
1/2+x,1/2+y,z
1/2-x,1/2+y,1/2-z
1/2-x,1/2-y,-z
1/2+x,1/2-y,1/2+z
loop_
_atom_site_type_symbol
_atom_site_label
_atom_site_fract_x
_atom_site_fract_y
_atom_site_fract_z
Si Si1 0.500000 0.285167 0.750000
Si Si2 0.825653 0.086679 0.095460
Si Si3 0.241130 0.710984 0.823921
Si Si4 0.810960 0.802204 0.148767
Si Si5 0.036984 0.370706 0.673823
Si Si6 0.559374 0.136621 0.617089
O O1 0.580570 0.369193 0.814911
O O2 0.492933 0.195048 0.637363
O O3 0.760088 0.156724 0.112622
O O4 0.826641 0.945051 0.135266
O O5 0.791353 0.105775 0.939055
O O6 0.275440 0.719969 0.735245
O O7 0.146810 0.683498 0.731489
O O8 0.896398 0.730571 0.229021
O O9 0.750000 0.750000 0.000000
O O10 0.069059 0.486802 0.632965
O O11 0.000000 0.424174 0.750000
O O12 0.966068 0.313628 0.528175
#
# Coordination Sequence:
#
# PCOD8140808 Si02
#       6
#     4   8   8   8   8   8
#     4  10  20  44  62  94 118 172 214 248 332 378
#     4  10  24  42  70  90 132 171 213 274 317 398
#     4  10  23  45  64  95 124 172 219 256 334 381
#     4  12  26  41  66  98 130 169 215 275 325 385
#     4  11  23  39  61  95 125 161 210 265 319 373
#     4  10  21  40  67  87 124 166 209 264 311 390
#
# _framework density 20.560184
#
# number of rings (size 3 to 8) (size 9 to 14) (size 15 to 20)
#    0.000    1.455    0.909    3.273    6.364    0.000 
#    0.000    2.727    0.000    0.000    0.000    0.000 
#    0.000    0.000    0.000    0.000    0.000    0.000 
#
# Total GULP energy -272684.999360 kJ/mol
# GULP energy per Si atom -12394.772698 kJ/mol
# Density = 2.051339 g / cm^3
# Si number density = 20.560184 Si / 1000 Ang^3
#
#
#
# Elastic Constant Matrix: (Units=GPa)
#
#
# Indices 1 2 3 4 5 6 
#
# 1 86.2480 27.4012 44.9373 0.0000 -10.7789 0.0000
# 2 27.4012 100.3806 45.3012 0.0000 8.4690 0.0000
# 3 44.9373 45.3012 165.6630 0.0000 -10.8190 0.0000
# 4 0.0000 0.0000 0.0000 34.2076 0.0000 4.4859
# 5 -10.7789 8.4690 -10.8190 0.0000 39.7683 0.0000
# 6 0.0000 0.0000 0.0000 4.4859 0.0000 21.1108
#
#
#
# Elastic Compliance Matrix: (Units=1/GPa)
#
#
# Indices 1 2 3 4 5 6 
#
# 1 0.014513 -0.002985 -0.002873 0.000000 0.003788 0.000000
# 2 -0.002985 0.012427 -0.002865 0.000000 -0.004235 0.000000
# 3 -0.002873 -0.002865 0.007726 0.000000 0.001933 0.000000
# 4 0.000000 0.000000 0.000000 0.030071 0.000000 -0.006390
# 5 0.003788 -0.004235 0.001933 0.000000 0.027600 0.000000
# 6 0.000000 0.000000 0.000000 -0.006390 0.000000 0.048727
#
#
# Mechanical properties :
#
#
# Convention : Reuss Voigt Hill
#
# Bulk Modulus (GPa) = 58.07336 65.28566 61.67951
# Shear Modulus (GPa) = 30.44143 34.66080 32.55112
#
# Velocity S-wave (km/s) = 3.85203 4.11033 3.98328
# Velocity P-wave (km/s) = 6.93477 7.37216 7.15681
#
# Compressibility (1/GPa) = 0.01721960
#
# Stress axis : x y z
#
# Youngs Moduli (GPa) = 68.90346 80.46906 129.44128
#
# Poissons Ratio (x) = 0.24016 0.37192
# Poissons Ratio (y) = 0.20564 0.37088
# Poissons Ratio (z) = 0.19798 0.23056
#
# Static dielectric constant tensor:
#      x y z
#    x 3.493070 0.000000 -0.252070 
#    y 0.000000 3.739680 0.000000 
#    z -0.252070 0.000000 4.184330 
# 
# 
# High freq. dielectric constant tensor:
#      x y z
#    x 1.804730 0.000000 -0.003050 
#    y 0.000000 1.797590 0.000000 
#    z -0.003050 0.000000 1.828540 
# 
# From -- ./inp_files/104341.got.cif
#   From: 2010.06.25/outbox.cif.g09.slc.cpg/sg15_53_cif.got.tgz:104341.got - 2010.06.28 07:06:18.
