data_PCOD8140329
_publ_section_title
;
Structure prediction by ZEFSAII (Michael W. Deem and Ramdas Pophale) SiO2 
 PCOD8140329
Probable space group: C 2/C
;
_chemical_formula_sum "Si O2"
_cell_formula_units_Z 60
_cell_length_a 15.755579
_cell_length_b 14.318563
_cell_length_c 12.259833
_cell_angle_alpha 90.000000
_cell_angle_beta 78.821387
_cell_angle_gamma 90.000000
_cell_volume 2713.311016
_symmetry_space_group_name_H-M "C 2/C"
_symmetry_group_IT_number 15
_symmetry_cell_setting 'monoclinic'
loop_
_space_group_symop_operation_xyz
x,y,z
-x,y,1/2-z
-x,-y,-z
x,-y,1/2+z
1/2+x,1/2+y,z
1/2-x,1/2+y,1/2-z
1/2-x,1/2-y,-z
1/2+x,1/2-y,1/2+z
loop_
_atom_site_type_symbol
_atom_site_label
_atom_site_fract_x
_atom_site_fract_y
_atom_site_fract_z
Si Si1 0.683996 0.993109 0.770112
Si Si2 0.706216 0.842216 0.413267
Si Si3 0.630087 0.508087 0.867264
Si Si4 0.910896 0.618912 0.048010
Si Si5 0.000000 0.084629 0.250000
Si Si6 0.579434 0.945249 0.599602
Si Si7 0.944826 0.179824 0.491796
Si Si8 0.372597 0.334671 0.493574
O O1 0.678144 0.099729 0.814676
O O2 0.770835 0.986407 0.681069
O O3 0.677357 0.918341 0.871136
O O4 0.600805 0.968085 0.719091
O O5 0.660308 0.886945 0.530459
O O6 0.676621 0.734416 0.408497
O O7 0.811522 0.843937 0.401602
O O8 0.574996 0.485650 0.772308
O O9 0.614222 0.609148 0.923670
O O10 0.604881 0.436490 0.967428
O O11 0.893946 0.721480 0.001829
O O12 0.992881 0.616177 0.110041
O O13 0.934286 0.547601 0.946831
O O14 0.966180 0.147045 0.361553
O O15 0.030010 0.203242 0.544601
#
# Coordination Sequence:
#
# PCOD8140329 Si02
#       8
#     8   8   8   8   4   8   8   8
#     4  11  24  40  65  99 132 176 222 276 350 395
#     4  10  21  37  67  93 127 174 221 277 326 401
#     4  11  25  41  64  95 138 175 224 276 335 406
#     4  10  23  43  67  98 136 172 228 282 341 406
#     4  10  24  44  68  96 130 190 222 272 352 400
#     4  10  20  43  65  95 133 172 218 283 337 405
#     4  11  24  44  67 100 136 180 227 286 334 411
#     4  10  20  41  64  88 129 171 223 271 327 390
#
# _framework density 22.113204
#
# number of rings (size 3 to 8) (size 9 to 14) (size 15 to 20)
#    0.000    1.600    2.667    2.000    3.733    3.200 
#    2.400    1.333    0.000    0.000    0.000    0.000 
#    0.000    0.000    0.000    0.000    0.000    0.000 
#
# Total GULP energy -371680.665669 kJ/mol
# GULP energy per Si atom -12389.355522 kJ/mol
# Density = 2.206287 g / cm^3
# Si number density = 22.113204 Si / 1000 Ang^3
#
#
#
# Elastic Constant Matrix: (Units=GPa)
#
#
# Indices 1 2 3 4 5 6 
#
# 1 60.0409 17.4454 18.4723 0.0000 -4.6271 0.0000
# 2 17.4454 137.6551 30.3042 0.0000 -0.1397 0.0000
# 3 18.4723 30.3042 76.1502 0.0000 -0.5653 0.0000
# 4 0.0000 0.0000 0.0000 27.7225 0.0000 -1.8214
# 5 -4.6271 -0.1397 -0.5653 0.0000 26.7165 0.0000
# 6 0.0000 0.0000 0.0000 -1.8214 0.0000 28.7844
#
#
#
# Elastic Compliance Matrix: (Units=1/GPa)
#
#
# Indices 1 2 3 4 5 6 
#
# 1 0.018521 -0.001491 -0.003876 0.000000 0.003118 0.000000
# 2 -0.001491 0.008082 -0.002857 0.000000 -0.000276 0.000000
# 3 -0.003876 -0.002857 0.015206 0.000000 -0.000365 0.000000
# 4 0.000000 0.000000 0.000000 0.036222 0.000000 0.002292
# 5 0.003118 -0.000276 -0.000365 0.000000 0.037961 0.000000
# 6 0.000000 0.000000 0.000000 0.002292 0.000000 0.034886
#
#
# Mechanical properties :
#
#
# Convention : Reuss Voigt Hill
#
# Bulk Modulus (GPa) = 39.42899 45.14333 42.28616
# Shear Modulus (GPa) = 28.44449 30.48631 29.46540
#
# Velocity S-wave (km/s) = 3.59041 3.71704 3.65428
# Velocity P-wave (km/s) = 5.92092 6.23545 6.08022
#
# Compressibility (1/GPa) = 0.02536205
#
# Stress axis : x y z
#
# Youngs Moduli (GPa) = 53.99163 123.73067 65.76172
#
# Poissons Ratio (x) = 0.18445 0.25492
# Poissons Ratio (y) = 0.08049 0.18786
# Poissons Ratio (z) = 0.20930 0.35346
#
# Static dielectric constant tensor:
#      x y z
#    x 4.098070 0.000000 0.084120 
#    y 0.000000 4.030510 0.000000 
#    z 0.084120 0.000000 3.732150 
# 
# 
# High freq. dielectric constant tensor:
#      x y z
#    x 1.871310 0.000000 -0.000010 
#    y 0.000000 1.877630 0.000000 
#    z -0.000010 0.000000 1.843420 
# 
# From -- ./inp_files/105335.got.cif
#   From: 2010.06.25/outbox.cif.g09.slc.cpg/sg15_53_cif.got.tgz:105335.got - 2010.06.28 07:06:18.
