data_PCOD8140841
_publ_section_title
;
Structure prediction by ZEFSAII (Michael W. Deem and Ramdas Pophale) SiO2 
 PCOD8140841
Probable space group: C 2/C
;
_chemical_formula_sum "Si O2"
_cell_formula_units_Z 52
_cell_length_a 11.388428
_cell_length_b 26.051223
_cell_length_c 9.677581
_cell_angle_alpha 90.000000
_cell_angle_beta 53.121959
_cell_angle_gamma 90.000000
_cell_volume 2296.690098
_symmetry_space_group_name_H-M "C 2/C"
_symmetry_group_IT_number 15
_symmetry_cell_setting 'monoclinic'
loop_
_space_group_symop_operation_xyz
x,y,z
-x,y,1/2-z
-x,-y,-z
x,-y,1/2+z
1/2+x,1/2+y,z
1/2-x,1/2+y,1/2-z
1/2-x,1/2-y,-z
1/2+x,1/2-y,1/2+z
loop_
_atom_site_type_symbol
_atom_site_label
_atom_site_fract_x
_atom_site_fract_y
_atom_site_fract_z
Si Si1 0.000000 0.853623 0.750000
Si Si2 0.500000 0.026537 0.750000
Si Si3 0.158119 0.726352 0.188949
Si Si4 0.295936 0.937458 0.948738
Si Si5 0.221049 0.372940 0.797086
Si Si6 0.639377 0.674245 0.875562
Si Si7 0.918018 0.385344 0.115457
Si Si8 0.000000 0.099671 0.750000
O O1 0.867061 0.887357 0.780577
O O2 0.070836 0.820291 0.576660
O O3 0.585271 0.060911 0.801104
O O4 0.374939 0.992119 0.912206
O O5 0.248760 0.678702 0.188032
O O6 0.133049 0.768808 0.322387
O O7 0.000000 0.706158 0.250000
O O8 0.250000 0.750000 0.000000
O O9 0.314724 0.920883 0.776356
O O10 0.370544 0.894003 0.990882
O O11 0.125952 0.939422 0.111691
O O12 0.084322 0.363648 0.997793
O O13 0.808208 0.655009 0.764457
O O14 0.545904 0.635150 0.846645
#
# Coordination Sequence:
#
# PCOD8140841 Si02
#       8
#     4   4   8   8   8   8   8   4
#     4  12  26  42  66  98 148 194 225 291 362 420
#     4  12  24  44  70 104 132 187 235 308 370 422
#     4  12  23  41  74 109 139 186 248 293 353 430
#     4  11  22  41  72 100 135 182 238 299 357 426
#     4  12  24  44  68 104 143 189 239 296 356 426
#     4  11  23  44  70 104 144 187 231 292 359 429
#     4  11  24  44  70 101 143 181 240 295 360 427
#     4  10  20  44  68 102 138 177 226 293 356 430
#
# _framework density 22.641278
#
# number of rings (size 3 to 8) (size 9 to 14) (size 15 to 20)
#    0.000    0.615    3.846    6.000    0.000    0.615 
#    0.000    7.692    0.000    0.000    0.000    0.000 
#    0.000    0.000    0.000    0.000    0.000    0.000 
#
# Total GULP energy -322452.912886 kJ/mol
# GULP energy per Si atom -12402.035111 kJ/mol
# Density = 2.258975 g / cm^3
# Si number density = 22.641278 Si / 1000 Ang^3
#
#
#
# Elastic Constant Matrix: (Units=GPa)
#
#
# Indices 1 2 3 4 5 6 
#
# 1 122.4982 16.9812 42.8497 0.0000 -13.9956 0.0000
# 2 16.9812 66.0386 13.1745 0.0000 -1.4250 0.0000
# 3 42.8497 13.1745 139.5771 0.0000 -8.5458 0.0000
# 4 0.0000 0.0000 0.0000 33.8770 0.0000 0.3481
# 5 -13.9956 -1.4250 -8.5458 0.0000 47.7679 0.0000
# 6 0.0000 0.0000 0.0000 0.3481 0.0000 24.0136
#
#
#
# Elastic Compliance Matrix: (Units=1/GPa)
#
#
# Indices 1 2 3 4 5 6 
#
# 1 0.009608 -0.001896 -0.002630 0.000000 0.002288 0.000000
# 2 -0.001896 0.015810 -0.000925 0.000000 -0.000250 0.000000
# 3 -0.002630 -0.000925 0.008099 0.000000 0.000651 0.000000
# 4 0.000000 0.000000 0.000000 0.029523 0.000000 -0.000428
# 5 0.002288 -0.000250 0.000651 0.000000 0.021714 0.000000
# 6 0.000000 0.000000 0.000000 -0.000428 0.000000 0.041649
#
#
# Mechanical properties :
#
#
# Convention : Reuss Voigt Hill
#
# Bulk Modulus (GPa) = 44.22414 52.68053 48.45233
# Shear Modulus (GPa) = 34.51981 38.13895 36.32938
#
# Velocity S-wave (km/s) = 3.90890 4.10870 4.01005
# Velocity P-wave (km/s) = 6.32041 6.76953 6.54882
#
# Compressibility (1/GPa) = 0.02261209
#
# Stress axis : x y z
#
# Youngs Moduli (GPa) = 104.08209 63.25308 123.46860
#
# Poissons Ratio (x) = 0.11995 0.32478
# Poissons Ratio (y) = 0.19738 0.11425
# Poissons Ratio (z) = 0.27379 0.05853
#
# Static dielectric constant tensor:
#      x y z
#    x 4.366260 0.000000 -0.162240 
#    y 0.000000 3.660140 0.000000 
#    z -0.162240 0.000000 4.332850 
# 
# 
# High freq. dielectric constant tensor:
#      x y z
#    x 1.903850 0.000000 -0.008100 
#    y 0.000000 1.858400 0.000000 
#    z -0.008100 0.000000 1.913520 
# 
# From -- ./inp_files/34139.got.cif
#   From: 2010.06.25/outbox.cif.g09.slc.cpg/sg15_18_cif.got.tgz:34139.got - 2010.06.28 07:06:18.
