data_PCOD8140166
_publ_section_title
;
Structure prediction by ZEFSAII (Michael W. Deem and Ramdas Pophale) SiO2 
 PCOD8140166
Probable space group: C 2/C
;
_chemical_formula_sum "Si O2"
_cell_formula_units_Z 40
_cell_length_a 18.507076
_cell_length_b 9.093242
_cell_length_c 17.063400
_cell_angle_alpha 90.000000
_cell_angle_beta 138.599245
_cell_angle_gamma 90.000000
_cell_volume 1899.043598
_symmetry_space_group_name_H-M "C 2/C"
_symmetry_group_IT_number 15
_symmetry_cell_setting 'monoclinic'
loop_
_space_group_symop_operation_xyz
x,y,z
-x,y,1/2-z
-x,-y,-z
x,-y,1/2+z
1/2+x,1/2+y,z
1/2-x,1/2+y,1/2-z
1/2-x,1/2-y,-z
1/2+x,1/2-y,1/2+z
loop_
_atom_site_type_symbol
_atom_site_label
_atom_site_fract_x
_atom_site_fract_y
_atom_site_fract_z
Si Si1 0.425969 0.507955 0.620010
Si Si2 0.097963 0.204455 0.181264
Si Si3 0.617147 0.779023 0.017720
Si Si4 0.011198 0.523759 0.848859
Si Si5 0.257965 0.947081 0.917445
O O1 0.500000 0.574352 0.750000
O O2 0.497319 0.399697 0.624098
O O3 0.371469 0.637143 0.526688
O O4 0.326115 0.422510 0.579686
O O5 0.100191 0.219660 0.090506
O O6 0.086529 0.367539 0.208250
O O7 0.213438 0.140510 0.305447
O O8 0.725901 0.880201 0.095200
O O9 0.511791 0.876929 0.903944
O O10 0.000000 0.474931 0.750000
O O11 0.124851 0.613082 0.957638
#
# Coordination Sequence:
#
# PCOD8140166 Si02
#       5
#     8   8   8   8   8
#     4  10  20  40  68  91 130 168 214 257 322 385
#     4  11  22  42  62  94 134 165 209 268 323 375
#     4  10  22  42  61  97 125 167 213 266 317 371
#     4  10  22  41  67  91 129 168 214 261 313 385
#     4   9  23  41  63  94 124 169 218 250 320 387
#
# _framework density 21.063234999999999
#
# number of rings (size 3 to 8) (size 9 to 14) (size 15 to 20)
#    1.200    0.800    0.000    4.200    0.000    3.200 
#   14.400    0.000    0.000    0.000    0.000    0.000 
#    0.000    0.000    0.000    0.000    0.000    0.000 
#
# Total GULP energy -247846.247552 kJ/mol
# GULP energy per Si atom -12392.312378 kJ/mol
# Density = 2.101529 g / cm^3
# Si number density = 21.063235 Si / 1000 Ang^3
#
#
#
# Elastic Constant Matrix: (Units=GPa)
#
#
# Indices 1 2 3 4 5 6 
#
# 1 86.0094 14.1866 47.6268 0.0000 -23.6611 0.0000
# 2 14.1866 66.6069 41.0644 0.0000 -17.6817 0.0000
# 3 47.6268 41.0644 124.2933 0.0000 -30.2919 0.0000
# 4 0.0000 0.0000 0.0000 41.4310 0.0000 -15.5408
# 5 -23.6611 -17.6817 -30.2919 0.0000 39.0451 0.0000
# 6 0.0000 0.0000 0.0000 -15.5408 0.0000 10.7127
#
#
#
# Elastic Compliance Matrix: (Units=1/GPa)
#
#
# Indices 1 2 3 4 5 6 
#
# 1 0.015929 0.001391 -0.005003 0.000000 0.006401 0.000000
# 2 0.001391 0.019660 -0.005738 0.000000 0.005294 0.000000
# 3 -0.005003 -0.005738 0.012931 0.000000 0.004402 0.000000
# 4 0.000000 0.000000 0.000000 0.052949 0.000000 0.076812
# 5 0.006401 0.005294 0.004402 0.000000 0.035303 0.000000
# 6 0.000000 0.000000 0.000000 0.076812 0.000000 0.204777
#
#
# Mechanical properties :
#
#
# Convention : Reuss Voigt Hill
#
# Bulk Modulus (GPa) = 33.53480 53.62946 43.58213
# Shear Modulus (GPa) = 13.50662 29.83990 21.67326
#
# Velocity S-wave (km/s) = 2.53502 3.76797 3.21122
# Velocity P-wave (km/s) = 4.95217 6.66682 5.87242
#
# Compressibility (1/GPa) = 0.02981977
#
# Stress axis : x y z
#
# Youngs Moduli (GPa) = 62.78050 50.86387 77.33268
#
# Poissons Ratio (x) = -0.07076 0.38690
# Poissons Ratio (y) = -0.08734 0.44375
# Poissons Ratio (z) = 0.31410 0.29186
#
# Static dielectric constant tensor:
#      x y z
#    x 3.615790 0.000000 -0.038760 
#    y 0.000000 3.679010 0.000000 
#    z -0.038760 0.000000 3.830180 
# 
# 
# High freq. dielectric constant tensor:
#      x y z
#    x 1.811020 0.000000 -0.013090 
#    y 0.000000 1.821850 0.000000 
#    z -0.013090 0.000000 1.825880 
# 
# From -- ./inp_files/214124.got.cif
#   From: 2010.06.25/outbox.cif.g09.slc.cpg/sg15_108_cif.got.tgz:214124.got - 2010.06.28 07:06:18.
