data_PCOD8140200
_publ_section_title
;
Structure prediction by ZEFSAII (Michael W. Deem and Ramdas Pophale) SiO2 
 PCOD8140200
Probable space group: C 2/C
;
_chemical_formula_sum "Si O2"
_cell_formula_units_Z 48
_cell_length_a 9.577596
_cell_length_b 25.134891
_cell_length_c 13.765965
_cell_angle_alpha 90.000000
_cell_angle_beta 133.649978
_cell_angle_gamma 90.000000
_cell_volume 2397.843087
_symmetry_space_group_name_H-M "C 2/C"
_symmetry_group_IT_number 15
_symmetry_cell_setting 'monoclinic'
loop_
_space_group_symop_operation_xyz
x,y,z
-x,y,1/2-z
-x,-y,-z
x,-y,1/2+z
1/2+x,1/2+y,z
1/2-x,1/2+y,1/2-z
1/2-x,1/2-y,-z
1/2+x,1/2-y,1/2+z
loop_
_atom_site_type_symbol
_atom_site_label
_atom_site_fract_x
_atom_site_fract_y
_atom_site_fract_z
Si Si1 0.568134 0.040649 0.674310
Si Si2 0.636294 0.694904 0.724970
Si Si3 0.602361 0.933007 0.899897
Si Si4 0.499541 0.859240 0.483000
Si Si5 0.776027 0.769333 0.622042
Si Si6 0.020716 0.079804 0.645484
O O1 0.500000 0.043202 0.750000
O O2 0.475436 0.090385 0.575038
O O3 0.799584 0.041822 0.791118
O O4 0.492459 0.984654 0.593218
O O5 0.500000 0.714492 0.750000
O O6 0.654501 0.737152 0.645893
O O7 0.556806 0.641412 0.635265
O O8 0.848351 0.683634 0.869572
O O9 0.500000 0.921488 0.750000
O O10 0.576165 0.880331 0.950714
O O11 0.832781 0.942189 0.999079
O O12 0.704132 0.830296 0.593294
O O13 0.750000 0.750000 0.500000
O O14 0.000000 0.766859 0.750000
O O15 0.000000 0.077799 0.750000
#
# Coordination Sequence:
#
# PCOD8140200 Si02
#       6
#     8   8   8   8   8   8
#     4  10  23  40  70  95 131 178 215 264 331 395
#     4  10  21  43  72  93 123 183 225 257 328 403
#     4  11  23  42  66 103 134 161 225 282 315 378
#     4  11  23  44  66  96 134 175 216 266 335 386
#     4  12  27  45  67 100 136 169 221 282 330 393
#     4  10  20  40  69  92 127 180 218 255 322 401
#
# _framework density 20.017990000000001
#
# number of rings (size 3 to 8) (size 9 to 14) (size 15 to 20)
#    0.000    1.333    6.667    0.500    4.667    5.333 
#    3.000    0.000    0.000    0.000    0.000    0.000 
#    0.000    0.000    0.000    0.000    0.000    0.000 
#
# Total GULP energy -297502.861839 kJ/mol
# GULP energy per Si atom -12395.952577 kJ/mol
# Density = 1.997243 g / cm^3
# Si number density = 20.017990 Si / 1000 Ang^3
#
#
#
# Elastic Constant Matrix: (Units=GPa)
#
#
# Indices 1 2 3 4 5 6 
#
# 1 79.4482 47.0100 32.1375 0.0000 11.8234 0.0000
# 2 47.0100 91.5639 52.3775 0.0000 7.3126 0.0000
# 3 32.1375 52.3775 129.9154 0.0000 16.9655 0.0000
# 4 0.0000 0.0000 0.0000 31.4560 0.0000 5.4086
# 5 11.8234 7.3126 16.9655 0.0000 37.4823 0.0000
# 6 0.0000 0.0000 0.0000 5.4086 0.0000 26.3194
#
#
#
# Elastic Compliance Matrix: (Units=1/GPa)
#
#
# Indices 1 2 3 4 5 6 
#
# 1 0.018697 -0.009011 -0.000480 0.000000 -0.003922 0.000000
# 2 -0.009011 0.018540 -0.005467 0.000000 0.001700 0.000000
# 3 -0.000480 -0.005467 0.010481 0.000000 -0.003526 0.000000
# 4 0.000000 0.000000 0.000000 0.032955 0.000000 -0.006772
# 5 -0.003922 0.001700 -0.003526 0.000000 0.029181 0.000000
# 6 0.000000 0.000000 0.000000 -0.006772 0.000000 0.039387
#
#
# Mechanical properties :
#
#
# Convention : Reuss Voigt Hill
#
# Bulk Modulus (GPa) = 56.17998 62.66416 59.42207
# Shear Modulus (GPa) = 27.01394 30.34504 28.67949
#
# Velocity S-wave (km/s) = 3.67752 3.89767 3.78919
# Velocity P-wave (km/s) = 6.79396 7.18524 6.99233
#
# Compressibility (1/GPa) = 0.01779993
#
# Stress axis : x y z
#
# Youngs Moduli (GPa) = 53.48529 53.93847 95.41357
#
# Poissons Ratio (x) = 0.48606 0.04577
# Poissons Ratio (y) = 0.48198 0.52166
# Poissons Ratio (z) = 0.02566 0.29490
#
# Static dielectric constant tensor:
#      x y z
#    x 3.675520 0.000000 0.016100 
#    y 0.000000 3.902250 0.000000 
#    z 0.016100 0.000000 4.038000 
# 
# 
# High freq. dielectric constant tensor:
#      x y z
#    x 1.787980 0.000000 0.001910 
#    y 0.000000 1.775290 0.000000 
#    z 0.001910 0.000000 1.784920 
# 
# From -- ./inp_files/139063.got.cif
#   From: 2010.06.25/outbox.cif.g09.slc.cpg/sg15_70_cif.got.tgz:139063.got - 2010.06.28 07:06:18.
