data_PCOD8140742
_publ_section_title
;
Structure prediction by ZEFSAII (Michael W. Deem and Ramdas Pophale) SiO2 
 PCOD8140742
Probable space group: C 2/C
;
_chemical_formula_sum "Si O2"
_cell_formula_units_Z 52
_cell_length_a 28.037201
_cell_length_b 9.178517
_cell_length_c 14.726856
_cell_angle_alpha 90.000000
_cell_angle_beta 38.404878
_cell_angle_gamma 90.000000
_cell_volume 2354.283701
_symmetry_space_group_name_H-M "C 2/C"
_symmetry_group_IT_number 15
_symmetry_cell_setting 'monoclinic'
loop_
_space_group_symop_operation_xyz
x,y,z
-x,y,1/2-z
-x,-y,-z
x,-y,1/2+z
1/2+x,1/2+y,z
1/2-x,1/2+y,1/2-z
1/2-x,1/2-y,-z
1/2+x,1/2-y,1/2+z
loop_
_atom_site_type_symbol
_atom_site_label
_atom_site_fract_x
_atom_site_fract_y
_atom_site_fract_z
Si Si1 0.687807 0.654978 0.653259
Si Si2 0.559384 0.429122 0.841902
Si Si3 0.173551 0.324756 0.156089
Si Si4 0.145802 0.816149 0.020823
Si Si5 0.000000 0.984318 0.750000
Si Si6 0.798863 0.583660 0.247188
Si Si7 0.835246 0.496487 0.001250
O O1 0.612878 0.563919 0.738774
O O2 0.705115 0.700085 0.521565
O O3 0.659891 0.788426 0.757771
O O4 0.747021 0.547021 0.613304
O O5 0.611165 0.288732 0.791809
O O6 0.514037 0.385051 0.817304
O O7 0.500000 0.500000 0.000000
O O8 0.196304 0.431177 0.204763
O O9 0.250000 0.250000 0.000000
O O10 0.133657 0.410752 0.130946
O O11 0.073623 0.917342 0.122123
O O12 0.209478 0.877888 0.856058
O O13 0.115976 0.651116 0.052557
O O14 0.840863 0.583089 0.087321
#
# Coordination Sequence:
#
# PCOD8140742 Si02
#       7
#     8   8   8   8   4   8   8
#     4  10  20  44  61  90 129 171 213 271 329 382
#     4  11  26  42  68  92 135 175 212 267 336 410
#     4  12  23  42  64 103 132 166 225 286 333 386
#     4  10  20  43  63  90 131 172 221 265 332 395
#     4  10  24  42  62  88 128 182 208 256 332 412
#     4  11  23  37  69  96 126 168 223 283 323 389
#     4  11  22  36  68  99 126 165 223 282 327 383
#
# _framework density 22.087398
#
# number of rings (size 3 to 8) (size 9 to 14) (size 15 to 20)
#    0.000    1.231    4.615    1.846    8.615    1.231 
#    0.000    3.077    0.000    0.000    0.000    0.000 
#    0.000    0.000    0.000    0.000    0.000    0.000 
#
# Total GULP energy -322096.128840 kJ/mol
# GULP energy per Si atom -12388.312648 kJ/mol
# Density = 2.203713 g / cm^3
# Si number density = 22.087398 Si / 1000 Ang^3
#
#
#
# Elastic Constant Matrix: (Units=GPa)
#
#
# Indices 1 2 3 4 5 6 
#
# 1 58.6714 16.4628 9.2307 0.0000 5.2075 0.0000
# 2 16.4628 101.2024 22.3926 -0.0003 -0.7060 0.0002
# 3 9.2307 22.3926 60.0441 -0.0001 10.4091 0.0000
# 4 0.0000 -0.0003 -0.0001 32.3958 0.0000 5.3382
# 5 5.2075 -0.7060 10.4091 0.0000 33.8392 0.0000
# 6 0.0000 0.0002 0.0000 5.3382 0.0000 22.7867
#
#
#
# Elastic Compliance Matrix: (Units=1/GPa)
#
#
# Indices 1 2 3 4 5 6 
#
# 1 0.018229 -0.002677 -0.001382 0.000000 -0.002436 0.000000
# 2 -0.002677 0.011240 -0.004112 0.000000 0.001911 0.000000
# 3 -0.001382 -0.004112 0.019413 0.000000 -0.005845 0.000000
# 4 0.000000 0.000000 0.000000 0.032108 0.000000 -0.007522
# 5 -0.002436 0.001911 -0.005845 0.000000 0.031764 0.000000
# 6 0.000000 0.000000 0.000000 -0.007522 0.000000 0.045647
#
#
# Mechanical properties :
#
#
# Convention : Reuss Voigt Hill
#
# Bulk Modulus (GPa) = 30.72954 35.12113 32.92533
# Shear Modulus (GPa) = 26.94137 29.25979 28.10058
#
# Velocity S-wave (km/s) = 3.49630 3.64363 3.57072
# Velocity P-wave (km/s) = 5.49925 5.79973 5.65149
#
# Compressibility (1/GPa) = 0.03254198
#
# Stress axis : x y z
#
# Youngs Moduli (GPa) = 54.85853 88.97077 51.51070
#
# Poissons Ratio (x) = 0.23813 0.07118
# Poissons Ratio (y) = 0.14683 0.21179
# Poissons Ratio (z) = 0.07581 0.36580
#
# Static dielectric constant tensor:
#      x y z
#    x 4.094790 0.000000 0.253780 
#    y 0.000000 4.300070 0.000000 
#    z 0.253780 0.000000 3.912370 
# 
# 
# High freq. dielectric constant tensor:
#      x y z
#    x 1.868200 0.000000 0.016040 
#    y 0.000000 1.877540 0.000000 
#    z 0.016040 0.000000 1.849740 
# 
# From -- ./inp_files/181065.got.cif
#   From: 2010.06.25/outbox.cif.g09.slc.cpg/sg15_91_cif.got.tgz:181065.got - 2010.06.28 07:06:18.
