data_PCOD8140543
_publ_section_title
;
Structure prediction by ZEFSAII (Michael W. Deem and Ramdas Pophale) SiO2 
 PCOD8140543
Probable space group: C 2/C
;
_chemical_formula_sum "Si O2"
_cell_formula_units_Z 44
_cell_length_a 7.756521
_cell_length_b 16.066771
_cell_length_c 17.801722
_cell_angle_alpha 90.000000
_cell_angle_beta 84.346051
_cell_angle_gamma 90.000000
_cell_volume 2207.697802
_symmetry_space_group_name_H-M "C 2/C"
_symmetry_group_IT_number 15
_symmetry_cell_setting 'monoclinic'
loop_
_space_group_symop_operation_xyz
x,y,z
-x,y,1/2-z
-x,-y,-z
x,-y,1/2+z
1/2+x,1/2+y,z
1/2-x,1/2+y,1/2-z
1/2-x,1/2-y,-z
1/2+x,1/2-y,1/2+z
loop_
_atom_site_type_symbol
_atom_site_label
_atom_site_fract_x
_atom_site_fract_y
_atom_site_fract_z
Si Si1 0.145770 0.143082 0.683787
Si Si2 0.892234 0.511824 0.615780
Si Si3 0.892975 0.224094 0.584146
Si Si4 0.500000 0.909449 0.750000
Si Si5 0.135988 0.620752 0.507550
Si Si6 0.303342 0.716165 0.265192
O O1 0.224126 0.054803 0.657945
O O2 0.291500 0.201779 0.714143
O O3 0.000000 0.121984 0.750000
O O4 0.064429 0.191263 0.616789
O O5 0.002210 0.465723 0.675393
O O6 0.821957 0.447691 0.557114
O O7 0.007994 0.583915 0.574922
O O8 0.952249 0.298273 0.526338
O O9 0.813548 0.147840 0.540169
O O10 0.748562 0.260922 0.647405
O O11 0.328129 0.853209 0.760563
O O12 0.500000 0.682689 0.250000
#
# Coordination Sequence:
#
# PCOD8140543 Si02
#       6
#     8   8   8   4   8   8
#     4  10  22  39  66  97 128 162 222 266 318 379
#     4  11  24  40  62  95 128 171 205 274 329 368
#     4  10  20  42  64  91 129 171 216 262 304 408
#     4  12  24  44  62  96 134 162 224 268 312 390
#     4  10  22  41  63  88 133 170 210 263 326 379
#     4  11  21  41  69  93 123 177 220 263 319 381
#
# _framework density 19.930264000000001
#
# number of rings (size 3 to 8) (size 9 to 14) (size 15 to 20)
#    0.000    1.455    4.545    1.091    6.364    2.182 
#    0.000    7.273    0.000    0.000    0.000    0.000 
#    0.000    0.000    0.000    0.000    0.000    0.000 
#
# Total GULP energy -272871.729713 kJ/mol
# GULP energy per Si atom -12403.260441 kJ/mol
# Density = 1.988490 g / cm^3
# Si number density = 19.930264 Si / 1000 Ang^3
#
#
#
# Elastic Constant Matrix: (Units=GPa)
#
#
# Indices 1 2 3 4 5 6 
#
# 1 113.8550 58.8513 42.1562 0.0000 -0.3121 0.0000
# 2 58.8513 122.8596 59.6022 0.0000 -3.9338 0.0000
# 3 42.1562 59.6022 108.0160 0.0000 12.8552 0.0000
# 4 0.0000 0.0000 0.0000 38.0055 0.0000 -3.4594
# 5 -0.3121 -3.9338 12.8552 0.0000 17.2253 0.0000
# 6 0.0000 0.0000 0.0000 -3.4594 0.0000 26.2937
#
#
#
# Elastic Compliance Matrix: (Units=1/GPa)
#
#
# Indices 1 2 3 4 5 6 
#
# 1 0.012011 -0.004652 -0.002217 0.000000 0.000810 0.000000
# 2 -0.004652 0.013964 -0.006869 0.000000 0.008231 0.000000
# 3 -0.002217 -0.006869 0.015480 0.000000 -0.013161 0.000000
# 4 0.000000 0.000000 0.000000 0.026631 0.000000 0.003504
# 5 0.000810 0.008231 -0.013161 0.000000 0.069771 0.000000
# 6 0.000000 0.000000 0.000000 0.003504 0.000000 0.038493
#
#
# Mechanical properties :
#
#
# Convention : Reuss Voigt Hill
#
# Bulk Modulus (GPa) = 71.53985 73.99444 72.76714
# Shear Modulus (GPa) = 23.98268 28.57964 26.28116
#
# Velocity S-wave (km/s) = 3.47267 3.79090 3.63527
# Velocity P-wave (km/s) = 7.21472 7.50790 7.36277
#
# Compressibility (1/GPa) = 0.01397822
#
# Stress axis : x y z
#
# Youngs Moduli (GPa) = 83.25895 71.61520 64.60035
#
# Poissons Ratio (x) = 0.33314 0.14322
# Poissons Ratio (y) = 0.38730 0.44374
# Poissons Ratio (z) = 0.18459 0.49193
#
# Static dielectric constant tensor:
#      x y z
#    x 3.410360 0.000000 0.226480 
#    y 0.000000 3.730280 0.000000 
#    z 0.226480 0.000000 3.852250 
# 
# 
# High freq. dielectric constant tensor:
#      x y z
#    x 1.757020 0.000000 0.015750 
#    y 0.000000 1.788100 0.000000 
#    z 0.015750 0.000000 1.792410 
# 
# From -- ./inp_files/188827.got.cif
#   From: 2010.06.25/outbox.cif.g09.slc.cpg/sg15_95_cif.got.tgz:188827.got - 2010.06.28 07:06:18.
