data_PCOD8140342
_publ_section_title
;
Structure prediction by ZEFSAII (Michael W. Deem and Ramdas Pophale) SiO2 
 PCOD8140342
Probable space group: C 2/C
;
_chemical_formula_sum "Si O2"
_cell_formula_units_Z 32
_cell_length_a 12.857939
_cell_length_b 12.067778
_cell_length_c 16.204598
_cell_angle_alpha 90.000000
_cell_angle_beta 141.038059
_cell_angle_gamma 90.000000
_cell_volume 1581.074196
_symmetry_space_group_name_H-M "C 2/C"
_symmetry_group_IT_number 15
_symmetry_cell_setting 'monoclinic'
loop_
_space_group_symop_operation_xyz
x,y,z
-x,y,1/2-z
-x,-y,-z
x,-y,1/2+z
1/2+x,1/2+y,z
1/2-x,1/2+y,1/2-z
1/2-x,1/2-y,-z
1/2+x,1/2-y,1/2+z
loop_
_atom_site_type_symbol
_atom_site_label
_atom_site_fract_x
_atom_site_fract_y
_atom_site_fract_z
Si Si1 0.817789 0.840918 0.105398
Si Si2 0.783849 0.425793 0.001372
Si Si3 0.076426 0.325730 0.105701
Si Si4 0.749834 0.725513 0.623061
O O1 0.700301 0.860356 0.110881
O O2 0.000000 0.808349 0.250000
O O3 0.750000 0.750000 0.000000
O O4 0.815468 0.959389 0.058598
O O5 0.801515 0.386805 0.107432
O O6 0.969006 0.431206 0.074146
O O7 0.681259 0.330911 0.887697
O O8 0.178982 0.270197 0.242110
O O9 0.950010 0.232723 0.993165
#
# Coordination Sequence:
#
# PCOD8140342 Si02
#       4
#     8   8   8   8
#     4  12  27  44  59  89 133 172 204 248 309 376
#     4   9  22  38  69  89 127 151 211 256 315 350
#     4  10  20  41  64  95 122 162 205 252 316 361
#     4   9  20  37  72  96 119 149 213 261 313 354
#
# _framework density 20.239404
#
# number of rings (size 3 to 8) (size 9 to 14) (size 15 to 20)
#    1.500    0.500    0.000    3.000    3.500    2.000 
#    4.500    2.500    0.000    0.000    0.000    0.000 
#    0.000    0.000    0.000    0.000    0.000    0.000 
#
# Total GULP energy -198233.665383 kJ/mol
# GULP energy per Si atom -12389.604086 kJ/mol
# Density = 2.019334 g / cm^3
# Si number density = 20.239404 Si / 1000 Ang^3
#
#
#
# Elastic Constant Matrix: (Units=GPa)
#
#
# Indices 1 2 3 4 5 6 
#
# 1 40.6982 11.2963 24.6529 0.0003 20.1105 0.0001
# 2 11.2963 112.8183 43.8186 0.0004 -9.2124 0.0001
# 3 24.6529 43.8186 151.7734 0.0011 -5.5650 0.0003
# 4 0.0003 0.0004 0.0011 27.2137 0.0003 2.2827
# 5 20.1105 -9.2124 -5.5650 0.0003 30.6621 0.0001
# 6 0.0001 0.0001 0.0003 2.2827 0.0001 14.8107
#
#
#
# Elastic Compliance Matrix: (Units=1/GPa)
#
#
# Indices 1 2 3 4 5 6 
#
# 1 0.046969 -0.004505 -0.007558 0.000000 -0.033531 0.000000
# 2 -0.004505 0.010608 -0.002120 0.000000 0.005758 0.000000
# 3 -0.007558 -0.002120 0.008644 0.000000 0.005889 0.000000
# 4 0.000000 0.000000 0.000000 0.037228 -0.000001 -0.005738
# 5 -0.033531 0.005758 0.005889 -0.000001 0.057404 0.000000
# 6 0.000000 0.000000 0.000000 -0.005738 0.000000 0.068403
#
#
# Mechanical properties :
#
#
# Convention : Reuss Voigt Hill
#
# Bulk Modulus (GPa) = 26.41652 51.64727 39.03189
# Shear Modulus (GPa) = 18.50202 29.57212 24.03707
#
# Velocity S-wave (km/s) = 3.02679 3.82660 3.44995
# Velocity P-wave (km/s) = 5.02947 6.71546 5.93266
#
# Compressibility (1/GPa) = 0.03785511
#
# Stress axis : x y z
#
# Youngs Moduli (GPa) = 21.29080 94.26484 115.68224
#
# Poissons Ratio (x) = 0.42470 0.87432
# Poissons Ratio (y) = 0.09592 0.24523
# Poissons Ratio (z) = 0.16091 0.19983
#
# Static dielectric constant tensor:
#      x y z
#    x 3.655070 0.000000 0.030000 
#    y 0.000000 3.270440 0.000000 
#    z 0.030000 0.000000 3.630310 
# 
# 
# High freq. dielectric constant tensor:
#      x y z
#    x 1.788730 0.000000 -0.003350 
#    y 0.000000 1.756130 0.000000 
#    z -0.003350 0.000000 1.796440 
# 
# From -- ./inp_files/93789.got.cif
#   From: 2010.06.25/outbox.cif.g09.slc.cpg/sg15_47_cif.got.tgz:93789.got - 2010.06.28 07:06:18.
