data_PCOD8140471
_publ_section_title
;
Structure prediction by ZEFSAII (Michael W. Deem and Ramdas Pophale) SiO2 
 PCOD8140471
Probable space group: C 2/C
;
_chemical_formula_sum "Si O2"
_cell_formula_units_Z 60
_cell_length_a 18.383051
_cell_length_b 27.064020
_cell_length_c 13.407654
_cell_angle_alpha 90.000000
_cell_angle_beta 159.402883
_cell_angle_gamma 90.000000
_cell_volume 2346.668781
_symmetry_space_group_name_H-M "C 2/C"
_symmetry_group_IT_number 15
_symmetry_cell_setting 'monoclinic'
loop_
_space_group_symop_operation_xyz
x,y,z
-x,y,1/2-z
-x,-y,-z
x,-y,1/2+z
1/2+x,1/2+y,z
1/2-x,1/2+y,1/2-z
1/2-x,1/2-y,-z
1/2+x,1/2-y,1/2+z
loop_
_atom_site_type_symbol
_atom_site_label
_atom_site_fract_x
_atom_site_fract_y
_atom_site_fract_z
Si Si1 0.063959 0.410680 0.568891
Si Si2 0.257914 0.830921 0.423351
Si Si3 0.757264 0.938098 0.180005
Si Si4 0.252612 0.816461 0.634077
Si Si5 0.209996 0.957255 0.820478
Si Si6 0.673778 0.134402 0.904828
Si Si7 0.690152 0.233609 0.687780
Si Si8 0.500000 0.704797 0.250000
O O1 0.243409 0.374913 0.841384
O O2 0.182561 0.448741 0.649709
O O3 0.940203 0.435986 0.500080
O O4 0.901691 0.374732 0.304129
O O5 0.214967 0.888621 0.348923
O O6 0.155861 0.811689 0.397344
O O7 0.184551 0.796765 0.237481
O O8 0.500000 0.822921 0.750000
O O9 0.964611 0.948835 0.507641
O O10 0.731674 0.986150 0.075030
O O11 0.129570 0.787722 0.564020
O O12 0.483056 0.795097 0.946047
O O13 0.293470 0.920343 0.009887
O O14 0.500000 0.161040 0.750000
O O15 0.872539 0.169507 0.161331
O O16 0.841486 0.237339 0.979293
#
# Coordination Sequence:
#
# PCOD8140471 Si02
#       8
#     8   8   8   8   8   8   8   4
#     4  11  21  44  64  95 133 177 221 274 341 400
#     4  10  20  41  71  91 134 184 223 277 344 400
#     4  11  21  43  68  96 136 175 225 275 346 392
#     4  11  24  44  65  99 131 181 231 279 346 407
#     4  10  24  38  66 105 132 176 224 278 329 423
#     4  10  21  38  64  95 132 171 219 265 343 403
#     4  11  24  42  66  99 128 174 230 280 344 404
#     4  12  22  44  70  96 136 178 214 288 350 406
#
# _framework density 25.568159999999999
#
# number of rings (size 3 to 8) (size 9 to 14) (size 15 to 20)
#    0.000    1.333    4.000    2.400    0.000    5.333 
#    6.000    2.000    0.000    0.000    0.000    0.000 
#    0.000    0.000    0.000    0.000    0.000    0.000 
#
# Total GULP energy -371850.668541 kJ/mol
# GULP energy per Si atom -12395.022285 kJ/mol
# Density = 2.550997 g / cm^3
# Si number density = 25.568160 Si / 1000 Ang^3
#
#
#
# Elastic Constant Matrix: (Units=GPa)
#
#
# Indices 1 2 3 4 5 6 
#
# 1 86.1824 20.9977 17.2211 0.0012 2.5702 -0.0002
# 2 20.9977 96.3355 3.6902 0.0009 -7.9708 0.0004
# 3 17.2211 3.6902 46.7388 0.0010 -18.9628 -0.0020
# 4 0.0012 0.0009 0.0010 20.4881 0.0005 -4.8760
# 5 2.5702 -7.9708 -18.9628 0.0005 51.4090 -0.0009
# 6 -0.0002 0.0004 -0.0020 -4.8760 -0.0009 26.5145
#
#
#
# Elastic Compliance Matrix: (Units=1/GPa)
#
#
# Indices 1 2 3 4 5 6 
#
# 1 0.013682 -0.003029 -0.006198 0.000000 -0.003440 -0.000001
# 2 -0.003029 0.011188 0.001174 0.000000 0.002319 0.000000
# 3 -0.006198 0.001174 0.027972 -0.000001 0.010810 0.000002
# 4 0.000000 0.000000 -0.000001 0.051043 -0.000001 0.009387
# 5 -0.003440 0.002319 0.010810 -0.000001 0.023971 0.000002
# 6 -0.000001 0.000000 0.000002 0.009387 0.000002 0.039441
#
#
# Mechanical properties :
#
#
# Convention : Reuss Voigt Hill
#
# Bulk Modulus (GPa) = 27.22180 34.78606 31.00393
# Shear Modulus (GPa) = 25.55593 32.17216 28.86405
#
# Velocity S-wave (km/s) = 3.16495 3.55109 3.36356
# Velocity P-wave (km/s) = 4.90161 5.51801 5.21891
#
# Compressibility (1/GPa) = 0.03673526
#
# Stress axis : x y z
#
# Youngs Moduli (GPa) = 73.08635 89.38451 35.74983
#
# Poissons Ratio (x) = 0.27079 0.22157
# Poissons Ratio (y) = 0.22141 -0.04196
# Poissons Ratio (z) = 0.45298 -0.10492
#
# Static dielectric constant tensor:
#      x y z
#    x 5.063440 0.000000 0.346610 
#    y 0.000000 4.721920 0.000000 
#    z 0.346610 0.000000 4.699450 
# 
# 
# High freq. dielectric constant tensor:
#      x y z
#    x 2.020270 0.000000 0.014180 
#    y 0.000000 2.021940 0.000000 
#    z 0.014180 0.000000 2.032760 
# 
# From -- ./inp_files/170044.got.cif
#   From: 2010.06.25/outbox.cif.g09.slc.cpg/sg15_86_cif.got.tgz:170044.got - 2010.06.28 07:06:18.
