data_PCOD8140353
_publ_section_title
;
Structure prediction by ZEFSAII (Michael W. Deem and Ramdas Pophale) SiO2 
 PCOD8140353
Probable space group: C 2/C
;
_chemical_formula_sum "Si O2"
_cell_formula_units_Z 48
_cell_length_a 28.342195
_cell_length_b 9.271275
_cell_length_c 14.224871
_cell_angle_alpha 90.000000
_cell_angle_beta 36.804592
_cell_angle_gamma 90.000000
_cell_volume 2239.297197
_symmetry_space_group_name_H-M "C 2/C"
_symmetry_group_IT_number 15
_symmetry_cell_setting 'monoclinic'
loop_
_space_group_symop_operation_xyz
x,y,z
-x,y,1/2-z
-x,-y,-z
x,-y,1/2+z
1/2+x,1/2+y,z
1/2-x,1/2+y,1/2-z
1/2-x,1/2-y,-z
1/2+x,1/2-y,1/2+z
loop_
_atom_site_type_symbol
_atom_site_label
_atom_site_fract_x
_atom_site_fract_y
_atom_site_fract_z
Si Si1 0.500000 0.658136 0.250000
Si Si2 0.372207 0.572148 0.996299
Si Si3 0.468544 0.218798 0.605625
Si Si4 0.000000 0.697459 0.250000
Si Si5 0.256143 0.975461 0.436526
Si Si6 0.815931 0.823796 0.775335
Si Si7 0.916678 0.594062 0.202175
O O1 0.571182 0.567000 0.090927
O O2 0.528162 0.761235 0.288216
O O3 0.428727 0.709577 0.904762
O O4 0.318003 0.557443 0.990674
O O5 0.313753 0.595673 0.178042
O O6 0.407157 0.334415 0.662702
O O7 0.552201 0.222914 0.416663
O O8 0.434460 0.063388 0.633136
O O9 0.040060 0.601465 0.266385
O O10 0.237058 0.915497 0.569805
O O11 0.282875 0.841115 0.326625
O O12 0.321922 0.098690 0.351504
#
# Coordination Sequence:
#
# PCOD8140353 Si02
#       7
#     4   8   8   4   8   8   8
#     4  11  23  38  66  94 127 171 216 252 324 399
#     4  11  24  39  64  95 126 171 206 261 331 387
#     4  10  20  41  65  91 124 171 217 257 320 385
#     4  11  23  40  62  94 133 161 216 268 314 387
#     4  10  23  42  63  94 127 169 214 264 328 374
#     4  10  21  43  64  88 133 166 210 267 317 394
#     4  10  22  40  66  93 124 169 215 271 312 375
#
# _framework density 21.435296000000001
#
# number of rings (size 3 to 8) (size 9 to 14) (size 15 to 20)
#    0.000    1.667    3.333    0.500    0.000    5.333 
#    0.000    0.000    0.000    0.000    0.000    0.000 
#    0.000    0.000    0.000    0.000    0.000    0.000 
#
# Total GULP energy -297445.517949 kJ/mol
# GULP energy per Si atom -12393.563248 kJ/mol
# Density = 2.138651 g / cm^3
# Si number density = 21.435296 Si / 1000 Ang^3
#
#
#
# Elastic Constant Matrix: (Units=GPa)
#
#
# Indices 1 2 3 4 5 6 
#
# 1 86.9676 13.1956 16.8714 0.0000 -6.2768 0.0000
# 2 13.1956 37.2215 25.5200 -0.0001 -2.2091 0.0000
# 3 16.8714 25.5200 100.2460 0.0000 -0.0316 0.0000
# 4 0.0000 -0.0001 0.0000 25.0418 0.0000 0.9234
# 5 -6.2768 -2.2091 -0.0316 0.0000 46.4232 0.0000
# 6 0.0000 0.0000 0.0000 0.9234 0.0000 33.4306
#
#
#
# Elastic Compliance Matrix: (Units=1/GPa)
#
#
# Indices 1 2 3 4 5 6 
#
# 1 0.012366 -0.003475 -0.001196 0.000000 0.001506 0.000000
# 2 -0.003475 0.033634 -0.007977 0.000000 0.001125 0.000000
# 3 -0.001196 -0.007977 0.012207 0.000000 -0.000533 0.000000
# 4 0.000000 0.000000 0.000000 0.039974 0.000000 -0.001104
# 5 0.001506 0.001125 -0.000533 0.000000 0.021798 0.000000
# 6 0.000000 0.000000 0.000000 -0.001104 0.000000 0.029943
#
#
# Mechanical properties :
#
#
# Convention : Reuss Voigt Hill
#
# Bulk Modulus (GPa) = 30.38412 37.28991 33.83701
# Shear Modulus (GPa) = 26.85430 32.23566 29.54498
#
# Velocity S-wave (km/s) = 3.54334 3.88217 3.71662
# Velocity P-wave (km/s) = 5.56291 6.12611 5.85129
#
# Compressibility (1/GPa) = 0.03291193
#
# Stress axis : x y z
#
# Youngs Moduli (GPa) = 80.86372 29.73163 81.91734
#
# Poissons Ratio (x) = 0.10330 0.09800
# Poissons Ratio (y) = 0.28096 0.65348
# Poissons Ratio (z) = 0.09673 0.23718
#
# Static dielectric constant tensor:
#      x y z
#    x 3.744610 0.000000 -0.180760 
#    y 0.000000 3.638370 0.000000 
#    z -0.180760 0.000000 4.229070 
# 
# 
# High freq. dielectric constant tensor:
#      x y z
#    x 1.836350 0.000000 -0.004460 
#    y 0.000000 1.820460 0.000000 
#    z -0.004460 0.000000 1.851980 
# 
# From -- ./inp_files/160337.got.cif
#   From: 2010.06.25/outbox.cif.g09.slc.cpg/sg15_81_cif.got.tgz:160337.got - 2010.06.28 07:06:18.
