data_PCOD8140215
_publ_section_title
;
Structure prediction by ZEFSAII (Michael W. Deem and Ramdas Pophale) SiO2 
 PCOD8140215
Probable space group: C 2/C
;
_chemical_formula_sum "Si O2"
_cell_formula_units_Z 44
_cell_length_a 10.431598
_cell_length_b 15.084898
_cell_length_c 14.804133
_cell_angle_alpha 90.000000
_cell_angle_beta 62.841543
_cell_angle_gamma 90.000000
_cell_volume 2072.731302
_symmetry_space_group_name_H-M "C 2/C"
_symmetry_group_IT_number 15
_symmetry_cell_setting 'monoclinic'
loop_
_space_group_symop_operation_xyz
x,y,z
-x,y,1/2-z
-x,-y,-z
x,-y,1/2+z
1/2+x,1/2+y,z
1/2-x,1/2+y,1/2-z
1/2-x,1/2-y,-z
1/2+x,1/2-y,1/2+z
loop_
_atom_site_type_symbol
_atom_site_label
_atom_site_fract_x
_atom_site_fract_y
_atom_site_fract_z
Si Si1 0.264466 0.808557 0.705977
Si Si2 0.000000 0.239839 0.750000
Si Si3 0.398934 0.696656 0.066402
Si Si4 0.275789 0.672091 0.559705
Si Si5 0.258416 0.356266 0.437106
Si Si6 0.156889 0.543183 0.463572
O O1 0.414674 0.803116 0.709784
O O2 0.136317 0.828292 0.818271
O O3 0.227516 0.712240 0.672092
O O4 0.287597 0.887282 0.628061
O O5 0.895908 0.178309 0.840367
O O6 0.386532 0.804354 0.053091
O O7 0.552446 0.654137 0.993306
O O8 0.275467 0.658190 0.039611
O O9 0.250000 0.750000 0.500000
O O10 0.183223 0.586862 0.555448
O O11 0.260301 0.459969 0.418530
O O12 0.000000 0.500000 0.500000
#
# Coordination Sequence:
#
# PCOD8140215 Si02
#       6
#     8   4   8   8   8   8
#     4  10  22  41  66  94 125 174 208 259 322 390
#     4  10  20  40  70  88 124 170 216 246 330 384
#     4  10  21  40  67  91 122 175 211 251 329 378
#     4  10  21  40  64  90 130 167 206 260 318 382
#     4  10  21  39  65  91 127 162 212 268 307 389
#     4  11  25  41  62  93 132 164 217 272 313 368
#
# _framework density 21.228027999999998
#
# number of rings (size 3 to 8) (size 9 to 14) (size 15 to 20)
#    0.000    1.818    1.818    2.182    5.091    5.091 
#    6.545    0.000    4.000    0.000    0.000    0.000 
#    0.000    0.000    0.000    0.000    0.000    0.000 
#
# Total GULP energy -272564.049960 kJ/mol
# GULP energy per Si atom -12389.274998 kJ/mol
# Density = 2.117971 g / cm^3
# Si number density = 21.228028 Si / 1000 Ang^3
#
#
#
# Elastic Constant Matrix: (Units=GPa)
#
#
# Indices 1 2 3 4 5 6 
#
# 1 83.1238 31.0093 20.2688 0.0000 7.6805 0.0000
# 2 31.0093 128.6653 36.1114 0.0000 9.9620 0.0000
# 3 20.2688 36.1114 116.8953 0.0000 10.6455 0.0000
# 4 0.0000 0.0000 0.0000 16.9831 0.0000 0.9645
# 5 7.6805 9.9620 10.6455 0.0000 30.4812 0.0000
# 6 0.0000 0.0000 0.0000 0.9645 0.0000 30.7994
#
#
#
# Elastic Compliance Matrix: (Units=1/GPa)
#
#
# Indices 1 2 3 4 5 6 
#
# 1 0.013564 -0.002740 -0.001318 0.000000 -0.002062 0.000000
# 2 -0.002740 0.009174 -0.002219 0.000000 -0.001533 0.000000
# 3 -0.001318 -0.002219 0.009680 0.000000 -0.002323 0.000000
# 4 0.000000 0.000000 0.000000 0.058987 0.000000 -0.001847
# 5 -0.002062 -0.001533 -0.002323 0.000000 0.034639 0.000000
# 6 0.000000 0.000000 0.000000 -0.001847 0.000000 0.032526
#
#
# Mechanical properties :
#
#
# Convention : Reuss Voigt Hill
#
# Bulk Modulus (GPa) = 50.33997 55.94036 53.14016
# Shear Modulus (GPa) = 28.13009 31.73907 29.93458
#
# Velocity S-wave (km/s) = 3.64419 3.87091 3.75926
# Velocity P-wave (km/s) = 6.43990 6.81087 6.62798
#
# Compressibility (1/GPa) = 0.01986493
#
# Stress axis : x y z
#
# Youngs Moduli (GPa) = 73.72397 109.00455 103.30169
#
# Poissons Ratio (x) = 0.29862 0.13613
# Poissons Ratio (y) = 0.20197 0.22927
# Poissons Ratio (z) = 0.09715 0.24193
#
# Static dielectric constant tensor:
#      x y z
#    x 4.174710 0.000000 0.551000 
#    y 0.000000 4.114920 0.000000 
#    z 0.551000 0.000000 3.970260 
# 
# 
# High freq. dielectric constant tensor:
#      x y z
#    x 1.841330 0.000000 0.013100 
#    y 0.000000 1.814080 0.000000 
#    z 0.013100 0.000000 1.830180 
# 
# From -- ./inp_files/143355.got.cif
#   From: 2010.06.25/outbox.cif.g09.slc.cpg/sg15_72_cif.got.tgz:143355.got - 2010.06.28 07:06:18.
