data_PCOD8140712
_publ_section_title
;
Structure prediction by ZEFSAII (Michael W. Deem and Ramdas Pophale) SiO2 
 PCOD8140712
Probable space group: C 2/C
;
_chemical_formula_sum "Si O2"
_cell_formula_units_Z 40
_cell_length_a 17.318655
_cell_length_b 8.224444
_cell_length_c 15.047301
_cell_angle_alpha 90.000000
_cell_angle_beta 119.119084
_cell_angle_gamma 90.000000
_cell_volume 1872.392991
_symmetry_space_group_name_H-M "C 2/C"
_symmetry_group_IT_number 15
_symmetry_cell_setting 'monoclinic'
loop_
_space_group_symop_operation_xyz
x,y,z
-x,y,1/2-z
-x,-y,-z
x,-y,1/2+z
1/2+x,1/2+y,z
1/2-x,1/2+y,1/2-z
1/2-x,1/2-y,-z
1/2+x,1/2-y,1/2+z
loop_
_atom_site_type_symbol
_atom_site_label
_atom_site_fract_x
_atom_site_fract_y
_atom_site_fract_z
Si Si1 0.500000 0.645261 0.250000
Si Si2 0.401037 0.879943 0.085914
Si Si3 0.277275 0.434295 0.033687
Si Si4 0.909899 0.091178 0.970881
Si Si5 0.116617 0.900086 0.237633
Si Si6 0.500000 0.870717 0.750000
O O1 0.415060 0.750621 0.173491
O O2 0.535621 0.530448 0.191063
O O3 0.466981 0.027781 0.145333
O O4 0.427132 0.778004 0.012247
O O5 0.301076 0.939313 0.027200
O O6 0.304700 0.453513 0.152447
O O7 0.250000 0.250000 0.000000
O O8 0.356729 0.485167 0.013238
O O9 0.852468 0.109821 0.847334
O O10 0.000000 0.000000 0.000000
O O11 0.081419 0.730267 0.256871
#
# Coordination Sequence:
#
# PCOD8140712 Si02
#       6
#     4   8   8   8   8   4
#     4  10  20  42  72 100 136 188 226 288 356 422
#     4  11  23  43  73 101 140 184 232 286 359 411
#     4  12  26  48  67 102 148 182 224 302 357 407
#     4  12  25  44  74 105 134 187 242 287 344 423
#     4  11  22  44  72  98 141 187 234 282 350 422
#     4  10  22  44  70 104 138 190 226 288 360 422
#
# _framework density 21.363036999999998
#
# number of rings (size 3 to 8) (size 9 to 14) (size 15 to 20)
#    0.000    0.800    6.000    1.800    0.000    2.400 
#    0.000    0.000    0.000    0.000    0.000    0.000 
#    0.000    0.000    0.000    0.000    0.000    0.000 
#
# Total GULP energy -247835.108107 kJ/mol
# GULP energy per Si atom -12391.755405 kJ/mol
# Density = 2.131441 g / cm^3
# Si number density = 21.363037 Si / 1000 Ang^3
#
#
#
# Elastic Constant Matrix: (Units=GPa)
#
#
# Indices 1 2 3 4 5 6 
#
# 1 82.4460 45.6222 56.3925 0.0000 13.7235 0.0000
# 2 45.6222 133.2980 56.0709 0.0000 10.8737 0.0000
# 3 56.3925 56.0709 177.1072 0.0000 -8.4428 0.0000
# 4 0.0000 0.0000 0.0000 39.9343 0.0000 2.1069
# 5 13.7235 10.8737 -8.4428 0.0000 37.6283 0.0000
# 6 0.0000 0.0000 0.0000 2.1069 0.0000 32.5318
#
#
#
# Elastic Compliance Matrix: (Units=1/GPa)
#
#
# Indices 1 2 3 4 5 6 
#
# 1 0.018882 -0.003721 -0.005167 0.000000 -0.006971 0.000000
# 2 -0.003721 0.009773 -0.002001 0.000000 -0.001916 0.000000
# 3 -0.005167 -0.002001 0.008129 0.000000 0.004287 0.000000
# 4 0.000000 0.000000 0.000000 0.025127 0.000000 -0.001627
# 5 -0.006971 -0.001916 0.004287 0.000000 0.030634 0.000000
# 6 0.000000 0.000000 0.000000 -0.001627 0.000000 0.030845
#
#
# Mechanical properties :
#
#
# Convention : Reuss Voigt Hill
#
# Bulk Modulus (GPa) = 66.62868 78.78027 72.70447
# Shear Modulus (GPa) = 33.29582 37.66992 35.48287
#
# Velocity S-wave (km/s) = 3.95216 4.20375 4.07989
# Velocity P-wave (km/s) = 7.21682 7.77939 7.50338
#
# Compressibility (1/GPa) = 0.01500855
#
# Stress axis : x y z
#
# Youngs Moduli (GPa) = 52.95981 102.31903 123.01343
#
# Poissons Ratio (x) = 0.38069 0.63557
# Poissons Ratio (y) = 0.19704 0.24613
# Poissons Ratio (z) = 0.27362 0.20472
#
# Static dielectric constant tensor:
#      x y z
#    x 3.429490 0.000000 0.051670 
#    y 0.000000 4.187730 0.000000 
#    z 0.051670 0.000000 4.355970 
# 
# 
# High freq. dielectric constant tensor:
#      x y z
#    x 1.794990 0.000000 0.012340 
#    y 0.000000 1.858050 0.000000 
#    z 0.012340 0.000000 1.866050 
# 
# From -- ./inp_files/150636.got.cif
#   From: 2010.06.25/outbox.cif.g09.slc.cpg/sg15_76_cif.got.tgz:150636.got - 2010.06.28 07:06:18.
