data_PCOD8140922
_publ_section_title
;
Structure prediction by ZEFSAII (Michael W. Deem and Ramdas Pophale) SiO2 
 PCOD8140922
Probable space group: C 2/C
;
_chemical_formula_sum "Si O2"
_cell_formula_units_Z 44
_cell_length_a 21.115702
_cell_length_b 14.642981
_cell_length_c 8.908066
_cell_angle_alpha 90.000000
_cell_angle_beta 64.054953
_cell_angle_gamma 90.000000
_cell_volume 2476.746440
_symmetry_space_group_name_H-M "C 2/C"
_symmetry_group_IT_number 15
_symmetry_cell_setting 'monoclinic'
loop_
_space_group_symop_operation_xyz
x,y,z
-x,y,1/2-z
-x,-y,-z
x,-y,1/2+z
1/2+x,1/2+y,z
1/2-x,1/2+y,1/2-z
1/2-x,1/2-y,-z
1/2+x,1/2-y,1/2+z
loop_
_atom_site_type_symbol
_atom_site_label
_atom_site_fract_x
_atom_site_fract_y
_atom_site_fract_z
Si Si1 0.500000 0.724228 0.750000
Si Si2 0.756816 0.881021 0.572551
Si Si3 0.355087 0.542211 0.444026
Si Si4 0.206935 0.799423 0.673151
Si Si5 0.147628 0.719799 0.011216
Si Si6 0.943173 0.934959 0.130964
O O1 0.435202 0.788081 0.868638
O O2 0.522721 0.662918 0.868793
O O3 0.742044 0.854070 0.762888
O O4 0.819608 0.812902 0.448199
O O5 0.686967 0.867386 0.544249
O O6 0.782225 0.985438 0.533352
O O7 0.346238 0.628667 0.345440
O O8 0.416566 0.478476 0.314342
O O9 0.377505 0.576546 0.585412
O O10 0.250000 0.750000 0.500000
O O11 0.161611 0.724964 0.816199
O O12 0.000000 0.000000 0.000000
#
# Coordination Sequence:
#
# PCOD8140922 Si02
#       6
#     4   8   8   8   8   8
#     4  12  20  34  54  76 116 150 176 220 278 334
#     4   9  19  37  52  75 106 148 190 217 262 327
#     4  12  21  33  52  79 111 144 182 222 269 329
#     4  10  21  33  52  80 108 136 185 232 271 316
#     4   9  20  36  52  76 109 144 186 212 271 324
#     4  12  20  31  48  78 115 145 171 210 268 343
#
# _framework density 17.765242000000001
#
# number of rings (size 3 to 8) (size 9 to 14) (size 15 to 20)
#    1.091    0.364    5.455    1.091    5.091    0.000 
#    0.000    0.000    0.000    0.000    0.000    5.091 
#    0.000    0.000    0.000    0.000    0.000    0.000 
#
# Total GULP energy -272684.221028 kJ/mol
# GULP energy per Si atom -12394.737319 kJ/mol
# Density = 1.772481 g / cm^3
# Si number density = 17.765242 Si / 1000 Ang^3
#
#
#
# Elastic Constant Matrix: (Units=GPa)
#
#
# Indices 1 2 3 4 5 6 
#
# 1 106.9078 37.7946 47.1033 0.0000 0.8978 0.0000
# 2 37.7946 34.4650 20.1365 0.0000 4.9918 0.0000
# 3 47.1033 20.1365 106.1207 0.0000 -1.6174 0.0000
# 4 0.0000 0.0000 0.0000 20.1743 0.0000 2.0200
# 5 0.8978 4.9918 -1.6174 0.0000 35.7288 0.0000
# 6 0.0000 0.0000 0.0000 2.0200 0.0000 34.0199
#
#
#
# Elastic Compliance Matrix: (Units=1/GPa)
#
#
# Indices 1 2 3 4 5 6 
#
# 1 0.017094 -0.016384 -0.004453 0.000000 0.001658 0.000000
# 2 -0.016384 0.049195 -0.002163 0.000000 -0.006559 0.000000
# 3 -0.004453 -0.002163 0.011825 0.000000 0.000949 0.000000
# 4 0.000000 0.000000 0.000000 0.049865 0.000000 -0.002961
# 5 0.001658 -0.006559 0.000949 0.000000 0.028906 0.000000
# 6 0.000000 0.000000 0.000000 -0.002961 0.000000 0.029570
#
#
# Mechanical properties :
#
#
# Convention : Reuss Voigt Hill
#
# Bulk Modulus (GPa) = 31.13858 50.84026 40.98942
# Shear Modulus (GPa) = 20.56259 27.48186 24.02222
#
# Velocity S-wave (km/s) = 3.40584 3.93739 3.68122
# Velocity P-wave (km/s) = 5.74736 7.02500 6.41805
#
# Compressibility (1/GPa) = 0.03211451
#
# Stress axis : x y z
#
# Youngs Moduli (GPa) = 58.49939 20.32716 84.56831
#
# Poissons Ratio (x) = 0.33304 0.37662
# Poissons Ratio (y) = 0.95845 0.18289
# Poissons Ratio (z) = 0.26052 0.04396
#
# Static dielectric constant tensor:
#      x y z
#    x 3.269300 0.000000 0.216800 
#    y 0.000000 2.953950 0.000000 
#    z 0.216800 0.000000 3.307950 
# 
# 
# High freq. dielectric constant tensor:
#      x y z
#    x 1.674310 0.000000 0.015940 
#    y 0.000000 1.641190 0.000000 
#    z 0.015940 0.000000 1.689540 
# 
# From -- ./inp_files/47918.got.cif
#   From: 2010.06.25/outbox.cif.g09.slc.cpg/sg15_24_cif.got.tgz:47918.got - 2010.06.28 07:06:18.
