data_PCOD8140186
_publ_section_title
;
Structure prediction by ZEFSAII (Michael W. Deem and Ramdas Pophale) SiO2 
 PCOD8140186
Probable space group: C 2/C
;
_chemical_formula_sum "Si O2"
_cell_formula_units_Z 44
_cell_length_a 8.882191
_cell_length_b 27.387258
_cell_length_c 9.665217
_cell_angle_alpha 90.000000
_cell_angle_beta 122.642707
_cell_angle_gamma 90.000000
_cell_volume 1979.786903
_symmetry_space_group_name_H-M "C 2/C"
_symmetry_group_IT_number 15
_symmetry_cell_setting 'monoclinic'
loop_
_space_group_symop_operation_xyz
x,y,z
-x,y,1/2-z
-x,-y,-z
x,-y,1/2+z
1/2+x,1/2+y,z
1/2-x,1/2+y,1/2-z
1/2-x,1/2-y,-z
1/2+x,1/2-y,1/2+z
loop_
_atom_site_type_symbol
_atom_site_label
_atom_site_fract_x
_atom_site_fract_y
_atom_site_fract_z
Si Si1 0.000000 0.010294 0.750000
Si Si2 0.209454 0.209546 0.368548
Si Si3 0.000000 0.440196 0.250000
Si Si4 0.778825 0.975110 0.893536
Si Si5 0.801327 0.773561 0.168264
Si Si6 0.000000 0.397120 0.750000
Si Si7 0.024227 0.643871 0.547669
O O1 0.080817 0.978602 0.662977
O O2 0.856135 0.040594 0.585894
O O3 0.250000 0.250000 0.500000
O O4 0.295993 0.228024 0.269530
O O5 0.319563 0.161487 0.468577
O O6 0.000000 0.196911 0.250000
O O7 0.828061 0.474172 0.137057
O O8 0.048000 0.406087 0.143714
O O9 0.659523 0.931471 0.778150
O O10 0.667267 0.814776 0.162749
O O11 0.000000 0.795947 0.250000
O O12 0.750000 0.750000 0.000000
O O13 0.935082 0.364042 0.592738
#
# Coordination Sequence:
#
# PCOD8140186 Si02
#       7
#     4   8   4   8   8   4   8
#     4  10  20  40  68  98 118 164 222 254 312 400
#     4  12  23  43  68  92 128 178 219 267 333 386
#     4  11  24  44  66  94 129 176 213 262 326 391
#     4  10  22  44  70  90 134 174 204 262 338 380
#     4  12  23  43  68  92 128 178 219 267 333 386
#     4  11  24  44  66  94 129 176 213 262 326 391
#     4  12  24  41  68 100 132 166 230 273 312 392
#
# _framework density 22.224615
#
# number of rings (size 3 to 8) (size 9 to 14) (size 15 to 20)
#    0.000    0.727    3.636    4.364    0.000    2.909 
#   19.636    0.000    0.000    0.000    0.000    0.000 
#    0.000    0.000    0.000    0.000    0.000    0.000 
#
# Total GULP energy -272686.179064 kJ/mol
# GULP energy per Si atom -12394.826321 kJ/mol
# Density = 2.217403 g / cm^3
# Si number density = 22.224615 Si / 1000 Ang^3
#
#
#
# Elastic Constant Matrix: (Units=GPa)
#
#
# Indices 1 2 3 4 5 6 
#
# 1 116.2536 20.0657 34.4874 0.0000 16.4814 0.0000
# 2 20.0657 70.0170 15.2455 0.0000 10.7433 0.0000
# 3 34.4874 15.2455 124.5933 0.0000 -8.2000 0.0000
# 4 0.0000 0.0000 0.0000 22.8084 0.0000 -12.4592
# 5 16.4814 10.7433 -8.2000 0.0000 56.3464 0.0000
# 6 0.0000 0.0000 0.0000 -12.4592 0.0000 2.4801
#
#
#
# Elastic Compliance Matrix: (Units=1/GPa)
#
#
# Indices 1 2 3 4 5 6 
#
# 1 0.010178 -0.001844 -0.002791 0.000000 -0.003032 0.000000
# 2 -0.001844 0.015560 -0.001568 0.000000 -0.002656 0.000000
# 3 -0.002791 -0.001568 0.009152 0.000000 0.002447 0.000000
# 4 0.000000 0.000000 0.000000 -0.025137 0.000000 -0.126279
# 5 -0.003032 -0.002656 0.002447 0.000000 0.019497 0.000000
# 6 0.000000 0.000000 0.000000 -0.126279 0.000000 -0.231173
#
#
# Mechanical properties :
#
#
# Convention : Reuss Voigt Hill
#
# Bulk Modulus (GPa) = 44.47893 50.05122 47.26508
# Shear Modulus (GPa) = -27.46897 32.39801 2.46452
#
# Velocity S-wave (km/s) = -3.51945 3.82220 1.05419
# Velocity P-wave (km/s) = 1.88187 6.48448 4.77440
#
# Compressibility (1/GPa) = 0.02248255
#
# Stress axis : x y z
#
# Youngs Moduli (GPa) = 98.25149 64.26887 109.26972
#
# Poissons Ratio (x) = 0.11851 0.30499
# Poissons Ratio (y) = 0.18117 0.17137
# Poissons Ratio (z) = 0.27424 0.10079
#
# Static dielectric constant tensor:
#      x y z
#    x 4.431770 0.000000 0.595620 
#    y 0.000000 3.883630 0.000000 
#    z 0.595620 0.000000 4.820680 
# 
# 
# High freq. dielectric constant tensor:
#      x y z
#    x 1.886040 0.000000 -0.000940 
#    y 0.000000 1.855040 0.000000 
#    z -0.000940 0.000000 1.896120 
# 
# From -- ./inp_files/26297.got.cif
#   From: 2010.06.25/outbox.cif.g09.slc.cpg/sg15_14_cif.got.tgz:26297.got - 2010.06.28 07:06:18.
