data_PCOD8140472
_publ_section_title
;
Structure prediction by ZEFSAII (Michael W. Deem and Ramdas Pophale) SiO2 
 PCOD8140472
Probable space group: C 2/C
;
_chemical_formula_sum "Si O2"
_cell_formula_units_Z 48
_cell_length_a 15.497796
_cell_length_b 18.745031
_cell_length_c 18.178701
_cell_angle_alpha 90.000000
_cell_angle_beta 26.366697
_cell_angle_gamma 90.000000
_cell_volume 2345.383562
_symmetry_space_group_name_H-M "C 2/C"
_symmetry_group_IT_number 15
_symmetry_cell_setting 'monoclinic'
loop_
_space_group_symop_operation_xyz
x,y,z
-x,y,1/2-z
-x,-y,-z
x,-y,1/2+z
1/2+x,1/2+y,z
1/2-x,1/2+y,1/2-z
1/2-x,1/2-y,-z
1/2+x,1/2-y,1/2+z
loop_
_atom_site_type_symbol
_atom_site_label
_atom_site_fract_x
_atom_site_fract_y
_atom_site_fract_z
Si Si1 0.316505 0.156981 0.753392
Si Si2 0.000000 0.275821 0.750000
Si Si3 0.388671 0.647059 0.740154
Si Si4 0.000000 0.115494 0.250000
Si Si5 0.403499 0.717861 0.440779
Si Si6 0.087966 0.449172 0.107659
Si Si7 0.279721 0.101880 0.492756
O O1 0.162486 0.148203 0.806070
O O2 0.467793 0.220432 0.621131
O O3 0.438645 0.082852 0.662010
O O4 0.201466 0.172592 0.916114
O O5 0.928903 0.227508 0.736566
O O6 0.164740 0.327170 0.593536
O O7 0.564297 0.591377 0.623105
O O8 0.214589 0.617158 0.924017
O O9 0.045080 0.164984 0.286708
O O10 0.809518 0.069753 0.416539
O O11 0.250000 0.750000 0.500000
O O12 0.000000 0.414841 0.250000
O O13 0.078962 0.534414 0.124913
#
# Coordination Sequence:
#
# PCOD8140472 Si02
#       7
#     8   4   8   4   8   8   8
#     4  12  24  38  68 101 136 172 225 288 331 404
#     4  10  20  41  71  92 126 174 220 280 344 386
#     4  10  23  41  66  99 130 167 228 284 335 394
#     4  12  22  41  67  90 134 184 220 260 336 402
#     4  12  21  39  61  99 131 174 225 269 338 396
#     4  12  23  43  69  95 133 185 223 266 340 417
#     4  10  22  44  66  91 131 177 223 271 345 405
#
# _framework density 20.465736
#
# number of rings (size 3 to 8) (size 9 to 14) (size 15 to 20)
#    0.000    1.000    5.833    3.000    4.667    0.667 
#    0.000    0.833    0.000    0.000    0.000    0.000 
#    0.000    0.000    0.000    0.000    0.000    0.000 
#
# Total GULP energy -297357.510280 kJ/mol
# GULP energy per Si atom -12389.896262 kJ/mol
# Density = 2.041916 g / cm^3
# Si number density = 20.465736 Si / 1000 Ang^3
#
#
#
# Elastic Constant Matrix: (Units=GPa)
#
#
# Indices 1 2 3 4 5 6 
#
# 1 133.7263 44.8081 40.2355 0.0247 9.2639 -0.0064
# 2 44.8081 119.8212 33.9130 0.1203 -3.3291 -0.0202
# 3 40.2355 33.9130 114.5064 0.0498 17.2798 -0.0121
# 4 0.0247 0.1203 0.0498 34.6623 -0.0255 -0.4708
# 5 9.2639 -3.3291 17.2798 -0.0255 20.6415 0.0033
# 6 -0.0064 -0.0202 -0.0121 -0.4708 0.0033 10.6766
#
#
#
# Elastic Compliance Matrix: (Units=1/GPa)
#
#
# Indices 1 2 3 4 5 6 
#
# 1 0.009272 -0.003013 -0.001905 0.000004 -0.003052 -0.000001
# 2 -0.003013 0.010429 -0.002848 -0.000026 0.005418 0.000012
# 3 -0.001905 -0.002848 0.011659 -0.000012 -0.009365 0.000009
# 4 0.000004 -0.000026 -0.000012 0.028867 0.000040 0.001273
# 5 -0.003052 0.005418 -0.009365 0.000040 0.058529 -0.000019
# 6 -0.000001 0.000012 0.000009 0.001273 -0.000019 0.093719
#
#
# Mechanical properties :
#
#
# Convention : Reuss Voigt Hill
#
# Bulk Modulus (GPa) = 63.17574 67.32968 65.25271
# Shear Modulus (GPa) = 21.43311 29.80257 25.61784
#
# Velocity S-wave (km/s) = 3.23966 3.82018 3.54184
# Velocity P-wave (km/s) = 6.70298 7.24076 6.97705
#
# Compressibility (1/GPa) = 0.01582886
#
# Stress axis : x y z
#
# Youngs Moduli (GPa) = 107.84916 95.88611 85.76982
#
# Poissons Ratio (x) = 0.28891 0.16340
# Poissons Ratio (y) = 0.32495 0.24424
# Poissons Ratio (z) = 0.20546 0.27305
#
# Static dielectric constant tensor:
#      x y z
#    x 3.395770 0.000020 0.195710 
#    y 0.000020 3.787560 0.000140 
#    z 0.195710 0.000140 4.041660 
# 
# 
# High freq. dielectric constant tensor:
#      x y z
#    x 1.765040 0.000000 0.018310 
#    y 0.000000 1.802320 0.000020 
#    z 0.018310 0.000020 1.820600 
# 
# From -- ./inp_files/206403.got.cif
#   From: 2010.06.25/outbox.cif.g09.slc.cpg/sg15_104_cif.got.tgz:206403.got - 2010.06.28 07:06:18.
