data_PCOD8140555
_publ_section_title
;
Structure prediction by ZEFSAII (Michael W. Deem and Ramdas Pophale) SiO2 
 PCOD8140555
Probable space group: C 2/C
;
_chemical_formula_sum "Si O2"
_cell_formula_units_Z 44
_cell_length_a 11.455034
_cell_length_b 9.631940
_cell_length_c 25.785625
_cell_angle_alpha 90.000000
_cell_angle_beta 45.294639
_cell_angle_gamma 90.000000
_cell_volume 2022.063059
_symmetry_space_group_name_H-M "C 2/C"
_symmetry_group_IT_number 15
_symmetry_cell_setting 'monoclinic'
loop_
_space_group_symop_operation_xyz
x,y,z
-x,y,1/2-z
-x,-y,-z
x,-y,1/2+z
1/2+x,1/2+y,z
1/2-x,1/2+y,1/2-z
1/2-x,1/2-y,-z
1/2+x,1/2-y,1/2+z
loop_
_atom_site_type_symbol
_atom_site_label
_atom_site_fract_x
_atom_site_fract_y
_atom_site_fract_z
Si Si1 0.445354 0.261863 0.659471
Si Si2 0.173759 0.609350 0.178383
Si Si3 0.955127 0.482345 0.596449
Si Si4 0.000000 0.656762 0.750000
Si Si5 0.858957 0.252660 0.914947
Si Si6 0.730676 0.540483 0.071320
O O1 0.308647 0.365225 0.680205
O O2 0.429710 0.254203 0.726552
O O3 0.625597 0.323663 0.589651
O O4 0.413249 0.110010 0.646498
O O5 0.234383 0.674553 0.104673
O O6 0.000000 0.679830 0.250000
O O7 0.145876 0.442738 0.181626
O O8 0.805625 0.447696 0.605330
O O9 0.978831 0.343673 0.623959
O O10 0.122227 0.522222 0.514862
O O11 0.893045 0.092213 0.890369
O O12 0.750000 0.250000 0.000000
#
# Coordination Sequence:
#
# PCOD8140555 Si02
#       6
#     8   8   8   4   8   8
#     4  12  23  42  67  92 124 170 225 261 328 387
#     4  10  23  44  64  89 133 170 216 274 326 391
#     4  10  20  42  64  95 138 160 205 270 322 391
#     4  10  26  44  60  94 128 176 216 280 322 380
#     4  10  20  42  68  95 132 174 206 266 339 388
#     4  10  23  37  66 101 125 168 211 258 331 392
#
# _framework density 21.759955999999999
#
# number of rings (size 3 to 8) (size 9 to 14) (size 15 to 20)
#    0.545    1.091    3.636    0.545    0.000    5.818 
#    1.636    1.818    0.000    0.000    0.000    0.000 
#    0.000    0.000    0.000    0.000    0.000    0.000 
#
# Total GULP energy -272690.819501 kJ/mol
# GULP energy per Si atom -12395.037250 kJ/mol
# Density = 2.171043 g / cm^3
# Si number density = 21.759956 Si / 1000 Ang^3
#
#
#
# Elastic Constant Matrix: (Units=GPa)
#
#
# Indices 1 2 3 4 5 6 
#
# 1 152.0058 34.3305 38.7411 0.0000 14.6183 0.0000
# 2 34.3305 60.5104 -0.2801 0.0000 -0.7774 0.0000
# 3 38.7411 -0.2801 53.3829 0.0000 13.0543 0.0000
# 4 0.0000 0.0000 0.0000 23.5188 0.0000 11.8533
# 5 14.6183 -0.7774 13.0543 0.0000 38.6185 0.0000
# 6 0.0000 0.0000 0.0000 11.8533 0.0000 36.2369
#
#
#
# Elastic Compliance Matrix: (Units=1/GPa)
#
#
# Indices 1 2 3 4 5 6 
#
# 1 0.009679 -0.005542 -0.006683 0.000000 -0.001517 0.000000
# 2 -0.005542 0.019703 0.003832 0.000000 0.001199 0.000000
# 3 -0.006683 0.003832 0.025035 0.000000 -0.005856 0.000000
# 4 0.000000 0.000000 0.000000 0.050913 0.000000 -0.016654
# 5 -0.001517 0.001199 -0.005856 0.000000 0.028472 0.000000
# 6 0.000000 0.000000 0.000000 -0.016654 0.000000 0.033044
#
#
# Mechanical properties :
#
#
# Convention : Reuss Voigt Hill
#
# Bulk Modulus (GPa) = 26.57308 45.72021 36.14665
# Shear Modulus (GPa) = 25.48744 32.54869 29.01806
#
# Velocity S-wave (km/s) = 3.42614 3.87176 3.65575
# Velocity P-wave (km/s) = 5.28107 6.40657 5.87085
#
# Compressibility (1/GPa) = 0.03763207
#
# Stress axis : x y z
#
# Youngs Moduli (GPa) = 103.31202 50.75243 39.94486
#
# Poissons Ratio (x) = 0.28127 0.26694
# Poissons Ratio (y) = 0.57256 -0.15307
# Poissons Ratio (z) = 0.69041 -0.19449
#
# Static dielectric constant tensor:
#      x y z
#    x 4.042140 0.000000 0.232550 
#    y 0.000000 4.153760 0.000000 
#    z 0.232550 0.000000 3.543760 
# 
# 
# High freq. dielectric constant tensor:
#      x y z
#    x 1.863090 0.000000 0.024690 
#    y 0.000000 1.856620 0.000000 
#    z 0.024690 0.000000 1.826710 
# 
# From -- ./inp_files/291440.got.cif
#   From: 2010.06.25/outbox.cif.g09.slc.cpg/sg15_146_cif.got.tgz:291440.got - 2010.06.28 07:06:18.
