data_PCOD8140316
_publ_section_title
;
Structure prediction by ZEFSAII (Michael W. Deem and Ramdas Pophale) SiO2 
 PCOD8140316
Probable space group: C 2/C
;
_chemical_formula_sum "Si O2"
_cell_formula_units_Z 60
_cell_length_a 17.409040
_cell_length_b 28.400297
_cell_length_c 12.329614
_cell_angle_alpha 90.000000
_cell_angle_beta 150.932017
_cell_angle_gamma 90.000000
_cell_volume 2961.738736
_symmetry_space_group_name_H-M "C 2/C"
_symmetry_group_IT_number 15
_symmetry_cell_setting 'monoclinic'
loop_
_space_group_symop_operation_xyz
x,y,z
-x,y,1/2-z
-x,-y,-z
x,-y,1/2+z
1/2+x,1/2+y,z
1/2-x,1/2+y,1/2-z
1/2-x,1/2-y,-z
1/2+x,1/2-y,1/2+z
loop_
_atom_site_type_symbol
_atom_site_label
_atom_site_fract_x
_atom_site_fract_y
_atom_site_fract_z
Si Si1 0.876204 0.459173 0.321172
Si Si2 0.610928 0.312382 0.801194
Si Si3 0.060039 0.291894 0.209613
Si Si4 0.313343 0.438974 0.211330
Si Si5 0.624170 0.609054 0.145910
Si Si6 0.500000 0.889076 0.750000
Si Si7 0.142861 0.967796 0.849310
Si Si8 0.425417 0.132014 0.391265
O O1 0.727980 0.460235 0.221399
O O2 0.000000 0.500000 0.500000
O O3 0.956594 0.408287 0.422826
O O4 0.808150 0.466983 0.117532
O O5 0.500000 0.339859 0.750000
O O6 0.530048 0.263962 0.659064
O O7 0.644375 0.343134 0.737945
O O8 0.755022 0.301544 0.059636
O O9 0.000000 0.311439 0.250000
O O10 0.969165 0.318949 0.002163
O O11 0.445144 0.397582 0.381080
O O12 0.389983 0.479524 0.232424
O O13 0.150405 0.421519 0.959105
O O14 0.666996 0.565348 0.275269
O O15 0.746982 0.614494 0.197674
O O16 0.548726 0.858304 0.705253
O O17 0.000000 0.950941 0.750000
#
# Coordination Sequence:
#
# PCOD8140316 Si02
#       8
#     8   8   8   8   8   4   8   8
#     4  11  24  41  60  87 126 175 214 264 314 379
#     4  10  22  36  66 100 136 161 199 263 329 389
#     4  10  20  41  64 103 130 166 203 256 333 389
#     4  11  25  41  60  88 122 171 222 256 318 372
#     4  12  24  39  64  97 125 166 212 272 323 382
#     4  10  26  46  62  88 122 180 216 264 310 386
#     4  12  24  37  61  92 129 165 214 268 322 372
#     4  11  24  41  67  90 131 166 219 261 319 387
#
# _framework density 20.258369999999999
#
# number of rings (size 3 to 8) (size 9 to 14) (size 15 to 20)
#    0.000    1.067    2.667    4.000    7.467    1.067 
#    0.000    0.000    0.000    3.200    0.000    0.000 
#    0.000    0.000    0.000    0.000    0.000    0.000 
#
# Total GULP energy -371974.546785 kJ/mol
# GULP energy per Si atom -12399.151560 kJ/mol
# Density = 2.021226 g / cm^3
# Si number density = 20.258370 Si / 1000 Ang^3
#
#
#
# Elastic Constant Matrix: (Units=GPa)
#
#
# Indices 1 2 3 4 5 6 
#
# 1 132.5677 29.6753 32.2310 0.0000 5.2745 0.0000
# 2 29.6753 77.8251 30.5825 0.0000 -4.6941 0.0000
# 3 32.2310 30.5825 109.2927 0.0000 0.2109 0.0000
# 4 0.0000 0.0000 0.0000 27.6965 0.0000 1.3327
# 5 5.2745 -4.6941 0.2109 0.0000 33.4560 0.0000
# 6 0.0000 0.0000 0.0000 1.3327 0.0000 23.3268
#
#
#
# Elastic Compliance Matrix: (Units=1/GPa)
#
#
# Indices 1 2 3 4 5 6 
#
# 1 0.008652 -0.002699 -0.001793 0.000000 -0.001731 0.000000
# 2 -0.002699 0.015421 -0.003524 0.000000 0.002611 0.000000
# 3 -0.001793 -0.003524 0.010665 0.000000 -0.000279 0.000000
# 4 0.000000 0.000000 0.000000 0.036205 0.000000 -0.002068
# 5 -0.001731 0.002611 -0.000279 0.000000 0.030531 0.000000
# 6 0.000000 0.000000 0.000000 -0.002068 0.000000 0.042987
#
#
# Mechanical properties :
#
#
# Convention : Reuss Voigt Hill
#
# Bulk Modulus (GPa) = 53.45904 56.07368 54.76636
# Shear Modulus (GPa) = 29.98864 32.04230 31.01547
#
# Velocity S-wave (km/s) = 3.85165 3.98135 3.91704
# Velocity P-wave (km/s) = 6.79899 6.99101 6.89567
#
# Compressibility (1/GPa) = 0.01870591
#
# Stress axis : x y z
#
# Youngs Moduli (GPa) = 115.57590 64.84717 93.76296
#
# Poissons Ratio (x) = 0.17503 0.16812
# Poissons Ratio (y) = 0.31194 0.33044
# Poissons Ratio (z) = 0.20723 0.22853
#
# Static dielectric constant tensor:
#      x y z
#    x 3.942910 0.000000 0.043680 
#    y 0.000000 3.559710 0.000000 
#    z 0.043680 0.000000 3.779130 
# 
# 
# High freq. dielectric constant tensor:
#      x y z
#    x 1.803240 0.000000 0.014540 
#    y 0.000000 1.774370 0.000000 
#    z 0.014540 0.000000 1.790810 
# 
# From -- ./inp_files/108448.got.cif
#   From: 2010.06.25/outbox.cif.g09.slc.cpg/sg15_55_cif.got.tgz:108448.got - 2010.06.28 07:06:18.
