data_PCOD8140012
_publ_section_title
;
Structure prediction by ZEFSAII (Michael W. Deem and Ramdas Pophale) SiO2 
 PCOD8140012
Probable space group: C 2/C
;
_chemical_formula_sum "Si O2"
_cell_formula_units_Z 48
_cell_length_a 16.047028
_cell_length_b 16.348264
_cell_length_c 17.919771
_cell_angle_alpha 90.000000
_cell_angle_beta 31.617852
_cell_angle_gamma 90.000000
_cell_volume 2464.553157
_symmetry_space_group_name_H-M "C 2/C"
_symmetry_group_IT_number 15
_symmetry_cell_setting 'monoclinic'
loop_
_space_group_symop_operation_xyz
x,y,z
-x,y,1/2-z
-x,-y,-z
x,-y,1/2+z
1/2+x,1/2+y,z
1/2-x,1/2+y,1/2-z
1/2-x,1/2-y,-z
1/2+x,1/2-y,1/2+z
loop_
_atom_site_type_symbol
_atom_site_label
_atom_site_fract_x
_atom_site_fract_y
_atom_site_fract_z
Si Si1 0.223532 0.437106 0.693365
Si Si2 0.821507 0.262042 0.366294
Si Si3 0.176205 0.094011 0.218032
Si Si4 0.822061 0.074332 0.525719
Si Si5 0.178340 0.329829 0.591581
Si Si6 0.639896 0.011679 0.037893
O O1 0.270169 0.403020 0.737587
O O2 0.340433 0.510583 0.579537
O O3 0.252808 0.362738 0.612545
O O4 0.049067 0.478694 0.826678
O O5 0.750000 0.250000 0.500000
O O6 0.788401 0.183433 0.340984
O O7 0.730692 0.339077 0.398175
O O8 0.000000 0.282792 0.250000
O O9 0.988039 0.078160 0.354056
O O10 0.277058 0.023340 0.099874
O O11 0.684023 0.047247 0.573204
O O12 0.250000 0.250000 0.500000
O O13 0.203522 0.397964 0.508384
O O14 0.000000 0.309945 0.750000
#
# Coordination Sequence:
#
# PCOD8140012 Si02
#       6
#     8   8   8   8   8   8
#     4  10  23  41  60  89 124 156 202 260 308 349
#     4  12  22  40  62  91 124 164 207 247 302 377
#     4  12  23  39  58  97 126 151 205 258 307 358
#     4  11  22  40  64  87 122 166 204 246 301 371
#     4   9  20  40  60  83 111 157 209 242 290 365
#     4  10  20  40  65  83 117 164 205 243 299 376
#
# _framework density 19.476147000000001
#
# number of rings (size 3 to 8) (size 9 to 14) (size 15 to 20)
#    0.000    1.333    3.333    4.000    0.000    2.667 
#    9.000    0.000    0.000    0.000    0.000    0.000 
#    0.000    0.000    0.000    0.000    0.000    0.000 
#
# Total GULP energy -297440.717253 kJ/mol
# GULP energy per Si atom -12393.363219 kJ/mol
# Density = 1.943182 g / cm^3
# Si number density = 19.476147 Si / 1000 Ang^3
#
#
#
# Elastic Constant Matrix: (Units=GPa)
#
#
# Indices 1 2 3 4 5 6 
#
# 1 85.1411 50.2352 36.6528 -0.0223 18.2832 0.0238
# 2 50.2352 167.5935 76.9743 -0.0059 20.1789 0.0153
# 3 36.6528 76.9743 113.7191 -0.0022 11.6556 0.0271
# 4 -0.0223 -0.0059 -0.0022 47.8761 0.0077 7.8698
# 5 18.2832 20.1789 11.6556 0.0077 34.3209 -0.0177
# 6 0.0238 0.0153 0.0271 7.8698 -0.0177 22.9651
#
#
#
# Elastic Compliance Matrix: (Units=1/GPa)
#
#
# Indices 1 2 3 4 5 6 
#
# 1 0.015788 -0.002852 -0.002557 0.000011 -0.005866 -0.000020
# 2 -0.002852 0.009530 -0.005297 0.000000 -0.002285 0.000001
# 3 -0.002557 -0.005297 0.013204 0.000000 -0.000007 -0.000010
# 4 0.000011 0.000000 0.000000 0.022134 -0.000015 -0.007585
# 5 -0.005866 -0.002285 -0.000007 -0.000015 0.033607 0.000039
# 6 -0.000020 0.000001 -0.000010 -0.007585 0.000039 0.046144
#
#
# Mechanical properties :
#
#
# Convention : Reuss Voigt Hill
#
# Bulk Modulus (GPa) = 58.44582 77.13091 67.78836
# Shear Modulus (GPa) = 29.84677 34.53853 32.19265
#
# Velocity S-wave (km/s) = 3.91893 4.21572 4.07003
# Velocity P-wave (km/s) = 7.10996 7.96147 7.54773
#
# Compressibility (1/GPa) = 0.01710986
#
# Stress axis : x y z
#
# Youngs Moduli (GPa) = 63.33832 104.93610 75.73404
#
# Poissons Ratio (x) = 0.29924 0.19367
# Poissons Ratio (y) = 0.18062 0.40117
# Poissons Ratio (z) = 0.16197 0.55586
#
# Static dielectric constant tensor:
#      x y z
#    x 3.364330 0.000000 0.024850 
#    y 0.000000 3.568740 0.000000 
#    z 0.024850 0.000000 3.661320 
# 
# 
# High freq. dielectric constant tensor:
#      x y z
#    x 1.740820 0.000000 -0.000300 
#    y 0.000000 1.766860 0.000000 
#    z -0.000300 0.000000 1.771560 
# 
# From -- ./inp_files/66472.got.cif
#   From: 2010.06.25/outbox.cif.g09.slc.cpg/sg15_34_cif.got.tgz:66472.got - 2010.06.28 07:06:18.
