data_PCOD8140182
_publ_section_title
;
Structure prediction by ZEFSAII (Michael W. Deem and Ramdas Pophale) SiO2 
 PCOD8140182
Probable space group: C 2/C
;
_chemical_formula_sum "Si O2"
_cell_formula_units_Z 64
_cell_length_a 13.349446
_cell_length_b 9.567277
_cell_length_c 26.737594
_cell_angle_alpha 90.000000
_cell_angle_beta 125.602279
_cell_angle_gamma 90.000000
_cell_volume 2776.552663
_symmetry_space_group_name_H-M "C 2/C"
_symmetry_group_IT_number 15
_symmetry_cell_setting 'monoclinic'
loop_
_space_group_symop_operation_xyz
x,y,z
-x,y,1/2-z
-x,-y,-z
x,-y,1/2+z
1/2+x,1/2+y,z
1/2-x,1/2+y,1/2-z
1/2-x,1/2-y,-z
1/2+x,1/2-y,1/2+z
loop_
_atom_site_type_symbol
_atom_site_label
_atom_site_fract_x
_atom_site_fract_y
_atom_site_fract_z
Si Si1 0.252849 0.247188 0.302324
Si Si2 0.289045 0.499748 0.644996
Si Si3 0.381964 0.812104 0.051002
Si Si4 0.630988 0.264347 0.265196
Si Si5 0.439794 0.649641 0.470913
Si Si6 0.113285 0.429573 0.006219
Si Si7 0.290978 0.537887 0.346445
Si Si8 0.482541 0.343523 0.827697
O O1 0.357157 0.282408 0.291088
O O2 0.255914 0.376417 0.341376
O O3 0.118039 0.227618 0.238000
O O4 0.289723 0.117874 0.348322
O O5 0.278365 0.629390 0.679928
O O6 0.232750 0.541110 0.575442
O O7 0.429152 0.445687 0.678302
O O8 0.475371 0.743477 0.039278
O O9 0.431087 0.774870 0.120868
O O10 0.250000 0.750000 0.000000
O O11 0.372533 0.982425 0.041525
O O12 0.500000 0.294583 0.250000
O O13 0.671743 0.106728 0.287121
O O14 0.500000 0.500000 0.500000
O O15 0.405083 0.759389 0.506236
O O16 0.312998 0.606603 0.406968
O O17 0.000000 0.500000 0.000000
O O18 0.412821 0.562349 0.348248
#
# Coordination Sequence:
#
# PCOD8140182 Si02
#       8
#     8   8   8   8   8   8   8   8
#     4  11  24  38  62  97 125 169 221 262 329 394
#     4  12  22  41  70  91 130 174 220 264 327 402
#     4  10  20  40  68  96 131 167 216 279 321 396
#     4  11  22  41  62  88 129 169 210 265 326 396
#     4  10  22  41  64  88 131 172 214 272 332 382
#     4  10  22  39  66  99 123 172 227 260 332 398
#     4  10  22  40  60  90 132 166 208 274 325 383
#     4  10  22  41  65  96 132 173 218 267 332 395
#
# _framework density 23.050165
#
# number of rings (size 3 to 8) (size 9 to 14) (size 15 to 20)
#    0.000    1.500    2.500    3.375    5.250    1.000 
#    0.000    0.625    0.000    0.000    0.000    0.000 
#    0.000    0.000    0.000    0.000    0.000    0.000 
#
# Total GULP energy -396458.444423 kJ/mol
# GULP energy per Si atom -12389.326388 kJ/mol
# Density = 2.299770 g / cm^3
# Si number density = 23.050165 Si / 1000 Ang^3
#
#
#
# Elastic Constant Matrix: (Units=GPa)
#
#
# Indices 1 2 3 4 5 6 
#
# 1 49.9795 14.0930 2.7695 0.0000 6.7073 0.0000
# 2 14.0930 159.5654 31.8735 0.0000 -1.7558 0.0000
# 3 2.7695 31.8735 56.6230 0.0000 8.2413 0.0000
# 4 0.0000 0.0000 0.0000 40.5999 0.0000 -4.6588
# 5 6.7073 -1.7558 8.2413 0.0000 26.2817 0.0000
# 6 0.0000 0.0000 0.0000 -4.6588 0.0000 24.9182
#
#
#
# Elastic Compliance Matrix: (Units=1/GPa)
#
#
# Indices 1 2 3 4 5 6 
#
# 1 0.021353 -0.002157 0.001031 0.000000 -0.005917 0.000000
# 2 -0.002157 0.007361 -0.004390 0.000000 0.002419 0.000000
# 3 0.001031 -0.004390 0.021127 0.000000 -0.007181 0.000000
# 4 0.000000 0.000000 0.000000 0.025171 0.000000 0.004706
# 5 -0.005917 0.002419 -0.007181 0.000000 0.041973 0.000000
# 6 0.000000 0.000000 0.000000 0.004706 0.000000 0.041011
#
#
# Mechanical properties :
#
#
# Convention : Reuss Voigt Hill
#
# Bulk Modulus (GPa) = 25.76742 40.40445 33.08593
# Shear Modulus (GPa) = 27.47791 32.85541 30.16666
#
# Velocity S-wave (km/s) = 3.45641 3.77953 3.62158
# Velocity P-wave (km/s) = 5.20886 6.05090 5.64560
#
# Compressibility (1/GPa) = 0.03880870
#
# Stress axis : x y z
#
# Youngs Moduli (GPa) = 46.83108 135.84931 47.33345
#
# Poissons Ratio (x) = 0.29303 -0.04880
# Poissons Ratio (y) = 0.10101 0.20780
# Poissons Ratio (z) = -0.04828 0.59640
#
# Static dielectric constant tensor:
#      x y z
#    x 3.917640 0.000000 0.056400 
#    y 0.000000 4.552230 0.000000 
#    z 0.056400 0.000000 4.316860 
# 
# 
# High freq. dielectric constant tensor:
#      x y z
#    x 1.888400 0.000000 0.008300 
#    y 0.000000 1.923270 0.000000 
#    z 0.008300 0.000000 1.904020 
# 
# From -- ./inp_files/313187.got.cif
#   From: 2010.06.25/outbox.cif.g09.slc.cpg/sg15_157_cif.got.tgz:313187.got - 2010.06.28 07:06:18.
