data_PCOD8140589
_publ_section_title
;
Structure prediction by ZEFSAII (Michael W. Deem and Ramdas Pophale) SiO2 
 PCOD8140589
Probable space group: C 2/C
;
_chemical_formula_sum "Si O2"
_cell_formula_units_Z 64
_cell_length_a 26.588312
_cell_length_b 20.260549
_cell_length_c 19.775905
_cell_angle_alpha 90.000000
_cell_angle_beta 161.636202
_cell_angle_gamma 90.000000
_cell_volume 3356.271183
_symmetry_space_group_name_H-M "C 2/C"
_symmetry_group_IT_number 15
_symmetry_cell_setting 'monoclinic'
loop_
_space_group_symop_operation_xyz
x,y,z
-x,y,1/2-z
-x,-y,-z
x,-y,1/2+z
1/2+x,1/2+y,z
1/2-x,1/2+y,1/2-z
1/2-x,1/2-y,-z
1/2+x,1/2-y,1/2+z
loop_
_atom_site_type_symbol
_atom_site_label
_atom_site_fract_x
_atom_site_fract_y
_atom_site_fract_z
Si Si1 0.405802 0.116166 0.813625
Si Si2 0.627974 0.868188 0.471995
Si Si3 0.377380 0.113033 0.288375
Si Si4 0.313715 0.500698 0.019499
Si Si5 0.352509 0.255145 0.792757
Si Si6 0.214629 0.746391 0.262170
Si Si7 0.099142 0.635965 0.444289
Si Si8 0.685576 0.994590 0.002338
O O1 0.281542 0.065853 0.623169
O O2 0.308075 0.181622 0.710405
O O3 0.542293 0.135478 0.934577
O O4 0.498117 0.086185 0.996399
O O5 0.751485 0.808272 0.622234
O O6 0.729542 0.936609 0.595549
O O7 0.500000 0.859838 0.250000
O O8 0.286683 0.177879 0.198802
O O9 0.475852 0.130296 0.347690
O O10 0.243312 0.058772 0.101177
O O11 0.500000 0.513642 0.250000
O O12 0.284025 0.484206 0.059710
O O13 0.325087 0.261001 0.837662
O O14 0.538143 0.268227 0.014645
O O15 0.285174 0.802126 0.400851
O O16 0.208662 0.569347 0.579798
O O17 0.000000 0.645855 0.250000
O O18 0.500000 0.000512 0.750000
#
# Coordination Sequence:
#
# PCOD8140589 Si02
#       8
#     8   8   8   8   8   8   8   8
#     4  11  22  43  68  93 129 177 210 260 332 383
#     4  11  21  42  71  91 125 179 217 258 322 389
#     4  11  22  43  68  93 129 177 210 260 332 383
#     4  12  25  42  66 104 131 156 223 282 310 380
#     4  11  23  42  63  97 133 164 216 269 314 379
#     4  11  23  42  63  97 133 164 216 269 314 379
#     4  11  21  42  71  91 125 179 217 258 322 389
#     4  10  20  42  66  88 129 167 212 258 321 381
#
# _framework density 19.068781000000001
#
# number of rings (size 3 to 8) (size 9 to 14) (size 15 to 20)
#    0.000    1.000   10.000    0.375    0.000    4.000 
#    0.000    0.625    0.000    0.000    0.000    0.000 
#    0.000    0.000    0.000    0.000    0.000    0.000 
#
# Total GULP energy -396810.684697 kJ/mol
# GULP energy per Si atom -12400.333897 kJ/mol
# Density = 1.902538 g / cm^3
# Si number density = 19.068781 Si / 1000 Ang^3
#
#
#
# Elastic Constant Matrix: (Units=GPa)
#
#
# Indices 1 2 3 4 5 6 
#
# 1 79.8118 5.1298 -4.1198 -0.0011 -1.8672 -0.0017
# 2 5.1298 130.8832 24.3773 -0.0028 -6.5247 -0.0016
# 3 -4.1198 24.3773 60.2320 -0.0072 2.4447 -0.0042
# 4 -0.0011 -0.0028 -0.0072 85.6578 -0.0034 5.9424
# 5 -1.8672 -6.5247 2.4447 -0.0034 25.5582 -0.0019
# 6 -0.0017 -0.0016 -0.0042 5.9424 -0.0019 38.5206
#
#
#
# Elastic Compliance Matrix: (Units=1/GPa)
#
#
# Indices 1 2 3 4 5 6 
#
# 1 0.012645 -0.000670 0.001110 0.000000 0.000647 0.000001
# 2 -0.000670 0.008453 -0.003566 0.000000 0.002450 0.000000
# 3 0.001110 -0.003566 0.018226 0.000001 -0.002573 0.000002
# 4 0.000000 0.000000 0.000001 0.011801 0.000001 -0.001820
# 5 0.000647 0.002450 -0.002573 0.000001 0.040045 0.000002
# 6 0.000001 0.000000 0.000002 -0.001820 0.000002 0.026241
#
#
# Mechanical properties :
#
#
# Convention : Reuss Voigt Hill
#
# Bulk Modulus (GPa) = 30.23803 35.74461 32.99132
# Shear Modulus (GPa) = 37.12281 46.31664 41.71972
#
# Velocity S-wave (km/s) = 4.41703 4.93376 4.68253
# Velocity P-wave (km/s) = 6.47343 7.15833 6.82448
#
# Compressibility (1/GPa) = 0.03307094
#
# Stress axis : x y z
#
# Youngs Moduli (GPa) = 79.08293 118.30032 54.86600
#
# Poissons Ratio (x) = 0.07927 -0.06089
# Poissons Ratio (y) = 0.05299 0.19568
# Poissons Ratio (z) = -0.08777 0.42191
#
# Static dielectric constant tensor:
#      x y z
#    x 4.087580 0.000000 -0.182950 
#    y 0.000000 4.037580 0.000000 
#    z -0.182950 0.000000 3.277030 
# 
# 
# High freq. dielectric constant tensor:
#      x y z
#    x 1.755150 0.000000 0.000430 
#    y 0.000000 1.758320 0.000000 
#    z 0.000430 0.000000 1.716270 
# 
# From -- ./inp_files/220273.got.cif
#   From: 2010.06.25/outbox.cif.g09.slc.cpg/sg15_111_cif.got.tgz:220273.got - 2010.06.28 07:06:18.
