data_PCOD8140133
_publ_section_title
;
Structure prediction by ZEFSAII (Michael W. Deem and Ramdas Pophale) SiO2 
 PCOD8140133
Probable space group: C 2/C
;
_chemical_formula_sum "Si O2"
_cell_formula_units_Z 60
_cell_length_a 13.098757
_cell_length_b 18.672169
_cell_length_c 26.473106
_cell_angle_alpha 90.000000
_cell_angle_beta 153.733600
_cell_angle_gamma 90.000000
_cell_volume 2865.415278
_symmetry_space_group_name_H-M "C 2/C"
_symmetry_group_IT_number 15
_symmetry_cell_setting 'monoclinic'
loop_
_space_group_symop_operation_xyz
x,y,z
-x,y,1/2-z
-x,-y,-z
x,-y,1/2+z
1/2+x,1/2+y,z
1/2-x,1/2+y,1/2-z
1/2-x,1/2-y,-z
1/2+x,1/2-y,1/2+z
loop_
_atom_site_type_symbol
_atom_site_label
_atom_site_fract_x
_atom_site_fract_y
_atom_site_fract_z
Si Si1 0.242341 0.993423 0.831902
Si Si2 0.757965 0.059679 0.352766
Si Si3 0.765520 0.884841 0.750927
Si Si4 0.042304 0.909040 0.072049
Si Si5 0.044318 0.621096 0.525308
Si Si6 0.214595 0.669256 0.500525
Si Si7 0.180927 0.218462 0.415087
Si Si8 0.000000 0.676532 0.750000
O O1 0.224845 0.966934 0.766018
O O2 0.000000 0.993145 0.750000
O O3 0.338833 0.074424 0.878028
O O4 0.391842 0.934350 0.926656
O O5 0.500000 0.032412 0.250000
O O6 0.750613 0.116082 0.304360
O O7 0.870709 0.103466 0.448798
O O8 0.917461 0.993822 0.406119
O O9 0.542969 0.845757 0.631373
O O10 0.994322 0.843962 0.835886
O O11 0.285584 0.870741 0.172718
O O12 0.910111 0.881404 0.062999
O O13 0.226917 0.656496 0.566742
O O14 0.907453 0.685720 0.489975
O O15 0.250000 0.750000 0.500000
O O16 0.250000 0.250000 0.500000
O O17 0.077374 0.278521 0.332762
#
# Coordination Sequence:
#
# PCOD8140133 Si02
#       8
#     8   8   8   8   8   8   8   4
#     4  10  20  40  67  92 126 165 216 282 338 398
#     4  11  23  44  65  97 137 165 227 290 331 409
#     4  11  23  40  69  90 128 178 212 278 345 388
#     4  11  24  42  68 100 127 181 223 275 346 397
#     4  10  23  41  64  99 126 170 223 275 337 401
#     4  11  23  41  66  94 136 175 219 267 342 413
#     4  12  25  44  68  99 137 182 232 276 336 423
#     4  12  24  46  72  92 138 180 228 278 330 422
#
# _framework density 20.939371999999999
#
# number of rings (size 3 to 8) (size 9 to 14) (size 15 to 20)
#    0.000    1.067    3.333    4.000    1.867    2.133 
#    2.400    0.000    0.000    0.000    0.000    0.000 
#    0.000    0.000    0.000    0.000    0.000    0.000 
#
# Total GULP energy -371967.436303 kJ/mol
# GULP energy per Si atom -12398.914543 kJ/mol
# Density = 2.089171 g / cm^3
# Si number density = 20.939372 Si / 1000 Ang^3
#
#
#
# Elastic Constant Matrix: (Units=GPa)
#
#
# Indices 1 2 3 4 5 6 
#
# 1 144.4887 52.1028 36.0813 -0.0394 12.1017 0.0120
# 2 52.1028 95.8877 26.6870 -0.0441 5.3395 0.0140
# 3 36.0813 26.6870 114.1482 0.0025 6.7853 0.0023
# 4 -0.0394 -0.0441 0.0025 -529.0921 -0.0233 180.4545
# 5 12.1017 5.3395 6.7853 -0.0233 38.3872 0.0067
# 6 0.0120 0.0140 0.0023 180.4545 0.0067 -19.4881
#
#
#
# Elastic Compliance Matrix: (Units=1/GPa)
#
#
# Indices 1 2 3 4 5 6 
#
# 1 0.009085 -0.004344 -0.001740 0.000000 -0.001952 0.000000
# 2 -0.004344 0.013278 -0.001721 -0.000001 -0.000173 0.000000
# 3 -0.001740 -0.001721 0.009769 0.000000 -0.000939 -0.000001
# 4 0.000000 -0.000001 0.000000 0.000876 -0.000001 0.008109
# 5 -0.001952 -0.000173 -0.000939 -0.000001 0.026856 0.000001
# 6 0.000000 0.000000 -0.000001 0.008109 0.000001 0.023776
#
#
# Mechanical properties :
#
#
# Convention : Reuss Voigt Hill
#
# Bulk Modulus (GPa) = 60.52481 64.91854 62.72168
# Shear Modulus (GPa) = 47.72951 -86.06169 -19.16609
#
# Velocity S-wave (km/s) = 4.77950 -6.41792 -3.02870
# Velocity P-wave (km/s) = 7.70881 4.88356 4.21762
#
# Compressibility (1/GPa) = 0.01652215
#
# Stress axis : x y z
#
# Youngs Moduli (GPa) = 110.06676 75.31407 102.36717
#
# Poissons Ratio (x) = 0.32714 0.17814
# Poissons Ratio (y) = 0.47810 0.17617
# Poissons Ratio (z) = 0.19154 0.12961
#
# Static dielectric constant tensor:
#      x y z
#    x 4.078320 0.000000 -0.024360 
#    y 0.000000 4.154330 0.000000 
#    z -0.024360 0.000000 3.753800 
# 
# 
# High freq. dielectric constant tensor:
#      x y z
#    x 1.829970 0.000000 0.006240 
#    y 0.000000 1.817570 0.000000 
#    z 0.006240 0.000000 1.826360 
# 
# From -- ./inp_files/293561.got.cif
#   From: 2010.06.25/outbox.cif.g09.slc.cpg/sg15_147_cif.got.tgz:293561.got - 2010.06.28 07:06:18.
