data_PCOD8140463
_publ_section_title
;
Structure prediction by ZEFSAII (Michael W. Deem and Ramdas Pophale) SiO2 
 PCOD8140463
Probable space group: C 2/C
;
_chemical_formula_sum "Si O2"
_cell_formula_units_Z 44
_cell_length_a 14.449885
_cell_length_b 13.823047
_cell_length_c 14.002690
_cell_angle_alpha 90.000000
_cell_angle_beta 46.204088
_cell_angle_gamma 90.000000
_cell_volume 2018.841899
_symmetry_space_group_name_H-M "C 2/C"
_symmetry_group_IT_number 15
_symmetry_cell_setting 'monoclinic'
loop_
_space_group_symop_operation_xyz
x,y,z
-x,y,1/2-z
-x,-y,-z
x,-y,1/2+z
1/2+x,1/2+y,z
1/2-x,1/2+y,1/2-z
1/2-x,1/2-y,-z
1/2+x,1/2-y,1/2+z
loop_
_atom_site_type_symbol
_atom_site_label
_atom_site_fract_x
_atom_site_fract_y
_atom_site_fract_z
Si Si1 0.500000 0.499612 0.250000
Si Si2 0.232788 0.406499 0.969432
Si Si3 0.836154 0.398984 0.272767
Si Si4 0.471504 0.205608 0.998167
Si Si5 0.024531 0.545348 0.085389
Si Si6 0.064336 0.914504 0.398176
O O1 0.381423 0.574452 0.342512
O O2 0.513490 0.424307 0.327186
O O3 0.213437 0.360702 0.089242
O O4 0.168049 0.332898 0.938950
O O5 0.165826 0.512817 0.017021
O O6 0.717944 0.423475 0.287777
O O7 0.924855 0.318168 0.158612
O O8 0.917106 0.498505 0.231730
O O9 0.507780 0.159331 0.076983
O O10 0.474732 0.318014 0.017826
O O11 0.000000 0.500000 0.000000
O O12 0.000000 0.000000 0.500000
#
# Coordination Sequence:
#
# PCOD8140463 Si02
#       6
#     4   8   8   8   8   8
#     4  12  24  46  68 100 154 182 220 278 364 412
#     4  10  20  41  70 101 132 179 225 286 345 400
#     4  10  20  42  68 100 134 174 232 280 342 402
#     4  10  22  41  70  98 132 178 236 279 332 416
#     4   8  16  36  64  92 128 174 225 277 326 407
#     4  12  26  46  64 100 142 184 219 285 352 405
#
# _framework density 21.794674000000001
#
# number of rings (size 3 to 8) (size 9 to 14) (size 15 to 20)
#    0.000    2.182    1.818    5.455    0.000    3.636 
#    6.545    1.818    0.000    0.000    0.000    0.000 
#    0.000    0.000    0.000    0.000    0.000    0.000 
#
# Total GULP energy -272588.918757 kJ/mol
# GULP energy per Si atom -12390.405398 kJ/mol
# Density = 2.174507 g / cm^3
# Si number density = 21.794674 Si / 1000 Ang^3
#
#
#
# Elastic Constant Matrix: (Units=GPa)
#
#
# Indices 1 2 3 4 5 6 
#
# 1 131.4742 49.9760 56.6791 0.0000 -13.2980 0.0000
# 2 49.9760 145.0498 55.9656 0.0000 -7.0161 0.0000
# 3 56.6791 55.9656 125.1753 0.0000 -11.3943 0.0000
# 4 0.0000 0.0000 0.0000 23.1274 0.0000 6.6687
# 5 -13.2980 -7.0161 -11.3943 0.0000 46.8564 0.0000
# 6 0.0000 0.0000 0.0000 6.6687 0.0000 25.2254
#
#
#
# Elastic Compliance Matrix: (Units=1/GPa)
#
#
# Indices 1 2 3 4 5 6 
#
# 1 0.010056 -0.002037 -0.003488 0.000000 0.001701 0.000000
# 2 -0.002037 0.008750 -0.002989 0.000000 0.000005 0.000000
# 3 -0.003488 -0.002989 0.011018 0.000000 0.001242 0.000000
# 4 0.000000 0.000000 0.000000 0.046807 0.000000 -0.012374
# 5 0.001701 0.000005 0.001242 0.000000 0.022127 0.000000
# 6 0.000000 0.000000 0.000000 -0.012374 0.000000 0.042914
#
#
# Mechanical properties :
#
#
# Convention : Reuss Voigt Hill
#
# Bulk Modulus (GPa) = 78.15259 80.77117 79.46188
# Shear Modulus (GPa) = 30.68170 34.98040 32.83105
#
# Velocity S-wave (km/s) = 3.75609 4.01059 3.88542
# Velocity P-wave (km/s) = 7.39914 7.65421 7.52776
#
# Compressibility (1/GPa) = 0.01279548
#
# Stress axis : x y z
#
# Youngs Moduli (GPa) = 99.44408 114.29214 90.76385
#
# Poissons Ratio (x) = 0.23278 0.31657
# Poissons Ratio (y) = 0.20254 0.27131
# Poissons Ratio (z) = 0.34685 0.34164
#
# Static dielectric constant tensor:
#      x y z
#    x 4.230700 0.000000 0.213440 
#    y 0.000000 4.739270 0.000000 
#    z 0.213440 0.000000 4.323490 
# 
# 
# High freq. dielectric constant tensor:
#      x y z
#    x 1.867050 0.000000 -0.002030 
#    y 0.000000 1.827920 0.000000 
#    z -0.002030 0.000000 1.858670 
# 
# From -- ./inp_files/153229.got.cif
#   From: 2010.06.25/outbox.cif.g09.slc.cpg/sg15_77_cif.got.tgz:153229.got - 2010.06.28 07:06:18.
