data_PCOD8140466
_publ_section_title
;
Structure prediction by ZEFSAII (Michael W. Deem and Ramdas Pophale) SiO2 
 PCOD8140466
Probable space group: C 2/C
;
_chemical_formula_sum "Si O2"
_cell_formula_units_Z 48
_cell_length_a 5.185594
_cell_length_b 17.291491
_cell_length_c 23.673499
_cell_angle_alpha 90.000000
_cell_angle_beta 62.729505
_cell_angle_gamma 90.000000
_cell_volume 1886.789697
_symmetry_space_group_name_H-M "C 2/C"
_symmetry_group_IT_number 15
_symmetry_cell_setting 'monoclinic'
loop_
_space_group_symop_operation_xyz
x,y,z
-x,y,1/2-z
-x,-y,-z
x,-y,1/2+z
1/2+x,1/2+y,z
1/2-x,1/2+y,1/2-z
1/2-x,1/2-y,-z
1/2+x,1/2-y,1/2+z
loop_
_atom_site_type_symbol
_atom_site_label
_atom_site_fract_x
_atom_site_fract_y
_atom_site_fract_z
Si Si1 0.907927 0.010223 0.906650
Si Si2 0.294752 0.637069 0.098960
Si Si3 0.722298 0.155431 0.981524
Si Si4 0.132420 0.285141 0.082411
Si Si5 0.223515 0.554732 0.310053
Si Si6 0.954843 0.398915 0.314405
O O1 0.132126 0.069590 0.855845
O O2 0.709197 0.064916 0.965740
O O3 0.045724 0.943905 0.932252
O O4 0.746490 0.962328 0.874394
O O5 0.515652 0.698299 0.105767
O O6 0.038427 0.616941 0.169562
O O7 0.156828 0.666950 0.054160
O O8 0.456248 0.194826 0.973769
O O9 0.026545 0.200828 0.940020
O O10 0.957831 0.342192 0.142698
O O11 0.500000 0.590933 0.250000
O O12 0.164150 0.472695 0.286996
O O13 0.000000 0.354240 0.250000
#
# Coordination Sequence:
#
# PCOD8140466 Si02
#       6
#     8   8   8   8   8   8
#     4  10  22  40  68  98 135 181 238 290 350 422
#     4  11  26  40  68 105 144 180 232 297 362 419
#     4  11  24  45  70 104 143 189 231 286 355 438
#     4  11  25  44  70 105 140 187 231 287 362 426
#     4  11  22  41  73  93 135 184 243 295 354 415
#     4  10  20  41  70  96 129 185 241 291 344 431
#
# _framework density 25.440037
#
# number of rings (size 3 to 8) (size 9 to 14) (size 15 to 20)
#    0.000    1.333    3.333    1.500    4.667    0.667 
#    0.000    0.833   11.000    0.000    0.000    0.000 
#    0.000    0.000    0.000    0.000    0.000    0.000 
#
# Total GULP energy -297468.082083 kJ/mol
# GULP energy per Si atom -12394.503420 kJ/mol
# Density = 2.538213 g / cm^3
# Si number density = 25.440037 Si / 1000 Ang^3
#
#
#
# Elastic Constant Matrix: (Units=GPa)
#
#
# Indices 1 2 3 4 5 6 
#
# 1 95.8068 29.5588 -0.8091 0.0000 -0.8167 0.0000
# 2 29.5588 129.7749 31.2122 0.0000 -17.1473 0.0000
# 3 -0.8091 31.2122 55.1205 0.0000 6.2425 0.0000
# 4 0.0000 0.0000 0.0000 9.0948 0.0000 -4.9637
# 5 -0.8167 -17.1473 6.2425 0.0000 44.2005 0.0000
# 6 0.0000 0.0000 0.0000 -4.9637 0.0000 30.3438
#
#
#
# Elastic Compliance Matrix: (Units=1/GPa)
#
#
# Indices 1 2 3 4 5 6 
#
# 1 0.011471 -0.003328 0.002211 0.000000 -0.001391 0.000000
# 2 -0.003328 0.010744 -0.006705 0.000000 0.005054 0.000000
# 3 0.002211 -0.006705 0.022623 0.000000 -0.005755 0.000000
# 4 0.000000 0.000000 0.000000 0.120732 0.000000 0.019749
# 5 -0.001391 0.005054 -0.005755 0.000000 0.025372 0.000000
# 6 0.000000 0.000000 0.000000 0.019749 0.000000 0.036186
#
#
# Mechanical properties :
#
#
# Convention : Reuss Voigt Hill
#
# Bulk Modulus (GPa) = 34.25471 44.51398 39.38435
# Shear Modulus (GPa) = 19.80158 31.44385 25.62272
#
# Velocity S-wave (km/s) = 2.79294 3.51949 3.17705
# Velocity P-wave (km/s) = 4.88823 5.83535 5.38267
#
# Compressibility (1/GPa) = 0.02919306
#
# Stress axis : x y z
#
# Youngs Moduli (GPa) = 87.17356 93.07405 44.20253
#
# Poissons Ratio (x) = 0.30979 -0.09772
# Poissons Ratio (y) = 0.29015 0.29638
# Poissons Ratio (z) = -0.19271 0.62407
#
# Static dielectric constant tensor:
#      x y z
#    x 4.663450 0.000000 0.076730 
#    y 0.000000 4.895940 0.000000 
#    z 0.076730 0.000000 4.374190 
# 
# 
# High freq. dielectric constant tensor:
#      x y z
#    x 2.016180 0.000000 -0.000400 
#    y 0.000000 2.020670 0.000000 
#    z -0.000400 0.000000 2.001710 
# 
# From -- ./inp_files/227372.got.cif
#   From: 2010.06.25/outbox.cif.g09.slc.cpg/sg15_114_cif.got.tgz:227372.got - 2010.06.28 07:06:18.
