data_PCOD8140016
_publ_section_title
;
Structure prediction by ZEFSAII (Michael W. Deem and Ramdas Pophale) SiO2 
 PCOD8140016
Probable space group: C 2/C
;
_chemical_formula_sum "Si O2"
_cell_formula_units_Z 64
_cell_length_a 15.275701
_cell_length_b 17.054161
_cell_length_c 17.923295
_cell_angle_alpha 90.000000
_cell_angle_beta 43.576280
_cell_angle_gamma 90.000000
_cell_volume 3218.622481
_symmetry_space_group_name_H-M "C 2/C"
_symmetry_group_IT_number 15
_symmetry_cell_setting 'monoclinic'
loop_
_space_group_symop_operation_xyz
x,y,z
-x,y,1/2-z
-x,-y,-z
x,-y,1/2+z
1/2+x,1/2+y,z
1/2-x,1/2+y,1/2-z
1/2-x,1/2-y,-z
1/2+x,1/2-y,1/2+z
loop_
_atom_site_type_symbol
_atom_site_label
_atom_site_fract_x
_atom_site_fract_y
_atom_site_fract_z
Si Si1 0.055545 0.455009 0.136179
Si Si2 0.404475 0.104392 0.243334
Si Si3 0.414711 0.320013 0.729316
Si Si4 0.534428 0.821555 0.400956
Si Si5 0.366927 0.781938 0.633478
Si Si6 0.193849 0.887918 0.303805
Si Si7 0.466960 0.501699 0.184157
Si Si8 0.793700 0.998567 0.564246
O O1 0.202715 0.475897 0.052853
O O2 0.000000 0.427280 0.250000
O O3 0.970338 0.529377 0.161272
O O4 0.061020 0.382614 0.077647
O O5 0.500000 0.132558 0.250000
O O6 0.370944 0.175044 0.210100
O O7 0.267325 0.078747 0.360632
O O8 0.500000 0.306943 0.750000
O O9 0.475538 0.263930 0.629716
O O10 0.265160 0.297865 0.830197
O O11 0.424560 0.409294 0.696148
O O12 0.488552 0.813307 0.513765
O O13 0.671182 0.859559 0.309237
O O14 0.389734 0.689958 0.633488
O O15 0.146082 0.943330 0.266771
O O16 0.196301 0.932860 0.380790
O O17 0.500000 0.487048 0.250000
O O18 0.574545 0.479597 0.057221
#
# Coordination Sequence:
#
# PCOD8140016 Si02
#       8
#     8   8   8   8   8   8   8   8
#     4   9  18  35  63  89 117 156 200 241 306 363
#     4   9  20  40  62  89 117 157 208 256 303 355
#     4  10  24  40  56  91 131 159 197 251 308 373
#     4  11  22  38  64  92 125 157 203 255 300 363
#     4  11  25  38  61  94 122 160 208 257 301 352
#     4  11  23  41  61  88 125 167 202 244 309 372
#     4  11  25  41  61  89 122 161 208 249 304 364
#     4  10  20  40  65  86 119 167 197 246 312 374
#
# _framework density 19.884283
#
# number of rings (size 3 to 8) (size 9 to 14) (size 15 to 20)
#    0.000    2.000    2.500    2.250    5.250    5.500 
#    0.000    0.000    0.000    7.500    0.000    0.000 
#    0.000    0.000    0.000    0.000    0.000    0.000 
#
# Total GULP energy -396652.415003 kJ/mol
# GULP energy per Si atom -12395.387969 kJ/mol
# Density = 1.983903 g / cm^3
# Si number density = 19.884283 Si / 1000 Ang^3
#
#
#
# Elastic Constant Matrix: (Units=GPa)
#
#
# Indices 1 2 3 4 5 6 
#
# 1 87.3992 67.1953 31.7360 0.0000 0.2198 0.0000
# 2 67.1953 102.7336 27.8826 0.0000 3.0627 0.0000
# 3 31.7360 27.8826 87.4450 -0.0001 2.6823 0.0000
# 4 0.0000 0.0000 -0.0001 59.3136 0.0000 -27.1057
# 5 0.2198 3.0627 2.6823 0.0000 9.6129 0.0000
# 6 0.0000 0.0000 0.0000 -27.1057 0.0000 54.8822
#
#
#
# Elastic Compliance Matrix: (Units=1/GPa)
#
#
# Indices 1 2 3 4 5 6 
#
# 1 0.024568 -0.015070 -0.004278 0.000000 0.005433 0.000000
# 2 -0.015070 0.019959 -0.000716 0.000000 -0.005814 0.000000
# 3 -0.004278 -0.000716 0.013321 0.000000 -0.003391 0.000000
# 4 0.000000 0.000000 0.000000 0.021774 0.000000 0.010754
# 5 0.005433 -0.005814 -0.003391 0.000000 0.106701 0.000000
# 6 0.000000 0.000000 0.000000 0.010754 0.000000 0.023532
#
#
# Mechanical properties :
#
#
# Convention : Reuss Voigt Hill
#
# Bulk Modulus (GPa) = 56.43710 59.02284 57.72997
# Shear Modulus (GPa) = 19.53974 34.81268 27.17621
#
# Velocity S-wave (km/s) = 3.13816 4.18875 3.70093
# Velocity P-wave (km/s) = 6.44788 7.28984 6.88175
#
# Compressibility (1/GPa) = 0.01771884
#
# Stress axis : x y z
#
# Youngs Moduli (GPa) = 40.70376 50.10365 75.07146
#
# Poissons Ratio (x) = 0.75507 0.32113
# Poissons Ratio (y) = 0.61341 0.05377
# Poissons Ratio (z) = 0.17412 0.03589
#
# Static dielectric constant tensor:
#      x y z
#    x 3.618260 0.000000 -0.148410 
#    y 0.000000 3.754550 0.000000 
#    z -0.148410 0.000000 3.476100 
# 
# 
# High freq. dielectric constant tensor:
#      x y z
#    x 1.773110 0.000000 -0.010630 
#    y 0.000000 1.779320 0.000000 
#    z -0.010630 0.000000 1.767240 
# 
# From -- ./inp_files/206460.got.cif
#   From: 2010.06.25/outbox.cif.g09.slc.cpg/sg15_104_cif.got.tgz:206460.got - 2010.06.28 07:06:18.
