data_PCOD8140699
_publ_section_title
;
Structure prediction by ZEFSAII (Michael W. Deem and Ramdas Pophale) SiO2 
 PCOD8140699
Probable space group: C 2/C
;
_chemical_formula_sum "Si O2"
_cell_formula_units_Z 52
_cell_length_a 24.321242
_cell_length_b 10.985798
_cell_length_c 12.275963
_cell_angle_alpha 90.000000
_cell_angle_beta 132.986769
_cell_angle_gamma 90.000000
_cell_volume 2399.351592
_symmetry_space_group_name_H-M "C 2/C"
_symmetry_group_IT_number 15
_symmetry_cell_setting 'monoclinic'
loop_
_space_group_symop_operation_xyz
x,y,z
-x,y,1/2-z
-x,-y,-z
x,-y,1/2+z
1/2+x,1/2+y,z
1/2-x,1/2+y,1/2-z
1/2-x,1/2-y,-z
1/2+x,1/2-y,1/2+z
loop_
_atom_site_type_symbol
_atom_site_label
_atom_site_fract_x
_atom_site_fract_y
_atom_site_fract_z
Si Si1 0.375281 0.684837 0.161278
Si Si2 0.500000 0.856570 0.250000
Si Si3 0.343420 0.818755 0.324686
Si Si4 0.820340 0.190469 0.846645
Si Si5 0.002914 0.710979 0.375148
Si Si6 0.413165 0.075964 0.428259
Si Si7 0.427215 0.449237 0.343357
O O1 0.449997 0.766979 0.256260
O O2 0.325461 0.745721 0.189204
O O3 0.396574 0.546325 0.216506
O O4 0.329844 0.680765 0.988754
O O5 0.549544 0.937119 0.400657
O O6 0.268668 0.816408 0.298229
O O7 0.411676 0.751417 0.479415
O O8 0.366945 0.957404 0.332835
O O9 0.853031 0.315927 0.845992
O O10 0.862630 0.079200 0.844756
O O11 0.000000 0.656941 0.250000
O O12 0.976626 0.603579 0.422343
O O13 0.949154 0.827697 0.307768
O O14 0.500000 0.500000 0.500000
#
# Coordination Sequence:
#
# PCOD8140699 Si02
#       7
#     8   4   8   8   8   8   8
#     4  11  22  40  71  95 128 172 225 267 337 388
#     4  10  20  42  70  98 124 172 222 282 306 392
#     4  12  24  42  68  96 133 172 219 273 339 398
#     4  10  26  44  64  98 133 176 217 279 331 396
#     4  11  25  41  64  98 130 172 219 271 329 392
#     4  10  23  44  65  96 131 168 227 265 328 395
#     4  11  22  43  67  95 133 168 227 270 322 397
#
# _framework density 21.672522000000001
#
# number of rings (size 3 to 8) (size 9 to 14) (size 15 to 20)
#    0.000    1.231    3.077    2.769    6.462    1.231 
#    2.769    1.538    0.000    0.000    0.000    0.000 
#    0.000    0.000    0.000    0.000    0.000    0.000 
#
# Total GULP energy -322515.662330 kJ/mol
# GULP energy per Si atom -12404.448551 kJ/mol
# Density = 2.162319 g / cm^3
# Si number density = 21.672522 Si / 1000 Ang^3
#
#
#
# Elastic Constant Matrix: (Units=GPa)
#
#
# Indices 1 2 3 4 5 6 
#
# 1 135.1857 20.2767 51.5137 0.0000 12.9336 0.0000
# 2 20.2767 83.7486 31.6858 0.0000 -6.7109 0.0000
# 3 51.5137 31.6858 81.0972 0.0000 -5.3670 0.0000
# 4 0.0000 0.0000 0.0000 23.1864 0.0000 -8.8206
# 5 12.9336 -6.7109 -5.3670 0.0000 41.3420 0.0000
# 6 0.0000 0.0000 0.0000 -8.8206 0.0000 28.4649
#
#
#
# Elastic Compliance Matrix: (Units=1/GPa)
#
#
# Indices 1 2 3 4 5 6 
#
# 1 0.010428 -0.000293 -0.006787 0.000000 -0.004191 0.000000
# 2 -0.000293 0.014123 -0.005219 0.000000 0.001707 0.000000
# 3 -0.006787 -0.005219 0.018928 0.000000 0.003733 0.000000
# 4 0.000000 0.000000 0.000000 0.048892 0.000000 0.015151
# 5 -0.004191 0.001707 0.003733 0.000000 0.026261 0.000000
# 6 0.000000 0.000000 0.000000 0.015151 0.000000 0.039826
#
#
# Mechanical properties :
#
#
# Convention : Reuss Voigt Hill
#
# Bulk Modulus (GPa) = 52.96186 56.33155 54.64671
# Shear Modulus (GPa) = 26.40597 31.70234 29.05416
#
# Velocity S-wave (km/s) = 3.49436 3.82879 3.66539
# Velocity P-wave (km/s) = 6.38522 6.75239 6.57137
#
# Compressibility (1/GPa) = 0.01888151
#
# Stress axis : x y z
#
# Youngs Moduli (GPa) = 95.89148 70.80793 52.83063
#
# Poissons Ratio (x) = 0.02073 0.35857
# Poissons Ratio (y) = 0.02808 0.27572
# Poissons Ratio (z) = 0.65084 0.36955
#
# Static dielectric constant tensor:
#      x y z
#    x 4.088660 0.000000 0.033310 
#    y 0.000000 4.227530 0.000000 
#    z 0.033310 0.000000 3.706730 
# 
# 
# High freq. dielectric constant tensor:
#      x y z
#    x 1.859530 0.000000 -0.001650 
#    y 0.000000 1.863120 0.000000 
#    z -0.001650 0.000000 1.834220 
# 
# From -- ./inp_files/118063.got.cif
#   From: 2010.06.25/outbox.cif.g09.slc.cpg/sg15_60_cif.got.tgz:118063.got - 2010.06.28 07:06:18.
