data_PCOD8140238
_publ_section_title
;
Structure prediction by ZEFSAII (Michael W. Deem and Ramdas Pophale) SiO2 
 PCOD8140238
Probable space group: C 2/C
;
_chemical_formula_sum "Si O2"
_cell_formula_units_Z 56
_cell_length_a 17.232765
_cell_length_b 5.740087
_cell_length_c 26.985172
_cell_angle_alpha 90.000000
_cell_angle_beta 100.685129
_cell_angle_gamma 90.000000
_cell_volume 2623.024398
_symmetry_space_group_name_H-M "C 2/C"
_symmetry_group_IT_number 15
_symmetry_cell_setting 'monoclinic'
loop_
_space_group_symop_operation_xyz
x,y,z
-x,y,1/2-z
-x,-y,-z
x,-y,1/2+z
1/2+x,1/2+y,z
1/2-x,1/2+y,1/2-z
1/2-x,1/2-y,-z
1/2+x,1/2-y,1/2+z
loop_
_atom_site_type_symbol
_atom_site_label
_atom_site_fract_x
_atom_site_fract_y
_atom_site_fract_z
Si Si1 0.461819 0.201403 0.607048
Si Si2 0.150423 0.759191 0.747998
Si Si3 0.955371 0.750479 0.498808
Si Si4 0.612304 0.118778 0.107195
Si Si5 0.747123 0.576392 0.827035
Si Si6 0.461125 0.585723 0.820830
Si Si7 0.898020 0.396259 0.682086
O O1 0.417644 0.252999 0.549556
O O2 0.482032 0.438644 0.636989
O O3 0.543519 0.070251 0.605340
O O4 0.401729 0.063301 0.634873
O O5 0.195196 0.715304 0.702493
O O6 0.080585 0.941921 0.728131
O O7 0.112942 0.526683 0.766669
O O8 0.211798 0.853918 0.795166
O O9 0.892462 0.749989 0.446384
O O10 0.000000 0.500000 0.500000
O O11 0.000000 0.000000 0.500000
O O12 0.605380 0.295972 0.152626
O O13 0.699178 0.004046 0.120307
O O14 0.676242 0.733198 0.838380
O O15 0.518693 0.768608 0.801465
#
# Coordination Sequence:
#
# PCOD8140238 Si02
#       7
#     8   8   8   8   8   8   8
#     4  10  21  42  67  99 132 171 224 282 345 404
#     4  12  25  43  65  92 132 180 228 268 341 409
#     4  10  20  40  72 106 137 177 229 293 347 414
#     4  10  22  40  69 102 130 173 227 279 342 411
#     4  12  24  43  63  92 135 180 220 278 341 414
#     4  11  23  43  67  94 130 172 226 283 331 404
#     4  11  27  43  62  95 135 175 224 281 340 410
#
# _framework density 21.349402000000001
#
# number of rings (size 3 to 8) (size 9 to 14) (size 15 to 20)
#    0.000    1.143    4.286    1.714    0.000    3.429 
#    0.000    0.714    0.000    3.429    0.000    0.000 
#    0.000    0.000    0.000    0.000    0.000    0.000 
#
# Total GULP energy -347099.619801 kJ/mol
# GULP energy per Si atom -12396.414993 kJ/mol
# Density = 2.130081 g / cm^3
# Si number density = 21.349402 Si / 1000 Ang^3
#
#
#
# Elastic Constant Matrix: (Units=GPa)
#
#
# Indices 1 2 3 4 5 6 
#
# 1 72.5496 12.2413 36.0515 0.0000 10.8860 0.0000
# 2 12.2413 78.0756 9.1026 0.0000 6.2748 0.0000
# 3 36.0515 9.1026 103.3237 0.0000 7.6089 0.0000
# 4 0.0000 0.0000 0.0000 24.6969 0.0000 -0.0452
# 5 10.8860 6.2748 7.6089 0.0000 19.1306 0.0000
# 6 0.0000 0.0000 0.0000 -0.0452 0.0000 31.8970
#
#
#
# Elastic Compliance Matrix: (Units=1/GPa)
#
#
# Indices 1 2 3 4 5 6 
#
# 1 0.017938 -0.001562 -0.005570 0.000000 -0.007479 0.000000
# 2 -0.001562 0.013367 -0.000387 0.000000 -0.003342 0.000000
# 3 -0.005570 -0.000387 0.011758 0.000000 -0.001380 0.000000
# 4 0.000000 0.000000 0.000000 0.040491 0.000000 0.000057
# 5 -0.007479 -0.003342 -0.001380 0.000000 0.058173 0.000000
# 6 0.000000 0.000000 0.000000 0.000057 0.000000 0.031351
#
#
# Mechanical properties :
#
#
# Convention : Reuss Voigt Hill
#
# Bulk Modulus (GPa) = 35.68333 40.97107 38.32720
# Shear Modulus (GPa) = 25.32210 28.24844 26.78527
#
# Velocity S-wave (km/s) = 3.44769 3.64146 3.54590
# Velocity P-wave (km/s) = 5.70955 6.07558 5.89541
#
# Compressibility (1/GPa) = 0.02802429
#
# Stress axis : x y z
#
# Youngs Moduli (GPa) = 55.74907 74.81329 85.05143
#
# Poissons Ratio (x) = 0.11685 0.47377
# Poissons Ratio (y) = 0.08707 0.03287
# Poissons Ratio (z) = 0.31054 0.02892
#
# Static dielectric constant tensor:
#      x y z
#    x 3.708820 0.000000 -0.096060 
#    y 0.000000 4.210290 0.000000 
#    z -0.096060 0.000000 4.319450 
# 
# 
# High freq. dielectric constant tensor:
#      x y z
#    x 1.810230 0.000000 -0.003140 
#    y 0.000000 1.855960 0.000000 
#    z -0.003140 0.000000 1.841530 
# 
# From -- ./inp_files/297775.got.cif
#   From: 2010.06.25/outbox.cif.g09.slc.cpg/sg15_149_cif.got.tgz:297775.got - 2010.06.28 07:06:18.
