data_PCOD8140528
_publ_section_title
;
Structure prediction by ZEFSAII (Michael W. Deem and Ramdas Pophale) SiO2 
 PCOD8140528
Probable space group: C 2/C
;
_chemical_formula_sum "Si O2"
_cell_formula_units_Z 44
_cell_length_a 18.595746
_cell_length_b 7.108867
_cell_length_c 15.216659
_cell_angle_alpha 90.000000
_cell_angle_beta 81.537320
_cell_angle_gamma 90.000000
_cell_volume 1989.659423
_symmetry_space_group_name_H-M "C 2/C"
_symmetry_group_IT_number 15
_symmetry_cell_setting 'monoclinic'
loop_
_space_group_symop_operation_xyz
x,y,z
-x,y,1/2-z
-x,-y,-z
x,-y,1/2+z
1/2+x,1/2+y,z
1/2-x,1/2+y,1/2-z
1/2-x,1/2-y,-z
1/2+x,1/2-y,1/2+z
loop_
_atom_site_type_symbol
_atom_site_label
_atom_site_fract_x
_atom_site_fract_y
_atom_site_fract_z
Si Si1 0.748359 0.732980 0.644175
Si Si2 0.327669 0.983510 0.980175
Si Si3 0.851832 0.002075 0.712241
Si Si4 0.106294 0.852581 0.479890
Si Si5 0.500000 0.423673 0.250000
Si Si6 0.046606 0.218797 0.561855
O O1 0.716268 0.912994 0.597199
O O2 0.785161 0.580245 0.574758
O O3 0.684587 0.633978 0.708691
O O4 0.807556 0.811248 0.702628
O O5 0.339996 0.209112 0.978401
O O6 0.409637 0.906471 0.966186
O O7 0.859754 0.121333 0.622067
O O8 0.932208 0.944893 0.733267
O O9 0.022627 0.783319 0.490215
O O10 0.104208 0.049100 0.532690
O O11 0.478202 0.285935 0.333031
#
# Coordination Sequence:
#
# PCOD8140528 Si02
#       6
#     8   8   8   8   4   8
#     4  11  24  39  65  93 135 162 223 264 329 379
#     4  11  22  42  62  96 125 173 208 270 319 396
#     4  11  22  42  62  95 127 174 206 275 314 385
#     4  10  22  38  69  90 129 167 216 257 329 375
#     4  10  22  40  68  84 134 166 212 262 322 366
#     4  10  20  42  63  96 124 171 211 268 311 390
#
# _framework density 22.114338
#
# number of rings (size 3 to 8) (size 9 to 14) (size 15 to 20)
#    0.000    1.455    3.636    1.636    0.000    2.182 
#    0.000    0.909    0.000    0.000    0.000    0.000 
#    0.000    0.000    0.000    0.000    0.000    0.000 
#
# Total GULP energy -272818.595016 kJ/mol
# GULP energy per Si atom -12400.845228 kJ/mol
# Density = 2.206400 g / cm^3
# Si number density = 22.114338 Si / 1000 Ang^3
#
#
#
# Elastic Constant Matrix: (Units=GPa)
#
#
# Indices 1 2 3 4 5 6 
#
# 1 114.9042 28.8211 29.1477 0.0000 -7.3642 0.0000
# 2 28.8211 78.7657 26.5726 0.0000 1.6613 0.0000
# 3 29.1477 26.5726 117.4521 0.0000 -20.3900 0.0000
# 4 0.0000 0.0000 0.0000 15.3247 0.0000 5.3995
# 5 -7.3642 1.6613 -20.3900 0.0000 28.5165 0.0000
# 6 0.0000 0.0000 0.0000 5.3995 0.0000 33.0741
#
#
#
# Elastic Compliance Matrix: (Units=1/GPa)
#
#
# Indices 1 2 3 4 5 6 
#
# 1 0.009985 -0.003199 -0.001455 0.000000 0.001725 0.000000
# 2 -0.003199 0.015074 -0.003325 0.000000 -0.004082 0.000000
# 3 -0.001455 -0.003325 0.010956 0.000000 0.007652 0.000000
# 4 0.000000 0.000000 0.000000 0.069236 0.000000 -0.011303
# 5 0.001725 -0.004082 0.007652 0.000000 0.041222 0.000000
# 6 0.000000 0.000000 0.000000 -0.011303 0.000000 0.032080
#
#
# Mechanical properties :
#
#
# Convention : Reuss Voigt Hill
#
# Bulk Modulus (GPa) = 49.85807 53.35608 51.60708
# Shear Modulus (GPa) = 24.85122 30.48845 27.66984
#
# Velocity S-wave (km/s) = 3.35589 3.71708 3.54109
# Velocity P-wave (km/s) = 6.13274 6.52702 6.33295
#
# Compressibility (1/GPa) = 0.02005693
#
# Stress axis : x y z
#
# Youngs Moduli (GPa) = 100.15129 66.33782 91.27618
#
# Poissons Ratio (x) = 0.21223 0.13278
# Poissons Ratio (y) = 0.32040 0.30351
# Poissons Ratio (z) = 0.14569 0.22058
#
# Static dielectric constant tensor:
#      x y z
#    x 4.337180 0.000000 -0.083870 
#    y 0.000000 3.558310 0.000000 
#    z -0.083870 0.000000 4.020850 
# 
# 
# High freq. dielectric constant tensor:
#      x y z
#    x 1.895160 0.000000 -0.010860 
#    y 0.000000 1.834890 0.000000 
#    z -0.010860 0.000000 1.874840 
# 
# From -- ./inp_files/212895.got.cif
#   From: 2010.06.25/outbox.cif.g09.slc.cpg/sg15_107_cif.got.tgz:212895.got - 2010.06.28 07:06:18.
