data_PCOD8140282
_publ_section_title
;
Structure prediction by ZEFSAII (Michael W. Deem and Ramdas Pophale) SiO2 
 PCOD8140282
Probable space group: C 2/C
;
_chemical_formula_sum "Si O2"
_cell_formula_units_Z 48
_cell_length_a 18.637630
_cell_length_b 9.743430
_cell_length_c 18.832832
_cell_angle_alpha 90.000000
_cell_angle_beta 138.538952
_cell_angle_gamma 90.000000
_cell_volume 2264.377390
_symmetry_space_group_name_H-M "C 2/C"
_symmetry_group_IT_number 15
_symmetry_cell_setting 'monoclinic'
loop_
_space_group_symop_operation_xyz
x,y,z
-x,y,1/2-z
-x,-y,-z
x,-y,1/2+z
1/2+x,1/2+y,z
1/2-x,1/2+y,1/2-z
1/2-x,1/2-y,-z
1/2+x,1/2-y,1/2+z
loop_
_atom_site_type_symbol
_atom_site_label
_atom_site_fract_x
_atom_site_fract_y
_atom_site_fract_z
Si Si1 0.857068 0.195604 0.615884
Si Si2 0.724867 0.186740 0.651563
Si Si3 0.951246 0.393581 0.587195
Si Si4 0.837186 0.669074 0.480877
Si Si5 0.678383 0.092882 0.185424
Si Si6 0.391891 0.614675 0.129827
O O1 0.750000 0.250000 0.500000
O O2 0.832851 0.187908 0.681976
O O3 0.951089 0.300662 0.659130
O O4 0.892020 0.046801 0.613612
O O5 0.613547 0.185826 0.524028
O O6 0.730177 0.320165 0.705484
O O7 0.731475 0.052714 0.706154
O O8 0.890237 0.536389 0.558005
O O9 0.073329 0.426843 0.656421
O O10 0.861047 0.670711 0.414878
O O11 0.708241 0.660661 0.395687
O O12 0.886237 0.807094 0.550384
O O13 0.500000 0.660476 0.250000
#
# Coordination Sequence:
#
# PCOD8140282 Si02
#       6
#     8   8   8   8   8   8
#     4  10  20  41  62  88 127 163 211 267 316 373
#     4  10  22  41  60  93 128 165 210 264 315 384
#     4  10  22  42  66  90 128 170 212 263 326 383
#     4  10  22  44  61  93 131 165 213 269 323 381
#     4  11  23  41  66  90 130 170 211 264 324 388
#     4  11  23  39  67  93 128 168 214 268 325 382
#
# _framework density 21.197880000000001
#
# number of rings (size 3 to 8) (size 9 to 14) (size 15 to 20)
#    0.000    1.667    5.000    2.000    2.333    5.333 
#    3.000    1.667    0.000    0.000    0.000    0.000 
#    0.000    0.000    0.000    0.000    0.000    0.000 
#
# Total GULP energy -297565.094437 kJ/mol
# GULP energy per Si atom -12398.545602 kJ/mol
# Density = 2.114963 g / cm^3
# Si number density = 21.197880 Si / 1000 Ang^3
#
#
#
# Elastic Constant Matrix: (Units=GPa)
#
#
# Indices 1 2 3 4 5 6 
#
# 1 122.0260 54.6667 28.6039 0.0000 4.1849 0.0000
# 2 54.6667 108.9739 42.8060 0.0000 -11.0134 0.0000
# 3 28.6039 42.8060 62.8346 0.0000 8.5647 0.0000
# 4 0.0000 0.0000 0.0000 5.3330 0.0000 -13.0421
# 5 4.1849 -11.0134 8.5647 0.0000 24.2112 0.0000
# 6 0.0000 0.0000 0.0000 -13.0421 0.0000 40.5347
#
#
#
# Elastic Compliance Matrix: (Units=1/GPa)
#
#
# Indices 1 2 3 4 5 6 
#
# 1 0.011056 -0.005797 -0.000487 0.000000 -0.004376 0.000000
# 2 -0.005797 0.017856 -0.011314 0.000000 0.013127 0.000000
# 3 -0.000487 -0.011314 0.025778 0.000000 -0.014181 0.000000
# 4 0.000000 0.000000 0.000000 0.879749 0.000000 0.283061
# 5 -0.004376 0.013127 -0.014181 0.000000 0.053048 0.000000
# 6 0.000000 0.000000 0.000000 0.283061 0.000000 0.115745
#
#
# Mechanical properties :
#
#
# Convention : Reuss Voigt Hill
#
# Bulk Modulus (GPa) = 51.30386 60.66532 55.98459
# Shear Modulus (GPa) = 4.36709 25.19963 14.78336
#
# Velocity S-wave (km/s) = 1.43688 3.45161 2.64369
# Velocity P-wave (km/s) = 5.19690 6.67574 5.98219
#
# Compressibility (1/GPa) = 0.01949171
#
# Stress axis : x y z
#
# Youngs Moduli (GPa) = 90.44528 56.00416 38.79330
#
# Poissons Ratio (x) = 0.32467 0.01891
# Poissons Ratio (y) = 0.52433 0.43893
# Poissons Ratio (z) = 0.04408 0.63366
#
# Static dielectric constant tensor:
#      x y z
#    x 4.476160 0.000000 -0.266400 
#    y 0.000000 3.965720 0.000000 
#    z -0.266400 0.000000 3.841460 
# 
# 
# High freq. dielectric constant tensor:
#      x y z
#    x 1.834980 0.000000 0.003460 
#    y 0.000000 1.830050 0.000000 
#    z 0.003460 0.000000 1.821540 
# 
# From -- ./inp_files/252005.got.cif
#   From: 2010.06.25/outbox.cif.g09.slc.cpg/sg15_127_cif.got.tgz:252005.got - 2010.06.28 07:06:18.
