data_PCOD8140570
_publ_section_title
;
Structure prediction by ZEFSAII (Michael W. Deem and Ramdas Pophale) SiO2 
 PCOD8140570
Probable space group: C 2/C
;
_chemical_formula_sum "Si O2"
_cell_formula_units_Z 64
_cell_length_a 19.804401
_cell_length_b 11.098809
_cell_length_c 25.523796
_cell_angle_alpha 90.000000
_cell_angle_beta 148.965270
_cell_angle_gamma 90.000000
_cell_volume 2892.414360
_symmetry_space_group_name_H-M "C 2/C"
_symmetry_group_IT_number 15
_symmetry_cell_setting 'monoclinic'
loop_
_space_group_symop_operation_xyz
x,y,z
-x,y,1/2-z
-x,-y,-z
x,-y,1/2+z
1/2+x,1/2+y,z
1/2-x,1/2+y,1/2-z
1/2-x,1/2-y,-z
1/2+x,1/2-y,1/2+z
loop_
_atom_site_type_symbol
_atom_site_label
_atom_site_fract_x
_atom_site_fract_y
_atom_site_fract_z
Si Si1 0.777032 0.813186 0.349743
Si Si2 0.336463 0.221026 0.961794
Si Si3 0.862959 0.550830 0.073537
Si Si4 0.359323 0.428234 0.510944
Si Si5 0.068690 0.751934 0.247997
Si Si6 0.010691 0.693326 0.871449
Si Si7 0.432584 0.387853 0.354090
Si Si8 0.001990 0.634526 0.983143
O O1 0.803228 0.902703 0.415695
O O2 0.624835 0.776206 0.248143
O O3 0.822545 0.876909 0.325724
O O4 0.856785 0.689837 0.408898
O O5 0.202665 0.295973 0.864492
O O6 0.384271 0.195776 0.935243
O O7 0.318036 0.102636 0.986958
O O8 0.443112 0.302116 0.059502
O O9 0.974778 0.639846 0.170681
O O10 0.923023 0.418413 0.112783
O O11 0.731537 0.527831 0.020474
O O12 0.384667 0.303332 0.559473
O O13 0.508492 0.478047 0.604721
O O14 0.118234 0.846320 0.236810
O O15 0.000000 0.825334 0.250000
O O16 0.969506 0.650541 0.901385
O O17 0.000000 0.500000 0.000000
#
# Coordination Sequence:
#
# PCOD8140570 Si02
#       8
#     8   8   8   8   8   8   8   8
#     4  10  24  40  65  98 124 169 225 265 330 391
#     4  10  21  40  67  94 130 167 218 273 340 378
#     4  11  24  42  65  94 134 174 215 269 324 396
#     4  11  24  44  64  91 136 171 213 269 325 392
#     4  11  23  38  66 100 123 169 218 265 331 392
#     4  11  24  41  64  97 125 179 222 260 325 404
#     4  10  22  43  63  97 130 164 211 283 325 383
#     4  10  20  42  65  91 132 171 217 280 333 383
#
# _framework density 22.126843999999998
#
# number of rings (size 3 to 8) (size 9 to 14) (size 15 to 20)
#    0.000    1.500    1.250    3.000    3.500    4.000 
#    0.000    0.000    0.000    0.000    0.000    0.000 
#    0.000    0.000    0.000    0.000    0.000    0.000 
#
# Total GULP energy -396457.279864 kJ/mol
# GULP energy per Si atom -12389.289996 kJ/mol
# Density = 2.207648 g / cm^3
# Si number density = 22.126844 Si / 1000 Ang^3
#
#
#
# Elastic Constant Matrix: (Units=GPa)
#
#
# Indices 1 2 3 4 5 6 
#
# 1 77.5481 -1.5023 14.8833 0.0000 -1.5057 0.0000
# 2 -1.5023 67.6015 14.5535 0.0000 3.2367 0.0000
# 3 14.8833 14.5535 97.3189 -0.0005 11.4611 -0.0001
# 4 0.0000 0.0000 -0.0005 11.5454 -0.0001 10.4689
# 5 -1.5057 3.2367 11.4611 -0.0001 30.0283 0.0000
# 6 0.0000 0.0000 -0.0001 10.4689 0.0000 33.2389
#
#
#
# Elastic Compliance Matrix: (Units=1/GPa)
#
#
# Indices 1 2 3 4 5 6 
#
# 1 0.013385 0.000728 -0.002331 0.000000 0.001482 0.000000
# 2 0.000728 0.015343 -0.002320 0.000000 -0.000732 0.000000
# 3 -0.002331 -0.002320 0.011479 0.000001 -0.004248 0.000000
# 4 0.000000 0.000000 0.000001 0.121240 0.000000 -0.038186
# 5 0.001482 -0.000732 -0.004248 0.000000 0.035077 0.000000
# 6 0.000000 0.000000 0.000000 -0.038186 0.000000 0.042112
#
#
# Mechanical properties :
#
#
# Convention : Reuss Voigt Hill
#
# Bulk Modulus (GPa) = 30.89879 33.14862 32.02371
# Shear Modulus (GPa) = 19.43498 29.26478 24.34988
#
# Velocity S-wave (km/s) = 2.96690 3.64069 3.32093
# Velocity P-wave (km/s) = 5.07261 5.71721 5.40453
#
# Compressibility (1/GPa) = 0.03236372
#
# Stress axis : x y z
#
# Youngs Moduli (GPa) = 74.70834 65.17556 87.11485
#
# Poissons Ratio (x) = -0.04746 0.20302
# Poissons Ratio (y) = -0.05440 0.20208
# Poissons Ratio (z) = 0.17411 0.15118
#
# Static dielectric constant tensor:
#      x y z
#    x 3.768370 0.000000 -0.150740 
#    y 0.000000 3.460660 0.000000 
#    z -0.150740 0.000000 3.898520 
# 
# 
# High freq. dielectric constant tensor:
#      x y z
#    x 1.882980 0.000000 0.001240 
#    y 0.000000 1.857520 0.000000 
#    z 0.001240 0.000000 1.877850 
# 
# From -- ./inp_files/300857.got.cif
#   From: 2010.06.25/outbox.cif.g09.slc.cpg/sg15_151_cif.got.tgz:300857.got - 2010.06.28 07:06:18.
