data_PCOD8140596
_publ_section_title
;
Structure prediction by ZEFSAII (Michael W. Deem and Ramdas Pophale) SiO2 
 PCOD8140596
Probable space group: C 2/C
;
_chemical_formula_sum "Si O2"
_cell_formula_units_Z 36
_cell_length_a 11.624721
_cell_length_b 10.376394
_cell_length_c 15.516620
_cell_angle_alpha 90.000000
_cell_angle_beta 62.707994
_cell_angle_gamma 90.000000
_cell_volume 1663.305858
_symmetry_space_group_name_H-M "C 2/C"
_symmetry_group_IT_number 15
_symmetry_cell_setting 'monoclinic'
loop_
_space_group_symop_operation_xyz
x,y,z
-x,y,1/2-z
-x,-y,-z
x,-y,1/2+z
1/2+x,1/2+y,z
1/2-x,1/2+y,1/2-z
1/2-x,1/2-y,-z
1/2+x,1/2-y,1/2+z
loop_
_atom_site_type_symbol
_atom_site_label
_atom_site_fract_x
_atom_site_fract_y
_atom_site_fract_z
Si Si1 0.000000 0.987581 0.250000
Si Si2 0.124587 0.737773 0.254805
Si Si3 0.665755 0.299163 0.951478
Si Si4 0.670670 0.562859 0.038686
Si Si5 0.393672 0.808917 0.543196
O O1 0.930822 0.075510 0.346502
O O2 0.891649 0.893745 0.243351
O O3 0.255395 0.693523 0.163523
O O4 0.137314 0.684524 0.345663
O O5 0.000000 0.673493 0.250000
O O6 0.750000 0.250000 0.000000
O O7 0.626433 0.440634 0.997441
O O8 0.547807 0.199722 0.976009
O O9 0.819711 0.567679 0.024917
O O10 0.665109 0.680377 0.975954
#
# Coordination Sequence:
#
# PCOD8140596 Si02
#       5
#     4   8   8   8   8
#     4  10  20  42  66  90 130 182 222 256 346 398
#     4  10  21  40  65  96 124 176 222 265 337 403
#     4  12  21  43  66  93 135 169 218 279 331 391
#     4  11  25  42  66  98 134 181 218 278 336 396
#     4  11  25  43  64  99 136 171 231 271 332 409
#
# _framework density 21.643644999999999
#
# number of rings (size 3 to 8) (size 9 to 14) (size 15 to 20)
#    0.667    0.444    6.667    0.667    3.111    0.889 
#    0.000    0.000    0.000    0.000    0.000    0.000 
#    0.000    0.000    0.000    0.000    0.000    0.000 
#
# Total GULP energy -222995.833007 kJ/mol
# GULP energy per Si atom -12388.657389 kJ/mol
# Density = 2.159438 g / cm^3
# Si number density = 21.643645 Si / 1000 Ang^3
#
#
#
# Elastic Constant Matrix: (Units=GPa)
#
#
# Indices 1 2 3 4 5 6 
#
# 1 118.0385 7.4971 47.2087 0.0000 -16.5410 0.0000
# 2 7.4971 33.4313 9.7610 0.0000 -2.8554 0.0000
# 3 47.2087 9.7610 147.0088 0.0000 -25.3804 0.0000
# 4 0.0000 0.0000 0.0000 3.2845 0.0000 -4.4157
# 5 -16.5410 -2.8554 -25.3804 0.0000 38.4257 0.0000
# 6 0.0000 0.0000 0.0000 -4.4157 0.0000 17.5785
#
#
#
# Elastic Compliance Matrix: (Units=1/GPa)
#
#
# Indices 1 2 3 4 5 6 
#
# 1 0.009970 -0.001241 -0.002702 0.000000 0.002415 0.000000
# 2 -0.001241 0.030695 -0.001510 0.000000 0.000749 0.000000
# 3 -0.002702 -0.001510 0.008522 0.000000 0.004353 0.000000
# 4 0.000000 0.000000 0.000000 0.459713 0.000000 0.115480
# 5 0.002415 0.000749 0.004353 0.000000 0.029995 0.000000
# 6 0.000000 0.000000 0.000000 0.115480 0.000000 0.085896
#
#
# Mechanical properties :
#
#
# Convention : Reuss Voigt Hill
#
# Bulk Modulus (GPa) = 26.12290 47.49025 36.80657
# Shear Modulus (GPa) = 7.71061 27.45854 17.58458
#
# Velocity S-wave (km/s) = 1.88951 3.56570 2.85346
# Velocity P-wave (km/s) = 4.10562 6.24034 5.28194
#
# Compressibility (1/GPa) = 0.03828059
#
# Stress axis : x y z
#
# Youngs Moduli (GPa) = 100.30350 32.57828 117.34375
#
# Poissons Ratio (x) = 0.04041 0.31710
# Poissons Ratio (y) = 0.12443 0.17723
# Poissons Ratio (z) = 0.27105 0.04920
#
# Static dielectric constant tensor:
#      x y z
#    x 4.223440 0.000000 -0.091060 
#    y 0.000000 3.726910 0.000000 
#    z -0.091060 0.000000 3.838410 
# 
# 
# High freq. dielectric constant tensor:
#      x y z
#    x 1.858200 0.000000 0.005060 
#    y 0.000000 1.818810 0.000000 
#    z 0.005060 0.000000 1.857880 
# 
# From -- ./inp_files/141623.got.cif
#   From: 2010.06.25/outbox.cif.g09.slc.cpg/sg15_71_cif.got.tgz:141623.got - 2010.06.28 07:06:18.
