data_PCOD8140372
_publ_section_title
;
Structure prediction by ZEFSAII (Michael W. Deem and Ramdas Pophale) SiO2 
 PCOD8140372
Probable space group: C 2/C
;
_chemical_formula_sum "Si O2"
_cell_formula_units_Z 56
_cell_length_a 15.209006
_cell_length_b 11.884378
_cell_length_c 15.551597
_cell_angle_alpha 90.000000
_cell_angle_beta 76.627830
_cell_angle_gamma 90.000000
_cell_volume 2734.735165
_symmetry_space_group_name_H-M "C 2/C"
_symmetry_group_IT_number 15
_symmetry_cell_setting 'monoclinic'
loop_
_space_group_symop_operation_xyz
x,y,z
-x,y,1/2-z
-x,-y,-z
x,-y,1/2+z
1/2+x,1/2+y,z
1/2-x,1/2+y,1/2-z
1/2-x,1/2-y,-z
1/2+x,1/2-y,1/2+z
loop_
_atom_site_type_symbol
_atom_site_label
_atom_site_fract_x
_atom_site_fract_y
_atom_site_fract_z
Si Si1 0.880724 0.783722 0.856671
Si Si2 0.854354 0.781242 0.491904
Si Si3 0.483761 0.927192 0.918813
Si Si4 0.916374 0.753415 0.660701
Si Si5 0.295797 0.504004 0.938743
Si Si6 0.657752 0.992111 0.316168
Si Si7 0.323661 0.960639 0.374383
O O1 0.885727 0.818013 0.754654
O O2 0.841144 0.883796 0.922049
O O3 0.817053 0.674672 0.880966
O O4 0.977176 0.762517 0.876904
O O5 0.750000 0.750000 0.500000
O O6 0.929802 0.689060 0.448336
O O7 0.865602 0.806754 0.590719
O O8 0.869772 0.895217 0.431744
O O9 0.584720 0.908612 0.855413
O O10 0.426600 0.000883 0.865093
O O11 0.500000 0.000000 0.000000
O O12 0.898261 0.622230 0.676345
O O13 0.233089 0.522566 0.870987
O O14 0.238191 0.514373 0.038794
O O15 0.705158 0.009934 0.212701
#
# Coordination Sequence:
#
# PCOD8140372 Si02
#       7
#     8   8   8   8   8   8   8
#     4  10  23  39  66  93 126 168 218 269 314 388
#     4  12  22  38  66  92 129 170 210 265 331 386
#     4  12  19  38  67  97 125 160 222 269 316 377
#     4  10  20  41  66  89 124 170 218 255 324 383
#     4  12  25  40  63  98 133 168 213 266 333 388
#     4  11  22  39  68  95 121 169 218 274 311 377
#     4  11  21  39  66  92 127 168 221 263 324 380
#
# _framework density 20.477302999999999
#
# number of rings (size 3 to 8) (size 9 to 14) (size 15 to 20)
#    0.000    0.857    7.143    0.857    2.000    0.571 
#    0.000    0.000    6.286    0.000    0.000    0.000 
#    0.000    0.000    0.000    0.000    0.000    0.000 
#
# Total GULP energy -347061.908164 kJ/mol
# GULP energy per Si atom -12395.068149 kJ/mol
# Density = 2.043070 g / cm^3
# Si number density = 20.477303 Si / 1000 Ang^3
#
#
#
# Elastic Constant Matrix: (Units=GPa)
#
#
# Indices 1 2 3 4 5 6 
#
# 1 64.2970 21.7597 42.8937 0.0000 27.2268 0.0000
# 2 21.7597 90.2427 29.7169 0.0000 11.4839 0.0000
# 3 42.8937 29.7169 135.5309 0.0000 29.1282 0.0000
# 4 0.0000 0.0000 0.0000 26.1804 0.0000 1.7471
# 5 27.2268 11.4839 29.1282 0.0000 23.6884 0.0000
# 6 0.0000 0.0000 0.0000 1.7471 0.0000 33.7649
#
#
#
# Elastic Compliance Matrix: (Units=1/GPa)
#
#
# Indices 1 2 3 4 5 6 
#
# 1 0.031743 -0.002736 -0.002569 0.000000 -0.031999 0.000000
# 2 -0.002736 0.012396 -0.001680 0.000000 -0.000798 0.000000
# 3 -0.002569 -0.001680 0.010534 0.000000 -0.009186 0.000000
# 4 0.000000 0.000000 0.000000 0.038329 0.000000 -0.001983
# 5 -0.031999 -0.000798 -0.009186 0.000000 0.090675 0.000000
# 6 0.000000 0.000000 0.000000 -0.001983 0.000000 0.029719
#
#
# Mechanical properties :
#
#
# Convention : Reuss Voigt Hill
#
# Bulk Modulus (GPa) = 24.56902 53.20124 38.88513
# Shear Modulus (GPa) = 20.75256 29.77342 25.26299
#
# Velocity S-wave (km/s) = 3.18691 3.81723 3.51623
# Velocity P-wave (km/s) = 5.05629 6.74280 5.95951
#
# Compressibility (1/GPa) = 0.04070167
#
# Stress axis : x y z
#
# Youngs Moduli (GPa) = 31.50342 80.67179 94.92969
#
# Poissons Ratio (x) = 0.22071 0.24388
# Poissons Ratio (y) = 0.08619 0.15953
# Poissons Ratio (z) = 0.08093 0.13557
#
# Static dielectric constant tensor:
#      x y z
#    x 3.846640 0.000000 0.090740 
#    y 0.000000 4.102290 0.000000 
#    z 0.090740 0.000000 4.074050 
# 
# 
# High freq. dielectric constant tensor:
#      x y z
#    x 1.789470 0.000000 0.017340 
#    y 0.000000 1.784910 0.000000 
#    z 0.017340 0.000000 1.811940 
# 
# From -- ./inp_files/152583.got.cif
#   From: 2010.06.25/outbox.cif.g09.slc.cpg/sg15_77_cif.got.tgz:152583.got - 2010.06.28 07:06:18.
