data_PCOD8140849
_publ_section_title
;
Structure prediction by ZEFSAII (Michael W. Deem and Ramdas Pophale) SiO2 
 PCOD8140849
Probable space group: C 2/C
;
_chemical_formula_sum "Si O2"
_cell_formula_units_Z 28
_cell_length_a 12.050922
_cell_length_b 8.224107
_cell_length_c 15.198469
_cell_angle_alpha 90.000000
_cell_angle_beta 56.094166
_cell_angle_gamma 90.000000
_cell_volume 1250.154451
_symmetry_space_group_name_H-M "C 2/C"
_symmetry_group_IT_number 15
_symmetry_cell_setting 'monoclinic'
loop_
_space_group_symop_operation_xyz
x,y,z
-x,y,1/2-z
-x,-y,-z
x,-y,1/2+z
1/2+x,1/2+y,z
1/2-x,1/2+y,1/2-z
1/2-x,1/2-y,-z
1/2+x,1/2-y,1/2+z
loop_
_atom_site_type_symbol
_atom_site_label
_atom_site_fract_x
_atom_site_fract_y
_atom_site_fract_z
Si Si1 0.228746 0.988112 0.847005
Si Si2 0.351838 0.606947 0.440751
Si Si3 0.848900 0.141968 0.796406
Si Si4 0.000000 0.687796 0.750000
O O1 0.253422 0.796437 0.831899
O O2 0.150771 0.046842 0.795753
O O3 0.370566 0.078278 0.793227
O O4 0.129222 0.021877 0.973142
O O5 0.250000 0.750000 0.500000
O O6 0.292659 0.475766 0.397736
O O7 0.484957 0.690996 0.341174
O O8 0.000000 0.196776 0.750000
#
# Coordination Sequence:
#
# PCOD8140849 Si02
#       4
#     8   8   8   4
#     4  11  24  45  68  99 140 175 224 281 330 397
#     4  10  22  43  69 100 134 177 224 274 336 396
#     4  12  25  46  71 101 135 179 225 274 336 401
#     4  10  20  44  70 100 136 178 228 274 332 402
#
# _framework density 22.397233
#
# number of rings (size 3 to 8) (size 9 to 14) (size 15 to 20)
#    0.000    1.143    2.857    4.286    0.000    1.143 
#    5.143    4.286    0.000    0.000    0.000    0.000 
#    0.000    0.000    0.000    0.000    0.000    0.000 
#
# Total GULP energy -173563.431622 kJ/mol
# GULP energy per Si atom -12397.387973 kJ/mol
# Density = 2.234626 g / cm^3
# Si number density = 22.397233 Si / 1000 Ang^3
#
#
#
# Elastic Constant Matrix: (Units=GPa)
#
#
# Indices 1 2 3 4 5 6 
#
# 1 83.8740 19.8944 32.1669 0.0000 21.3254 0.0000
# 2 19.8944 151.1199 65.1321 0.0000 19.9636 0.0000
# 3 32.1669 65.1321 177.0123 0.0000 33.1120 0.0000
# 4 0.0000 0.0000 0.0000 50.0682 0.0000 -5.7907
# 5 21.3254 19.9636 33.1120 0.0000 40.0296 0.0000
# 6 0.0000 0.0000 0.0000 -5.7907 0.0000 85.4774
#
#
#
# Elastic Compliance Matrix: (Units=1/GPa)
#
#
# Indices 1 2 3 4 5 6 
#
# 1 0.014097 -0.000510 -0.001203 0.000000 -0.006260 0.000000
# 2 -0.000510 0.007995 -0.002548 0.000000 -0.001607 0.000000
# 3 -0.001203 -0.002548 0.007628 0.000000 -0.004398 0.000000
# 4 0.000000 0.000000 0.000000 0.020130 0.000000 0.001364
# 5 -0.006260 -0.001607 -0.004398 0.000000 0.032757 0.000000
# 6 0.000000 0.000000 0.000000 0.001364 0.000000 0.011791
#
#
# Mechanical properties :
#
#
# Convention : Reuss Voigt Hill
#
# Bulk Modulus (GPa) = 47.17624 71.82144 59.49884
# Shear Modulus (GPa) = 45.45967 54.76923 50.11445
#
# Velocity S-wave (km/s) = 4.51011 4.95042 4.73538
# Velocity P-wave (km/s) = 6.94482 8.05061 7.51807
#
# Compressibility (1/GPa) = 0.02119711
#
# Stress axis : x y z
#
# Youngs Moduli (GPa) = 70.93842 125.07586 131.08996
#
# Poissons Ratio (x) = 0.06383 0.15768
# Poissons Ratio (y) = 0.03620 0.33407
# Poissons Ratio (z) = 0.08533 0.31874
#
# Static dielectric constant tensor:
#      x y z
#    x 3.724380 0.000000 -0.012520 
#    y 0.000000 4.387400 0.000000 
#    z -0.012520 0.000000 6.114130 
# 
# 
# High freq. dielectric constant tensor:
#      x y z
#    x 1.866880 0.000000 0.005890 
#    y 0.000000 1.907210 0.000000 
#    z 0.005890 0.000000 1.898220 
# 
# From -- ./inp_files/93143.got.cif
#   From: 2010.06.25/outbox.cif.g09.slc.cpg/sg15_47_cif.got.tgz:93143.got - 2010.06.28 07:06:18.
