data_PCOD8140515
_publ_section_title
;
Structure prediction by ZEFSAII (Michael W. Deem and Ramdas Pophale) SiO2 
 PCOD8140515
Probable space group: C 2/C
;
_chemical_formula_sum "Si O2"
_cell_formula_units_Z 48
_cell_length_a 12.749086
_cell_length_b 27.221066
_cell_length_c 9.228235
_cell_angle_alpha 90.000000
_cell_angle_beta 49.699803
_cell_angle_gamma 90.000000
_cell_volume 2442.515176
_symmetry_space_group_name_H-M "C 2/C"
_symmetry_group_IT_number 15
_symmetry_cell_setting 'monoclinic'
loop_
_space_group_symop_operation_xyz
x,y,z
-x,y,1/2-z
-x,-y,-z
x,-y,1/2+z
1/2+x,1/2+y,z
1/2-x,1/2+y,1/2-z
1/2-x,1/2-y,-z
1/2+x,1/2-y,1/2+z
loop_
_atom_site_type_symbol
_atom_site_label
_atom_site_fract_x
_atom_site_fract_y
_atom_site_fract_z
Si Si1 0.142733 0.104080 0.045538
Si Si2 0.048484 0.572732 0.359978
Si Si3 0.126504 0.533148 0.742594
Si Si4 0.263368 0.156760 0.193836
Si Si5 0.018335 0.847730 0.392163
Si Si6 0.372284 0.758048 0.777051
O O1 0.215842 0.149154 0.068862
O O2 0.000000 0.089002 0.250000
O O3 0.237329 0.055757 0.951955
O O4 0.119643 0.120896 0.901537
O O5 0.146561 0.525052 0.249888
O O6 0.130999 0.613539 0.370995
O O7 0.000000 0.594357 0.250000
O O8 0.910630 0.558678 0.571666
O O9 0.000000 0.542772 0.750000
O O10 0.332888 0.208914 0.171823
O O11 0.133076 0.152514 0.411104
O O12 0.080088 0.793465 0.329950
O O13 0.000000 0.871736 0.250000
O O14 0.500000 0.782647 0.750000
O O15 0.250000 0.750000 0.000000
#
# Coordination Sequence:
#
# PCOD8140515 Si02
#       6
#     8   8   8   8   8   8
#     4  10  23  41  64  88 132 163 200 257 317 375
#     4  10  22  36  66  92 123 162 211 256 307 371
#     4  10  20  42  62  92 128 159 204 263 309 362
#     4  11  21  40  61  93 121 165 207 251 318 370
#     4  10  22  40  60  87 123 165 205 259 306 371
#     4  11  21  39  63  89 125 161 209 261 305 360
#
# _framework density 19.651872999999998
#
# number of rings (size 3 to 8) (size 9 to 14) (size 15 to 20)
#    0.000    1.667    5.000    0.500    2.333    2.000 
#    0.000    4.167    0.000    0.000    0.000    0.000 
#    0.000    0.000    0.000    0.000    0.000    0.000 
#
# Total GULP energy -297502.085797 kJ/mol
# GULP energy per Si atom -12395.920242 kJ/mol
# Density = 1.960714 g / cm^3
# Si number density = 19.651873 Si / 1000 Ang^3
#
#
#
# Elastic Constant Matrix: (Units=GPa)
#
#
# Indices 1 2 3 4 5 6 
#
# 1 101.8855 27.2397 35.7904 0.0000 11.6547 0.0000
# 2 27.2397 65.8721 24.7029 0.0000 -1.6879 0.0000
# 3 35.7904 24.7029 70.9637 0.0000 12.5102 0.0000
# 4 0.0000 0.0000 0.0000 22.6566 0.0000 7.0836
# 5 11.6547 -1.6879 12.5102 0.0000 37.8475 0.0000
# 6 0.0000 0.0000 0.0000 7.0836 0.0000 6.0445
#
#
#
# Elastic Compliance Matrix: (Units=1/GPa)
#
#
# Indices 1 2 3 4 5 6 
#
# 1 0.012713 -0.003546 -0.004736 0.000000 -0.002508 0.000000
# 2 -0.003546 0.018767 -0.005399 0.000000 0.003714 0.000000
# 3 -0.004736 -0.005399 0.019268 0.000000 -0.005151 0.000000
# 4 0.000000 0.000000 0.000000 0.069660 0.000000 -0.081635
# 5 -0.002508 0.003714 -0.005151 0.000000 0.029062 0.000000
# 6 0.000000 0.000000 0.000000 -0.081635 0.000000 0.261107
#
#
# Mechanical properties :
#
#
# Convention : Reuss Voigt Hill
#
# Bulk Modulus (GPa) = 42.75872 46.02081 44.38977
# Shear Modulus (GPa) = 11.21744 23.37561 17.29652
#
# Velocity S-wave (km/s) = 2.39175 3.45263 2.96994
# Velocity P-wave (km/s) = 5.42518 6.27400 5.86497
#
# Compressibility (1/GPa) = 0.02338704
#
# Stress axis : x y z
#
# Youngs Moduli (GPa) = 78.65800 53.28474 51.90010
#
# Poissons Ratio (x) = 0.18893 0.24578
# Poissons Ratio (y) = 0.27889 0.28023
# Poissons Ratio (z) = 0.37249 0.28770
#
# Static dielectric constant tensor:
#      x y z
#    x 3.886770 0.000000 0.226030 
#    y 0.000000 3.470420 0.000000 
#    z 0.226030 0.000000 3.670490 
# 
# 
# High freq. dielectric constant tensor:
#      x y z
#    x 1.776620 0.000000 0.006380 
#    y 0.000000 1.749380 0.000000 
#    z 0.006380 0.000000 1.767490 
# 
# From -- ./inp_files/33421.got.cif
#   From: 2010.06.25/outbox.cif.g09.slc.cpg/sg15_17_cif.got.tgz:33421.got - 2010.06.28 07:06:18.
