data_PCOD8140224
_publ_section_title
;
Structure prediction by ZEFSAII (Michael W. Deem and Ramdas Pophale) SiO2 
 PCOD8140224
Probable space group: C 2/C
;
_chemical_formula_sum "Si O2"
_cell_formula_units_Z 52
_cell_length_a 23.375158
_cell_length_b 10.313374
_cell_length_c 23.732668
_cell_angle_alpha 90.000000
_cell_angle_beta 156.200947
_cell_angle_gamma 90.000000
_cell_volume 2308.755273
_symmetry_space_group_name_H-M "C 2/C"
_symmetry_group_IT_number 15
_symmetry_cell_setting 'monoclinic'
loop_
_space_group_symop_operation_xyz
x,y,z
-x,y,1/2-z
-x,-y,-z
x,-y,1/2+z
1/2+x,1/2+y,z
1/2-x,1/2+y,1/2-z
1/2-x,1/2-y,-z
1/2+x,1/2-y,1/2+z
loop_
_atom_site_type_symbol
_atom_site_label
_atom_site_fract_x
_atom_site_fract_y
_atom_site_fract_z
Si Si1 0.505957 0.689443 0.892161
Si Si2 0.722152 0.711750 0.180192
Si Si3 0.000000 0.809911 0.750000
Si Si4 0.434441 0.915060 0.269614
Si Si5 0.164227 0.990324 0.464899
Si Si6 0.888983 0.645437 0.106894
Si Si7 0.380363 0.955991 0.348747
O O1 0.344075 0.735281 0.747823
O O2 0.524750 0.554733 0.874324
O O3 0.603038 0.794037 0.947430
O O4 0.573822 0.684133 0.015261
O O5 0.768931 0.574823 0.248745
O O6 0.698339 0.823493 0.204799
O O7 0.945152 0.729750 0.754526
O O8 0.871482 0.897597 0.611335
O O9 0.560832 0.995037 0.354361
O O10 0.449367 0.924549 0.350448
O O11 0.280057 0.970701 0.115395
O O12 0.227989 0.865586 0.486997
O O13 0.000000 0.714936 0.250000
O O14 0.500000 0.000000 0.500000
#
# Coordination Sequence:
#
# PCOD8140224 Si02
#       7
#     8   8   4   8   8   8   8
#     4  12  24  45  72 102 141 182 241 304 356 442
#     4  12  26  48  76 104 143 189 254 303 378 436
#     4  12  26  40  66 106 144 188 232 282 370 450
#     4  11  22  46  68  91 146 187 225 292 364 433
#     4  11  24  40  65 105 140 180 235 287 360 435
#     4  10  20  40  70  95 136 183 224 282 356 425
#     4  12  26  51  75 108 142 199 251 316 375 439
#
# _framework density 22.522960000000001
#
# number of rings (size 3 to 8) (size 9 to 14) (size 15 to 20)
#    0.000    0.615    6.923    1.846    3.231    3.077 
#    0.000    0.000    0.000    0.000    0.000    0.000 
#    0.000    0.000    0.000    0.000    0.000    0.000 
#
# Total GULP energy -322377.583611 kJ/mol
# GULP energy per Si atom -12399.137831 kJ/mol
# Density = 2.247170 g / cm^3
# Si number density = 22.522960 Si / 1000 Ang^3
#
#
#
# Elastic Constant Matrix: (Units=GPa)
#
#
# Indices 1 2 3 4 5 6 
#
# 1 95.5058 18.0462 14.6890 0.0031 -14.0133 0.0007
# 2 18.0462 86.0452 6.5603 0.0029 -16.2394 0.0009
# 3 14.6890 6.5603 70.0675 0.0063 -20.3850 0.0022
# 4 0.0031 0.0029 0.0063 33.4464 0.0030 -6.2269
# 5 -14.0133 -16.2394 -20.3850 0.0030 38.2087 0.0009
# 6 0.0007 0.0009 0.0022 -6.2269 0.0009 32.2736
#
#
#
# Elastic Compliance Matrix: (Units=1/GPa)
#
#
# Indices 1 2 3 4 5 6 
#
# 1 0.011421 -0.001783 -0.001455 -0.000001 0.002654 0.000000
# 2 -0.001783 0.012926 0.000677 -0.000002 0.005201 -0.000001
# 3 -0.001455 0.000677 0.017096 -0.000004 0.008875 -0.000002
# 4 -0.000001 -0.000002 -0.000004 0.031013 -0.000006 0.005984
# 5 0.002654 0.005201 0.008875 -0.000006 0.034091 -0.000003
# 6 0.000000 -0.000001 -0.000002 0.005984 -0.000003 0.032140
#
#
# Mechanical properties :
#
#
# Convention : Reuss Voigt Hill
#
# Bulk Modulus (GPa) = 27.53399 36.68993 32.11196
# Shear Modulus (GPa) = 32.06881 34.94062 33.50471
#
# Velocity S-wave (km/s) = 3.77746 3.94297 3.86110
# Velocity P-wave (km/s) = 5.59258 6.08726 5.84516
#
# Compressibility (1/GPa) = 0.03631875
#
# Stress axis : x y z
#
# Youngs Moduli (GPa) = 87.55950 77.36499 58.49452
#
# Poissons Ratio (x) = 0.13797 0.08511
# Poissons Ratio (y) = 0.15615 -0.03958
# Poissons Ratio (z) = 0.12740 -0.05235
#
# Static dielectric constant tensor:
#      x y z
#    x 4.033770 0.000000 -0.102280 
#    y 0.000000 4.246630 -0.000010 
#    z -0.102280 -0.000010 4.011620 
# 
# 
# High freq. dielectric constant tensor:
#      x y z
#    x 1.883030 0.000000 -0.008170 
#    y 0.000000 1.897710 0.000000 
#    z -0.008170 0.000000 1.886730 
# 
# From -- ./inp_files/252760.got.cif
#   From: 2010.06.25/outbox.cif.g09.slc.cpg/sg15_127_cif.got.tgz:252760.got - 2010.06.28 07:06:18.
