data_PCOD8140806
_publ_section_title
;
Structure prediction by ZEFSAII (Michael W. Deem and Ramdas Pophale) SiO2 
 PCOD8140806
Probable space group: C 2/C
;
_chemical_formula_sum "Si O2"
_cell_formula_units_Z 40
_cell_length_a 11.842026
_cell_length_b 14.210246
_cell_length_c 21.968986
_cell_angle_alpha 90.000000
_cell_angle_beta 152.387661
_cell_angle_gamma 90.000000
_cell_volume 1713.464290
_symmetry_space_group_name_H-M "C 2/C"
_symmetry_group_IT_number 15
_symmetry_cell_setting 'monoclinic'
loop_
_space_group_symop_operation_xyz
x,y,z
-x,y,1/2-z
-x,-y,-z
x,-y,1/2+z
1/2+x,1/2+y,z
1/2-x,1/2+y,1/2-z
1/2-x,1/2-y,-z
1/2+x,1/2-y,1/2+z
loop_
_atom_site_type_symbol
_atom_site_label
_atom_site_fract_x
_atom_site_fract_y
_atom_site_fract_z
Si Si1 0.672230 0.385754 0.174597
Si Si2 0.940260 0.220919 0.451590
Si Si3 0.448919 0.729240 0.154379
Si Si4 0.731128 0.094552 0.259519
Si Si5 0.726626 0.842953 0.027792
O O1 0.760789 0.491696 0.207105
O O2 0.888672 0.314638 0.296200
O O3 0.544782 0.350684 0.051914
O O4 0.484458 0.394671 0.142130
O O5 0.722800 0.168417 0.311978
O O6 0.832866 0.315810 0.430765
O O7 0.158016 0.249212 0.507349
O O8 0.500000 0.725158 0.250000
O O9 0.532997 0.628211 0.167207
O O10 0.493265 0.095920 0.104066
O O11 0.750000 0.750000 0.000000
#
# Coordination Sequence:
#
# PCOD8140806 Si02
#       5
#     8   8   8   8   8
#     4  10  23  40  63  97 129 159 216 265 308 378
#     4  10  22  42  67  93 125 166 216 262 314 378
#     4  10  20  44  62  89 131 165 205 266 312 378
#     4  12  22  39  72  90 125 174 206 262 330 360
#     4  10  21  44  61  92 134 162 207 268 311 379
#
# _framework density 23.344519999999999
#
# number of rings (size 3 to 8) (size 9 to 14) (size 15 to 20)
#    0.000    1.600    6.000    1.200    2.800    3.200 
#   10.800    3.000    0.000    0.000    0.000    0.000 
#    0.000    0.000    0.000    0.000    0.000    0.000 
#
# Total GULP energy -247901.965132 kJ/mol
# GULP energy per Si atom -12395.098257 kJ/mol
# Density = 2.329139 g / cm^3
# Si number density = 23.344520 Si / 1000 Ang^3
#
#
#
# Elastic Constant Matrix: (Units=GPa)
#
#
# Indices 1 2 3 4 5 6 
#
# 1 114.5270 29.1332 31.6066 -0.0007 25.1756 0.0003
# 2 29.1332 70.1198 4.4906 0.0007 -10.4751 0.0002
# 3 31.6066 4.4906 62.9122 0.0064 0.7942 -0.0017
# 4 -0.0007 0.0007 0.0064 20.8378 -0.0009 -7.3667
# 5 25.1756 -10.4751 0.7942 -0.0009 27.3021 0.0000
# 6 0.0003 0.0002 -0.0017 -7.3667 0.0000 27.4757
#
#
#
# Elastic Compliance Matrix: (Units=1/GPa)
#
#
# Indices 1 2 3 4 5 6 
#
# 1 0.017871 -0.009906 -0.008018 0.000003 -0.020046 0.000000
# 2 -0.009906 0.020704 0.003285 -0.000001 0.016983 0.000000
# 3 -0.008018 0.003285 0.019587 -0.000006 0.008084 0.000000
# 4 0.000003 -0.000001 -0.000006 0.053015 -0.000001 0.014214
# 5 -0.020046 0.016983 0.008084 -0.000001 0.061393 0.000000
# 6 0.000000 0.000000 0.000000 0.014214 0.000000 0.040207
#
#
# Mechanical properties :
#
#
# Convention : Reuss Voigt Hill
#
# Bulk Modulus (GPa) = 34.62332 42.00218 38.31275
# Shear Modulus (GPa) = 19.86627 27.27836 23.57231
#
# Velocity S-wave (km/s) = 2.92036 3.42206 3.18112
# Velocity P-wave (km/s) = 5.12201 5.80046 5.47176
#
# Compressibility (1/GPa) = 0.02888227
#
# Stress axis : x y z
#
# Youngs Moduli (GPa) = 55.95678 48.30039 51.05459
#
# Poissons Ratio (x) = 0.47847 0.40936
# Poissons Ratio (y) = 0.55432 -0.16769
# Poissons Ratio (z) = 0.44867 -0.15865
#
# Static dielectric constant tensor:
#      x y z
#    x 6.780420 0.000270 1.658760 
#    y 0.000270 4.076260 0.000200 
#    z 1.658760 0.000200 5.456630 
# 
# 
# High freq. dielectric constant tensor:
#      x y z
#    x 1.940440 0.000000 -0.000080 
#    y 0.000000 1.889550 0.000000 
#    z -0.000080 0.000000 1.928940 
# 
# From -- ./inp_files/270038.got.cif
#   From: 2010.06.25/outbox.cif.g09.slc.cpg/sg15_136_cif.got.tgz:270038.got - 2010.06.28 07:06:18.
