data_PCOD8140925
_publ_section_title
;
Structure prediction by ZEFSAII (Michael W. Deem and Ramdas Pophale) SiO2 
 PCOD8140925
Probable space group: C 2/C
;
_chemical_formula_sum "Si O2"
_cell_formula_units_Z 56
_cell_length_a 9.969362
_cell_length_b 9.803509
_cell_length_c 31.947916
_cell_angle_alpha 90.000000
_cell_angle_beta 108.298752
_cell_angle_gamma 90.000000
_cell_volume 2964.527354
_symmetry_space_group_name_H-M "C 2/C"
_symmetry_group_IT_number 15
_symmetry_cell_setting 'monoclinic'
loop_
_space_group_symop_operation_xyz
x,y,z
-x,y,1/2-z
-x,-y,-z
x,-y,1/2+z
1/2+x,1/2+y,z
1/2-x,1/2+y,1/2-z
1/2-x,1/2-y,-z
1/2+x,1/2-y,1/2+z
loop_
_atom_site_type_symbol
_atom_site_label
_atom_site_fract_x
_atom_site_fract_y
_atom_site_fract_z
Si Si1 0.083133 0.775320 0.852140
Si Si2 0.799773 0.144359 0.937117
Si Si3 0.658483 0.606095 0.274501
Si Si4 0.999325 0.918639 0.919726
Si Si5 0.609638 0.118793 0.725962
Si Si6 0.954614 0.741917 0.990808
Si Si7 0.745842 0.469759 0.491216
O O1 0.192758 0.710605 0.894795
O O2 0.988258 0.882452 0.869427
O O3 0.981023 0.658023 0.823872
O O4 0.168293 0.855944 0.824437
O O5 0.894590 0.041566 0.919218
O O6 0.715383 0.065389 0.965532
O O7 0.895537 0.257815 0.970158
O O8 0.500000 0.550127 0.250000
O O9 0.685396 0.743672 0.250298
O O10 0.774050 0.493791 0.273808
O O11 0.964175 0.783787 0.943286
O O12 0.162471 0.952721 0.946416
O O13 0.500000 0.061096 0.750000
O O14 0.858283 0.852066 0.004037
O O15 0.890622 0.590866 0.987293
#
# Coordination Sequence:
#
# PCOD8140925 Si02
#       7
#     8   8   8   8   8   8   8
#     4  10  21  33  52  82 110 132 170 219 271 324
#     4   9  18  32  47  68 103 139 172 219 268 303
#     4   9  21  41  61  82 110 140 173 217 270 332
#     4   9  18  32  47  68 103 139 172 219 268 303
#     4   9  21  41  61  82 110 140 173 217 270 332
#     4   8  15  29  47  66  95 140 186 220 254 300
#     4   8  15  29  47  66  95 140 186 220 254 300
#
# _framework density 18.890025000000001
#
# number of rings (size 3 to 8) (size 9 to 14) (size 15 to 20)
#    0.000    3.429    0.000    1.714    0.000    9.714 
#    0.000    1.429    0.000    0.000    0.000    0.000 
#    0.000    0.000    0.000    0.000    0.000    0.000 
#
# Total GULP energy -347013.152747 kJ/mol
# GULP energy per Si atom -12393.326884 kJ/mol
# Density = 1.884703 g / cm^3
# Si number density = 18.890025 Si / 1000 Ang^3
#
#
#
# Elastic Constant Matrix: (Units=GPa)
#
#
# Indices 1 2 3 4 5 6 
#
# 1 83.6241 65.4257 32.3195 0.0000 -4.7643 0.0000
# 2 65.4257 65.6681 30.2563 0.0000 -8.6760 0.0000
# 3 32.3195 30.2563 102.1740 0.0000 -7.5520 0.0000
# 4 0.0000 0.0000 0.0000 17.0575 0.0000 -2.9086
# 5 -4.7643 -8.6760 -7.5520 0.0000 19.5293 0.0000
# 6 0.0000 0.0000 0.0000 -2.9086 0.0000 50.4517
#
#
#
# Elastic Compliance Matrix: (Units=1/GPa)
#
#
# Indices 1 2 3 4 5 6 
#
# 1 0.057067 -0.057618 -0.001907 0.000000 -0.012412 0.000000
# 2 -0.057618 0.076515 -0.003046 0.000000 0.018758 0.000000
# 3 -0.001907 -0.003046 0.011486 0.000000 0.002623 0.000000
# 4 0.000000 0.000000 0.000000 0.059207 0.000000 0.003413
# 5 -0.012412 0.018758 0.002623 0.000000 0.057525 0.000000
# 6 0.000000 0.000000 0.000000 0.003413 0.000000 0.020018
#
#
# Mechanical properties :
#
#
# Convention : Reuss Voigt Hill
#
# Bulk Modulus (GPa) = 50.18252 56.38546 53.28399
# Shear Modulus (GPa) = 12.08894 25.63870 18.86382
#
# Velocity S-wave (km/s) = 2.53250 3.68810 3.16351
# Velocity P-wave (km/s) = 5.93082 6.93183 6.45077
#
# Compressibility (1/GPa) = 0.01992726
#
# Stress axis : x y z
#
# Youngs Moduli (GPa) = 17.52328 13.06932 87.06067
#
# Poissons Ratio (x) = 0.75303 0.16599
# Poissons Ratio (y) = 1.00965 0.26519
# Poissons Ratio (z) = 0.03341 0.03981
#
# Static dielectric constant tensor:
#      x y z
#    x 3.700200 0.000000 -0.101070 
#    y 0.000000 3.563860 0.000000 
#    z -0.101070 0.000000 3.442480 
# 
# 
# High freq. dielectric constant tensor:
#      x y z
#    x 1.733700 0.000000 -0.006140 
#    y 0.000000 1.730420 0.000000 
#    z -0.006140 0.000000 1.727690 
# 
# From -- ./inp_files/310058.got.cif
#   From: 2010.06.25/outbox.cif.g09.slc.cpg/sg15_156_cif.got.tgz:310058.got - 2010.06.28 07:06:18.
