data_PCOD8140951
_publ_section_title
;
Structure prediction by ZEFSAII (Michael W. Deem and Ramdas Pophale) SiO2 
 PCOD8140951
Probable space group: C 2/C
;
_chemical_formula_sum "Si O2"
_cell_formula_units_Z 60
_cell_length_a 22.530325
_cell_length_b 15.438005
_cell_length_c 9.476735
_cell_angle_alpha 90.000000
_cell_angle_beta 112.339666
_cell_angle_gamma 90.000000
_cell_volume 3048.836420
_symmetry_space_group_name_H-M "C 2/C"
_symmetry_group_IT_number 15
_symmetry_cell_setting 'monoclinic'
loop_
_space_group_symop_operation_xyz
x,y,z
-x,y,1/2-z
-x,-y,-z
x,-y,1/2+z
1/2+x,1/2+y,z
1/2-x,1/2+y,1/2-z
1/2-x,1/2-y,-z
1/2+x,1/2-y,1/2+z
loop_
_atom_site_type_symbol
_atom_site_label
_atom_site_fract_x
_atom_site_fract_y
_atom_site_fract_z
Si Si1 0.857644 0.080584 0.656023
Si Si2 0.365779 0.777640 0.603264
Si Si3 0.560336 0.194061 0.611580
Si Si4 0.713246 0.937607 0.041477
Si Si5 0.000000 0.834173 0.750000
Si Si6 0.859971 0.541191 0.748777
Si Si7 0.957256 0.395581 0.845699
Si Si8 0.566855 0.469492 0.996747
O O1 0.845634 0.182849 0.633821
O O2 0.787180 0.038681 0.583075
O O3 0.887543 0.058609 0.834563
O O4 0.900841 0.045766 0.566270
O O5 0.405192 0.770195 0.495234
O O6 0.304222 0.840534 0.527714
O O7 0.411649 0.815472 0.765111
O O8 0.540718 0.277419 0.680111
O O9 0.608314 0.135214 0.747773
O O10 0.499557 0.134775 0.515841
O O11 0.697261 0.949352 0.190840
O O12 0.669342 0.007571 0.922474
O O13 0.946875 0.890084 0.620027
O O14 0.914994 0.476952 0.857520
O O15 0.000000 0.423568 0.750000
O O16 0.500000 0.500000 0.000000
#
# Coordination Sequence:
#
# PCOD8140951 Si02
#       8
#     8   8   8   8   4   8   8   8
#     4  12  23  42  69  83 119 158 200 245 307 349
#     4   9  20  38  61  87 122 154 205 245 286 349
#     4  10  21  33  58  89 128 158 189 251 296 353
#     4  10  22  40  61  91 118 163 204 240 282 355
#     4  12  24  38  58  94 122 148 202 236 324 352
#     4  10  21  37  58  89 129 159 204 237 287 347
#     4   9  18  34  58  92 121 163 199 235 294 359
#     4  12  25  43  64  92 117 152 195 259 305 366
#
# _framework density 19.679639000000002
#
# number of rings (size 3 to 8) (size 9 to 14) (size 15 to 20)
#    0.000    1.600    1.333    4.000    2.800    2.133 
#    0.000    0.000    0.000    2.400    0.000    0.000 
#    0.000    0.000    0.000    0.000    0.000    0.000 
#
# Total GULP energy -372055.866204 kJ/mol
# GULP energy per Si atom -12401.862207 kJ/mol
# Density = 1.963485 g / cm^3
# Si number density = 19.679639 Si / 1000 Ang^3
#
#
#
# Elastic Constant Matrix: (Units=GPa)
#
#
# Indices 1 2 3 4 5 6 
#
# 1 103.8558 24.0587 24.5747 0.0000 10.6422 0.0000
# 2 24.0587 87.2000 30.2159 0.0000 1.0607 0.0000
# 3 24.5747 30.2159 84.8206 0.0000 9.9728 0.0000
# 4 0.0000 0.0000 0.0000 25.2526 0.0000 -8.4202
# 5 10.6422 1.0607 9.9728 0.0000 24.4098 0.0000
# 6 0.0000 0.0000 0.0000 -8.4202 0.0000 26.5700
#
#
#
# Elastic Compliance Matrix: (Units=1/GPa)
#
#
# Indices 1 2 3 4 5 6 
#
# 1 0.011022 -0.002335 -0.001900 0.000000 -0.003928 0.000000
# 2 -0.002335 0.013623 -0.004440 0.000000 0.002240 0.000000
# 3 -0.001900 -0.004440 0.014498 0.000000 -0.004902 0.000000
# 4 0.000000 0.000000 0.000000 0.044279 0.000000 0.014032
# 5 -0.003928 0.002240 -0.004902 0.000000 0.044585 0.000000
# 6 0.000000 0.000000 0.000000 0.014032 0.000000 0.042083
#
#
# Mechanical properties :
#
#
# Convention : Reuss Voigt Hill
#
# Bulk Modulus (GPa) = 45.88440 48.17501 47.02970
# Shear Modulus (GPa) = 25.68004 28.38161 27.03082
#
# Velocity S-wave (km/s) = 3.61626 3.80173 3.71015
# Velocity P-wave (km/s) = 6.38770 6.61843 6.50409
#
# Compressibility (1/GPa) = 0.02179390
#
# Stress axis : x y z
#
# Youngs Moduli (GPa) = 90.73094 73.40340 68.97497
#
# Poissons Ratio (x) = 0.17139 0.13103
# Poissons Ratio (y) = 0.21184 0.30625
# Poissons Ratio (z) = 0.17236 0.32591
#
# Static dielectric constant tensor:
#      x y z
#    x 3.554370 0.000000 0.074370 
#    y 0.000000 3.572810 0.000000 
#    z 0.074370 0.000000 3.584870 
# 
# 
# High freq. dielectric constant tensor:
#      x y z
#    x 1.768390 0.000000 0.000880 
#    y 0.000000 1.768130 0.000000 
#    z 0.000880 0.000000 1.766250 
# 
# From -- ./inp_files/61958.got.cif
#   From: 2010.06.25/outbox.cif.g09.slc.cpg/sg15_31_cif.got.tgz:61958.got - 2010.06.28 07:06:18.
