data_PCOD8140562
_publ_section_title
;
Structure prediction by ZEFSAII (Michael W. Deem and Ramdas Pophale) SiO2 
 PCOD8140562
Probable space group: C 2/C
;
_chemical_formula_sum "Si O2"
_cell_formula_units_Z 52
_cell_length_a 12.420351
_cell_length_b 14.579025
_cell_length_c 17.463930
_cell_angle_alpha 90.000000
_cell_angle_beta 49.534599
_cell_angle_gamma 90.000000
_cell_volume 2405.878538
_symmetry_space_group_name_H-M "C 2/C"
_symmetry_group_IT_number 15
_symmetry_cell_setting 'monoclinic'
loop_
_space_group_symop_operation_xyz
x,y,z
-x,y,1/2-z
-x,-y,-z
x,-y,1/2+z
1/2+x,1/2+y,z
1/2-x,1/2+y,1/2-z
1/2-x,1/2-y,-z
1/2+x,1/2-y,1/2+z
loop_
_atom_site_type_symbol
_atom_site_label
_atom_site_fract_x
_atom_site_fract_y
_atom_site_fract_z
Si Si1 0.705202 0.498238 0.622541
Si Si2 0.850695 0.403483 0.787000
Si Si3 0.700819 0.918371 0.281061
Si Si4 0.765643 0.730791 0.191923
Si Si5 0.283749 0.857060 0.979504
Si Si6 0.000000 0.150585 0.250000
Si Si7 0.523205 0.882316 0.987702
O O1 0.679479 0.532854 0.721439
O O2 0.674392 0.581818 0.579612
O O3 0.602247 0.414209 0.650786
O O4 0.876122 0.472688 0.547333
O O5 0.857571 0.507652 0.752585
O O6 0.799680 0.331488 0.748698
O O7 0.755590 0.394641 0.907170
O O8 0.000000 0.370376 0.750000
O O9 0.783481 0.838340 0.198570
O O10 0.577464 0.872077 0.391562
O O11 0.598818 0.715288 0.254521
O O12 0.864093 0.702029 0.073955
O O13 0.438422 0.878846 0.945239
O O14 0.250000 0.750000 0.000000
#
# Coordination Sequence:
#
# PCOD8140562 Si02
#       7
#     8   8   8   8   8   4   8
#     4  10  20  42  65  83 125 178 209 252 335 391
#     4  12  21  40  66  97 123 158 225 272 305 386
#     4  11  22  39  68  94 124 169 223 266 315 385
#     4  11  24  42  61  94 129 168 215 268 327 389
#     4  11  22  37  63 100 127 161 210 277 328 380
#     4  10  22  44  60  84 130 174 206 254 330 402
#     4  10  20  43  64  85 129 172 210 253 330 390
#
# _framework density 21.613727000000001
#
# number of rings (size 3 to 8) (size 9 to 14) (size 15 to 20)
#    0.000    1.231    4.615    4.615    1.077    1.231 
#    5.538    2.308    0.000    0.000    0.000    0.000 
#    0.000    0.000    0.000    0.000    0.000    0.000 
#
# Total GULP energy -322123.531871 kJ/mol
# GULP energy per Si atom -12389.366610 kJ/mol
# Density = 2.156453 g / cm^3
# Si number density = 21.613727 Si / 1000 Ang^3
#
#
#
# Elastic Constant Matrix: (Units=GPa)
#
#
# Indices 1 2 3 4 5 6 
#
# 1 68.0513 21.2675 22.7014 0.0000 9.8023 0.0000
# 2 21.2675 113.7229 28.3794 0.0000 14.1806 0.0000
# 3 22.7014 28.3794 76.0688 0.0000 18.5152 0.0000
# 4 0.0000 0.0000 0.0000 33.7966 0.0000 5.6330
# 5 9.8023 14.1806 18.5152 0.0000 24.8767 0.0000
# 6 0.0000 0.0000 0.0000 5.6330 0.0000 20.4295
#
#
#
# Elastic Compliance Matrix: (Units=1/GPa)
#
#
# Indices 1 2 3 4 5 6 
#
# 1 0.016916 -0.001896 -0.003641 0.000000 -0.002874 0.000000
# 2 -0.001896 0.010159 -0.002438 0.000000 -0.003229 0.000000
# 3 -0.003641 -0.002438 0.017653 0.000000 -0.010314 0.000000
# 4 0.000000 0.000000 0.000000 0.031014 0.000000 -0.008551
# 5 -0.002874 -0.003229 -0.010314 0.000000 0.050848 0.000000
# 6 0.000000 0.000000 0.000000 -0.008551 0.000000 0.051307
#
#
# Mechanical properties :
#
#
# Convention : Reuss Voigt Hill
#
# Bulk Modulus (GPa) = 34.75079 44.72663 39.73871
# Shear Modulus (GPa) = 24.57723 28.18688 26.38205
#
# Velocity S-wave (km/s) = 3.37577 3.61518 3.49752
# Velocity P-wave (km/s) = 5.59530 6.17775 5.89372
#
# Compressibility (1/GPa) = 0.02877632
#
# Stress axis : x y z
#
# Youngs Moduli (GPa) = 59.11496 98.43436 56.64861
#
# Poissons Ratio (x) = 0.18667 0.20627
# Poissons Ratio (y) = 0.11211 0.13812
# Poissons Ratio (z) = 0.21525 0.24000
#
# Static dielectric constant tensor:
#      x y z
#    x 4.000930 0.000000 0.129610 
#    y 0.000000 3.913050 0.000000 
#    z 0.129610 0.000000 4.067060 
# 
# 
# High freq. dielectric constant tensor:
#      x y z
#    x 1.841910 0.000000 -0.000800 
#    y 0.000000 1.853930 0.000000 
#    z -0.000800 0.000000 1.833840 
# 
# From -- ./inp_files/197685.got.cif
#   From: 2010.06.25/outbox.cif.g09.slc.cpg/sg15_99_cif.got.tgz:197685.got - 2010.06.28 07:06:18.
