data_PCOD8140455
_publ_section_title
;
Structure prediction by ZEFSAII (Michael W. Deem and Ramdas Pophale) SiO2 
 PCOD8140455
Probable space group: C 2/C
;
_chemical_formula_sum "Si O2"
_cell_formula_units_Z 52
_cell_length_a 6.200670
_cell_length_b 32.142785
_cell_length_c 12.849181
_cell_angle_alpha 90.000000
_cell_angle_beta 70.264662
_cell_angle_gamma 90.000000
_cell_volume 2410.506495
_symmetry_space_group_name_H-M "C 2/C"
_symmetry_group_IT_number 15
_symmetry_cell_setting 'monoclinic'
loop_
_space_group_symop_operation_xyz
x,y,z
-x,y,1/2-z
-x,-y,-z
x,-y,1/2+z
1/2+x,1/2+y,z
1/2-x,1/2+y,1/2-z
1/2-x,1/2-y,-z
1/2+x,1/2-y,1/2+z
loop_
_atom_site_type_symbol
_atom_site_label
_atom_site_fract_x
_atom_site_fract_y
_atom_site_fract_z
Si Si1 0.373570 0.831105 0.370879
Si Si2 0.000000 0.920199 0.750000
Si Si3 0.848812 0.313334 0.975562
Si Si4 0.373657 0.012868 0.171918
Si Si5 0.321478 0.531743 0.977820
Si Si6 0.549299 0.736143 0.861333
Si Si7 0.964549 0.881838 0.535695
O O1 0.500000 0.850904 0.250000
O O2 0.554901 0.830236 0.432836
O O3 0.292343 0.783997 0.354157
O O4 0.163659 0.859581 0.439227
O O5 0.222620 0.948311 0.736640
O O6 0.959573 0.892037 0.858692
O O7 0.633584 0.284152 0.032126
O O8 0.041196 0.286215 0.882010
O O9 0.761614 0.352633 0.921962
O O10 0.500000 0.991420 0.250000
O O11 0.208724 0.980212 0.139210
O O12 0.568151 0.030551 0.065493
O O13 0.500000 0.500000 0.000000
O O14 0.418624 0.577538 0.974525
O O15 0.500000 0.725482 0.750000
#
# Coordination Sequence:
#
# PCOD8140455 Si02
#       7
#     8   4   8   8   8   8   8
#     4  11  23  43  70  97 140 187 223 282 346 410
#     4  12  24  46  70 102 140 182 224 300 354 404
#     4  10  23  41  64 101 130 174 227 281 341 402
#     4  11  22  41  74  96 130 184 232 286 345 408
#     4  11  23  44  69  98 136 183 238 277 345 424
#     4  10  20  41  69  93 130 176 227 277 334 414
#     4  11  26  42  69 101 142 175 231 288 349 415
#
# _framework density 21.572227999999999
#
# number of rings (size 3 to 8) (size 9 to 14) (size 15 to 20)
#    0.000    1.231    4.615    0.462    2.154    1.231 
#    0.000    7.692    0.000    0.000    0.000    0.000 
#    0.000    0.000    0.000    0.000    0.000    0.000 
#
# Total GULP energy -322361.486194 kJ/mol
# GULP energy per Si atom -12398.518700 kJ/mol
# Density = 2.152313 g / cm^3
# Si number density = 21.572228 Si / 1000 Ang^3
#
#
#
# Elastic Constant Matrix: (Units=GPa)
#
#
# Indices 1 2 3 4 5 6 
#
# 1 110.5766 48.0599 38.7249 0.0000 22.5576 0.0000
# 2 48.0599 128.3115 44.2284 0.0000 7.8763 0.0000
# 3 38.7249 44.2284 100.6213 0.0000 14.2134 0.0000
# 4 0.0000 0.0000 0.0000 22.6939 0.0000 0.1598
# 5 22.5576 7.8763 14.2134 0.0000 50.9164 0.0000
# 6 0.0000 0.0000 0.0000 0.1598 0.0000 18.1859
#
#
#
# Elastic Compliance Matrix: (Units=1/GPa)
#
#
# Indices 1 2 3 4 5 6 
#
# 1 0.012320 -0.003450 -0.002633 0.000000 -0.004189 0.000000
# 2 -0.003450 0.010156 -0.003259 0.000000 0.000867 0.000000
# 3 -0.002633 -0.003259 0.012647 0.000000 -0.001860 0.000000
# 4 0.000000 0.000000 0.000000 0.044067 0.000000 -0.000387
# 5 -0.004189 0.000867 -0.001860 0.000000 0.021881 0.000000
# 6 0.000000 0.000000 0.000000 -0.000387 0.000000 0.054991
#
#
# Mechanical properties :
#
#
# Convention : Reuss Voigt Hill
#
# Bulk Modulus (GPa) = 60.83187 66.83735 63.83461
# Shear Modulus (GPa) = 27.74317 32.25898 30.00107
#
# Velocity S-wave (km/s) = 3.59006 3.87123 3.73329
# Velocity P-wave (km/s) = 6.74130 7.14368 6.94540
#
# Compressibility (1/GPa) = 0.01643875
#
# Stress axis : x y z
#
# Youngs Moduli (GPa) = 81.17154 98.46711 79.07136
#
# Poissons Ratio (x) = 0.33967 0.20822
# Poissons Ratio (y) = 0.28001 0.25768
# Poissons Ratio (z) = 0.21375 0.32089
#
# Static dielectric constant tensor:
#      x y z
#    x 4.119910 0.000000 0.003210 
#    y 0.000000 4.036830 0.000000 
#    z 0.003210 0.000000 3.992670 
# 
# 
# High freq. dielectric constant tensor:
#      x y z
#    x 1.860030 0.000000 0.003870 
#    y 0.000000 1.833080 0.000000 
#    z 0.003870 0.000000 1.847740 
# 
# From -- ./inp_files/130726.got.cif
#   From: 2010.06.25/outbox.cif.g09.slc.cpg/sg15_66_cif.got.tgz:130726.got - 2010.06.28 07:06:18.
