data_PCOD8140083
_publ_section_title
;
Structure prediction by ZEFSAII (Michael W. Deem and Ramdas Pophale) SiO2 
 PCOD8140083
Probable space group: C 2/C
;
_chemical_formula_sum "Si O2"
_cell_formula_units_Z 56
_cell_length_a 26.840366
_cell_length_b 8.562907
_cell_length_c 14.895386
_cell_angle_alpha 90.000000
_cell_angle_beta 125.812076
_cell_angle_gamma 90.000000
_cell_volume 2776.197890
_symmetry_space_group_name_H-M "C 2/C"
_symmetry_group_IT_number 15
_symmetry_cell_setting 'monoclinic'
loop_
_space_group_symop_operation_xyz
x,y,z
-x,y,1/2-z
-x,-y,-z
x,-y,1/2+z
1/2+x,1/2+y,z
1/2-x,1/2+y,1/2-z
1/2-x,1/2-y,-z
1/2+x,1/2-y,1/2+z
loop_
_atom_site_type_symbol
_atom_site_label
_atom_site_fract_x
_atom_site_fract_y
_atom_site_fract_z
Si Si1 0.700475 0.116955 0.465481
Si Si2 0.662712 0.731581 0.669325
Si Si3 0.500000 0.981136 0.250000
Si Si4 0.912992 0.769635 0.591961
Si Si5 0.500000 0.480075 0.250000
Si Si6 0.691502 0.204298 0.882848
Si Si7 0.241359 0.942423 0.806568
Si Si8 0.415454 0.226003 0.236509
O O1 0.750000 0.250000 0.500000
O O2 0.635017 0.206672 0.396979
O O3 0.693309 0.985772 0.378268
O O4 0.716255 0.026791 0.573484
O O5 0.626441 0.727394 0.538727
O O6 0.713043 0.870132 0.719440
O O7 0.695855 0.565176 0.713870
O O8 0.617133 0.765524 0.702197
O O9 0.544851 0.883153 0.360940
O O10 0.462025 0.081737 0.281955
O O11 0.869742 0.767836 0.634033
O O12 0.957746 0.917926 0.639703
O O13 0.454649 0.381498 0.264541
O O14 0.699262 0.297332 0.797546
O O15 0.750000 0.250000 0.000000
#
# Coordination Sequence:
#
# PCOD8140083 Si02
#       8
#     8   8   4   8   4   8   8   8
#     4  11  21  40  69  94 126 171 214 258 317 404
#     4  12  25  39  61  99 135 158 204 279 333 380
#     4  10  22  44  66  84 116 186 226 252 302 398
#     4  11  22  42  67  89 124 168 223 261 317 374
#     4  10  26  42  66  86 118 182 226 256 296 392
#     4  10  20  40  66  91 123 170 212 252 317 402
#     4  11  25  37  62 102 133 170 204 258 346 387
#     4  11  23  41  64  92 127 163 222 264 317 376
#
# _framework density 20.171472000000001
#
# number of rings (size 3 to 8) (size 9 to 14) (size 15 to 20)
#    0.000    1.143    5.714    0.857    4.000    2.286 
#    0.000    0.000    0.000    0.000    0.000    0.000 
#    0.000    0.000    0.000    0.000    0.000    0.000 
#
# Total GULP energy -347077.249950 kJ/mol
# GULP energy per Si atom -12395.616070 kJ/mol
# Density = 2.012556 g / cm^3
# Si number density = 20.171472 Si / 1000 Ang^3
#
#
#
# Elastic Constant Matrix: (Units=GPa)
#
#
# Indices 1 2 3 4 5 6 
#
# 1 167.8964 81.9750 44.1366 0.0000 4.7274 0.0000
# 2 81.9750 151.0404 43.9556 0.0000 4.2376 0.0000
# 3 44.1366 43.9556 77.7032 0.0000 6.8285 0.0000
# 4 0.0000 0.0000 0.0000 98.8346 0.0000 78.7577
# 5 4.7274 4.2376 6.8285 0.0000 32.0218 0.0000
# 6 0.0000 0.0000 0.0000 78.7577 0.0000 107.1503
#
#
#
# Elastic Compliance Matrix: (Units=1/GPa)
#
#
# Indices 1 2 3 4 5 6 
#
# 1 0.008543 -0.003859 -0.002653 0.000000 -0.000185 0.000000
# 2 -0.003859 0.009669 -0.003277 0.000000 -0.000011 0.000000
# 3 -0.002653 -0.003277 0.016466 0.000000 -0.002686 0.000000
# 4 0.000000 0.000000 0.000000 0.024422 0.000000 -0.017951
# 5 -0.000185 -0.000011 -0.002686 0.000000 0.031830 0.000000
# 6 0.000000 0.000000 0.000000 -0.017951 0.000000 0.022527
#
#
# Mechanical properties :
#
#
# Convention : Reuss Voigt Hill
#
# Bulk Modulus (GPa) = 66.22453 81.86382 74.04417
# Shear Modulus (GPa) = 36.21365 62.70620 49.45992
#
# Velocity S-wave (km/s) = 4.24168 5.58158 4.95711
# Velocity P-wave (km/s) = 7.54263 9.06702 8.33973
#
# Compressibility (1/GPa) = 0.01510015
#
# Stress axis : x y z
#
# Youngs Moduli (GPa) = 117.05478 103.42128 60.73072
#
# Poissons Ratio (x) = 0.39913 0.16113
# Poissons Ratio (y) = 0.45175 0.19899
# Poissons Ratio (z) = 0.31057 0.33887
#
# Static dielectric constant tensor:
#      x y z
#    x 3.433470 0.000000 0.304740 
#    y 0.000000 4.672430 0.000000 
#    z 0.304740 0.000000 3.522650 
# 
# 
# High freq. dielectric constant tensor:
#      x y z
#    x 1.794230 0.000000 0.022550 
#    y 0.000000 1.810940 0.000000 
#    z 0.022550 0.000000 1.766870 
# 
# From -- ./inp_files/172523.got.cif
#   From: 2010.06.25/outbox.cif.g09.slc.cpg/sg15_87_cif.got.tgz:172523.got - 2010.06.28 07:06:18.
