data_PCOD8140748
_publ_section_title
;
Structure prediction by ZEFSAII (Michael W. Deem and Ramdas Pophale) SiO2 
 PCOD8140748
Probable space group: C 2/C
;
_chemical_formula_sum "Si O2"
_cell_formula_units_Z 40
_cell_length_a 13.612255
_cell_length_b 14.482428
_cell_length_c 17.571098
_cell_angle_alpha 90.000000
_cell_angle_beta 33.959921
_cell_angle_gamma 90.000000
_cell_volume 1935.001357
_symmetry_space_group_name_H-M "C 2/C"
_symmetry_group_IT_number 15
_symmetry_cell_setting 'monoclinic'
loop_
_space_group_symop_operation_xyz
x,y,z
-x,y,1/2-z
-x,-y,-z
x,-y,1/2+z
1/2+x,1/2+y,z
1/2-x,1/2+y,1/2-z
1/2-x,1/2-y,-z
1/2+x,1/2-y,1/2+z
loop_
_atom_site_type_symbol
_atom_site_label
_atom_site_fract_x
_atom_site_fract_y
_atom_site_fract_z
Si Si1 0.836287 0.067077 0.603117
Si Si2 0.650501 0.955026 0.499540
Si Si3 0.894577 0.380312 0.125508
Si Si4 0.000000 0.935405 0.750000
Si Si5 0.500000 0.030295 0.250000
Si Si6 0.574331 0.292772 0.576206
O O1 0.791432 0.086772 0.720071
O O2 0.881922 0.160932 0.531717
O O3 0.663029 0.030216 0.672550
O O4 0.000000 0.000000 0.500000
O O5 0.628001 0.873499 0.451535
O O6 0.580829 0.913133 0.625572
O O7 0.541994 0.045220 0.548169
O O8 0.846501 0.994763 0.372805
O O9 0.938934 0.286392 0.140232
O O10 0.972835 0.865944 0.695865
O O11 0.750000 0.250000 0.500000
#
# Coordination Sequence:
#
# PCOD8140748 Si02
#       6
#     8   8   8   4   4   8
#     4  11  22  40  63  96 132 174 213 267 331 396
#     4  10  21  38  62  88 129 170 207 263 320 389
#     4  10  22  37  56  95 133 161 212 265 322 385
#     4  12  20  35  64  95 118 176 210 248 335 386
#     4  10  20  43  64  93 130 166 224 266 317 392
#     4  12  21  37  62  98 133 162 207 277 325 378
#
# _framework density 20.67182
#
# number of rings (size 3 to 8) (size 9 to 14) (size 15 to 20)
#    0.000    1.200    4.000    3.600    0.000    0.800 
#    0.000    0.000    0.000    2.400    0.000    0.000 
#    0.000    0.000    0.000    0.000    0.000    0.000 
#
# Total GULP energy -247768.599772 kJ/mol
# GULP energy per Si atom -12388.429989 kJ/mol
# Density = 2.062477 g / cm^3
# Si number density = 20.671820 Si / 1000 Ang^3
#
#
#
# Elastic Constant Matrix: (Units=GPa)
#
#
# Indices 1 2 3 4 5 6 
#
# 1 98.4562 42.9138 67.2298 -0.0020 20.3359 0.0008
# 2 42.9138 48.9044 30.8204 -0.0019 -11.2021 -0.0009
# 3 67.2298 30.8204 162.2796 -0.0075 15.4203 0.0006
# 4 -0.0020 -0.0019 -0.0075 17.1913 0.0048 1.6372
# 5 20.3359 -11.2021 15.4203 0.0048 44.4053 -0.0026
# 6 0.0008 -0.0009 0.0006 1.6372 -0.0026 30.6616
#
#
#
# Elastic Compliance Matrix: (Units=1/GPa)
#
#
# Indices 1 2 3 4 5 6 
#
# 1 0.028857 -0.026102 -0.005291 0.000003 -0.017963 -0.000003
# 2 -0.026102 0.049652 -0.000975 -0.000005 0.024818 0.000005
# 3 -0.005291 -0.000975 0.008617 0.000003 -0.000815 0.000000
# 4 0.000003 -0.000005 0.000003 0.058466 -0.000011 -0.003122
# 5 -0.017963 0.024818 -0.000815 -0.000011 0.037290 0.000005
# 6 -0.000003 0.000005 0.000000 -0.003122 0.000005 0.032781
#
#
# Mechanical properties :
#
#
# Convention : Reuss Voigt Hill
#
# Bulk Modulus (GPa) = 44.66201 65.72981 55.19591
# Shear Modulus (GPa) = 17.36956 29.69671 23.53314
#
# Velocity S-wave (km/s) = 2.90186 3.79434 3.37770
# Velocity P-wave (km/s) = 5.73410 7.14576 6.47849
#
# Compressibility (1/GPa) = 0.02239039
#
# Stress axis : x y z
#
# Youngs Moduli (GPa) = 34.65402 20.14030 116.05567
#
# Poissons Ratio (x) = 0.52571 0.61400
# Poissons Ratio (y) = 0.90454 0.11310
# Poissons Ratio (z) = 0.18334 0.01963
#
# Static dielectric constant tensor:
#      x y z
#    x 3.895300 0.000000 0.434850 
#    y 0.000000 3.363420 0.000000 
#    z 0.434850 0.000000 4.334780 
# 
# 
# High freq. dielectric constant tensor:
#      x y z
#    x 1.801450 0.000000 0.016110 
#    y 0.000000 1.763730 0.000000 
#    z 0.016110 0.000000 1.842740 
# 
# From -- ./inp_files/37881.got.cif
#   From: 2010.06.25/outbox.cif.g09.slc.cpg/sg15_19_cif.got.tgz:37881.got - 2010.06.28 07:06:18.
