data_PCOD8140230
_publ_section_title
;
Structure prediction by ZEFSAII (Michael W. Deem and Ramdas Pophale) SiO2 
 PCOD8140230
Probable space group: C 2/C
;
_chemical_formula_sum "Si O2"
_cell_formula_units_Z 52
_cell_length_a 16.675113
_cell_length_b 6.064564
_cell_length_c 28.377706
_cell_angle_alpha 90.000000
_cell_angle_beta 123.535389
_cell_angle_gamma 90.000000
_cell_volume 2392.073821
_symmetry_space_group_name_H-M "C 2/C"
_symmetry_group_IT_number 15
_symmetry_cell_setting 'monoclinic'
loop_
_space_group_symop_operation_xyz
x,y,z
-x,y,1/2-z
-x,-y,-z
x,-y,1/2+z
1/2+x,1/2+y,z
1/2-x,1/2+y,1/2-z
1/2-x,1/2-y,-z
1/2+x,1/2-y,1/2+z
loop_
_atom_site_type_symbol
_atom_site_label
_atom_site_fract_x
_atom_site_fract_y
_atom_site_fract_z
Si Si1 0.147611 0.036616 0.746251
Si Si2 0.284014 0.670502 0.576922
Si Si3 0.189610 0.781330 0.162022
Si Si4 0.000000 0.259165 0.250000
Si Si5 0.816526 0.066808 0.000235
Si Si6 0.900535 0.377125 0.958585
Si Si7 0.847318 0.406806 0.681702
O O1 0.143386 0.073989 0.688830
O O2 0.138267 0.282458 0.764185
O O3 0.245784 0.916177 0.795039
O O4 0.056831 0.887609 0.730777
O O5 0.352811 0.571577 0.557927
O O6 0.191126 0.523514 0.557681
O O7 0.347818 0.706288 0.644157
O O8 0.251007 0.913806 0.552891
O O9 0.108492 0.687468 0.099732
O O10 0.250061 0.951675 0.150067
O O11 0.068997 0.419186 0.302349
O O12 0.750000 0.250000 0.000000
O O13 0.900616 0.166002 0.994319
O O14 0.000000 0.500000 0.000000
#
# Coordination Sequence:
#
# PCOD8140230 Si02
#       7
#     8   8   8   4   8   8   8
#     4  11  22  43  69 101 132 171 231 275 347 412
#     4  10  20  40  71  86 127 184 220 271 332 402
#     4  11  22  40  73  97 132 187 218 280 347 417
#     4  10  26  40  66 104 140 164 222 296 330 406
#     4   9  20  39  64  94 122 173 226 263 327 393
#     4  11  23  41  66 100 137 171 230 285 337 395
#     4  11  21  42  69  96 134 177 227 271 349 415
#
# _framework density 21.738458999999999
#
# number of rings (size 3 to 8) (size 9 to 14) (size 15 to 20)
#    0.000    1.538    4.615    0.462    0.000    0.615 
#    0.000   12.308    3.385    0.000    0.000    0.000 
#    0.000    0.000    0.000    0.000    0.000    0.000 
#
# Total GULP energy -322245.488477 kJ/mol
# GULP energy per Si atom -12394.057249 kJ/mol
# Density = 2.168898 g / cm^3
# Si number density = 21.738459 Si / 1000 Ang^3
#
#
#
# Elastic Constant Matrix: (Units=GPa)
#
#
# Indices 1 2 3 4 5 6 
#
# 1 104.1890 49.3870 73.4215 0.0000 -7.0922 0.0000
# 2 49.3870 106.3641 48.5292 0.0000 -6.2580 0.0000
# 3 73.4215 48.5292 144.6022 0.0000 -19.9244 0.0000
# 4 0.0000 0.0000 0.0000 47.9543 0.0000 -11.1758
# 5 -7.0922 -6.2580 -19.9244 0.0000 28.6578 0.0000
# 6 0.0000 0.0000 0.0000 -11.1758 0.0000 32.9757
#
#
#
# Elastic Compliance Matrix: (Units=1/GPa)
#
#
# Indices 1 2 3 4 5 6 
#
# 1 0.016727 -0.004586 -0.007212 0.000000 -0.001876 0.000000
# 2 -0.004586 0.012360 -0.001774 0.000000 0.000331 0.000000
# 3 -0.007212 -0.001774 0.012026 0.000000 0.006189 0.000000
# 4 0.000000 0.000000 0.000000 0.022642 0.000000 0.007673
# 5 -0.001876 0.000331 0.006189 0.000000 0.038805 0.000000
# 6 0.000000 0.000000 0.000000 0.007673 0.000000 0.032926
#
#
# Mechanical properties :
#
#
# Convention : Reuss Voigt Hill
#
# Bulk Modulus (GPa) = 71.59528 77.53676 74.56602
# Shear Modulus (GPa) = 29.88910 34.17206 32.03058
#
# Velocity S-wave (km/s) = 3.71204 3.96910 3.84272
# Velocity P-wave (km/s) = 7.16789 7.53329 7.35286
#
# Compressibility (1/GPa) = 0.01396740
#
# Stress axis : x y z
#
# Youngs Moduli (GPa) = 59.78485 80.90658 83.15621
#
# Poissons Ratio (x) = 0.37106 0.59975
# Poissons Ratio (y) = 0.27419 0.14750
# Poissons Ratio (z) = 0.43119 0.14351
#
# Static dielectric constant tensor:
#      x y z
#    x 3.831700 0.000000 -0.343640 
#    y 0.000000 4.379020 0.000000 
#    z -0.343640 0.000000 4.233720 
# 
# 
# High freq. dielectric constant tensor:
#      x y z
#    x 1.832380 0.000000 -0.027310 
#    y 0.000000 1.877350 0.000000 
#    z -0.027310 0.000000 1.845840 
# 
# From -- ./inp_files/297829.got.cif
#   From: 2010.06.25/outbox.cif.g09.slc.cpg/sg15_149_cif.got.tgz:297829.got - 2010.06.28 07:06:18.
