data_PCOD8140898
_publ_section_title
;
Structure prediction by ZEFSAII (Michael W. Deem and Ramdas Pophale) SiO2 
 PCOD8140898
Probable space group: C 2/C
;
_chemical_formula_sum "Si O2"
_cell_formula_units_Z 60
_cell_length_a 20.299047
_cell_length_b 8.983920
_cell_length_c 17.285563
_cell_angle_alpha 90.000000
_cell_angle_beta 122.751502
_cell_angle_gamma 90.000000
_cell_volume 2651.147390
_symmetry_space_group_name_H-M "C 2/C"
_symmetry_group_IT_number 15
_symmetry_cell_setting 'monoclinic'
loop_
_space_group_symop_operation_xyz
x,y,z
-x,y,1/2-z
-x,-y,-z
x,-y,1/2+z
1/2+x,1/2+y,z
1/2-x,1/2+y,1/2-z
1/2-x,1/2-y,-z
1/2+x,1/2-y,1/2+z
loop_
_atom_site_type_symbol
_atom_site_label
_atom_site_fract_x
_atom_site_fract_y
_atom_site_fract_z
Si Si1 0.185816 0.326923 0.224129
Si Si2 0.247378 0.040175 0.352231
Si Si3 0.017258 0.114797 0.902465
Si Si4 0.976607 0.796632 0.922988
Si Si5 0.684912 0.518427 0.975441
Si Si6 0.157247 0.505690 0.353322
Si Si7 0.000000 0.690387 0.250000
Si Si8 0.866937 0.303573 0.027245
O O1 0.220623 0.181529 0.285729
O O2 0.244469 0.395000 0.197177
O O3 0.106588 0.279924 0.131866
O O4 0.167797 0.462003 0.271172
O O5 0.188194 0.998808 0.384387
O O6 0.330632 0.081610 0.442867
O O7 0.977398 0.209438 0.809477
O O8 0.111033 0.119928 0.949274
O O9 0.996524 0.183689 0.971771
O O10 0.979003 0.950755 0.876118
O O11 0.040001 0.688943 0.924378
O O12 0.670456 0.359287 0.007932
O O13 0.764262 0.589446 0.063712
O O14 0.077917 0.596561 0.317477
O O15 0.151900 0.352121 0.397551
#
# Coordination Sequence:
#
# PCOD8140898 Si02
#       8
#     8   8   8   8   8   8   4   8
#     4  12  26  42  69 105 139 179 232 288 346 413
#     4  11  25  41  69 103 134 183 231 288 344 409
#     4  10  26  46  65  99 138 186 228 289 341 415
#     4  10  25  44  69  96 139 181 232 281 356 403
#     4  10  21  47  72  90 134 188 232 274 348 419
#     4  11  23  43  67 104 136 175 232 286 340 411
#     4  12  28  40  68 106 142 180 230 290 348 406
#     4  10  20  46  74  91 133 182 232 282 343 422
#
# _framework density 22.631710000000002
#
# number of rings (size 3 to 8) (size 9 to 14) (size 15 to 20)
#    0.000    1.333    2.667    1.600    9.333    3.200 
#    0.000    0.000    0.000    0.000    0.000    0.000 
#    0.000    0.000    0.000    0.000    0.000    0.000 
#
# Total GULP energy -372045.417954 kJ/mol
# GULP energy per Si atom -12401.513932 kJ/mol
# Density = 2.258020 g / cm^3
# Si number density = 22.631710 Si / 1000 Ang^3
#
#
#
# Elastic Constant Matrix: (Units=GPa)
#
#
# Indices 1 2 3 4 5 6 
#
# 1 88.1050 18.2691 13.3597 0.0000 -3.1982 0.0000
# 2 18.2691 19.7021 20.4514 0.0000 4.0165 0.0000
# 3 13.3597 20.4514 75.1338 0.0000 -6.0258 0.0000
# 4 0.0000 0.0000 0.0000 22.0349 0.0000 0.1055
# 5 -3.1982 4.0165 -6.0258 0.0000 30.9957 0.0000
# 6 0.0000 0.0000 0.0000 0.1055 0.0000 30.5312
#
#
#
# Elastic Compliance Matrix: (Units=1/GPa)
#
#
# Indices 1 2 3 4 5 6 
#
# 1 0.014636 -0.016806 0.002304 0.000000 0.004136 0.000000
# 2 -0.016806 0.095712 -0.024582 0.000000 -0.018915 0.000000
# 3 0.002304 -0.024582 0.020180 0.000000 0.007346 0.000000
# 4 0.000000 0.000000 0.000000 0.045383 0.000000 -0.000157
# 5 0.004136 -0.018915 0.007346 0.000000 0.036568 0.000000
# 6 0.000000 0.000000 0.000000 -0.000157 0.000000 0.032754
#
#
# Mechanical properties :
#
#
# Convention : Reuss Voigt Hill
#
# Bulk Modulus (GPa) = 19.09818 31.90015 25.49917
# Shear Modulus (GPa) = 14.66901 25.43640 20.05270
#
# Velocity S-wave (km/s) = 2.54866 3.35614 2.97988
# Velocity P-wave (km/s) = 4.13738 5.39853 4.80947
#
# Compressibility (1/GPa) = 0.05236101
#
# Stress axis : x y z
#
# Youngs Moduli (GPa) = 68.32622 10.44799 49.55351
#
# Poissons Ratio (x) = 0.17559 -0.11416
# Poissons Ratio (y) = 1.14828 1.21810
# Poissons Ratio (z) = -0.15741 0.25683
#
# Static dielectric constant tensor:
#      x y z
#    x 4.121300 0.000000 -0.022040 
#    y 0.000000 3.903610 0.000000 
#    z -0.022040 0.000000 4.086400 
# 
# 
# High freq. dielectric constant tensor:
#      x y z
#    x 1.902040 0.000000 -0.005200 
#    y 0.000000 1.878860 0.000000 
#    z -0.005200 0.000000 1.893870 
# 
# From -- ./inp_files/214317.got.cif
#   From: 2010.06.25/outbox.cif.g09.slc.cpg/sg15_108_cif.got.tgz:214317.got - 2010.06.28 07:06:18.
