data_PCOD8140706
_publ_section_title
;
Structure prediction by ZEFSAII (Michael W. Deem and Ramdas Pophale) SiO2 
 PCOD8140706
Probable space group: C 2/C
;
_chemical_formula_sum "Si O2"
_cell_formula_units_Z 56
_cell_length_a 13.797885
_cell_length_b 11.133999
_cell_length_c 18.163345
_cell_angle_alpha 90.000000
_cell_angle_beta 111.385184
_cell_angle_gamma 90.000000
_cell_volume 2598.239870
_symmetry_space_group_name_H-M "C 2/C"
_symmetry_group_IT_number 15
_symmetry_cell_setting 'monoclinic'
loop_
_space_group_symop_operation_xyz
x,y,z
-x,y,1/2-z
-x,-y,-z
x,-y,1/2+z
1/2+x,1/2+y,z
1/2-x,1/2+y,1/2-z
1/2-x,1/2-y,-z
1/2+x,1/2-y,1/2+z
loop_
_atom_site_type_symbol
_atom_site_label
_atom_site_fract_x
_atom_site_fract_y
_atom_site_fract_z
Si Si1 0.147694 0.237835 0.921889
Si Si2 0.990950 0.360975 0.984738
Si Si3 0.642649 0.855737 0.298912
Si Si4 0.716352 0.838758 0.644307
Si Si5 0.377186 0.875458 0.726804
Si Si6 0.981325 0.250575 0.355140
Si Si7 0.415651 0.509084 0.164922
O O1 0.054120 0.314304 0.931640
O O2 0.176440 0.295604 0.851144
O O3 0.110424 0.100233 0.897861
O O4 0.250000 0.250000 0.000000
O O5 0.867133 0.351823 0.943249
O O6 0.000000 0.500000 0.000000
O O7 0.035110 0.284694 0.065218
O O8 0.740975 0.793150 0.363354
O O9 0.550484 0.852052 0.333243
O O10 0.624197 0.767639 0.221652
O O11 0.668920 0.990848 0.287217
O O12 0.654380 0.826994 0.703147
O O13 0.806169 0.942107 0.667911
O O14 0.500000 0.873242 0.750000
O O15 0.028799 0.117378 0.363846
O O16 0.500000 0.465915 0.250000
#
# Coordination Sequence:
#
# PCOD8140706 Si02
#       7
#     8   8   8   8   8   8   8
#     4  12  29  44  65 103 144 189 231 297 359 417
#     4  12  25  43  69 103 145 183 237 292 356 421
#     4  10  21  42  69 101 127 179 240 282 344 419
#     4  11  25  41  70 105 129 189 233 290 356 412
#     4  12  23  44  70  95 141 183 240 292 345 429
#     4  10  20  42  71  94 137 182 228 284 348 418
#     4  11  24  47  71  99 146 184 235 295 358 430
#
# _framework density 21.553052999999998
#
# number of rings (size 3 to 8) (size 9 to 14) (size 15 to 20)
#    0.000    0.857    5.714    3.000    4.000    4.000 
#    0.000    0.000    0.000    0.000    0.000    0.000 
#    0.000    0.000    0.000    0.000    0.000    0.000 
#
# Total GULP energy -347043.107240 kJ/mol
# GULP energy per Si atom -12394.396687 kJ/mol
# Density = 2.150400 g / cm^3
# Si number density = 21.553053 Si / 1000 Ang^3
#
#
#
# Elastic Constant Matrix: (Units=GPa)
#
#
# Indices 1 2 3 4 5 6 
#
# 1 60.6421 13.0884 15.5363 0.0000 9.5767 0.0000
# 2 13.0884 118.9841 27.7585 0.0000 -1.0200 0.0000
# 3 15.5363 27.7585 89.0303 0.0000 9.4785 0.0000
# 4 0.0000 0.0000 0.0000 40.7394 0.0000 -5.3167
# 5 9.5767 -1.0200 9.4785 0.0000 46.3132 0.0000
# 6 0.0000 0.0000 0.0000 -5.3167 0.0000 15.8977
#
#
#
# Elastic Compliance Matrix: (Units=1/GPa)
#
#
# Indices 1 2 3 4 5 6 
#
# 1 0.017915 -0.001456 -0.002325 0.000000 -0.003261 0.000000
# 2 -0.001456 0.009211 -0.002731 0.000000 0.001063 0.000000
# 3 -0.002325 -0.002731 0.012722 0.000000 -0.002183 0.000000
# 4 0.000000 0.000000 0.000000 0.025666 0.000000 0.008584
# 5 -0.003261 0.001063 -0.002183 0.000000 0.022737 0.000000
# 6 0.000000 0.000000 0.000000 0.008584 0.000000 0.065773
#
#
# Mechanical properties :
#
#
# Convention : Reuss Voigt Hill
#
# Bulk Modulus (GPa) = 37.28095 42.38033 39.83064
# Shear Modulus (GPa) = 28.41085 34.74163 31.57624
#
# Velocity S-wave (km/s) = 3.63462 4.01922 3.83175
# Velocity P-wave (km/s) = 5.91175 6.42221 6.17226
#
# Compressibility (1/GPa) = 0.02682335
#
# Stress axis : x y z
#
# Youngs Moduli (GPa) = 55.81879 108.56730 78.60559
#
# Poissons Ratio (x) = 0.15810 0.18277
# Poissons Ratio (y) = 0.08128 0.21466
# Poissons Ratio (z) = 0.12979 0.29648
#
# Static dielectric constant tensor:
#      x y z
#    x 3.966510 0.000000 0.260890 
#    y 0.000000 3.875340 0.000000 
#    z 0.260890 0.000000 3.912370 
# 
# 
# High freq. dielectric constant tensor:
#      x y z
#    x 1.843830 0.000000 0.010440 
#    y 0.000000 1.850030 0.000000 
#    z 0.010440 0.000000 1.849530 
# 
# From -- ./inp_files/204557.got.cif
#   From: 2010.06.25/outbox.cif.g09.slc.cpg/sg15_103_cif.got.tgz:204557.got - 2010.06.28 07:06:18.
