data_PCOD8140858
_publ_section_title
;
Structure prediction by ZEFSAII (Michael W. Deem and Ramdas Pophale) SiO2 
 PCOD8140858
Probable space group: C 2/C
;
_chemical_formula_sum "Si O2"
_cell_formula_units_Z 36
_cell_length_a 7.451974
_cell_length_b 16.624607
_cell_length_c 15.092415
_cell_angle_alpha 90.000000
_cell_angle_beta 59.504938
_cell_angle_gamma 90.000000
_cell_volume 1611.105169
_symmetry_space_group_name_H-M "C 2/C"
_symmetry_group_IT_number 15
_symmetry_cell_setting 'monoclinic'
loop_
_space_group_symop_operation_xyz
x,y,z
-x,y,1/2-z
-x,-y,-z
x,-y,1/2+z
1/2+x,1/2+y,z
1/2-x,1/2+y,1/2-z
1/2-x,1/2-y,-z
1/2+x,1/2-y,1/2+z
loop_
_atom_site_type_symbol
_atom_site_label
_atom_site_fract_x
_atom_site_fract_y
_atom_site_fract_z
Si Si1 0.000000 0.019845 0.750000
Si Si2 0.802042 0.654670 0.686632
Si Si3 0.731603 0.966697 0.659478
Si Si4 0.319019 0.701703 0.068476
Si Si5 0.238145 0.132308 0.908739
O O1 0.178017 0.081918 0.668653
O O2 0.103395 0.962652 0.799346
O O3 0.742059 0.743278 0.668550
O O4 0.749366 0.655016 0.802827
O O5 0.042679 0.646802 0.599250
O O6 0.500000 0.992770 0.750000
O O7 0.709164 0.884231 0.610832
O O8 0.812406 0.036885 0.573378
O O9 0.250000 0.750000 0.000000
O O10 0.566420 0.684594 0.002634
#
# Coordination Sequence:
#
# PCOD8140858 Si02
#       5
#     4   8   8   8   8
#     4  10  20  44  72  90 128 186 210 268 336 380
#     4  10  21  42  68  93 133 173 212 277 329 382
#     4  11  23  44  68  97 130 176 222 266 327 396
#     4  12  26  39  65 100 133 173 219 272 328 392
#     4  10  21  45  66  94 134 170 222 271 323 395
#
# _framework density 22.344911
#
# number of rings (size 3 to 8) (size 9 to 14) (size 15 to 20)
#    0.000    1.333    4.444    4.000    4.667    1.778 
#    4.000    2.222    0.000    0.000    0.000    0.000 
#    0.000    0.000    0.000    0.000    0.000    0.000 
#
# Total GULP energy -223065.166911 kJ/mol
# GULP energy per Si atom -12392.509273 kJ/mol
# Density = 2.229405 g / cm^3
# Si number density = 22.344911 Si / 1000 Ang^3
#
#
#
# Elastic Constant Matrix: (Units=GPa)
#
#
# Indices 1 2 3 4 5 6 
#
# 1 106.2400 25.9545 11.1581 0.0000 -12.9067 0.0000
# 2 25.9545 162.4093 35.7656 0.0000 19.0165 0.0000
# 3 11.1581 35.7656 46.9248 0.0000 -11.7664 0.0000
# 4 0.0000 0.0000 0.0000 46.4600 0.0000 2.3202
# 5 -12.9067 19.0165 -11.7664 0.0000 29.1608 0.0000
# 6 0.0000 0.0000 0.0000 2.3202 0.0000 15.8625
#
#
#
# Elastic Compliance Matrix: (Units=1/GPa)
#
#
# Indices 1 2 3 4 5 6 
#
# 1 0.010857 -0.002913 0.001468 0.000000 0.007297 0.000000
# 2 -0.002913 0.010281 -0.010177 0.000000 -0.012100 0.000000
# 3 0.001468 -0.010177 0.033984 0.000000 0.021000 0.000000
# 4 0.000000 0.000000 0.000000 0.021682 0.000000 -0.003172
# 5 0.007297 -0.012100 0.021000 0.000000 0.053886 0.000000
# 6 0.000000 0.000000 0.000000 -0.003172 0.000000 0.063506
#
#
# Mechanical properties :
#
#
# Convention : Reuss Voigt Hill
#
# Bulk Modulus (GPa) = 31.36977 51.25895 41.31436
# Shear Modulus (GPa) = 21.92350 34.47638 28.19994
#
# Velocity S-wave (km/s) = 3.13571 3.93226 3.55636
# Velocity P-wave (km/s) = 5.21341 6.60353 5.94921
#
# Compressibility (1/GPa) = 0.03187782
#
# Stress axis : x y z
#
# Youngs Moduli (GPa) = 92.11055 97.26834 29.42533
#
# Poissons Ratio (x) = 0.28332 -0.04320
# Poissons Ratio (y) = 0.26829 0.29948
# Poissons Ratio (z) = -0.13524 0.98994
#
# Static dielectric constant tensor:
#      x y z
#    x 4.259060 0.000000 -0.291060 
#    y 0.000000 4.281360 0.000000 
#    z -0.291060 0.000000 3.761070 
# 
# 
# High freq. dielectric constant tensor:
#      x y z
#    x 1.884570 0.000000 -0.022470 
#    y 0.000000 1.888670 0.000000 
#    z -0.022470 0.000000 1.858270 
# 
# From -- ./inp_files/188640.got.cif
#   From: 2010.06.25/outbox.cif.g09.slc.cpg/sg15_95_cif.got.tgz:188640.got - 2010.06.28 07:06:18.
