data_PCOD8140289
_publ_section_title
;
Structure prediction by ZEFSAII (Michael W. Deem and Ramdas Pophale) SiO2 
 PCOD8140289
Probable space group: C 2/C
;
_chemical_formula_sum "Si O2"
_cell_formula_units_Z 48
_cell_length_a 19.884987
_cell_length_b 14.235903
_cell_length_c 16.256457
_cell_angle_alpha 90.000000
_cell_angle_beta 30.328989
_cell_angle_gamma 90.000000
_cell_volume 2323.790598
_symmetry_space_group_name_H-M "C 2/C"
_symmetry_group_IT_number 15
_symmetry_cell_setting 'monoclinic'
loop_
_space_group_symop_operation_xyz
x,y,z
-x,y,1/2-z
-x,-y,-z
x,-y,1/2+z
1/2+x,1/2+y,z
1/2-x,1/2+y,1/2-z
1/2-x,1/2-y,-z
1/2+x,1/2-y,1/2+z
loop_
_atom_site_type_symbol
_atom_site_label
_atom_site_fract_x
_atom_site_fract_y
_atom_site_fract_z
Si Si1 0.930001 0.635886 0.643781
Si Si2 0.363691 0.712650 0.088200
Si Si3 0.000000 0.671174 0.250000
Si Si4 0.817161 0.542713 0.192305
Si Si5 0.354586 0.698349 0.795742
Si Si6 0.683659 0.038249 0.981981
Si Si7 0.000000 0.396442 0.250000
O O1 0.864139 0.729507 0.674450
O O2 0.839060 0.540501 0.736895
O O3 0.969787 0.660361 0.697014
O O4 0.056116 0.610879 0.452913
O O5 0.308043 0.607366 0.154507
O O6 0.272122 0.770654 0.123215
O O7 0.511855 0.698170 0.898568
O O8 0.875624 0.733055 0.350755
O O9 0.946006 0.607336 0.381794
O O10 0.784029 0.491416 0.143242
O O11 0.315901 0.594603 0.872509
O O12 0.638265 0.953509 0.089092
#
# Coordination Sequence:
#
# PCOD8140289 Si02
#       7
#     8   8   4   8   8   8   4
#     4  10  20  41  62  94 122 165 216 251 303 378
#     4  12  24  39  66  92 125 165 213 250 313 366
#     4  11  22  36  62  87 132 158 205 252 320 379
#     4  10  21  38  65  87 124 166 208 258 301 375
#     4  12  23  38  60  95 124 161 199 263 311 377
#     4  10  21  39  58  92 120 159 207 249 313 370
#     4   9  22  36  68  87 120 170 209 254 304 369
#
# _framework density 20.655905000000001
#
# number of rings (size 3 to 8) (size 9 to 14) (size 15 to 20)
#    0.000    1.333    5.000    0.500    7.000    0.667 
#    0.000    3.333    0.000    0.000    0.000    0.000 
#    0.000    0.000    0.000    0.000    0.000    0.000 
#
# Total GULP energy -297317.514817 kJ/mol
# GULP energy per Si atom -12388.229784 kJ/mol
# Density = 2.060889 g / cm^3
# Si number density = 20.655905 Si / 1000 Ang^3
#
#
#
# Elastic Constant Matrix: (Units=GPa)
#
#
# Indices 1 2 3 4 5 6 
#
# 1 79.4017 15.8402 14.4277 -0.0001 8.3757 0.0000
# 2 15.8402 63.1997 24.0263 -0.0001 -5.5175 0.0001
# 3 14.4277 24.0263 66.8124 -0.0002 -5.6761 0.0002
# 4 -0.0001 -0.0001 -0.0002 23.1418 0.0001 -1.4849
# 5 8.3757 -5.5175 -5.6761 0.0001 27.0467 -0.0001
# 6 0.0000 0.0001 0.0002 -1.4849 -0.0001 28.6233
#
#
#
# Elastic Compliance Matrix: (Units=1/GPa)
#
#
# Indices 1 2 3 4 5 6 
#
# 1 0.014246 -0.003136 -0.002421 0.000000 -0.005559 0.000000
# 2 -0.003136 0.019173 -0.005908 0.000000 0.003642 0.000000
# 3 -0.002421 -0.005908 0.017895 0.000000 0.003300 0.000000
# 4 0.000000 0.000000 0.000000 0.043356 0.000000 0.002249
# 5 -0.005559 0.003642 0.003300 0.000000 0.040130 0.000000
# 6 0.000000 0.000000 0.000000 0.002249 0.000000 0.035053
#
#
# Mechanical properties :
#
#
# Convention : Reuss Voigt Hill
#
# Bulk Modulus (GPa) = 35.23065 35.33359 35.28212
# Shear Modulus (GPa) = 24.72252 26.10365 25.41308
#
# Velocity S-wave (km/s) = 3.46334 3.55877 3.51138
# Velocity P-wave (km/s) = 5.75204 5.83347 5.79290
#
# Compressibility (1/GPa) = 0.02838437
#
# Stress axis : x y z
#
# Youngs Moduli (GPa) = 70.19483 52.15725 55.88123
#
# Poissons Ratio (x) = 0.16354 0.13529
# Poissons Ratio (y) = 0.22010 0.33016
# Poissons Ratio (z) = 0.16995 0.30815
#
# Static dielectric constant tensor:
#      x y z
#    x 3.697870 0.000000 -0.053460 
#    y 0.000000 3.845630 0.000000 
#    z -0.053460 0.000000 3.800470 
# 
# 
# High freq. dielectric constant tensor:
#      x y z
#    x 1.796740 0.000000 0.008310 
#    y 0.000000 1.793630 0.000000 
#    z 0.008310 0.000000 1.805010 
# 
# From -- ./inp_files/70656.got.cif
#   From: 2010.06.25/outbox.cif.g09.slc.cpg/sg15_36_cif.got.tgz:70656.got - 2010.06.28 07:06:18.
