data_PCOD8140578
_publ_section_title
;
Structure prediction by ZEFSAII (Michael W. Deem and Ramdas Pophale) SiO2 
 PCOD8140578
Probable space group: C 2/C
;
_chemical_formula_sum "Si O2"
_cell_formula_units_Z 64
_cell_length_a 11.839201
_cell_length_b 14.810461
_cell_length_c 26.732096
_cell_angle_alpha 90.000000
_cell_angle_beta 136.069922
_cell_angle_gamma 90.000000
_cell_volume 3251.964191
_symmetry_space_group_name_H-M "C 2/C"
_symmetry_group_IT_number 15
_symmetry_cell_setting 'monoclinic'
loop_
_space_group_symop_operation_xyz
x,y,z
-x,y,1/2-z
-x,-y,-z
x,-y,1/2+z
1/2+x,1/2+y,z
1/2-x,1/2+y,1/2-z
1/2-x,1/2-y,-z
1/2+x,1/2-y,1/2+z
loop_
_atom_site_type_symbol
_atom_site_label
_atom_site_fract_x
_atom_site_fract_y
_atom_site_fract_z
Si Si1 0.008587 0.338191 0.693345
Si Si2 0.175151 0.116094 0.944641
Si Si3 0.350030 0.653523 0.800270
Si Si4 0.670698 0.236308 0.027206
Si Si5 0.356374 0.168598 0.671099
Si Si6 0.660356 0.285707 0.540061
Si Si7 0.940715 0.463816 0.328162
Si Si8 0.595015 0.040044 0.984853
O O1 0.126960 0.255919 0.713672
O O2 0.081400 0.430698 0.693092
O O3 0.000000 0.343673 0.750000
O O4 0.823346 0.326358 0.615954
O O5 0.314397 0.181057 0.966449
O O6 0.027855 0.107692 0.857948
O O7 0.110618 0.157746 0.975640
O O8 0.246748 0.018260 0.978298
O O9 0.292126 0.650062 0.839238
O O10 0.227890 0.592865 0.728558
O O11 0.798791 0.264398 0.110091
O O12 0.750000 0.250000 0.000000
O O13 0.497683 0.289611 0.974436
O O14 0.651068 0.131549 0.027226
O O15 0.500000 0.214206 0.750000
O O16 0.424866 0.077045 0.667016
O O17 0.989605 0.450493 0.401167
O O18 0.500000 0.000000 0.000000
#
# Coordination Sequence:
#
# PCOD8140578 Si02
#       8
#     8   8   8   8   8   8   8   8
#     4  11  24  41  70  98 127 175 225 269 332 396
#     4  10  20  42  65  97 121 174 217 273 320 395
#     4  10  23  42  71  93 131 171 223 275 327 394
#     4  12  24  42  64 100 134 176 219 278 338 392
#     4  10  22  43  66  89 136 176 213 270 335 398
#     4  10  21  39  69  92 128 167 227 263 327 393
#     4  11  24  46  63  99 136 178 215 271 340 397
#     4  12  25  41  68  95 136 171 220 275 337 391
#
# _framework density 19.680413000000001
#
# number of rings (size 3 to 8) (size 9 to 14) (size 15 to 20)
#    0.000    1.250    5.000    1.125    3.500    0.000 
#    9.000    1.875    0.000    0.000    0.000    0.000 
#    0.000    0.000    0.000    0.000    0.000    0.000 
#
# Total GULP energy -396660.137459 kJ/mol
# GULP energy per Si atom -12395.629296 kJ/mol
# Density = 1.963562 g / cm^3
# Si number density = 19.680413 Si / 1000 Ang^3
#
#
#
# Elastic Constant Matrix: (Units=GPa)
#
#
# Indices 1 2 3 4 5 6 
#
# 1 109.1807 34.3977 44.0498 0.0000 1.8775 0.0000
# 2 34.3977 124.8872 73.7552 0.0000 13.7952 0.0000
# 3 44.0498 73.7552 136.6450 0.0000 -5.7142 0.0000
# 4 0.0000 0.0000 0.0000 36.8889 0.0000 1.5776
# 5 1.8775 13.7952 -5.7142 0.0000 34.1631 0.0000
# 6 0.0000 0.0000 0.0000 1.5776 0.0000 26.3972
#
#
#
# Elastic Compliance Matrix: (Units=1/GPa)
#
#
# Indices 1 2 3 4 5 6 
#
# 1 0.010687 -0.001222 -0.002809 0.000000 -0.000564 0.000000
# 2 -0.001222 0.013181 -0.006989 0.000000 -0.006425 0.000000
# 3 -0.002809 -0.006989 0.012206 0.000000 0.005018 0.000000
# 4 0.000000 0.000000 0.000000 0.027178 0.000000 -0.001624
# 5 -0.000564 -0.006425 0.005018 0.000000 0.032736 0.000000
# 6 0.000000 0.000000 0.000000 -0.001624 0.000000 0.037980
#
#
# Mechanical properties :
#
#
# Convention : Reuss Voigt Hill
#
# Bulk Modulus (GPa) = 71.25916 75.01315 73.13615
# Shear Modulus (GPa) = 31.11631 34.05720 32.58675
#
# Velocity S-wave (km/s) = 3.98059 4.16446 4.07356
# Velocity P-wave (km/s) = 7.57718 7.83083 7.70505
#
# Compressibility (1/GPa) = 0.01403328
#
# Stress axis : x y z
#
# Youngs Moduli (GPa) = 93.56950 75.86514 81.92608
#
# Poissons Ratio (x) = 0.09274 0.23013
# Poissons Ratio (y) = 0.11438 0.57261
# Poissons Ratio (z) = 0.26283 0.53024
#
# Static dielectric constant tensor:
#      x y z
#    x 3.574660 0.000000 0.110400 
#    y 0.000000 2.954830 0.000000 
#    z 0.110400 0.000000 3.557180 
# 
# 
# High freq. dielectric constant tensor:
#      x y z
#    x 1.771950 0.000000 -0.003150 
#    y 0.000000 1.762020 0.000000 
#    z -0.003150 0.000000 1.778620 
# 
# From -- ./inp_files/293086.got.cif
#   From: 2010.06.25/outbox.cif.g09.slc.cpg/sg15_147_cif.got.tgz:293086.got - 2010.06.28 07:06:18.
