data_PCOD8140568
_publ_section_title
;
Structure prediction by ZEFSAII (Michael W. Deem and Ramdas Pophale) SiO2 
 PCOD8140568
Probable space group: C 2/C
;
_chemical_formula_sum "Si O2"
_cell_formula_units_Z 40
_cell_length_a 28.428627
_cell_length_b 8.562411
_cell_length_c 14.058976
_cell_angle_alpha 90.000000
_cell_angle_beta 147.929471
_cell_angle_gamma 90.000000
_cell_volume 1817.061901
_symmetry_space_group_name_H-M "C 2/C"
_symmetry_group_IT_number 15
_symmetry_cell_setting 'monoclinic'
loop_
_space_group_symop_operation_xyz
x,y,z
-x,y,1/2-z
-x,-y,-z
x,-y,1/2+z
1/2+x,1/2+y,z
1/2-x,1/2+y,1/2-z
1/2-x,1/2-y,-z
1/2+x,1/2-y,1/2+z
loop_
_atom_site_type_symbol
_atom_site_label
_atom_site_fract_x
_atom_site_fract_y
_atom_site_fract_z
Si Si1 0.316653 0.238342 0.528282
Si Si2 0.677493 0.879539 0.989017
Si Si3 0.465084 0.334628 0.904563
Si Si4 0.146153 0.699836 0.228338
Si Si5 0.658578 0.142395 0.665926
O O1 0.250000 0.250000 0.500000
O O2 0.403417 0.342319 0.704021
O O3 0.261363 0.298506 0.342971
O O4 0.341711 0.060848 0.556461
O O5 0.781033 0.831058 0.172798
O O6 0.628757 0.840439 0.005038
O O7 0.634937 0.796286 0.824345
O O8 0.410407 0.244859 0.892620
O O9 0.500000 0.500000 0.000000
O O10 0.551669 0.240126 0.021589
O O11 0.168964 0.531579 0.225128
#
# Coordination Sequence:
#
# PCOD8140568 Si02
#       5
#     8   8   8   8   8
#     4  10  20  42  65  90 128 173 208 269 331 388
#     4  11  23  40  69  94 134 168 223 267 329 402
#     4  11  24  42  68  92 133 172 221 276 330 384
#     4  11  23  41  67  96 128 173 215 274 330 384
#     4  11  23  42  68  97 127 176 222 263 334 397
#
# _framework density 22.013558
#
# number of rings (size 3 to 8) (size 9 to 14) (size 15 to 20)
#    0.000    1.200    4.000    4.200    2.800    0.800 
#    0.000    3.000    8.800    0.000    0.000    0.000 
#    0.000    0.000    0.000    0.000    0.000    0.000 
#
# Total GULP energy -247805.461920 kJ/mol
# GULP energy per Si atom -12390.273096 kJ/mol
# Density = 2.196345 g / cm^3
# Si number density = 22.013558 Si / 1000 Ang^3
#
#
#
# Elastic Constant Matrix: (Units=GPa)
#
#
# Indices 1 2 3 4 5 6 
#
# 1 52.5697 0.1940 4.1815 0.0000 -16.8500 0.0000
# 2 0.1940 104.7504 31.1285 0.0000 10.0504 0.0000
# 3 4.1815 31.1285 103.7116 0.0000 20.2696 0.0000
# 4 0.0000 0.0000 0.0000 42.6684 0.0000 2.1809
# 5 -16.8500 10.0504 20.2696 0.0000 36.0514 0.0000
# 6 0.0000 0.0000 0.0000 2.1809 0.0000 18.2730
#
#
#
# Elastic Compliance Matrix: (Units=1/GPa)
#
#
# Indices 1 2 3 4 5 6 
#
# 1 0.023441 -0.000277 -0.003391 0.000000 0.012940 0.000000
# 2 -0.000277 0.010539 -0.002868 0.000000 -0.001455 0.000000
# 3 -0.003391 -0.002868 0.012125 0.000000 -0.007603 0.000000
# 4 0.000000 0.000000 0.000000 0.023580 0.000000 -0.002814
# 5 0.012940 -0.001455 -0.007603 0.000000 0.038466 0.000000
# 6 0.000000 0.000000 0.000000 -0.002814 0.000000 0.055061
#
#
# Mechanical properties :
#
#
# Convention : Reuss Voigt Hill
#
# Bulk Modulus (GPa) = 30.27226 36.89332 33.58279
# Shear Modulus (GPa) = 26.69576 34.43372 30.56474
#
# Velocity S-wave (km/s) = 3.48616 3.95929 3.73023
# Velocity P-wave (km/s) = 5.47594 6.13980 5.81734
#
# Compressibility (1/GPa) = 0.03303354
#
# Stress axis : x y z
#
# Youngs Moduli (GPa) = 42.66094 94.88752 82.47122
#
# Poissons Ratio (x) = 0.02631 0.27965
# Poissons Ratio (y) = 0.01183 0.23649
# Poissons Ratio (z) = 0.14466 0.27210
#
# Static dielectric constant tensor:
#      x y z
#    x 3.846760 0.000000 -0.323130 
#    y 0.000000 4.010490 0.000000 
#    z -0.323130 0.000000 4.972510 
# 
# 
# High freq. dielectric constant tensor:
#      x y z
#    x 1.850250 0.000000 -0.009520 
#    y 0.000000 1.867330 0.000000 
#    z -0.009520 0.000000 1.876600 
# 
# From -- ./inp_files/150772.got.cif
#   From: 2010.06.25/outbox.cif.g09.slc.cpg/sg15_76_cif.got.tgz:150772.got - 2010.06.28 07:06:18.
