data_PCOD8140649
_publ_section_title
;
Structure prediction by ZEFSAII (Michael W. Deem and Ramdas Pophale) SiO2 
 PCOD8140649
Probable space group: C 2/C
;
_chemical_formula_sum "Si O2"
_cell_formula_units_Z 52
_cell_length_a 19.232201
_cell_length_b 22.541270
_cell_length_c 8.428856
_cell_angle_alpha 90.000000
_cell_angle_beta 135.949736
_cell_angle_gamma 90.000000
_cell_volume 2540.630241
_symmetry_space_group_name_H-M "C 2/C"
_symmetry_group_IT_number 15
_symmetry_cell_setting 'monoclinic'
loop_
_space_group_symop_operation_xyz
x,y,z
-x,y,1/2-z
-x,-y,-z
x,-y,1/2+z
1/2+x,1/2+y,z
1/2-x,1/2+y,1/2-z
1/2-x,1/2-y,-z
1/2+x,1/2-y,1/2+z
loop_
_atom_site_type_symbol
_atom_site_label
_atom_site_fract_x
_atom_site_fract_y
_atom_site_fract_z
Si Si1 0.169190 0.832944 0.812005
Si Si2 0.793766 0.060530 0.362853
Si Si3 0.500000 0.848389 0.250000
Si Si4 0.863401 0.700060 0.777410
Si Si5 0.399517 0.464129 0.353153
Si Si6 0.500000 0.379636 0.750000
Si Si7 0.500000 0.866756 0.750000
Si Si8 0.924929 0.556298 0.381947
O O1 0.196476 0.877344 0.713189
O O2 0.160658 0.768009 0.720106
O O3 0.062910 0.843633 0.722834
O O4 0.258312 0.835118 0.088490
O O5 0.870030 0.064075 0.635867
O O6 0.686469 0.039844 0.251852
O O7 0.815232 0.009324 0.271728
O O8 0.582176 0.805615 0.304689
O O9 0.541798 0.891958 0.448703
O O10 0.931710 0.674134 0.027857
O O11 0.500000 0.500000 0.500000
O O12 0.416087 0.415985 0.516974
O O13 0.576777 0.911290 0.789872
O O14 0.000000 0.500000 0.500000
#
# Coordination Sequence:
#
# PCOD8140649 Si02
#       8
#     8   8   4   8   8   4   4   8
#     4  11  24  44  70  96 129 178 227 268 329 389
#     4  12  25  42  68  94 134 177 217 273 325 398
#     4  10  20  42  68  90 138 170 212 272 334 382
#     4  10  23  45  68  97 131 171 223 279 328 386
#     4  12  24  42  63  95 136 170 217 269 326 385
#     4  12  25  42  67  95 130 179 216 276 324 392
#     4  10  25  44  65  97 140 163 216 282 328 390
#     4  11  25  40  65  99 131 174 214 263 332 406
#
# _framework density 20.467361
#
# number of rings (size 3 to 8) (size 9 to 14) (size 15 to 20)
#    0.000    0.923    4.615    0.923    6.462    2.462 
#    0.000    0.769    0.000    0.000    0.000    0.000 
#    0.000    0.000    0.000    0.000    0.000    0.000 
#
# Total GULP energy -322287.504445 kJ/mol
# GULP energy per Si atom -12395.673248 kJ/mol
# Density = 2.042078 g / cm^3
# Si number density = 20.467361 Si / 1000 Ang^3
#
#
#
# Elastic Constant Matrix: (Units=GPa)
#
#
# Indices 1 2 3 4 5 6 
#
# 1 137.5733 52.3365 48.2670 0.0000 13.5478 0.0000
# 2 52.3365 118.8510 67.9146 0.0000 -3.9322 0.0000
# 3 48.2670 67.9146 109.1190 0.0000 -0.0351 0.0000
# 4 0.0000 0.0000 0.0000 43.4824 0.0000 -14.0532
# 5 13.5478 -3.9322 -0.0351 0.0000 38.8804 0.0000
# 6 0.0000 0.0000 0.0000 -14.0532 0.0000 38.7388
#
#
#
# Elastic Compliance Matrix: (Units=1/GPa)
#
#
# Indices 1 2 3 4 5 6 
#
# 1 0.009602 -0.002982 -0.002393 0.000000 -0.003650 0.000000
# 2 -0.002982 0.014051 -0.007426 0.000000 0.002453 0.000000
# 3 -0.002393 -0.007426 0.014844 0.000000 0.000096 0.000000
# 4 0.000000 0.000000 0.000000 0.026052 0.000000 0.009451
# 5 -0.003650 0.002453 0.000096 0.000000 0.027240 0.000000
# 6 0.000000 0.000000 0.000000 0.009451 0.000000 0.029242
#
#
# Mechanical properties :
#
#
# Convention : Reuss Voigt Hill
#
# Bulk Modulus (GPa) = 77.53444 78.06438 77.79941
# Shear Modulus (GPa) = 33.12759 37.35536 35.24147
#
# Velocity S-wave (km/s) = 4.02749 4.27678 4.15400
# Velocity P-wave (km/s) = 7.71958 7.91274 7.81675
#
# Compressibility (1/GPa) = 0.01289749
#
# Stress axis : x y z
#
# Youngs Moduli (GPa) = 104.14428 71.16749 67.36582
#
# Poissons Ratio (x) = 0.21221 0.16118
# Poissons Ratio (y) = 0.31054 0.50024
# Poissons Ratio (z) = 0.24918 0.52847
#
# Static dielectric constant tensor:
#      x y z
#    x 3.933020 0.000000 1.109210 
#    y 0.000000 2.727240 0.000000 
#    z 1.109210 0.000000 -3.682510 
# 
# 
# High freq. dielectric constant tensor:
#      x y z
#    x 1.816500 0.000000 0.002550 
#    y 0.000000 1.801120 0.000000 
#    z 0.002550 0.000000 1.801980 
# 
# From -- ./inp_files/40811.got.cif
#   From: 2010.06.25/outbox.cif.g09.slc.cpg/sg15_21_cif.got.tgz:40811.got - 2010.06.28 07:06:18.
