data_PCOD8140732
_publ_section_title
;
Structure prediction by ZEFSAII (Michael W. Deem and Ramdas Pophale) SiO2 
 PCOD8140732
Probable space group: C 2/C
;
_chemical_formula_sum "Si O2"
_cell_formula_units_Z 28
_cell_length_a 14.102900
_cell_length_b 4.903494
_cell_length_c 18.515153
_cell_angle_alpha 90.000000
_cell_angle_beta 112.140409
_cell_angle_gamma 90.000000
_cell_volume 1185.975520
_symmetry_space_group_name_H-M "C 2/C"
_symmetry_group_IT_number 15
_symmetry_cell_setting 'monoclinic'
loop_
_space_group_symop_operation_xyz
x,y,z
-x,y,1/2-z
-x,-y,-z
x,-y,1/2+z
1/2+x,1/2+y,z
1/2-x,1/2+y,1/2-z
1/2-x,1/2-y,-z
1/2+x,1/2-y,1/2+z
loop_
_atom_site_type_symbol
_atom_site_label
_atom_site_fract_x
_atom_site_fract_y
_atom_site_fract_z
Si Si1 0.500000 0.880139 0.250000
Si Si2 0.279151 0.940963 0.214108
Si Si3 0.501738 0.295642 0.594754
Si Si4 0.114814 0.294232 0.572213
O O1 0.394969 0.050726 0.232642
O O2 0.523394 0.700346 0.327553
O O3 0.286390 0.689849 0.273024
O O4 0.226117 0.821532 0.126424
O O5 0.527648 0.605194 0.582886
O O6 0.401025 0.205793 0.519123
O O7 0.595972 0.093424 0.600490
#
# Coordination Sequence:
#
# PCOD8140732 Si02
#       4
#     4   8   8   8
#     4  12  24  40  68 100 118 174 214 254 314 382
#     4  12  24  41  64  94 130 165 206 265 313 368
#     4  10  22  37  67  89 123 165 209 254 313 375
#     4  10  20  43  59  90 129 164 200 262 316 362
#
# _framework density 23.609255999999998
#
# number of rings (size 3 to 8) (size 9 to 14) (size 15 to 20)
#    0.000    1.143    5.714    0.000    0.000    5.714 
#    0.000    0.000    0.000   13.714    0.000    0.000 
#    0.000    0.000    0.000    0.000    0.000    0.000 
#
# Total GULP energy -173490.632944 kJ/mol
# GULP energy per Si atom -12392.188067 kJ/mol
# Density = 2.355552 g / cm^3
# Si number density = 23.609256 Si / 1000 Ang^3
#
#
#
# Elastic Constant Matrix: (Units=GPa)
#
#
# Indices 1 2 3 4 5 6 
#
# 1 112.7748 5.1922 42.3260 0.0000 23.7037 0.0000
# 2 5.1922 75.6063 13.6747 -0.0001 0.5635 0.0002
# 3 42.3260 13.6747 209.3310 0.0000 0.4692 0.0001
# 4 0.0000 -0.0001 0.0000 29.7156 0.0000 13.4272
# 5 23.7037 0.5635 0.4692 0.0000 43.2441 0.0000
# 6 0.0000 0.0002 0.0001 13.4272 0.0000 12.5704
#
#
#
# Elastic Compliance Matrix: (Units=1/GPa)
#
#
# Indices 1 2 3 4 5 6 
#
# 1 0.010957 -0.000313 -0.002182 0.000000 -0.005978 0.000000
# 2 -0.000313 0.013395 -0.000812 0.000000 0.000006 0.000000
# 3 -0.002182 -0.000812 0.005269 0.000000 0.001149 0.000000
# 4 0.000000 0.000000 0.000000 0.065048 0.000000 -0.069482
# 5 -0.005978 0.000006 0.001149 0.000000 0.026389 0.000000
# 6 0.000000 0.000000 0.000000 -0.069482 0.000000 0.153770
#
#
# Mechanical properties :
#
#
# Convention : Reuss Voigt Hill
#
# Bulk Modulus (GPa) = 43.46475 57.78865 50.62670
# Shear Modulus (GPa) = 17.29449 39.54064 28.41756
#
# Velocity S-wave (km/s) = 2.70947 4.09686 3.47315
# Velocity P-wave (km/s) = 5.31397 6.84904 6.12975
#
# Compressibility (1/GPa) = 0.02300715
#
# Stress axis : x y z
#
# Youngs Moduli (GPa) = 91.26616 74.65643 189.80084
#
# Poissons Ratio (x) = 0.02339 0.41407
# Poissons Ratio (y) = 0.02860 0.15406
# Poissons Ratio (z) = 0.19911 0.06060
#
# Static dielectric constant tensor:
#      x y z
#    x 3.681580 0.000000 0.252980 
#    y 0.000000 3.945500 0.000000 
#    z 0.252980 0.000000 4.856640 
# 
# 
# High freq. dielectric constant tensor:
#      x y z
#    x 1.884350 0.000000 0.030960 
#    y 0.000000 1.920930 0.000000 
#    z 0.030960 0.000000 1.972650 
# 
# From -- ./inp_files/108808.got.cif
#   From: 2010.06.25/outbox.cif.g09.slc.cpg/sg15_55_cif.got.tgz:108808.got - 2010.06.28 07:06:18.
