data_PCOD8140553
_publ_section_title
;
Structure prediction by ZEFSAII (Michael W. Deem and Ramdas Pophale) SiO2 
 PCOD8140553
Probable space group: C 2/C
;
_chemical_formula_sum "Si O2"
_cell_formula_units_Z 48
_cell_length_a 8.916680
_cell_length_b 15.926440
_cell_length_c 27.990907
_cell_angle_alpha 90.000000
_cell_angle_beta 142.269724
_cell_angle_gamma 90.000000
_cell_volume 2432.491258
_symmetry_space_group_name_H-M "C 2/C"
_symmetry_group_IT_number 15
_symmetry_cell_setting 'monoclinic'
loop_
_space_group_symop_operation_xyz
x,y,z
-x,y,1/2-z
-x,-y,-z
x,-y,1/2+z
1/2+x,1/2+y,z
1/2-x,1/2+y,1/2-z
1/2-x,1/2-y,-z
1/2+x,1/2-y,1/2+z
loop_
_atom_site_type_symbol
_atom_site_label
_atom_site_fract_x
_atom_site_fract_y
_atom_site_fract_z
Si Si1 0.826224 0.782914 0.071166
Si Si2 0.422803 0.345962 0.662206
Si Si3 0.094607 0.622731 0.167117
Si Si4 0.584942 0.911540 0.500186
Si Si5 0.773621 0.533014 0.569097
Si Si6 0.678585 0.158140 0.835228
O O1 0.910945 0.702805 0.124004
O O2 0.056480 0.843426 0.122509
O O3 0.750000 0.750000 0.000000
O O4 0.617655 0.837731 0.044621
O O5 0.704020 0.374913 0.739836
O O6 0.233695 0.386177 0.651879
O O7 0.332416 0.376296 0.587504
O O8 0.417492 0.247668 0.671366
O O9 0.938759 0.539819 0.132220
O O10 0.643629 0.928608 0.460233
O O11 0.500000 0.000000 0.500000
O O12 0.500000 0.500000 0.500000
O O13 0.808508 0.607664 0.613685
O O14 0.500000 0.120178 0.750000
#
# Coordination Sequence:
#
# PCOD8140553 Si02
#       6
#     8   8   8   8   8   8
#     4  11  19  39  70  90 126 175 221 261 329 404
#     4  10  20  42  70  90 125 175 224 257 327 405
#     4  10  20  42  64  93 129 176 211 269 328 395
#     4  12  23  40  69 101 127 177 227 270 328 405
#     4  12  27  42  64 102 137 166 223 286 334 386
#     4  11  22  43  68  94 129 174 214 274 343 388
#
# _framework density 19.732856000000002
#
# number of rings (size 3 to 8) (size 9 to 14) (size 15 to 20)
#    0.000    1.000    8.333    2.000    0.000    3.333 
#    0.000    0.000    0.000    0.000    0.000    0.000 
#    0.000    0.000    0.000    0.000    0.000    0.000 
#
# Total GULP energy -297507.753603 kJ/mol
# GULP energy per Si atom -12396.156400 kJ/mol
# Density = 1.968794 g / cm^3
# Si number density = 19.732856 Si / 1000 Ang^3
#
#
#
# Elastic Constant Matrix: (Units=GPa)
#
#
# Indices 1 2 3 4 5 6 
#
# 1 59.1727 10.3538 35.3840 0.0001 0.3248 0.0003
# 2 10.3538 24.0720 18.6421 0.0001 8.8598 0.0004
# 3 35.3840 18.6421 146.6462 0.0005 11.9919 0.0006
# 4 0.0001 0.0001 0.0005 46.8552 0.0001 35.0547
# 5 0.3248 8.8598 11.9919 0.0001 34.7589 0.0000
# 6 0.0003 0.0004 0.0006 35.0547 0.0000 120.6878
#
#
#
# Elastic Compliance Matrix: (Units=1/GPa)
#
#
# Indices 1 2 3 4 5 6 
#
# 1 0.020664 -0.006590 -0.004394 0.000000 0.003003 0.000000
# 2 -0.006590 0.051830 -0.004037 0.000000 -0.011757 0.000000
# 3 -0.004394 -0.004037 0.008546 0.000000 -0.001878 0.000000
# 4 0.000000 0.000000 0.000000 0.027268 0.000000 -0.007920
# 5 0.003003 -0.011757 -0.001878 0.000000 0.032386 0.000000
# 6 0.000000 0.000000 0.000000 -0.007920 0.000000 0.010586
#
#
# Mechanical properties :
#
#
# Convention : Reuss Voigt Hill
#
# Bulk Modulus (GPa) = 19.60875 39.85006 29.72941
# Shear Modulus (GPa) = 25.21148 51.49444 38.35296
#
# Velocity S-wave (km/s) = 3.57829 5.11395 4.41342
# Velocity P-wave (km/s) = 5.19912 7.42351 6.40856
#
# Compressibility (1/GPa) = 0.05099764
#
# Stress axis : x y z
#
# Youngs Moduli (GPa) = 48.39418 19.29368 117.01261
#
# Poissons Ratio (x) = 0.12715 0.51411
# Poissons Ratio (y) = 0.31894 0.47241
# Poissons Ratio (z) = 0.21263 0.07789
#
# Static dielectric constant tensor:
#      x y z
#    x 3.596560 0.000000 0.190460 
#    y 0.000000 3.726740 0.000000 
#    z 0.190460 0.000000 3.790640 
# 
# 
# High freq. dielectric constant tensor:
#      x y z
#    x 1.744480 0.000000 0.012520 
#    y 0.000000 1.776950 0.000000 
#    z 0.012520 0.000000 1.791130 
# 
# From -- ./inp_files/289091.got.cif
#   From: 2010.06.25/outbox.cif.g09.slc.cpg/sg15_145_cif.got.tgz:289091.got - 2010.06.28 07:06:18.
