data_PCOD8140769
_publ_section_title
;
Structure prediction by ZEFSAII (Michael W. Deem and Ramdas Pophale) SiO2 
 PCOD8140769
Probable space group: C 2/C
;
_chemical_formula_sum "Si O2"
_cell_formula_units_Z 32
_cell_length_a 14.100870
_cell_length_b 10.357068
_cell_length_c 10.295068
_cell_angle_alpha 90.000000
_cell_angle_beta 113.565502
_cell_angle_gamma 90.000000
_cell_volume 1378.140582
_symmetry_space_group_name_H-M "C 2/C"
_symmetry_group_IT_number 15
_symmetry_cell_setting 'monoclinic'
loop_
_space_group_symop_operation_xyz
x,y,z
-x,y,1/2-z
-x,-y,-z
x,-y,1/2+z
1/2+x,1/2+y,z
1/2-x,1/2+y,1/2-z
1/2-x,1/2-y,-z
1/2+x,1/2-y,1/2+z
loop_
_atom_site_type_symbol
_atom_site_label
_atom_site_fract_x
_atom_site_fract_y
_atom_site_fract_z
Si Si1 0.588683 0.484892 0.892461
Si Si2 0.680546 0.286230 0.583701
Si Si3 0.485005 0.198714 0.594056
Si Si4 0.725601 0.849760 0.601512
O O1 0.500000 0.544443 0.750000
O O2 0.549795 0.348843 0.927368
O O3 0.695967 0.469536 0.869816
O O4 0.616829 0.581224 0.024589
O O5 0.750000 0.250000 0.500000
O O6 0.591519 0.181597 0.571657
O O7 0.758100 0.291902 0.747050
O O8 0.500000 0.152060 0.750000
O O9 0.395465 0.111616 0.478180
O O10 0.750000 0.750000 0.500000
#
# Coordination Sequence:
#
# PCOD8140769 Si02
#       4
#     8   8   8   8
#     4  10  21  39  66  94 122 163 216 254 309 373
#     4  12  25  37  64 103 125 159 214 271 308 362
#     4  10  20  43  67  91 125 173 208 250 320 382
#     4  10  21  41  64  90 129 168 206 253 322 373
#
# _framework density 23.219692999999999
#
# number of rings (size 3 to 8) (size 9 to 14) (size 15 to 20)
#    0.000    1.500    7.500    0.750    3.500    2.000 
#    0.000    1.250    0.000    0.000    0.000    0.000 
#    0.000    0.000    0.000    0.000    0.000    0.000 
#
# Total GULP energy -198271.423694 kJ/mol
# GULP energy per Si atom -12391.963981 kJ/mol
# Density = 2.316684 g / cm^3
# Si number density = 23.219693 Si / 1000 Ang^3
#
#
#
# Elastic Constant Matrix: (Units=GPa)
#
#
# Indices 1 2 3 4 5 6 
#
# 1 215.0589 -2.2974 93.2851 0.0000 11.9028 0.0000
# 2 -2.2974 19.1262 23.9699 0.0000 7.0838 0.0000
# 3 93.2851 23.9699 197.3471 0.0000 19.8102 0.0000
# 4 0.0000 0.0000 0.0000 27.0251 0.0000 0.7205
# 5 11.9028 7.0838 19.8102 0.0000 58.3900 0.0000
# 6 0.0000 0.0000 0.0000 0.7205 0.0000 16.7804
#
#
#
# Elastic Compliance Matrix: (Units=1/GPa)
#
#
# Indices 1 2 3 4 5 6 
#
# 1 0.006299 0.005508 -0.003572 0.000000 -0.000740 0.000000
# 2 0.005508 0.068000 -0.010272 0.000000 -0.005887 0.000000
# 3 -0.003572 -0.010272 0.008080 0.000000 -0.000767 0.000000
# 4 0.000000 0.000000 0.000000 0.037045 0.000000 -0.001591
# 5 -0.000740 -0.005887 -0.000767 0.000000 0.018252 0.000000
# 6 0.000000 0.000000 0.000000 -0.001591 0.000000 0.059662
#
#
# Mechanical properties :
#
#
# Convention : Reuss Voigt Hill
#
# Bulk Modulus (GPa) = 15.21915 73.49414 44.35665
# Shear Modulus (GPa) = 21.19433 41.54407 31.36920
#
# Velocity S-wave (km/s) = 3.02449 4.23445 3.67955
# Velocity P-wave (km/s) = 4.33190 7.45840 6.09890
#
# Compressibility (1/GPa) = 0.06570667
#
# Stress axis : x y z
#
# Youngs Moduli (GPa) = 158.74938 14.70599 123.75561
#
# Poissons Ratio (x) = -0.08100 0.44209
# Poissons Ratio (y) = -0.87436 1.27119
# Poissons Ratio (z) = 0.56710 0.15106
#
# Static dielectric constant tensor:
#      x y z
#    x 5.082940 0.000000 0.534720 
#    y 0.000000 3.650580 0.000000 
#    z 0.534720 0.000000 4.313030 
# 
# 
# High freq. dielectric constant tensor:
#      x y z
#    x 1.946100 0.000000 0.012420 
#    y 0.000000 1.856440 0.000000 
#    z 0.012420 0.000000 1.925030 
# 
# From -- ./inp_files/36752.got.cif
#   From: 2010.06.25/outbox.cif.g09.slc.cpg/sg15_19_cif.got.tgz:36752.got - 2010.06.28 07:06:18.
