data_PCOD8140081
_publ_section_title
;
Structure prediction by ZEFSAII (Michael W. Deem and Ramdas Pophale) SiO2 
 PCOD8140081
Probable space group: C 2/C
;
_chemical_formula_sum "Si O2"
_cell_formula_units_Z 56
_cell_length_a 29.116765
_cell_length_b 8.572704
_cell_length_c 20.222534
_cell_angle_alpha 90.000000
_cell_angle_beta 31.816803
_cell_angle_gamma 90.000000
_cell_volume 2661.191087
_symmetry_space_group_name_H-M "C 2/C"
_symmetry_group_IT_number 15
_symmetry_cell_setting 'monoclinic'
loop_
_space_group_symop_operation_xyz
x,y,z
-x,y,1/2-z
-x,-y,-z
x,-y,1/2+z
1/2+x,1/2+y,z
1/2-x,1/2+y,1/2-z
1/2-x,1/2-y,-z
1/2+x,1/2-y,1/2+z
loop_
_atom_site_type_symbol
_atom_site_label
_atom_site_fract_x
_atom_site_fract_y
_atom_site_fract_z
Si Si1 0.834530 0.639718 0.164307
Si Si2 0.402039 0.066888 0.941987
Si Si3 0.732876 0.632207 0.081771
Si Si4 0.175645 0.700610 0.784401
Si Si5 0.914053 0.081392 0.773099
Si Si6 0.987618 0.831554 0.046068
Si Si7 0.500000 0.674176 0.250000
Si Si8 0.500000 0.180555 0.250000
O O1 0.809852 0.486622 0.237579
O O2 0.745948 0.729253 0.250791
O O3 0.900971 0.751073 0.122110
O O4 0.886202 0.574017 0.038569
O O5 0.435834 0.229922 0.874175
O O6 0.468743 0.926039 0.848829
O O7 0.316779 0.040455 0.003448
O O8 0.689505 0.730722 0.194248
O O9 0.682149 0.472168 0.127424
O O10 0.750000 0.750000 0.000000
O O11 0.076261 0.733837 0.927798
O O12 0.971732 0.146494 0.642862
O O13 0.919437 0.212622 0.823678
O O14 0.950774 0.920729 0.755123
O O15 0.000000 0.000000 0.000000
#
# Coordination Sequence:
#
# PCOD8140081 Si02
#       8
#     8   8   8   8   8   8   4   4
#     4  11  25  43  66  99 130 175 225 273 339 400
#     4  10  22  41  65  90 130 172 213 271 329 396
#     4  11  23  42  65  95 129 173 220 266 330 407
#     4  11  25  44  65  97 133 173 224 279 335 400
#     4  11  23  41  64  99 126 168 221 264 333 391
#     4  12  23  42  70  95 134 175 219 280 329 405
#     4  10  20  40  66  90 130 172 214 258 328 406
#     4  10  24  42  64  96 130 166 216 280 326 390
#
# _framework density 21.043209999999998
#
# number of rings (size 3 to 8) (size 9 to 14) (size 15 to 20)
#    0.000    1.143    2.857    3.000    2.000    2.857 
#    2.571    0.000    0.000    0.000    0.000    0.000 
#    0.000    0.000    0.000    0.000    0.000    0.000 
#
# Total GULP energy -347040.022741 kJ/mol
# GULP energy per Si atom -12394.286526 kJ/mol
# Density = 2.099531 g / cm^3
# Si number density = 21.043210 Si / 1000 Ang^3
#
#
#
# Elastic Constant Matrix: (Units=GPa)
#
#
# Indices 1 2 3 4 5 6 
#
# 1 162.7883 52.6712 71.3887 -0.0186 -2.3264 0.0055
# 2 52.6712 129.5694 29.2113 0.0108 -11.1516 -0.0105
# 3 71.3887 29.2113 101.6022 -0.0035 -5.4719 -0.0015
# 4 -0.0186 0.0108 -0.0035 20.5385 0.0017 -17.4183
# 5 -2.3264 -11.1516 -5.4719 0.0017 36.0780 -0.0028
# 6 0.0055 -0.0105 -0.0015 -17.4183 -0.0028 20.8273
#
#
#
# Elastic Compliance Matrix: (Units=1/GPa)
#
#
# Indices 1 2 3 4 5 6 
#
# 1 0.009650 -0.002648 -0.006079 0.000019 -0.001118 0.000011
# 2 -0.002648 0.009158 -0.000634 -0.000010 0.002564 -0.000002
# 3 -0.006079 -0.000634 0.014382 -0.000002 0.001593 0.000001
# 4 0.000019 -0.000010 -0.000002 0.167468 0.000001 0.140057
# 5 -0.001118 0.002564 0.001593 0.000001 0.028680 0.000006
# 6 0.000011 -0.000002 0.000001 0.140057 0.000006 0.165146
#
#
# Mechanical properties :
#
#
# Convention : Reuss Voigt Hill
#
# Bulk Modulus (GPa) = 69.12506 77.83360 73.47933
# Shear Modulus (GPa) = 11.96089 31.53468 21.74778
#
# Velocity S-wave (km/s) = 2.38669 3.87533 3.21827
# Velocity P-wave (km/s) = 6.36518 7.55593 6.98597
#
# Compressibility (1/GPa) = 0.01446653
#
# Stress axis : x y z
#
# Youngs Moduli (GPa) = 103.62951 109.19293 69.53293
#
# Poissons Ratio (x) = 0.28919 0.42269
# Poissons Ratio (y) = 0.27446 0.04409
# Poissons Ratio (z) = 0.62996 0.06923
#
# Static dielectric constant tensor:
#      x y z
#    x 3.935980 0.000000 -0.034930 
#    y 0.000000 3.863740 -0.000020 
#    z -0.034930 -0.000020 3.790070 
# 
# 
# High freq. dielectric constant tensor:
#      x y z
#    x 1.839260 0.000000 -0.004510 
#    y 0.000000 1.837120 0.000000 
#    z -0.004510 0.000000 1.822060 
# 
# From -- ./inp_files/172515.got.cif
#   From: 2010.06.25/outbox.cif.g09.slc.cpg/sg15_87_cif.got.tgz:172515.got - 2010.06.28 07:06:18.
