data_PCOD8140153
_publ_section_title
;
Structure prediction by ZEFSAII (Michael W. Deem and Ramdas Pophale) SiO2 
 PCOD8140153
Probable space group: C 2/C
;
_chemical_formula_sum "Si O2"
_cell_formula_units_Z 52
_cell_length_a 15.096227
_cell_length_b 11.911669
_cell_length_c 14.481796
_cell_angle_alpha 90.000000
_cell_angle_beta 68.860658
_cell_angle_gamma 90.000000
_cell_volume 2428.892468
_symmetry_space_group_name_H-M "C 2/C"
_symmetry_group_IT_number 15
_symmetry_cell_setting 'monoclinic'
loop_
_space_group_symop_operation_xyz
x,y,z
-x,y,1/2-z
-x,-y,-z
x,-y,1/2+z
1/2+x,1/2+y,z
1/2-x,1/2+y,1/2-z
1/2-x,1/2-y,-z
1/2+x,1/2-y,1/2+z
loop_
_atom_site_type_symbol
_atom_site_label
_atom_site_fract_x
_atom_site_fract_y
_atom_site_fract_z
Si Si1 0.000000 0.529557 0.250000
Si Si2 0.961769 0.846090 0.962033
Si Si3 0.687894 0.867207 0.628222
Si Si4 0.601186 0.491986 0.685584
Si Si5 0.726083 0.142585 0.908202
Si Si6 0.861155 0.989125 0.620315
Si Si7 0.471137 0.095411 0.580698
O O1 0.909755 0.611586 0.281813
O O2 0.990022 0.444610 0.337196
O O3 0.922533 0.888252 0.875498
O O4 0.974755 0.712335 0.961136
O O5 0.063975 0.899254 0.947550
O O6 0.893152 0.886847 0.072008
O O7 0.671140 0.842533 0.526042
O O8 0.737443 0.757129 0.652076
O O9 0.757421 0.972285 0.616490
O O10 0.500000 0.551693 0.750000
O O11 0.680373 0.567825 0.606858
O O12 0.647956 0.465194 0.766904
O O13 0.643994 0.099556 0.870466
O O14 0.500000 0.000000 0.500000
#
# Coordination Sequence:
#
# PCOD8140153 Si02
#       7
#     4   8   8   8   8   8   8
#     4  12  28  44  70  98 142 184 242 274 358 418
#     4  10  22  41  70 101 137 180 230 290 340 412
#     4  11  23  42  68  98 135 186 230 288 347 418
#     4  10  22  38  68 103 133 176 240 281 340 411
#     4  11  23  43  68  96 141 177 229 289 351 406
#     4  10  20  40  68 101 133 179 234 284 346 404
#     4  12  26  47  68 102 143 187 226 290 352 414
#
# _framework density 21.408933999999999
#
# number of rings (size 3 to 8) (size 9 to 14) (size 15 to 20)
#    0.000    1.231    4.615    0.923    4.308    1.231 
#    0.000    3.077    0.000    0.000    0.000    0.000 
#    0.000    0.000    0.000    0.000    0.000    0.000 
#
# Total GULP energy -322170.574350 kJ/mol
# GULP energy per Si atom -12391.175937 kJ/mol
# Density = 2.136021 g / cm^3
# Si number density = 21.408934 Si / 1000 Ang^3
#
#
#
# Elastic Constant Matrix: (Units=GPa)
#
#
# Indices 1 2 3 4 5 6 
#
# 1 113.2178 52.2783 34.2005 0.0000 -14.9971 0.0000
# 2 52.2783 140.8703 50.1870 0.0000 -14.8846 0.0000
# 3 34.2005 50.1870 92.5660 0.0000 3.3781 0.0000
# 4 0.0000 0.0000 0.0000 23.3119 0.0000 -3.1289
# 5 -14.9971 -14.8846 3.3781 0.0000 39.5129 0.0000
# 6 0.0000 0.0000 0.0000 -3.1289 0.0000 35.9033
#
#
#
# Elastic Compliance Matrix: (Units=1/GPa)
#
#
# Indices 1 2 3 4 5 6 
#
# 1 0.011478 -0.002891 -0.002801 0.000000 0.003507 0.000000
# 2 -0.002891 0.010112 -0.004527 0.000000 0.003099 0.000000
# 3 -0.002801 -0.004527 0.014439 0.000000 -0.004003 0.000000
# 4 0.000000 0.000000 0.000000 0.043404 0.000000 0.003783
# 5 0.003507 0.003099 -0.004003 0.000000 0.028149 0.000000
# 6 0.000000 0.000000 0.000000 0.003783 0.000000 0.028182
#
#
# Mechanical properties :
#
#
# Convention : Reuss Voigt Hill
#
# Bulk Modulus (GPa) = 64.14626 68.88730 66.51678
# Shear Modulus (GPa) = 30.97878 33.74485 32.36181
#
# Velocity S-wave (km/s) = 3.80808 3.97445 3.89215
# Velocity P-wave (km/s) = 7.02586 7.30126 7.16488
#
# Compressibility (1/GPa) = 0.01558937
#
# Stress axis : x y z
#
# Youngs Moduli (GPa) = 87.12108 98.89204 69.25744
#
# Poissons Ratio (x) = 0.28591 0.19402
# Poissons Ratio (y) = 0.25188 0.31356
# Poissons Ratio (z) = 0.24406 0.44772
#
# Static dielectric constant tensor:
#      x y z
#    x 4.049350 0.000000 -0.002540 
#    y 0.000000 3.693620 0.000000 
#    z -0.002540 0.000000 3.803380 
# 
# 
# High freq. dielectric constant tensor:
#      x y z
#    x 1.852540 0.000000 0.001800 
#    y 0.000000 1.815400 0.000000 
#    z 0.001800 0.000000 1.839750 
# 
# From -- ./inp_files/152556.got.cif
#   From: 2010.06.25/outbox.cif.g09.slc.cpg/sg15_77_cif.got.tgz:152556.got - 2010.06.28 07:06:18.
