data_PCOD8140138
_publ_section_title
;
Structure prediction by ZEFSAII (Michael W. Deem and Ramdas Pophale) SiO2 
 PCOD8140138
Probable space group: C 2/C
;
_chemical_formula_sum "Si O2"
_cell_formula_units_Z 60
_cell_length_a 22.198375
_cell_length_b 8.367016
_cell_length_c 18.080926
_cell_angle_alpha 90.000000
_cell_angle_beta 57.059482
_cell_angle_gamma 90.000000
_cell_volume 2818.359032
_symmetry_space_group_name_H-M "C 2/C"
_symmetry_group_IT_number 15
_symmetry_cell_setting 'monoclinic'
loop_
_space_group_symop_operation_xyz
x,y,z
-x,y,1/2-z
-x,-y,-z
x,-y,1/2+z
1/2+x,1/2+y,z
1/2-x,1/2+y,1/2-z
1/2-x,1/2-y,-z
1/2+x,1/2-y,1/2+z
loop_
_atom_site_type_symbol
_atom_site_label
_atom_site_fract_x
_atom_site_fract_y
_atom_site_fract_z
Si Si1 0.021219 0.337450 0.393099
Si Si2 0.313830 0.471748 0.144605
Si Si3 0.757667 0.855903 0.823161
Si Si4 0.500000 0.780316 0.250000
Si Si5 0.046656 0.031934 0.869908
Si Si6 0.109025 0.508850 0.959148
Si Si7 0.109002 0.978429 0.676476
Si Si8 0.607998 0.342494 0.029538
O O1 0.077948 0.442834 0.399927
O O2 0.027819 0.383861 0.301099
O O3 0.940408 0.369556 0.474075
O O4 0.043989 0.155529 0.389948
O O5 0.256164 0.333923 0.166217
O O6 0.280817 0.595905 0.225265
O O7 0.387493 0.392994 0.127334
O O8 0.331377 0.567951 0.058502
O O9 0.817992 0.903355 0.841614
O O10 0.687971 0.947367 0.895618
O O11 0.437195 0.667784 0.326718
O O12 0.972479 0.112638 0.943230
O O13 0.062451 0.060776 0.772677
O O14 0.113159 0.653410 0.015063
O O15 0.122901 0.111039 0.604635
#
# Coordination Sequence:
#
# PCOD8140138 Si02
#       8
#     8   8   8   4   8   8   8   8
#     4  10  21  42  65  96 129 170 210 268 317 381
#     4  11  24  39  66  90 127 169 219 267 320 396
#     4  11  26  44  59  96 129 171 212 263 338 387
#     4  10  20  42  68  94 122 164 218 264 324 376
#     4  10  20  40  67  94 123 168 217 265 321 384
#     4  11  25  39  64  96 138 164 215 271 316 392
#     4  10  22  41  67  87 131 166 215 266 318 396
#     4  12  21  39  67  96 121 172 217 264 323 378
#
# _framework density 21.288983000000002
#
# number of rings (size 3 to 8) (size 9 to 14) (size 15 to 20)
#    0.000    1.333    4.000    2.000    7.467    1.067 
#    2.400    0.000    0.000    0.000    0.000    0.000 
#    0.000    0.000    0.000    0.000    0.000    0.000 
#
# Total GULP energy -372060.009783 kJ/mol
# GULP energy per Si atom -12402.000326 kJ/mol
# Density = 2.124053 g / cm^3
# Si number density = 21.288983 Si / 1000 Ang^3
#
#
#
# Elastic Constant Matrix: (Units=GPa)
#
#
# Indices 1 2 3 4 5 6 
#
# 1 84.8666 18.5646 25.3316 -0.0003 -2.9833 0.0005
# 2 18.5646 51.6884 29.9719 -0.0019 -1.2493 0.0033
# 3 25.3316 29.9719 89.7101 -0.0002 6.9361 0.0008
# 4 -0.0003 -0.0019 -0.0002 28.2990 -0.0001 -4.7326
# 5 -2.9833 -1.2493 6.9361 -0.0001 44.4528 0.0000
# 6 0.0005 0.0033 0.0008 -4.7326 0.0000 24.2133
#
#
#
# Elastic Compliance Matrix: (Units=1/GPa)
#
#
# Indices 1 2 3 4 5 6 
#
# 1 0.013354 -0.003130 -0.002822 0.000000 0.001249 0.000000
# 2 -0.003130 0.024897 -0.007563 0.000001 0.001670 -0.000003
# 3 -0.002822 -0.007563 0.014679 0.000000 -0.002692 0.000001
# 4 0.000000 0.000001 0.000000 0.036531 0.000000 0.007140
# 5 0.001249 0.001670 -0.002692 0.000000 0.023047 0.000000
# 6 0.000000 -0.000003 0.000001 0.007140 0.000000 0.042695
#
#
# Mechanical properties :
#
#
# Convention : Reuss Voigt Hill
#
# Bulk Modulus (GPa) = 38.61010 41.55570 40.08290
# Shear Modulus (GPa) = 26.19645 29.55280 27.87462
#
# Velocity S-wave (km/s) = 3.51168 3.72986 3.62241
# Velocity P-wave (km/s) = 5.88371 6.17344 6.03032
#
# Compressibility (1/GPa) = 0.02589996
#
# Stress axis : x y z
#
# Youngs Moduli (GPa) = 74.88404 40.16569 68.12550
#
# Poissons Ratio (x) = 0.12572 0.19222
# Poissons Ratio (y) = 0.23438 0.51525
# Poissons Ratio (z) = 0.21129 0.30378
#
# Static dielectric constant tensor:
#      x y z
#    x 3.947630 0.000000 -0.081110 
#    y 0.000000 3.636240 0.000000 
#    z -0.081110 0.000000 4.035680 
# 
# 
# High freq. dielectric constant tensor:
#      x y z
#    x 1.837170 0.000000 -0.001800 
#    y 0.000000 1.811770 0.000000 
#    z -0.001800 0.000000 1.849620 
# 
# From -- ./inp_files/214268.got.cif
#   From: 2010.06.25/outbox.cif.g09.slc.cpg/sg15_108_cif.got.tgz:214268.got - 2010.06.28 07:06:18.
