data_PCOD8140557
_publ_section_title
;
Structure prediction by ZEFSAII (Michael W. Deem and Ramdas Pophale) SiO2 
 PCOD8140557
Probable space group: C 2/C
;
_chemical_formula_sum "Si O2"
_cell_formula_units_Z 40
_cell_length_a 8.421299
_cell_length_b 16.400045
_cell_length_c 22.524009
_cell_angle_alpha 90.000000
_cell_angle_beta 36.947617
_cell_angle_gamma 90.000000
_cell_volume 1869.844241
_symmetry_space_group_name_H-M "C 2/C"
_symmetry_group_IT_number 15
_symmetry_cell_setting 'monoclinic'
loop_
_space_group_symop_operation_xyz
x,y,z
-x,y,1/2-z
-x,-y,-z
x,-y,1/2+z
1/2+x,1/2+y,z
1/2-x,1/2+y,1/2-z
1/2-x,1/2-y,-z
1/2+x,1/2-y,1/2+z
loop_
_atom_site_type_symbol
_atom_site_label
_atom_site_fract_x
_atom_site_fract_y
_atom_site_fract_z
Si Si1 0.596457 0.136461 0.829324
Si Si2 0.000000 0.262582 0.250000
Si Si3 0.716227 0.500008 0.801499
Si Si4 0.000000 0.737396 0.250000
Si Si5 0.348997 0.999994 0.482200
Si Si6 0.096462 0.363557 0.829322
O O1 0.429246 0.180903 0.827626
O O2 0.416541 0.082061 0.926055
O O3 0.742189 0.206877 0.821761
O O4 0.810610 0.078855 0.732664
O O5 0.742186 0.206858 0.321763
O O6 0.689378 0.421164 0.767336
O O7 0.000000 0.500006 0.750000
O O8 0.467703 0.500000 0.919209
O O9 0.070749 0.680881 0.172376
O O10 0.500000 0.000000 0.500000
O O11 0.416536 0.082044 0.426053
#
# Coordination Sequence:
#
# PCOD8140557 Si02
#       6
#     8   4   8   4   8   8
#     4  10  22  41  67  91 132 166 216 260 320 382
#     4  10  20  42  64  96 132 172 198 274 326 372
#     4  11  22  43  67  92 126 171 214 262 316 375
#     4  10  20  42  64  96 132 172 198 274 326 372
#     4  11  24  42  68  98 123 171 221 262 312 382
#     4  10  22  41  67  91 132 166 216 260 320 382
#
# _framework density 21.392157000000001
#
# number of rings (size 3 to 8) (size 9 to 14) (size 15 to 20)
#    0.000    1.600    2.000    2.400    0.000    6.400 
#    0.000   22.000    0.000    0.000    0.000    0.000 
#    0.000    0.000    0.000    0.000    0.000    0.000 
#
# Total GULP energy -247933.875429 kJ/mol
# GULP energy per Si atom -12396.693771 kJ/mol
# Density = 2.134347 g / cm^3
# Si number density = 21.392157 Si / 1000 Ang^3
#
#
#
# Elastic Constant Matrix: (Units=GPa)
#
#
# Indices 1 2 3 4 5 6 
#
# 1 144.7261 76.9313 65.2301 -0.0267 13.0670 -0.0023
# 2 76.9313 168.9694 73.5211 0.0668 18.9366 -0.0090
# 3 65.2301 73.5211 167.3989 0.0830 7.4584 0.1454
# 4 -0.0267 0.0668 0.0830 19.3013 0.0094 5.8049
# 5 13.0670 18.9366 7.4584 0.0094 27.0240 -0.0678
# 6 -0.0023 -0.0090 0.1454 5.8049 -0.0678 14.4229
#
#
#
# Elastic Compliance Matrix: (Units=1/GPa)
#
#
# Indices 1 2 3 4 5 6 
#
# 1 0.009863 -0.003274 -0.002324 0.000036 -0.001834 0.000000
# 2 -0.003274 0.008931 -0.002469 -0.000030 -0.003993 0.000023
# 3 -0.002324 -0.002469 0.007934 -0.000006 0.000663 -0.000076
# 4 0.000036 -0.000030 -0.000006 0.058945 -0.000075 -0.023725
# 5 -0.001834 -0.003993 0.000663 -0.000075 0.040507 0.000211
# 6 0.000000 0.000023 -0.000076 -0.023725 0.000211 0.078885
#
#
# Mechanical properties :
#
#
# Convention : Reuss Voigt Hill
#
# Bulk Modulus (GPa) = 94.38538 101.38439 97.88489
# Shear Modulus (GPa) = 22.24913 29.84374 26.04643
#
# Velocity S-wave (km/s) = 3.22849 3.73913 3.49315
# Velocity P-wave (km/s) = 7.62331 8.13250 7.88202
#
# Compressibility (1/GPa) = 0.01059486
#
# Stress axis : x y z
#
# Youngs Moduli (GPa) = 101.39134 111.97514 126.04142
#
# Poissons Ratio (x) = 0.36660 0.29287
# Poissons Ratio (y) = 0.33195 0.31114
# Poissons Ratio (z) = 0.23559 0.27642
#
# Static dielectric constant tensor:
#      x y z
#    x 4.146600 -0.000030 0.264650 
#    y -0.000030 4.311930 0.000020 
#    z 0.264650 0.000020 3.477900 
# 
# 
# High freq. dielectric constant tensor:
#      x y z
#    x 1.853390 0.000000 0.016320 
#    y 0.000000 1.871170 0.000000 
#    z 0.016320 0.000000 1.803450 
# 
# From -- ./inp_files/76757.got.cif
#   From: 2010.06.25/outbox.cif.g09.slc.cpg/sg15_39_cif.got.tgz:76757.got - 2010.06.28 07:06:18.
