data_PCOD8140017
_publ_section_title
;
Structure prediction by ZEFSAII (Michael W. Deem and Ramdas Pophale) SiO2 
 PCOD8140017
Probable space group: C 2/C
;
_chemical_formula_sum "Si O2"
_cell_formula_units_Z 64
_cell_length_a 11.268232
_cell_length_b 30.513850
_cell_length_c 16.653189
_cell_angle_alpha 90.000000
_cell_angle_beta 145.328880
_cell_angle_gamma 90.000000
_cell_volume 3257.312675
_symmetry_space_group_name_H-M "C 2/C"
_symmetry_group_IT_number 15
_symmetry_cell_setting 'monoclinic'
loop_
_space_group_symop_operation_xyz
x,y,z
-x,y,1/2-z
-x,-y,-z
x,-y,1/2+z
1/2+x,1/2+y,z
1/2-x,1/2+y,1/2-z
1/2-x,1/2-y,-z
1/2+x,1/2-y,1/2+z
loop_
_atom_site_type_symbol
_atom_site_label
_atom_site_fract_x
_atom_site_fract_y
_atom_site_fract_z
Si Si1 0.015852 0.786349 0.034322
Si Si2 0.843837 0.710074 0.597434
Si Si3 0.995689 0.537727 0.061662
Si Si4 0.343232 0.200006 0.854291
Si Si5 0.240747 0.634718 0.400864
Si Si6 0.292150 0.989571 0.094972
Si Si7 0.227101 0.883020 0.396034
Si Si8 0.884289 0.057154 0.377586
O O1 0.155349 0.811737 0.043350
O O2 0.146662 0.783166 0.190978
O O3 0.938450 0.738658 0.962435
O O4 0.809970 0.815169 0.929738
O O5 0.750000 0.750000 0.500000
O O6 0.000000 0.730198 0.750000
O O7 0.974602 0.681382 0.605057
O O8 0.854287 0.520116 0.055439
O O9 0.227674 0.552947 0.215352
O O10 0.891575 0.580008 0.962143
O O11 0.000000 0.500000 0.000000
O O12 0.273321 0.161683 0.874320
O O13 0.274304 0.622057 0.510299
O O14 0.372735 0.604601 0.413116
O O15 0.000000 0.628873 0.250000
O O16 0.500000 0.967783 0.250000
O O17 0.183925 0.021238 0.097167
O O18 0.122453 0.951728 0.979646
O O19 0.000000 0.901028 0.250000
#
# Coordination Sequence:
#
# PCOD8140017 Si02
#       8
#     8   8   8   8   8   8   8   8
#     4  10  22  39  64  94 123 172 213 260 312 375
#     4   8  16  36  60  82 116 155 200 250 299 359
#     4  11  24  40  64  93 126 166 208 260 331 379
#     4  10  22  40  63  95 129 165 214 259 318 379
#     4  12  23  42  63  86 124 172 212 261 321 383
#     4   9  19  38  63  91 115 160 208 258 309 376
#     4  12  25  41  62  92 134 168 211 270 321 381
#     4  10  20  40  65  86 121 164 215 250 312 389
#
# _framework density 19.648098999999998
#
# number of rings (size 3 to 8) (size 9 to 14) (size 15 to 20)
#    0.000    1.750    3.750    0.375    3.500    2.000 
#    2.250    0.625    0.000    0.000    0.000    0.000 
#    0.000    0.000    0.000    0.000    0.000    0.000 
#
# Total GULP energy -396478.367355 kJ/mol
# GULP energy per Si atom -12389.948980 kJ/mol
# Density = 1.960338 g / cm^3
# Si number density = 19.648099 Si / 1000 Ang^3
#
#
#
# Elastic Constant Matrix: (Units=GPa)
#
#
# Indices 1 2 3 4 5 6 
#
# 1 50.0573 32.5125 50.6002 0.0000 -2.0447 0.0000
# 2 32.5125 94.4911 57.0045 0.0000 -0.1599 0.0000
# 3 50.6002 57.0045 139.9884 0.0000 -0.2036 0.0000
# 4 0.0000 0.0000 0.0000 33.1165 0.0000 3.8228
# 5 -2.0447 -0.1599 -0.2036 0.0000 35.2206 0.0000
# 6 0.0000 0.0000 0.0000 3.8228 0.0000 36.1112
#
#
#
# Elastic Compliance Matrix: (Units=1/GPa)
#
#
# Indices 1 2 3 4 5 6 
#
# 1 0.033705 -0.005629 -0.009888 0.000000 0.001874 0.000000
# 2 -0.005629 0.014970 -0.004062 0.000000 -0.000282 0.000000
# 3 -0.009888 -0.004062 0.012371 0.000000 -0.000521 0.000000
# 4 0.000000 0.000000 0.000000 0.030570 0.000000 -0.003236
# 5 0.001874 -0.000282 -0.000521 0.000000 0.028497 0.000000
# 6 0.000000 0.000000 0.000000 -0.003236 0.000000 0.028035
#
#
# Mechanical properties :
#
#
# Convention : Reuss Voigt Hill
#
# Bulk Modulus (GPa) = 45.68648 62.75235 54.21942
# Shear Modulus (GPa) = 25.69371 30.51764 28.10568
#
# Velocity S-wave (km/s) = 3.62013 3.94536 3.78624
# Velocity P-wave (km/s) = 6.38566 7.26374 6.83881
#
# Compressibility (1/GPa) = 0.02188831
#
# Stress axis : x y z
#
# Youngs Moduli (GPa) = 29.66922 66.80237 80.83559
#
# Poissons Ratio (x) = 0.37601 0.79932
# Poissons Ratio (y) = 0.16700 0.32832
# Poissons Ratio (z) = 0.29338 0.27132
#
# Static dielectric constant tensor:
#      x y z
#    x 3.857970 0.000000 0.219540 
#    y 0.000000 3.288900 0.000000 
#    z 0.219540 0.000000 3.974400 
# 
# 
# High freq. dielectric constant tensor:
#      x y z
#    x 1.770650 0.000000 0.002100 
#    y 0.000000 1.737060 0.000000 
#    z 0.002100 0.000000 1.785790 
# 
# From -- ./inp_files/201504.got.cif
#   From: 2010.06.25/outbox.cif.g09.slc.cpg/sg15_101_cif.got.tgz:201504.got - 2010.06.28 07:06:18.
