data_PCOD8140143
_publ_section_title
;
Structure prediction by ZEFSAII (Michael W. Deem and Ramdas Pophale) SiO2 
 PCOD8140143
Probable space group: C 2/C
;
_chemical_formula_sum "Si O2"
_cell_formula_units_Z 56
_cell_length_a 25.136023
_cell_length_b 8.773516
_cell_length_c 14.010779
_cell_angle_alpha 90.000000
_cell_angle_beta 59.121262
_cell_angle_gamma 90.000000
_cell_volume 2651.850726
_symmetry_space_group_name_H-M "C 2/C"
_symmetry_group_IT_number 15
_symmetry_cell_setting 'monoclinic'
loop_
_space_group_symop_operation_xyz
x,y,z
-x,y,1/2-z
-x,-y,-z
x,-y,1/2+z
1/2+x,1/2+y,z
1/2-x,1/2+y,1/2-z
1/2-x,1/2-y,-z
1/2+x,1/2-y,1/2+z
loop_
_atom_site_type_symbol
_atom_site_label
_atom_site_fract_x
_atom_site_fract_y
_atom_site_fract_z
Si Si1 0.500000 0.782623 0.750000
Si Si2 0.411615 0.968527 0.405978
Si Si3 0.870335 0.343451 0.103122
Si Si4 0.202797 0.848463 0.982947
Si Si5 0.052391 0.920632 0.888980
Si Si6 0.382984 0.659699 0.769094
Si Si7 0.500000 0.715628 0.250000
Si Si8 0.821420 0.521104 0.320280
O O1 0.456275 0.684781 0.721405
O O2 0.545264 0.885051 0.645892
O O3 0.449200 0.815188 0.353716
O O4 0.352391 0.974743 0.391690
O O5 0.390306 0.995918 0.534894
O O6 0.824907 0.250763 0.076504
O O7 0.928063 0.235628 0.077271
O O8 0.835888 0.391049 0.230974
O O9 0.246319 0.981544 0.899325
O O10 0.250000 0.750000 0.000000
O O11 0.149408 0.907147 0.104403
O O12 0.030430 0.888514 0.801612
O O13 0.112971 0.032296 0.818977
O O14 0.000000 0.000000 0.000000
O O15 0.348235 0.812306 0.764909
#
# Coordination Sequence:
#
# PCOD8140143 Si02
#       8
#     4   8   8   8   8   8   4   8
#     4   9  15  34  66  88 118 182 208 256 334 402
#     4  10  20  40  67  95 131 176 222 279 326 394
#     4  12  23  42  70 101 129 176 238 268 333 406
#     4  10  21  42  68  91 127 175 216 281 330 381
#     4  12  28  41  65 105 140 177 216 276 341 410
#     4  10  21  41  64  92 136 176 216 270 351 384
#     4  11  25  44  64 100 150 164 222 282 336 396
#     4  10  22  43  69  96 129 179 234 275 326 402
#
# _framework density 21.117328000000001
#
# number of rings (size 3 to 8) (size 9 to 14) (size 15 to 20)
#    0.000    1.429    5.714    1.286    4.000    2.857 
#    0.000    2.143    0.000    0.000    0.000    0.000 
#    0.000    0.000    0.000    0.000    0.000    0.000 
#
# Total GULP energy -347000.292337 kJ/mol
# GULP energy per Si atom -12392.867583 kJ/mol
# Density = 2.106926 g / cm^3
# Si number density = 21.117328 Si / 1000 Ang^3
#
#
#
# Elastic Constant Matrix: (Units=GPa)
#
#
# Indices 1 2 3 4 5 6 
#
# 1 91.6532 15.0286 43.9584 0.0000 -0.0868 0.0000
# 2 15.0286 70.4457 45.5567 0.0000 -1.7907 0.0000
# 3 43.9584 45.5567 117.4427 0.0000 -1.5419 0.0000
# 4 0.0000 0.0000 0.0000 59.2455 0.0000 4.5387
# 5 -0.0868 -1.7907 -1.5419 0.0000 33.6471 0.0000
# 6 0.0000 0.0000 0.0000 4.5387 0.0000 26.2507
#
#
#
# Elastic Compliance Matrix: (Units=1/GPa)
#
#
# Indices 1 2 3 4 5 6 
#
# 1 0.013313 0.000506 -0.005182 0.000000 -0.000176 0.000000
# 2 0.000506 0.018983 -0.007544 0.000000 0.000666 0.000000
# 3 -0.005182 -0.007544 0.013383 0.000000 0.000198 0.000000
# 4 0.000000 0.000000 0.000000 0.017105 0.000000 -0.002958
# 5 -0.000176 0.000666 0.000198 0.000000 0.029764 0.000000
# 6 0.000000 0.000000 0.000000 -0.002958 0.000000 0.038606
#
#
# Mechanical properties :
#
#
# Convention : Reuss Voigt Hill
#
# Bulk Modulus (GPa) = 47.08140 54.29212 50.68676
# Shear Modulus (GPa) = 30.73630 35.49518 33.11574
#
# Velocity S-wave (km/s) = 3.81924 4.10427 3.96432
# Velocity P-wave (km/s) = 6.46470 6.94447 6.70887
#
# Compressibility (1/GPa) = 0.02123981
#
# Stress axis : x y z
#
# Youngs Moduli (GPa) = 75.11629 52.67823 74.71942
#
# Poissons Ratio (x) = -0.02667 0.38717
# Poissons Ratio (y) = -0.03804 0.56372
# Poissons Ratio (z) = 0.38923 0.39743
#
# Static dielectric constant tensor:
#      x y z
#    x 3.391330 0.000000 -0.012290 
#    y 0.000000 3.746470 0.000000 
#    z -0.012290 0.000000 4.349980 
# 
# 
# High freq. dielectric constant tensor:
#      x y z
#    x 1.821220 0.000000 -0.004410 
#    y 0.000000 1.814150 0.000000 
#    z -0.004410 0.000000 1.835260 
# 
# From -- ./inp_files/176542.got.cif
#   From: 2010.06.25/outbox.cif.g09.slc.cpg/sg15_89_cif.got.tgz:176542.got - 2010.06.28 07:06:18.
