data_PCOD8140029
_publ_section_title
;
Structure prediction by ZEFSAII (Michael W. Deem and Ramdas Pophale) SiO2 
 PCOD8140029
Probable space group: C 2/C
;
_chemical_formula_sum "Si O2"
_cell_formula_units_Z 64
_cell_length_a 12.758341
_cell_length_b 17.278067
_cell_length_c 32.028765
_cell_angle_alpha 90.000000
_cell_angle_beta 153.966851
_cell_angle_gamma 90.000000
_cell_volume 3098.748330
_symmetry_space_group_name_H-M "C 2/C"
_symmetry_group_IT_number 15
_symmetry_cell_setting 'monoclinic'
loop_
_space_group_symop_operation_xyz
x,y,z
-x,y,1/2-z
-x,-y,-z
x,-y,1/2+z
1/2+x,1/2+y,z
1/2-x,1/2+y,1/2-z
1/2-x,1/2-y,-z
1/2+x,1/2-y,1/2+z
loop_
_atom_site_type_symbol
_atom_site_label
_atom_site_fract_x
_atom_site_fract_y
_atom_site_fract_z
Si Si1 0.914544 0.350100 0.806896
Si Si2 0.567581 0.705225 0.904009
Si Si3 0.427647 0.423590 0.878364
Si Si4 0.770707 0.573412 0.338526
Si Si5 0.916458 0.454861 0.011600
Si Si6 0.499736 0.820633 0.989220
Si Si7 0.033945 0.143554 0.019343
Si Si8 0.768425 0.084953 0.849217
O O1 0.739648 0.361751 0.705222
O O2 0.819295 0.406259 0.808378
O O3 0.889858 0.263530 0.816539
O O4 0.186970 0.367519 0.891360
O O5 0.727509 0.663456 0.926408
O O6 0.427058 0.640311 0.877727
O O7 0.750000 0.750000 0.000000
O O8 0.523098 0.378446 0.953341
O O9 0.268624 0.496983 0.833868
O O10 0.639519 0.457926 0.925552
O O11 0.500000 0.550407 0.250000
O O12 0.925560 0.494720 0.396567
O O13 0.834094 0.643500 0.393123
O O14 0.966137 0.364112 0.021305
O O15 0.000000 0.500000 0.000000
O O16 0.445578 0.730495 0.977191
O O17 0.873156 0.086875 0.933522
O O18 0.500000 0.116233 0.750000
#
# Coordination Sequence:
#
# PCOD8140029 Si02
#       8
#     8   8   8   8   8   8   8   8
#     4  11  21  40  66  94 127 170 222 268 336 395
#     4  11  20  42  70  97 123 170 217 276 333 385
#     4  12  26  42  64  95 135 177 219 272 337 410
#     4  11  21  37  66  95 124 166 225 277 329 391
#     4  10  22  40  61  89 127 167 212 271 334 388
#     4  10  20  40  65  90 122 167 217 267 333 398
#     4  11  23  43  64  89 133 175 215 275 341 394
#     4  12  24  40  66 100 131 169 229 276 326 398
#
# _framework density 20.653500999999999
#
# number of rings (size 3 to 8) (size 9 to 14) (size 15 to 20)
#    0.000    1.000    3.750    5.250    0.000    4.500 
#    0.000    3.750    0.000    0.000    0.000    0.000 
#    0.000    0.000    0.000    0.000    0.000    0.000 
#
# Total GULP energy -396692.198185 kJ/mol
# GULP energy per Si atom -12396.631193 kJ/mol
# Density = 2.060649 g / cm^3
# Si number density = 20.653501 Si / 1000 Ang^3
#
#
#
# Elastic Constant Matrix: (Units=GPa)
#
#
# Indices 1 2 3 4 5 6 
#
# 1 87.3854 25.2758 36.2936 0.0011 -8.0404 0.0000
# 2 25.2758 79.7379 40.4624 0.0012 -8.3365 0.0002
# 3 36.2936 40.4624 119.0908 -0.0012 -6.4960 -0.0001
# 4 0.0011 0.0012 -0.0012 28.2148 -0.0002 5.2147
# 5 -8.0404 -8.3365 -6.4960 -0.0002 36.7414 0.0002
# 6 0.0000 0.0002 -0.0001 5.2147 0.0002 31.4488
#
#
#
# Elastic Compliance Matrix: (Units=1/GPa)
#
#
# Indices 1 2 3 4 5 6 
#
# 1 0.013675 -0.002510 -0.003213 -0.000001 0.001855 0.000000
# 2 -0.002510 0.015855 -0.004499 -0.000001 0.002253 0.000000
# 3 -0.003213 -0.004499 0.010916 0.000001 0.000206 0.000000
# 4 -0.000001 -0.000001 0.000001 0.036563 0.000000 -0.006063
# 5 0.001855 0.002253 0.000206 0.000000 0.028171 0.000000
# 6 0.000000 0.000000 0.000000 -0.006063 0.000000 0.032803
#
#
# Mechanical properties :
#
#
# Convention : Reuss Voigt Hill
#
# Bulk Modulus (GPa) = 49.99796 54.47531 52.23664
# Shear Modulus (GPa) = 30.28547 31.55981 30.92264
#
# Velocity S-wave (km/s) = 3.83346 3.91328 3.87358
# Velocity P-wave (km/s) = 6.62227 6.84481 6.73446
#
# Compressibility (1/GPa) = 0.02000082
#
# Stress axis : x y z
#
# Youngs Moduli (GPa) = 73.12653 63.07009 91.60727
#
# Poissons Ratio (x) = 0.15832 0.29438
# Poissons Ratio (y) = 0.18356 0.41216
# Poissons Ratio (z) = 0.23499 0.28376
#
# Static dielectric constant tensor:
#      x y z
#    x 4.087520 0.000000 0.006220 
#    y 0.000000 4.034580 0.000000 
#    z 0.006220 0.000000 3.725930 
# 
# 
# High freq. dielectric constant tensor:
#      x y z
#    x 1.821000 0.000000 0.006040 
#    y 0.000000 1.809260 0.000000 
#    z 0.006040 0.000000 1.794050 
# 
# From -- ./inp_files/311662.got.cif
#   From: 2010.06.25/outbox.cif.g09.slc.cpg/sg15_156_cif.got.tgz:311662.got - 2010.06.28 07:06:18.
