data_PCOD8140873
_publ_section_title
;
Structure prediction by ZEFSAII (Michael W. Deem and Ramdas Pophale) SiO2 
 PCOD8140873
Probable space group: C 2/C
;
_chemical_formula_sum "Si O2"
_cell_formula_units_Z 48
_cell_length_a 9.549136
_cell_length_b 16.389671
_cell_length_c 17.954135
_cell_angle_alpha 90.000000
_cell_angle_beta 56.398379
_cell_angle_gamma 90.000000
_cell_volume 2340.424170
_symmetry_space_group_name_H-M "C 2/C"
_symmetry_group_IT_number 15
_symmetry_cell_setting 'monoclinic'
loop_
_space_group_symop_operation_xyz
x,y,z
-x,y,1/2-z
-x,-y,-z
x,-y,1/2+z
1/2+x,1/2+y,z
1/2-x,1/2+y,1/2-z
1/2-x,1/2-y,-z
1/2+x,1/2-y,1/2+z
loop_
_atom_site_type_symbol
_atom_site_label
_atom_site_fract_x
_atom_site_fract_y
_atom_site_fract_z
Si Si1 0.913039 0.297966 0.432075
Si Si2 0.539739 0.977872 0.072779
Si Si3 0.664867 0.452405 0.923173
Si Si4 0.500000 0.325573 0.250000
Si Si5 0.000000 0.321047 0.250000
Si Si6 0.784842 0.235208 0.075544
Si Si7 0.257237 0.439800 0.233077
O O1 0.750000 0.250000 0.500000
O O2 0.864292 0.392423 0.446429
O O3 0.980617 0.267642 0.330780
O O4 0.058705 0.291977 0.449947
O O5 0.360409 0.974602 0.166953
O O6 0.670737 0.039335 0.072466
O O7 0.500000 0.000000 0.000000
O O8 0.646903 0.354997 0.925280
O O9 0.687876 0.482834 0.831831
O O10 0.500000 0.500000 0.000000
O O11 0.625229 0.264297 0.170552
O O12 0.411558 0.387245 0.218830
O O13 0.161924 0.378789 0.205950
O O14 0.750000 0.250000 0.000000
#
# Coordination Sequence:
#
# PCOD8140873 Si02
#       7
#     8   8   8   4   4   8   8
#     4  11  23  44  68  94 129 174 220 272 337 397
#     4  11  23  44  66  95 130 174 219 272 333 400
#     4  12  25  43  72  98 135 176 227 279 339 409
#     4  12  26  45  71  98 140 178 230 282 344 409
#     4  10  20  45  69  90 126 178 220 268 338 397
#     4  12  27  43  67 107 137 177 226 286 344 403
#     4  11  23  46  70  92 134 184 221 274 345 406
#
# _framework density 20.509101999999999
#
# number of rings (size 3 to 8) (size 9 to 14) (size 15 to 20)
#    0.000    0.667    6.667    3.000    7.000    0.000 
#    3.000    0.000    0.000    0.000    0.000    0.000 
#    0.000    0.000    0.000    0.000    0.000    0.000 
#
# Total GULP energy -297525.720026 kJ/mol
# GULP energy per Si atom -12396.905001 kJ/mol
# Density = 2.046242 g / cm^3
# Si number density = 20.509102 Si / 1000 Ang^3
#
#
#
# Elastic Constant Matrix: (Units=GPa)
#
#
# Indices 1 2 3 4 5 6 
#
# 1 111.5140 17.5377 38.8188 0.0001 9.4776 0.0000
# 2 17.5377 77.0799 46.2038 0.0000 3.6428 0.0000
# 3 38.8188 46.2038 142.5728 0.0001 10.8315 0.0000
# 4 0.0001 0.0000 0.0001 37.0377 -0.0001 -0.5674
# 5 9.4776 3.6428 10.8315 -0.0001 42.5436 0.0000
# 6 0.0000 0.0000 0.0000 -0.5674 0.0000 38.0297
#
#
#
# Elastic Compliance Matrix: (Units=1/GPa)
#
#
# Indices 1 2 3 4 5 6 
#
# 1 0.010047 -0.000799 -0.002358 0.000000 -0.001570 0.000000
# 2 -0.000799 0.016165 -0.005027 0.000000 0.000074 0.000000
# 3 -0.002358 -0.005027 0.009394 0.000000 -0.001436 0.000000
# 4 0.000000 0.000000 0.000000 0.027006 0.000000 0.000403
# 5 -0.001570 0.000074 -0.001436 0.000000 0.024214 0.000000
# 6 0.000000 0.000000 0.000000 0.000403 0.000000 0.026301
#
#
# Mechanical properties :
#
#
# Convention : Reuss Voigt Hill
#
# Bulk Modulus (GPa) = 51.97431 59.58748 55.78090
# Shear Modulus (GPa) = 36.78998 38.76262 37.77630
#
# Velocity S-wave (km/s) = 4.23997 4.35215 4.29643
# Velocity P-wave (km/s) = 7.02615 7.37375 7.20205
#
# Compressibility (1/GPa) = 0.01924027
#
# Stress axis : x y z
#
# Youngs Moduli (GPa) = 99.53063 61.86224 106.45117
#
# Poissons Ratio (x) = 0.04941 0.25096
# Poissons Ratio (y) = 0.07949 0.53510
# Poissons Ratio (z) = 0.23464 0.31097
#
# Static dielectric constant tensor:
#      x y z
#    x 3.687080 0.000000 -0.026600 
#    y 0.000000 3.823060 0.000000 
#    z -0.026600 0.000000 3.736240 
# 
# 
# High freq. dielectric constant tensor:
#      x y z
#    x 1.820030 0.000000 0.006070 
#    y 0.000000 1.794930 0.000000 
#    z 0.006070 0.000000 1.811310 
# 
# From -- ./inp_files/134922.got.cif
#   From: 2010.06.25/outbox.cif.g09.slc.cpg/sg15_68_cif.got.tgz:134922.got - 2010.06.28 07:06:18.
