data_PCOD8140255
_publ_section_title
;
Structure prediction by ZEFSAII (Michael W. Deem and Ramdas Pophale) SiO2 
 PCOD8140255
Probable space group: C 2/C
;
_chemical_formula_sum "Si O2"
_cell_formula_units_Z 40
_cell_length_a 8.803358
_cell_length_b 14.312408
_cell_length_c 23.130257
_cell_angle_alpha 90.000000
_cell_angle_beta 45.775190
_cell_angle_gamma 90.000000
_cell_volume 2088.447584
_symmetry_space_group_name_H-M "C 2/C"
_symmetry_group_IT_number 15
_symmetry_cell_setting 'monoclinic'
loop_
_space_group_symop_operation_xyz
x,y,z
-x,y,1/2-z
-x,-y,-z
x,-y,1/2+z
1/2+x,1/2+y,z
1/2-x,1/2+y,1/2-z
1/2-x,1/2-y,-z
1/2+x,1/2-y,1/2+z
loop_
_atom_site_type_symbol
_atom_site_label
_atom_site_fract_x
_atom_site_fract_y
_atom_site_fract_z
Si Si1 0.166772 0.849932 0.756236
Si Si2 0.999686 0.732026 0.499217
Si Si3 0.934265 0.485416 0.201427
Si Si4 0.905606 0.646176 0.407234
Si Si5 0.541100 0.202126 0.617377
O O1 0.393275 0.803867 0.677824
O O2 0.000000 0.835346 0.750000
O O3 0.081050 0.798813 0.836233
O O4 0.206091 0.961067 0.757488
O O5 0.946698 0.653306 0.465383
O O6 0.811847 0.806295 0.552621
O O7 0.214433 0.788782 0.427894
O O8 0.024430 0.680013 0.553858
O O9 0.100197 0.538778 0.114061
O O10 0.923352 0.378705 0.184516
O O11 0.000000 0.491937 0.250000
#
# Coordination Sequence:
#
# PCOD8140255 Si02
#       5
#     8   8   8   8   8
#     4  10  20  41  58  82 121 155 197 244 284 347
#     4  10  21  38  61  85 120 155 188 241 303 345
#     4  10  22  37  60  88 113 153 205 238 284 344
#     4   9  21  40  58  85 118 156 190 244 289 347
#     4  11  21  37  64  87 115 159 192 240 298 346
#
# _framework density 19.152982999999999
#
# number of rings (size 3 to 8) (size 9 to 14) (size 15 to 20)
#    1.200    0.800    2.000    1.800    0.000    1.600 
#    3.600    0.000    0.000    0.000    0.000    0.000 
#    0.000    0.000    0.000    0.000    0.000    0.000 
#
# Total GULP energy -247805.797837 kJ/mol
# GULP energy per Si atom -12390.289892 kJ/mol
# Density = 1.910939 g / cm^3
# Si number density = 19.152983 Si / 1000 Ang^3
#
#
#
# Elastic Constant Matrix: (Units=GPa)
#
#
# Indices 1 2 3 4 5 6 
#
# 1 86.6890 36.4490 43.6846 -0.0002 3.0888 0.0001
# 2 36.4490 90.6307 37.4641 -0.0002 1.6550 0.0003
# 3 43.6846 37.4641 83.7967 -0.0008 -8.1334 0.0004
# 4 -0.0002 -0.0002 -0.0008 35.0852 0.0001 0.8302
# 5 3.0888 1.6550 -8.1334 0.0001 44.2451 -0.0002
# 6 0.0001 0.0003 0.0004 0.8302 -0.0002 15.4726
#
#
#
# Elastic Compliance Matrix: (Units=1/GPa)
#
#
# Indices 1 2 3 4 5 6 
#
# 1 0.016900 -0.003698 -0.007390 0.000000 -0.002400 0.000000
# 2 -0.003698 0.014464 -0.004649 0.000000 -0.001137 0.000000
# 3 -0.007390 -0.004649 0.018257 0.000000 0.004046 0.000000
# 4 0.000000 0.000000 0.000000 0.028538 0.000000 -0.001531
# 5 -0.002400 -0.001137 0.004046 0.000000 0.023555 0.000000
# 6 0.000000 0.000000 0.000000 -0.001531 0.000000 0.064713
#
#
# Mechanical properties :
#
#
# Convention : Reuss Voigt Hill
#
# Bulk Modulus (GPa) = 55.10543 55.14577 55.12560
# Shear Modulus (GPa) = 24.51594 28.52849 26.52222
#
# Velocity S-wave (km/s) = 3.58160 3.86360 3.72527
# Velocity P-wave (km/s) = 6.77772 6.98269 6.88097
#
# Compressibility (1/GPa) = 0.01814703
#
# Stress axis : x y z
#
# Youngs Moduli (GPa) = 59.17265 69.13928 54.77297
#
# Poissons Ratio (x) = 0.25568 0.40475
# Poissons Ratio (y) = 0.21882 0.25464
# Poissons Ratio (z) = 0.43727 0.32143
#
# Static dielectric constant tensor:
#      x y z
#    x 3.496500 0.000000 0.026250 
#    y 0.000000 3.190900 0.000000 
#    z 0.026250 0.000000 3.594730 
# 
# 
# High freq. dielectric constant tensor:
#      x y z
#    x 1.753310 0.000000 0.007600 
#    y 0.000000 1.711780 0.000000 
#    z 0.007600 0.000000 1.749480 
# 
# From -- ./inp_files/188503.got.cif
#   From: 2010.06.25/outbox.cif.g09.slc.cpg/sg15_95_cif.got.tgz:188503.got - 2010.06.28 07:06:18.
