data_PCOD8140569
_publ_section_title
;
Structure prediction by ZEFSAII (Michael W. Deem and Ramdas Pophale) SiO2 
 PCOD8140569
Probable space group: C 2/C
;
_chemical_formula_sum "Si O2"
_cell_formula_units_Z 40
_cell_length_a 15.470326
_cell_length_b 6.764081
_cell_length_c 17.118739
_cell_angle_alpha 90.000000
_cell_angle_beta 91.704759
_cell_angle_gamma 90.000000
_cell_volume 1790.555435
_symmetry_space_group_name_H-M "C 2/C"
_symmetry_group_IT_number 15
_symmetry_cell_setting 'monoclinic'
loop_
_space_group_symop_operation_xyz
x,y,z
-x,y,1/2-z
-x,-y,-z
x,-y,1/2+z
1/2+x,1/2+y,z
1/2-x,1/2+y,1/2-z
1/2-x,1/2-y,-z
1/2+x,1/2-y,1/2+z
loop_
_atom_site_type_symbol
_atom_site_label
_atom_site_fract_x
_atom_site_fract_y
_atom_site_fract_z
Si Si1 0.189216 0.060824 0.090018
Si Si2 0.532238 0.032863 0.414082
Si Si3 0.077252 0.707002 0.698012
Si Si4 0.341095 0.373338 0.085189
Si Si5 0.322981 0.217013 0.652633
O O1 0.105644 0.124853 0.137642
O O2 0.260360 0.231707 0.097223
O O3 0.227219 0.857029 0.126483
O O4 0.160685 0.027304 0.000401
O O5 0.568835 0.254264 0.401792
O O6 0.500000 0.000000 0.500000
O O7 0.455470 0.987615 0.350052
O O8 0.609192 0.876766 0.405714
O O9 0.156329 0.648608 0.757755
O O10 0.000000 0.793076 0.750000
O O11 0.331760 0.546549 0.148221
#
# Coordination Sequence:
#
# PCOD8140569 Si02
#       5
#     8   8   8   8   8
#     4  10  21  40  63  93 131 168 218 278 322 401
#     4  10  20  42  65  90 130 170 216 274 321 394
#     4  10  22  42  61  93 137 169 217 279 334 393
#     4  10  21  40  68  92 124 176 224 265 333 391
#     4  10  23  39  62  96 129 168 224 271 334 401
#
# _framework density 22.339438000000001
#
# number of rings (size 3 to 8) (size 9 to 14) (size 15 to 20)
#    0.000    2.000    2.000    0.600    2.800    0.800 
#    0.000   15.000    0.000    0.000    0.000    0.000 
#    0.000    0.000    0.000    0.000    0.000    0.000 
#
# Total GULP energy -247995.194411 kJ/mol
# GULP energy per Si atom -12399.759721 kJ/mol
# Density = 2.228859 g / cm^3
# Si number density = 22.339438 Si / 1000 Ang^3
#
#
#
# Elastic Constant Matrix: (Units=GPa)
#
#
# Indices 1 2 3 4 5 6 
#
# 1 67.1626 41.7653 47.5702 0.0000 10.6720 0.0000
# 2 41.7653 123.3949 38.8735 0.0000 21.8392 0.0000
# 3 47.5702 38.8735 123.6373 0.0000 10.6746 0.0000
# 4 0.0000 0.0000 0.0000 23.1401 0.0000 3.9222
# 5 10.6720 21.8392 10.6746 0.0000 41.5948 0.0000
# 6 0.0000 0.0000 0.0000 3.9222 0.0000 42.0120
#
#
#
# Elastic Compliance Matrix: (Units=1/GPa)
#
#
# Indices 1 2 3 4 5 6 
#
# 1 0.023654 -0.005483 -0.007262 0.000000 -0.001326 0.000000
# 2 -0.005483 0.011001 -0.000994 0.000000 -0.004114 0.000000
# 3 -0.007262 -0.000994 0.011238 0.000000 -0.000499 0.000000
# 4 0.000000 0.000000 0.000000 0.043910 0.000000 -0.004099
# 5 -0.001326 -0.004114 -0.000499 0.000000 0.026670 0.000000
# 6 0.000000 0.000000 0.000000 -0.004099 0.000000 0.024185
#
#
# Mechanical properties :
#
#
# Convention : Reuss Voigt Hill
#
# Bulk Modulus (GPa) = 54.30810 63.40141 58.85476
# Shear Modulus (GPa) = 28.69021 33.74844 31.21933
#
# Velocity S-wave (km/s) = 3.58758 3.89100 3.74237
# Velocity P-wave (km/s) = 6.44393 6.97346 6.71391
#
# Compressibility (1/GPa) = 0.01841346
#
# Stress axis : x y z
#
# Youngs Moduli (GPa) = 42.27678 90.89798 88.98385
#
# Poissons Ratio (x) = 0.49844 0.64623
# Poissons Ratio (y) = 0.23182 0.08845
# Poissons Ratio (z) = 0.30703 0.09035
#
# Static dielectric constant tensor:
#      x y z
#    x 4.135530 0.000000 0.114670 
#    y 0.000000 3.801050 0.000000 
#    z 0.114670 0.000000 4.153490 
# 
# 
# High freq. dielectric constant tensor:
#      x y z
#    x 1.876180 0.000000 -0.000450 
#    y 0.000000 1.855570 0.000000 
#    z -0.000450 0.000000 1.890700 
# 
# From -- ./inp_files/208049.got.cif
#   From: 2010.06.25/outbox.cif.g09.slc.cpg/sg15_105_cif.got.tgz:208049.got - 2010.06.28 07:06:18.
