data_PCOD8140295
_publ_section_title
;
Structure prediction by ZEFSAII (Michael W. Deem and Ramdas Pophale) SiO2 
 PCOD8140295
Probable space group: C 2/C
;
_chemical_formula_sum "Si O2"
_cell_formula_units_Z 60
_cell_length_a 9.252332
_cell_length_b 23.486583
_cell_length_c 19.941388
_cell_angle_alpha 90.000000
_cell_angle_beta 41.786997
_cell_angle_gamma 90.000000
_cell_volume 2887.602972
_symmetry_space_group_name_H-M "C 2/C"
_symmetry_group_IT_number 15
_symmetry_cell_setting 'monoclinic'
loop_
_space_group_symop_operation_xyz
x,y,z
-x,y,1/2-z
-x,-y,-z
x,-y,1/2+z
1/2+x,1/2+y,z
1/2-x,1/2+y,1/2-z
1/2-x,1/2-y,-z
1/2+x,1/2-y,1/2+z
loop_
_atom_site_type_symbol
_atom_site_label
_atom_site_fract_x
_atom_site_fract_y
_atom_site_fract_z
Si Si1 0.541690 0.075851 0.929592
Si Si2 0.090339 0.230088 0.997166
Si Si3 0.494044 0.441332 0.466907
Si Si4 0.562891 0.160101 0.418147
Si Si5 0.119742 0.629211 0.644290
Si Si6 0.844242 0.999180 0.893863
Si Si7 0.189474 0.344379 0.629638
Si Si8 0.000000 0.907022 0.750000
O O1 0.539160 0.114770 0.863445
O O2 0.748164 0.033436 0.862357
O O3 0.550879 0.116907 0.991041
O O4 0.335831 0.034415 0.001019
O O5 0.088047 0.278856 0.942987
O O6 0.197309 0.174389 0.932382
O O7 0.250000 0.250000 0.000000
O O8 0.845260 0.208306 0.101190
O O9 0.500000 0.500000 0.500000
O O10 0.746143 0.425405 0.380257
O O11 0.440284 0.451560 0.407434
O O12 0.330041 0.400802 0.565245
O O13 0.419648 0.172274 0.402778
O O14 0.793160 0.133676 0.317167
O O15 0.000000 0.653863 0.750000
O O16 0.004523 0.949077 0.813136
O O17 0.000000 0.355738 0.750000
#
# Coordination Sequence:
#
# PCOD8140295 Si02
#       8
#     8   8   8   8   8   8   8   4
#     4  10  20  41  63  87 134 178 217 271 340 402
#     4  11  25  46  74  94 136 181 228 300 348 402
#     4  11  23  41  64  92 143 179 214 286 344 401
#     4  11  23  45  68  95 136 176 229 283 350 394
#     4  11  25  40  63 100 130 176 231 276 346 410
#     4  10  21  40  61  95 131 176 222 271 334 405
#     4  11  27  44  69 105 136 180 241 285 349 415
#     4  10  26  34  74 102 124 180 238 270 328 442
#
# _framework density 20.778480999999999
#
# number of rings (size 3 to 8) (size 9 to 14) (size 15 to 20)
#    0.000    1.333    4.000    0.400    6.533    0.533 
#    0.000    0.000    1.467    0.000    0.000    0.000 
#    0.000    0.000    0.000    0.000    0.000    0.000 
#
# Total GULP energy -371687.617778 kJ/mol
# GULP energy per Si atom -12389.587259 kJ/mol
# Density = 2.073119 g / cm^3
# Si number density = 20.778481 Si / 1000 Ang^3
#
#
#
# Elastic Constant Matrix: (Units=GPa)
#
#
# Indices 1 2 3 4 5 6 
#
# 1 120.5444 40.2068 42.5413 -0.0001 4.2935 0.0001
# 2 40.2068 97.5506 27.3233 0.0000 -6.2218 -0.0001
# 3 42.5413 27.3233 86.0443 -0.0002 -1.5348 0.0005
# 4 -0.0001 0.0000 -0.0002 30.5108 0.0000 0.5327
# 5 4.2935 -6.2218 -1.5348 0.0000 24.7234 0.0000
# 6 0.0001 -0.0001 0.0005 0.5327 0.0000 41.8115
#
#
#
# Elastic Compliance Matrix: (Units=1/GPa)
#
#
# Indices 1 2 3 4 5 6 
#
# 1 0.011160 -0.003553 -0.004445 0.000000 -0.003108 0.000000
# 2 -0.003553 0.012554 -0.002165 0.000000 0.003642 0.000000
# 3 -0.004445 -0.002165 0.014527 0.000000 0.001129 0.000000
# 4 0.000000 0.000000 0.000000 0.032783 0.000000 -0.000418
# 5 -0.003108 0.003642 0.001129 0.000000 0.041974 0.000000
# 6 0.000000 0.000000 0.000000 -0.000418 0.000000 0.023922
#
#
# Mechanical properties :
#
#
# Convention : Reuss Voigt Hill
#
# Bulk Modulus (GPa) = 55.81688 58.25357 57.03522
# Shear Modulus (GPa) = 30.63390 32.34700 31.49045
#
# Velocity S-wave (km/s) = 3.84384 3.94985 3.89721
# Velocity P-wave (km/s) = 6.82798 6.99272 6.91084
#
# Compressibility (1/GPa) = 0.01791573
#
# Stress axis : x y z
#
# Youngs Moduli (GPa) = 89.60456 79.65461 68.83669
#
# Poissons Ratio (x) = 0.28302 0.30597
# Poissons Ratio (y) = 0.31837 0.14903
# Poissons Ratio (z) = 0.39828 0.17245
#
# Static dielectric constant tensor:
#      x y z
#    x 3.488120 0.000000 -0.042670 
#    y 0.000000 4.030680 0.000000 
#    z -0.042670 0.000000 0.128400 
# 
# 
# High freq. dielectric constant tensor:
#      x y z
#    x 1.823080 0.000000 -0.002640 
#    y 0.000000 1.824500 0.000000 
#    z -0.002640 0.000000 1.798610 
# 
# From -- ./inp_files/234547.got.cif
#   From: 2010.06.25/outbox.cif.g09.slc.cpg/sg15_118_cif.got.tgz:234547.got - 2010.06.28 07:06:18.
