data_PCOD8140782
_publ_section_title
;
Structure prediction by ZEFSAII (Michael W. Deem and Ramdas Pophale) SiO2 
 PCOD8140782
Probable space group: C 2/C
;
_chemical_formula_sum "Si O2"
_cell_formula_units_Z 48
_cell_length_a 14.506207
_cell_length_b 11.413782
_cell_length_c 22.855688
_cell_angle_alpha 90.000000
_cell_angle_beta 142.791800
_cell_angle_gamma 90.000000
_cell_volume 2288.374627
_symmetry_space_group_name_H-M "C 2/C"
_symmetry_group_IT_number 15
_symmetry_cell_setting 'monoclinic'
loop_
_space_group_symop_operation_xyz
x,y,z
-x,y,1/2-z
-x,-y,-z
x,-y,1/2+z
1/2+x,1/2+y,z
1/2-x,1/2+y,1/2-z
1/2-x,1/2-y,-z
1/2+x,1/2-y,1/2+z
loop_
_atom_site_type_symbol
_atom_site_label
_atom_site_fract_x
_atom_site_fract_y
_atom_site_fract_z
Si Si1 0.905278 0.288109 0.855095
Si Si2 0.682549 0.790840 0.152218
Si Si3 0.638712 0.150912 0.966288
Si Si4 0.324839 0.973709 0.904993
Si Si5 0.920825 0.547892 0.146542
Si Si6 0.396142 0.604995 0.472081
O O1 0.777176 0.210111 0.759572
O O2 0.808221 0.379298 0.844896
O O3 0.010836 0.350649 0.859988
O O4 0.004582 0.202314 0.944955
O O5 0.501231 0.792206 0.069978
O O6 0.704037 0.668992 0.128802
O O7 0.750893 0.902087 0.150598
O O8 0.558171 0.077368 0.874014
O O9 0.750000 0.250000 0.000000
O O10 0.735335 0.072627 0.062434
O O11 0.500000 0.000000 0.000000
O O12 0.736616 0.556068 0.053711
O O13 0.000000 0.546343 0.250000
O O14 0.500000 0.500000 0.500000
#
# Coordination Sequence:
#
# PCOD8140782 Si02
#       6
#     8   8   8   8   8   8
#     4  12  24  44  73  94 138 184 223 283 340 413
#     4  11  23  43  70  95 133 180 231 268 347 410
#     4  11  23  44  70  97 135 179 225 288 337 402
#     4  10  20  43  69  91 127 184 220 268 343 399
#     4  12  25  43  69 103 138 174 228 280 347 404
#     4  12  26  42  69 105 135 173 229 283 337 410
#
# _framework density 20.975586
#
# number of rings (size 3 to 8) (size 9 to 14) (size 15 to 20)
#    0.000    0.667    8.333    1.500    4.667    0.000 
#    0.000    0.000    0.000    0.000    0.000    0.000 
#    0.000    0.000    0.000    0.000    0.000    0.000 
#
# Total GULP energy -297481.453085 kJ/mol
# GULP energy per Si atom -12395.060545 kJ/mol
# Density = 2.092785 g / cm^3
# Si number density = 20.975586 Si / 1000 Ang^3
#
#
#
# Elastic Constant Matrix: (Units=GPa)
#
#
# Indices 1 2 3 4 5 6 
#
# 1 92.3291 46.6142 25.3929 0.0000 -14.3643 0.0000
# 2 46.6142 131.7223 47.2770 0.0000 -16.8761 0.0000
# 3 25.3929 47.2770 90.4057 0.0001 -19.1145 0.0000
# 4 0.0000 0.0000 0.0001 37.7602 0.0000 -12.1083
# 5 -14.3643 -16.8761 -19.1145 0.0000 33.3237 0.0000
# 6 0.0000 0.0000 0.0000 -12.1083 0.0000 38.1647
#
#
#
# Elastic Compliance Matrix: (Units=1/GPa)
#
#
# Indices 1 2 3 4 5 6 
#
# 1 0.013664 -0.004048 -0.001035 0.000000 0.003246 0.000000
# 2 -0.004048 0.010689 -0.004184 0.000000 0.001268 0.000000
# 3 -0.001035 -0.004184 0.014792 0.000000 0.005919 0.000000
# 4 0.000000 0.000000 0.000000 0.029482 0.000000 0.009354
# 5 0.003246 0.001268 0.005919 0.000000 0.035445 0.000000
# 6 0.000000 0.000000 0.000000 0.009354 0.000000 0.029170
#
#
# Mechanical properties :
#
#
# Convention : Reuss Voigt Hill
#
# Bulk Modulus (GPa) = 48.52020 61.44724 54.98372
# Shear Modulus (GPa) = 31.51658 34.86125 33.18892
#
# Velocity S-wave (km/s) = 3.88046 4.08118 3.98208
# Velocity P-wave (km/s) = 6.57718 7.18096 6.88569
#
# Compressibility (1/GPa) = 0.02060997
#
# Stress axis : x y z
#
# Youngs Moduli (GPa) = 73.18348 93.55744 67.60597
#
# Poissons Ratio (x) = 0.37875 0.06994
# Poissons Ratio (y) = 0.29627 0.28289
# Poissons Ratio (z) = 0.07571 0.39148
#
# Static dielectric constant tensor:
#      x y z
#    x 3.785190 0.000000 -0.435660 
#    y 0.000000 4.322010 0.000000 
#    z -0.435660 0.000000 4.204530 
# 
# 
# High freq. dielectric constant tensor:
#      x y z
#    x 1.815160 0.000000 -0.021880 
#    y 0.000000 1.834590 0.000000 
#    z -0.021880 0.000000 1.820280 
# 
# From -- ./inp_files/243995.got.cif
#   From: 2010.06.25/outbox.cif.g09.slc.cpg/sg15_122_cif.got.tgz:243995.got - 2010.06.28 07:06:18.
