data_PCOD8140364
_publ_section_title
;
Structure prediction by ZEFSAII (Michael W. Deem and Ramdas Pophale) SiO2 
 PCOD8140364
Probable space group: C 2/C
;
_chemical_formula_sum "Si O2"
_cell_formula_units_Z 52
_cell_length_a 27.357024
_cell_length_b 5.153929
_cell_length_c 18.695477
_cell_angle_alpha 90.000000
_cell_angle_beta 108.570885
_cell_angle_gamma 90.000000
_cell_volume 2498.735400
_symmetry_space_group_name_H-M "C 2/C"
_symmetry_group_IT_number 15
_symmetry_cell_setting 'monoclinic'
loop_
_space_group_symop_operation_xyz
x,y,z
-x,y,1/2-z
-x,-y,-z
x,-y,1/2+z
1/2+x,1/2+y,z
1/2-x,1/2+y,1/2-z
1/2-x,1/2-y,-z
1/2+x,1/2-y,1/2+z
loop_
_atom_site_type_symbol
_atom_site_label
_atom_site_fract_x
_atom_site_fract_y
_atom_site_fract_z
Si Si1 0.085002 0.549337 0.031680
Si Si2 0.405393 0.528426 0.688680
Si Si3 0.548708 0.434744 0.435857
Si Si4 0.696587 0.452140 0.923156
Si Si5 0.000000 0.649375 0.750000
Si Si6 0.308399 0.952708 0.485669
Si Si7 0.046049 0.295795 0.662103
O O1 0.078030 0.578769 0.113096
O O2 0.052108 0.298190 0.994327
O O3 0.145633 0.506156 0.048008
O O4 0.064844 0.795924 0.978413
O O5 0.414876 0.644092 0.613863
O O6 0.344961 0.454584 0.661020
O O7 0.446630 0.300795 0.717206
O O8 0.413059 0.725657 0.757287
O O9 0.488545 0.448221 0.382134
O O10 0.691944 0.161884 0.950996
O O11 0.685152 0.663547 0.979978
O O12 0.753647 0.513864 0.918616
O O13 0.996122 0.483850 0.820935
#
# Coordination Sequence:
#
# PCOD8140364 Si02
#       7
#     8   8   8   8   4   8   8
#     4  12  25  41  69  94 134 163 217 272 324 368
#     4  12  23  40  66  92 128 174 214 261 317 389
#     4  12  23  43  63  97 128 174 213 261 314 389
#     4  10  22  38  69  93 123 164 213 267 309 383
#     4  12  24  42  62  88 136 172 216 246 322 398
#     4  10  20  41  65  98 121 159 217 266 320 365
#     4  12  27  40  62  97 133 175 211 268 324 395
#
# _framework density 20.810528000000001
#
# number of rings (size 3 to 8) (size 9 to 14) (size 15 to 20)
#    0.000    0.615    6.154    1.846    4.308    0.000 
#    0.000    0.000    3.385    0.000    0.000    0.000 
#    0.000    0.000    0.000    0.000    0.000    0.000 
#
# Total GULP energy -322299.816187 kJ/mol
# GULP energy per Si atom -12396.146776 kJ/mol
# Density = 2.076316 g / cm^3
# Si number density = 20.810528 Si / 1000 Ang^3
#
#
#
# Elastic Constant Matrix: (Units=GPa)
#
#
# Indices 1 2 3 4 5 6 
#
# 1 98.8611 16.8474 53.3278 0.0000 12.3751 0.0000
# 2 16.8474 85.8131 25.9726 0.0001 6.2479 0.0000
# 3 53.3278 25.9726 109.8942 0.0000 3.5159 0.0000
# 4 0.0000 0.0001 0.0000 10.3824 0.0000 3.5074
# 5 12.3751 6.2479 3.5159 0.0000 50.9970 0.0000
# 6 0.0000 0.0000 0.0000 3.5074 0.0000 20.8353
#
#
#
# Elastic Compliance Matrix: (Units=1/GPa)
#
#
# Indices 1 2 3 4 5 6 
#
# 1 0.014160 -0.000556 -0.006647 0.000000 -0.002910 0.000000
# 2 -0.000556 0.012664 -0.002684 0.000000 -0.001232 0.000000
# 3 -0.006647 -0.002684 0.012926 0.000000 0.001051 0.000000
# 4 0.000000 0.000000 0.000000 0.102125 0.000000 -0.017192
# 5 -0.002910 -0.001232 0.001051 0.000000 0.020393 0.000000
# 6 0.000000 0.000000 0.000000 -0.017192 0.000000 0.050890
#
#
# Mechanical properties :
#
#
# Convention : Reuss Voigt Hill
#
# Bulk Modulus (GPa) = 50.05939 54.09602 52.07770
# Shear Modulus (GPa) = 20.86902 29.67098 25.27000
#
# Velocity S-wave (km/s) = 3.17015 3.78003 3.48845
# Velocity P-wave (km/s) = 6.12429 6.71584 6.42687
#
# Compressibility (1/GPa) = 0.01997627
#
# Stress axis : x y z
#
# Youngs Moduli (GPa) = 70.62387 78.96149 77.36545
#
# Poissons Ratio (x) = 0.04393 0.51421
# Poissons Ratio (y) = 0.03929 0.20763
# Poissons Ratio (z) = 0.46940 0.21191
#
# Static dielectric constant tensor:
#      x y z
#    x 3.995830 0.000000 0.215260 
#    y 0.000000 3.852380 0.000000 
#    z 0.215260 0.000000 3.935430 
# 
# 
# High freq. dielectric constant tensor:
#      x y z
#    x 1.812810 0.000000 0.018420 
#    y 0.000000 1.824520 0.000000 
#    z 0.018420 0.000000 1.796540 
# 
# From -- ./inp_files/220982.got.cif
#   From: 2010.06.25/outbox.cif.g09.slc.cpg/sg15_111_cif.got.tgz:220982.got - 2010.06.28 07:06:18.
