data_PCOD8140968
_publ_section_title
;
Structure prediction by ZEFSAII (Michael W. Deem and Ramdas Pophale) SiO2 
 PCOD8140968
Probable space group: C 2/C
;
_chemical_formula_sum "Si O2"
_cell_formula_units_Z 48
_cell_length_a 8.814139
_cell_length_b 22.765788
_cell_length_c 12.374642
_cell_angle_alpha 90.000000
_cell_angle_beta 73.323453
_cell_angle_gamma 90.000000
_cell_volume 2378.666480
_symmetry_space_group_name_H-M "C 2/C"
_symmetry_group_IT_number 15
_symmetry_cell_setting 'monoclinic'
loop_
_space_group_symop_operation_xyz
x,y,z
-x,y,1/2-z
-x,-y,-z
x,-y,1/2+z
1/2+x,1/2+y,z
1/2-x,1/2+y,1/2-z
1/2-x,1/2-y,-z
1/2+x,1/2-y,1/2+z
loop_
_atom_site_type_symbol
_atom_site_label
_atom_site_fract_x
_atom_site_fract_y
_atom_site_fract_z
Si Si1 0.794170 0.465757 0.968179
Si Si2 0.185746 0.384488 0.723577
Si Si3 0.361491 0.710145 0.050114
Si Si4 0.869980 0.584600 0.034736
Si Si5 0.036034 0.320005 0.367321
Si Si6 0.369620 0.626866 0.866483
O O1 0.757097 0.442374 0.854887
O O2 0.972346 0.445870 0.954664
O O3 0.775380 0.536263 0.982099
O O4 0.676367 0.437102 0.079387
O O5 0.267241 0.325982 0.660782
O O6 0.231700 0.394804 0.839874
O O7 0.000000 0.372791 0.750000
O O8 0.484958 0.753262 0.084693
O O9 0.250000 0.750000 0.000000
O O10 0.444543 0.664899 0.949938
O O11 0.906444 0.640563 0.954126
O O12 0.214214 0.341907 0.350656
O O13 0.000000 0.322505 0.250000
O O14 0.500000 0.618270 0.750000
#
# Coordination Sequence:
#
# PCOD8140968 Si02
#       6
#     8   8   8   8   8   8
#     4   8  16  29  50  78 102 130 175 226 259 310
#     4   9  16  29  51  77 101 135 182 224 264 309
#     4   9  18  32  50  75 107 142 183 222 257 314
#     4   9  17  30  50  76 105 136 173 218 274 316
#     4  10  21  34  51  79 110 138 176 226 269 313
#     4   9  18  34  56  79 104 140 181 218 266 320
#
# _framework density 20.179373999999999
#
# number of rings (size 3 to 8) (size 9 to 14) (size 15 to 20)
#    0.000    3.000    0.000    3.000    0.000   10.000 
#    0.000    3.333    0.000   10.000    0.000    0.000 
#    0.000    0.000    0.000    0.000    0.000    0.000 
#
# Total GULP energy -297431.107704 kJ/mol
# GULP energy per Si atom -12392.962821 kJ/mol
# Density = 2.013345 g / cm^3
# Si number density = 20.179374 Si / 1000 Ang^3
#
#
#
# Elastic Constant Matrix: (Units=GPa)
#
#
# Indices 1 2 3 4 5 6 
#
# 1 22.7319 33.8649 38.4897 0.0000 -0.9263 0.0000
# 2 33.8649 164.0621 95.2774 0.0000 0.0828 0.0000
# 3 38.4897 95.2774 190.0480 0.0000 -0.4452 0.0000
# 4 0.0000 0.0000 0.0000 30.2514 0.0000 2.9896
# 5 -0.9263 0.0828 -0.4452 0.0000 31.8375 0.0000
# 6 0.0000 0.0000 0.0000 2.9896 0.0000 19.8223
#
#
#
# Elastic Compliance Matrix: (Units=1/GPa)
#
#
# Indices 1 2 3 4 5 6 
#
# 1 0.076408 -0.009577 -0.010668 0.000000 0.002099 0.000000
# 2 -0.009577 0.009799 -0.002974 0.000000 -0.000346 0.000000
# 3 -0.010668 -0.002974 0.008913 0.000000 -0.000178 0.000000
# 4 0.000000 0.000000 0.000000 0.033557 0.000000 -0.005061
# 5 0.002099 -0.000346 -0.000178 0.000000 0.031469 0.000000
# 6 0.000000 0.000000 0.000000 -0.005061 0.000000 0.051211
#
#
# Mechanical properties :
#
#
# Convention : Reuss Voigt Hill
#
# Bulk Modulus (GPa) = 20.54183 79.12291 49.83237
# Shear Modulus (GPa) = 18.24663 30.32956 24.28809
#
# Velocity S-wave (km/s) = 3.01029 3.88106 3.47307
# Velocity P-wave (km/s) = 4.72061 7.70574 6.38994
#
# Compressibility (1/GPa) = 0.04868116
#
# Stress axis : x y z
#
# Youngs Moduli (GPa) = 13.08767 102.04692 112.19649
#
# Poissons Ratio (x) = 0.97734 1.19694
# Poissons Ratio (y) = 0.12534 0.33366
# Poissons Ratio (z) = 0.13962 0.30348
#
# Static dielectric constant tensor:
#      x y z
#    x 3.301680 0.000000 0.311570 
#    y 0.000000 4.094780 0.000000 
#    z 0.311570 0.000000 4.089940 
# 
# 
# High freq. dielectric constant tensor:
#      x y z
#    x 1.726890 0.000000 0.004380 
#    y 0.000000 1.795300 0.000000 
#    z 0.004380 0.000000 1.803680 
# 
# From -- ./inp_files/79773.got.cif
#   From: 2010.06.25/outbox.cif.g09.slc.cpg/sg15_40_cif.got.tgz:79773.got - 2010.06.28 07:06:18.
