data_PCOD8140163
_publ_section_title
;
Structure prediction by ZEFSAII (Michael W. Deem and Ramdas Pophale) SiO2 
 PCOD8140163
Probable space group: C 2/C
;
_chemical_formula_sum "Si O2"
_cell_formula_units_Z 60
_cell_length_a 23.054138
_cell_length_b 20.749771
_cell_length_c 11.519254
_cell_angle_alpha 90.000000
_cell_angle_beta 30.098251
_cell_angle_gamma 90.000000
_cell_volume 2763.401036
_symmetry_space_group_name_H-M "C 2/C"
_symmetry_group_IT_number 15
_symmetry_cell_setting 'monoclinic'
loop_
_space_group_symop_operation_xyz
x,y,z
-x,y,1/2-z
-x,-y,-z
x,-y,1/2+z
1/2+x,1/2+y,z
1/2-x,1/2+y,1/2-z
1/2-x,1/2-y,-z
1/2+x,1/2-y,1/2+z
loop_
_atom_site_type_symbol
_atom_site_label
_atom_site_fract_x
_atom_site_fract_y
_atom_site_fract_z
Si Si1 0.178337 0.479676 0.649797
Si Si2 0.720013 0.247884 0.918554
Si Si3 0.003409 0.140247 0.492350
Si Si4 0.500000 0.667558 0.750000
Si Si5 0.618583 0.551723 0.108971
Si Si6 0.005502 0.414870 0.376110
Si Si7 0.259662 0.607849 0.817529
Si Si8 0.530903 0.769625 0.069693
O O1 0.311286 0.491079 0.460496
O O2 0.112565 0.547605 0.748568
O O3 0.179420 0.443333 0.523901
O O4 0.114322 0.436062 0.856206
O O5 0.692244 0.175312 0.924361
O O6 0.830817 0.277492 0.662251
O O7 0.750000 0.250000 0.000000
O O8 0.609645 0.289477 0.085227
O O9 0.029490 0.126228 0.583285
O O10 0.092316 0.100348 0.259796
O O11 0.874142 0.117748 0.694396
O O12 0.013258 0.216816 0.446921
O O13 0.500000 0.529637 0.250000
O O14 0.707937 0.584929 0.866546
O O15 0.000000 0.431064 0.250000
O O16 0.026363 0.338626 0.360128
O O17 0.500000 0.743063 0.250000
#
# Coordination Sequence:
#
# PCOD8140163 Si02
#       8
#     8   8   8   4   8   8   8   8
#     4  11  23  41  64  93 127 177 229 259 318 390
#     4  11  21  41  64  97 135 166 218 267 333 391
#     4  10  22  40  63  99 127 165 210 262 331 389
#     4  12  24  38  66 106 126 170 218 264 336 406
#     4  10  23  44  65  94 134 171 219 271 326 386
#     4  10  23  40  62  93 130 171 216 269 323 380
#     4  10  21  43  66  88 135 176 210 275 320 377
#     4  10  20  40  68  90 132 170 204 271 332 380
#
# _framework density 21.712374000000001
#
# number of rings (size 3 to 8) (size 9 to 14) (size 15 to 20)
#    0.000    1.600    2.667    3.600    0.000    5.333 
#    7.200    2.000    0.000    0.000    0.000    0.000 
#    0.000    0.000    0.000    0.000    0.000    0.000 
#
# Total GULP energy -371998.681494 kJ/mol
# GULP energy per Si atom -12399.956050 kJ/mol
# Density = 2.166296 g / cm^3
# Si number density = 21.712374 Si / 1000 Ang^3
#
#
#
# Elastic Constant Matrix: (Units=GPa)
#
#
# Indices 1 2 3 4 5 6 
#
# 1 88.7780 9.9839 38.0663 -0.0001 23.7069 0.0001
# 2 9.9839 70.5364 20.2325 0.0000 13.8298 0.0000
# 3 38.0663 20.2325 128.0714 -0.0003 27.2125 0.0002
# 4 -0.0001 0.0000 -0.0003 31.5199 0.0002 3.6941
# 5 23.7069 13.8298 27.2125 0.0002 42.4065 -0.0001
# 6 0.0001 0.0000 0.0002 3.6941 -0.0001 27.6397
#
#
#
# Elastic Compliance Matrix: (Units=1/GPa)
#
#
# Indices 1 2 3 4 5 6 
#
# 1 0.014124 0.000021 -0.002920 0.000000 -0.006028 0.000000
# 2 0.000021 0.015418 -0.001587 0.000000 -0.004021 0.000000
# 3 -0.002920 -0.001587 0.009807 0.000000 -0.004143 0.000000
# 4 0.000000 0.000000 0.000000 0.032231 0.000000 -0.004308
# 5 -0.006028 -0.004021 -0.004143 0.000000 0.030921 0.000000
# 6 0.000000 0.000000 0.000000 -0.004308 0.000000 0.036756
#
#
# Mechanical properties :
#
#
# Convention : Reuss Voigt Hill
#
# Bulk Modulus (GPa) = 32.92237 47.10568 40.01402
# Shear Modulus (GPa) = 31.57445 34.92009 33.24727
#
# Velocity S-wave (km/s) = 3.81755 4.01472 3.91738
# Velocity P-wave (km/s) = 5.88451 6.57518 6.23941
#
# Compressibility (1/GPa) = 0.03037448
#
# Stress axis : x y z
#
# Youngs Moduli (GPa) = 70.80292 64.85974 101.96562
#
# Poissons Ratio (x) = -0.00133 0.29777
# Poissons Ratio (y) = -0.00145 0.16186
# Poissons Ratio (z) = 0.20676 0.10296
#
# Static dielectric constant tensor:
#      x y z
#    x 3.595780 0.000000 0.480410 
#    y 0.000000 3.880640 0.000000 
#    z 0.480410 0.000000 3.978620 
# 
# 
# High freq. dielectric constant tensor:
#      x y z
#    x 1.835740 0.000000 0.020920 
#    y 0.000000 1.852650 0.000000 
#    z 0.020920 0.000000 1.870510 
# 
# From -- ./inp_files/119955.got.cif
#   From: 2010.06.25/outbox.cif.g09.slc.cpg/sg15_60_cif.got.tgz:119955.got - 2010.06.28 07:06:18.
