data_PCOD8140040
_publ_section_title
;
Structure prediction by ZEFSAII (Michael W. Deem and Ramdas Pophale) SiO2 
 PCOD8140040
Probable space group: C 2/C
;
_chemical_formula_sum "Si O2"
_cell_formula_units_Z 56
_cell_length_a 9.529768
_cell_length_b 16.078015
_cell_length_c 20.084465
_cell_angle_alpha 90.000000
_cell_angle_beta 112.582268
_cell_angle_gamma 90.000000
_cell_volume 2841.394600
_symmetry_space_group_name_H-M "C 2/C"
_symmetry_group_IT_number 15
_symmetry_cell_setting 'monoclinic'
loop_
_space_group_symop_operation_xyz
x,y,z
-x,y,1/2-z
-x,-y,-z
x,-y,1/2+z
1/2+x,1/2+y,z
1/2-x,1/2+y,1/2-z
1/2-x,1/2-y,-z
1/2+x,1/2-y,1/2+z
loop_
_atom_site_type_symbol
_atom_site_label
_atom_site_fract_x
_atom_site_fract_y
_atom_site_fract_z
Si Si1 0.823861 0.143543 0.199075
Si Si2 0.154132 0.200854 0.059803
Si Si3 0.877536 0.490098 0.887351
Si Si4 0.862255 0.618598 0.001252
Si Si5 0.175885 0.250651 0.784195
Si Si6 0.443343 0.866728 0.314026
Si Si7 0.127390 0.234078 0.422144
O O1 0.773767 0.050822 0.170640
O O2 0.720669 0.177617 0.240039
O O3 0.792029 0.196933 0.127435
O O4 0.000000 0.147150 0.250000
O O5 0.102430 0.286804 0.014120
O O6 0.291809 0.217351 0.135603
O O7 0.002941 0.171602 0.072210
O O8 0.211720 0.128011 0.020585
O O9 0.825137 0.556397 0.933843
O O10 0.953146 0.538063 0.838910
O O11 0.993190 0.419471 0.933832
O O12 0.271640 0.167730 0.785822
O O13 0.000000 0.227520 0.750000
O O14 0.500000 0.854562 0.250000
O O15 0.547419 0.819494 0.386377
O O16 0.250000 0.250000 0.500000
#
# Coordination Sequence:
#
# PCOD8140040 Si02
#       7
#     8   8   8   8   8   8   8
#     4  12  23  43  65  92 135 170 212 268 325 382
#     4  10  20  40  65  92 125 169 217 261 302 400
#     4  11  24  39  65  95 129 172 206 266 336 375
#     4  10  21  40  62  94 133 160 213 266 322 378
#     4  11  21  38  68  94 122 168 222 260 311 390
#     4  11  22  46  64  94 131 165 219 266 313 389
#     4  11  21  39  68  94 121 172 217 261 317 387
#
# _framework density 19.708632000000001
#
# number of rings (size 3 to 8) (size 9 to 14) (size 15 to 20)
#    0.000    1.143    7.143    1.714    2.000    3.429 
#    0.000    0.714    0.000    0.000    0.000    0.000 
#    0.000    0.000    0.000    0.000    0.000    0.000 
#
# Total GULP energy -347103.221026 kJ/mol
# GULP energy per Si atom -12396.543608 kJ/mol
# Density = 1.966377 g / cm^3
# Si number density = 19.708632 Si / 1000 Ang^3
#
#
#
# Elastic Constant Matrix: (Units=GPa)
#
#
# Indices 1 2 3 4 5 6 
#
# 1 107.3335 40.6548 62.4332 0.0000 1.8654 0.0000
# 2 40.6548 94.7093 41.6495 0.0000 1.7075 0.0000
# 3 62.4332 41.6495 125.3327 0.0000 9.5963 0.0000
# 4 0.0000 0.0000 0.0000 28.8522 0.0000 -3.9979
# 5 1.8654 1.7075 9.5963 0.0000 30.6506 0.0000
# 6 0.0000 0.0000 0.0000 -3.9979 0.0000 34.0504
#
#
#
# Elastic Compliance Matrix: (Units=1/GPa)
#
#
# Indices 1 2 3 4 5 6 
#
# 1 0.014062 -0.003440 -0.005954 0.000000 0.001200 0.000000
# 2 -0.003440 0.013218 -0.002704 0.000000 0.000319 0.000000
# 3 -0.005954 -0.002704 0.012094 0.000000 -0.003273 0.000000
# 4 0.000000 0.000000 0.000000 0.035233 0.000000 0.004137
# 5 0.001200 0.000319 -0.003273 0.000000 0.033560 0.000000
# 6 0.000000 0.000000 0.000000 0.004137 0.000000 0.029854
#
#
# Mechanical properties :
#
#
# Convention : Reuss Voigt Hill
#
# Bulk Modulus (GPa) = 65.87625 68.53894 67.20760
# Shear Modulus (GPa) = 29.89117 30.88653 30.38885
#
# Velocity S-wave (km/s) = 3.89865 3.96303 3.93097
# Velocity P-wave (km/s) = 7.33237 7.46943 7.40122
#
# Compressibility (1/GPa) = 0.01517998
#
# Stress axis : x y z
#
# Youngs Moduli (GPa) = 71.11487 75.65264 82.68871
#
# Poissons Ratio (x) = 0.26022 0.49229
# Poissons Ratio (y) = 0.24461 0.22356
# Poissons Ratio (z) = 0.42339 0.20454
#
# Static dielectric constant tensor:
#      x y z
#    x 3.840700 0.000000 -0.219660 
#    y 0.000000 3.484290 0.000000 
#    z -0.219660 0.000000 3.883520 
# 
# 
# High freq. dielectric constant tensor:
#      x y z
#    x 1.770210 0.000000 -0.014530 
#    y 0.000000 1.745440 0.000000 
#    z -0.014530 0.000000 1.785290 
# 
# From -- ./inp_files/232793.got.cif
#   From: 2010.06.25/outbox.cif.g09.slc.cpg/sg15_117_cif.got.tgz:232793.got - 2010.06.28 07:06:18.
