data_PCOD8140448
_publ_section_title
;
Structure prediction by ZEFSAII (Michael W. Deem and Ramdas Pophale) SiO2 
 PCOD8140448
Probable space group: C 2/C
;
_chemical_formula_sum "Si O2"
_cell_formula_units_Z 52
_cell_length_a 15.775871
_cell_length_b 15.998311
_cell_length_c 14.451152
_cell_angle_alpha 90.000000
_cell_angle_beta 42.118449
_cell_angle_gamma 90.000000
_cell_volume 2446.109616
_symmetry_space_group_name_H-M "C 2/C"
_symmetry_group_IT_number 15
_symmetry_cell_setting 'monoclinic'
loop_
_space_group_symop_operation_xyz
x,y,z
-x,y,1/2-z
-x,-y,-z
x,-y,1/2+z
1/2+x,1/2+y,z
1/2-x,1/2+y,1/2-z
1/2-x,1/2-y,-z
1/2+x,1/2-y,1/2+z
loop_
_atom_site_type_symbol
_atom_site_label
_atom_site_fract_x
_atom_site_fract_y
_atom_site_fract_z
Si Si1 0.500000 0.414993 0.250000
Si Si2 0.747209 0.000198 0.910972
Si Si3 0.731741 0.112706 0.257095
Si Si4 0.669845 0.730830 0.927631
Si Si5 0.364274 0.149075 0.886350
Si Si6 0.457055 0.683511 0.965626
Si Si7 0.531272 0.135061 0.117602
O O1 0.622628 0.472557 0.148065
O O2 0.485076 0.357847 0.172085
O O3 0.765252 0.970143 0.789725
O O4 0.645135 0.072710 0.005115
O O5 0.707006 0.919569 0.998598
O O6 0.730000 0.196918 0.317492
O O7 0.594586 0.096411 0.324880
O O8 0.835070 0.129455 0.093822
O O9 0.784274 0.667988 0.858649
O O10 0.560440 0.680195 0.963621
O O11 0.615301 0.767576 0.068194
O O12 0.500000 0.112465 0.750000
O O13 0.424442 0.779241 0.967264
O O14 0.500000 0.150262 0.250000
#
# Coordination Sequence:
#
# PCOD8140448 Si02
#       7
#     4   8   8   8   8   8   8
#     4  12  28  46  62  96 132 178 218 272 342 400
#     4  11  26  43  64  98 136 171 218 276 336 397
#     4  10  23  43  67  99 130 172 220 273 332 391
#     4   9  21  39  67 104 129 174 220 270 322 394
#     4  10  20  41  68  99 136 173 219 270 330 392
#     4  11  24  43  69  95 131 176 225 270 332 400
#     4  11  23  43  71  97 129 173 223 275 324 400
#
# _framework density 21.258246
#
# number of rings (size 3 to 8) (size 9 to 14) (size 15 to 20)
#    0.000    1.538    0.769    2.769    6.462    1.846 
#    8.308    0.000    0.000    0.000    0.000    0.000 
#    0.000    0.000    0.000    0.000    0.000    0.000 
#
# Total GULP energy -322480.452267 kJ/mol
# GULP energy per Si atom -12403.094318 kJ/mol
# Density = 2.120986 g / cm^3
# Si number density = 21.258246 Si / 1000 Ang^3
#
#
#
# Elastic Constant Matrix: (Units=GPa)
#
#
# Indices 1 2 3 4 5 6 
#
# 1 154.4201 56.2782 54.1285 0.0000 -16.2888 0.0001
# 2 56.2782 66.5709 35.4773 0.0000 -17.6769 0.0000
# 3 54.1285 35.4773 108.2862 -0.0001 -14.2115 0.0001
# 4 0.0000 0.0000 -0.0001 28.8558 0.0000 7.3839
# 5 -16.2888 -17.6769 -14.2115 0.0000 38.3382 -0.0001
# 6 0.0001 0.0000 0.0001 7.3839 -0.0001 35.5454
#
#
#
# Elastic Compliance Matrix: (Units=1/GPa)
#
#
# Indices 1 2 3 4 5 6 
#
# 1 0.009968 -0.006988 -0.002691 0.000000 0.000015 0.000000
# 2 -0.006988 0.024781 -0.003695 0.000000 0.007087 0.000000
# 3 -0.002691 -0.003695 0.012001 0.000000 0.001601 0.000000
# 4 0.000000 0.000000 0.000000 0.036601 0.000000 -0.007603
# 5 0.000015 0.007087 0.001601 0.000000 0.029951 0.000000
# 6 0.000000 0.000000 0.000000 -0.007603 0.000000 0.029712
#
#
# Mechanical properties :
#
#
# Convention : Reuss Voigt Hill
#
# Bulk Modulus (GPa) = 50.00102 69.00501 59.50301
# Shear Modulus (GPa) = 28.33998 32.77410 30.55704
#
# Velocity S-wave (km/s) = 3.65516 3.93072 3.79545
# Velocity P-wave (km/s) = 6.43315 7.28914 6.87448
#
# Compressibility (1/GPa) = 0.01999959
#
# Stress axis : x y z
#
# Youngs Moduli (GPa) = 100.32525 40.35405 83.32811
#
# Poissons Ratio (x) = 0.28201 0.22423
# Poissons Ratio (y) = 0.70111 0.30794
# Poissons Ratio (z) = 0.26996 0.14913
#
# Static dielectric constant tensor:
#      x y z
#    x 4.121550 0.000000 0.139230 
#    y 0.000000 3.802120 0.000000 
#    z 0.139230 0.000000 3.804290 
# 
# 
# High freq. dielectric constant tensor:
#      x y z
#    x 1.849350 0.000000 0.002010 
#    y 0.000000 1.829420 0.000000 
#    z 0.002010 0.000000 1.834720 
# 
# From -- ./inp_files/155428.got.cif
#   From: 2010.06.25/outbox.cif.g09.slc.cpg/sg15_78_cif.got.tgz:155428.got - 2010.06.28 07:06:18.
