data_PCOD8140524
_publ_section_title
;
Structure prediction by ZEFSAII (Michael W. Deem and Ramdas Pophale) SiO2 
 PCOD8140524
Probable space group: C 2/C
;
_chemical_formula_sum "Si O2"
_cell_formula_units_Z 56
_cell_length_a 13.802041
_cell_length_b 11.823131
_cell_length_c 21.958107
_cell_angle_alpha 90.000000
_cell_angle_beta 127.437987
_cell_angle_gamma 90.000000
_cell_volume 2845.100715
_symmetry_space_group_name_H-M "C 2/C"
_symmetry_group_IT_number 15
_symmetry_cell_setting 'monoclinic'
loop_
_space_group_symop_operation_xyz
x,y,z
-x,y,1/2-z
-x,-y,-z
x,-y,1/2+z
1/2+x,1/2+y,z
1/2-x,1/2+y,1/2-z
1/2-x,1/2-y,-z
1/2+x,1/2-y,1/2+z
loop_
_atom_site_type_symbol
_atom_site_label
_atom_site_fract_x
_atom_site_fract_y
_atom_site_fract_z
Si Si1 0.498874 0.504707 0.404034
Si Si2 0.376473 0.480780 0.667701
Si Si3 0.472141 0.691397 0.494573
Si Si4 0.237212 0.591598 0.772094
Si Si5 0.390452 0.877153 0.753139
Si Si6 0.323648 0.810963 0.859096
Si Si7 0.235192 0.686476 0.644929
O O1 0.598139 0.545020 0.392998
O O2 0.486583 0.615684 0.440233
O O3 0.553675 0.396107 0.460477
O O4 0.371814 0.466988 0.323253
O O5 0.500000 0.451798 0.750000
O O6 0.261262 0.411362 0.649215
O O7 0.344797 0.614448 0.657290
O O8 0.589742 0.768298 0.553625
O O9 0.367327 0.785373 0.444338
O O10 0.140589 0.508878 0.766940
O O11 0.235138 0.707183 0.808688
O O12 0.190048 0.612649 0.685473
O O13 0.500000 0.845986 0.750000
O O14 0.405492 0.846945 0.831000
O O15 0.277016 0.806974 0.685563
#
# Coordination Sequence:
#
# PCOD8140524 Si02
#       7
#     8   8   8   8   8   8   8
#     4  10  21  43  67  88 125 172 210 247 317 380
#     4  12  23  40  66  95 124 167 216 257 308 372
#     4  10  23  42  63  90 132 167 203 259 318 375
#     4  10  20  42  63  91 123 164 210 258 306 367
#     4  11  22  40  63  93 122 163 213 266 306 365
#     4  10  24  42  62  93 130 164 209 260 312 375
#     4  11  22  38  66  91 124 162 206 264 304 369
#
# _framework density 19.682960000000001
#
# number of rings (size 3 to 8) (size 9 to 14) (size 15 to 20)
#    0.000    1.429    4.286    0.429    6.000    2.286 
#    0.000    0.000    0.000    0.000    0.000    0.000 
#    0.000    0.000    0.000    0.000    0.000    0.000 
#
# Total GULP energy -347015.084031 kJ/mol
# GULP energy per Si atom -12393.395858 kJ/mol
# Density = 1.963816 g / cm^3
# Si number density = 19.682960 Si / 1000 Ang^3
#
#
#
# Elastic Constant Matrix: (Units=GPa)
#
#
# Indices 1 2 3 4 5 6 
#
# 1 103.0770 40.0423 32.2031 0.0000 -9.8665 0.0000
# 2 40.0423 99.7609 39.1696 0.0000 -0.7138 0.0000
# 3 32.2031 39.1696 98.7625 0.0000 -1.6902 0.0000
# 4 0.0000 0.0000 0.0000 27.5423 0.0000 5.6220
# 5 -9.8665 -0.7138 -1.6902 0.0000 18.3274 0.0000
# 6 0.0000 0.0000 0.0000 5.6220 0.0000 24.9176
#
#
#
# Elastic Compliance Matrix: (Units=1/GPa)
#
#
# Indices 1 2 3 4 5 6 
#
# 1 0.012655 -0.004094 -0.002393 0.000000 0.006433 0.000000
# 2 -0.004094 0.013197 -0.003934 0.000000 -0.002053 0.000000
# 3 -0.002393 -0.003934 0.012461 0.000000 -0.000292 0.000000
# 4 0.000000 0.000000 0.000000 0.038061 0.000000 -0.008587
# 5 0.006433 -0.002053 -0.000292 0.000000 0.057919 0.000000
# 6 0.000000 0.000000 0.000000 -0.008587 0.000000 0.042070
#
#
# Mechanical properties :
#
#
# Convention : Reuss Voigt Hill
#
# Bulk Modulus (GPa) = 57.23673 58.27003 57.75338
# Shear Modulus (GPa) = 24.62703 26.83648 25.73176
#
# Velocity S-wave (km/s) = 3.54105 3.69648 3.61960
# Velocity P-wave (km/s) = 6.77209 6.92006 6.84647
#
# Compressibility (1/GPa) = 0.01747130
#
# Stress axis : x y z
#
# Youngs Moduli (GPa) = 79.01920 75.77298 80.25171
#
# Poissons Ratio (x) = 0.31022 0.19201
# Poissons Ratio (y) = 0.32351 0.31573
# Poissons Ratio (z) = 0.18906 0.29811
#
# Static dielectric constant tensor:
#      x y z
#    x 3.369710 0.000000 -0.227700 
#    y 0.000000 3.748870 0.000000 
#    z -0.227700 0.000000 3.553530 
# 
# 
# High freq. dielectric constant tensor:
#      x y z
#    x 1.746790 0.000000 -0.016940 
#    y 0.000000 1.784030 0.000000 
#    z -0.016940 0.000000 1.758590 
# 
# From -- ./inp_files/295949.got.cif
#   From: 2010.06.25/outbox.cif.g09.slc.cpg/sg15_148_cif.got.tgz:295949.got - 2010.06.28 07:06:18.
