data_PCOD8140536
_publ_section_title
;
Structure prediction by ZEFSAII (Michael W. Deem and Ramdas Pophale) SiO2 
 PCOD8140536
Probable space group: C 2/C
;
_chemical_formula_sum "Si O2"
_cell_formula_units_Z 52
_cell_length_a 8.588386
_cell_length_b 14.273287
_cell_length_c 29.661094
_cell_angle_alpha 90.000000
_cell_angle_beta 136.827335
_cell_angle_gamma 90.000000
_cell_volume 2487.741845
_symmetry_space_group_name_H-M "C 2/C"
_symmetry_group_IT_number 15
_symmetry_cell_setting 'monoclinic'
loop_
_space_group_symop_operation_xyz
x,y,z
-x,y,1/2-z
-x,-y,-z
x,-y,1/2+z
1/2+x,1/2+y,z
1/2-x,1/2+y,1/2-z
1/2-x,1/2-y,-z
1/2+x,1/2-y,1/2+z
loop_
_atom_site_type_symbol
_atom_site_label
_atom_site_fract_x
_atom_site_fract_y
_atom_site_fract_z
Si Si1 0.551912 0.125783 0.445797
Si Si2 0.564412 0.673703 0.343641
Si Si3 0.847889 0.185985 0.581864
Si Si4 0.506017 0.964158 0.129506
Si Si5 0.500000 0.543622 0.250000
Si Si6 0.014944 0.270429 0.423498
Si Si7 0.670304 0.872548 0.323553
O O1 0.289259 0.114914 0.403213
O O2 0.699247 0.111053 0.522046
O O3 0.576600 0.231603 0.434845
O O4 0.614463 0.051770 0.420371
O O5 0.431739 0.607810 0.279528
O O6 0.458139 0.697788 0.370428
O O7 0.600515 0.770986 0.326062
O O8 0.707238 0.233571 0.592168
O O9 0.075793 0.130087 0.644507
O O10 0.468122 0.875610 0.089999
O O11 0.357257 0.949134 0.142933
O O12 0.776710 0.979927 0.194928
O O13 0.250000 0.250000 0.500000
O O14 0.500000 0.908134 0.250000
#
# Coordination Sequence:
#
# PCOD8140536 Si02
#       7
#     8   8   8   8   4   8   8
#     4   9  19  40  61  90 119 168 206 258 317 379
#     4   9  18  39  67  83 122 169 207 257 327 389
#     4  10  21  38  66  88 125 166 211 251 330 382
#     4  10  24  39  61  92 128 160 219 267 315 381
#     4  10  20  42  64  88 126 176 216 270 334 384
#     4  11  22  41  63  98 124 162 212 272 323 390
#     4  10  21  39  61  85 122 173 208 257 316 387
#
# _framework density 20.902491000000001
#
# number of rings (size 3 to 8) (size 9 to 14) (size 15 to 20)
#    0.000    2.154    2.308    0.000    4.308    1.231 
#    2.769    0.000    0.000    0.000    0.000    0.000 
#    0.000    0.000    0.000    0.000    0.000    0.000 
#
# Total GULP energy -322124.768801 kJ/mol
# GULP energy per Si atom -12389.414185 kJ/mol
# Density = 2.085492 g / cm^3
# Si number density = 20.902491 Si / 1000 Ang^3
#
#
#
# Elastic Constant Matrix: (Units=GPa)
#
#
# Indices 1 2 3 4 5 6 
#
# 1 120.5454 14.8734 51.5551 0.0000 3.8708 0.0000
# 2 14.8734 69.6294 42.5780 0.0000 -1.6786 0.0000
# 3 51.5551 42.5780 131.7127 0.0000 -6.0341 0.0000
# 4 0.0000 0.0000 0.0000 32.0045 0.0000 -5.3335
# 5 3.8708 -1.6786 -6.0341 0.0000 24.8157 0.0000
# 6 0.0000 0.0000 0.0000 -5.3335 0.0000 32.0186
#
#
#
# Elastic Compliance Matrix: (Units=1/GPa)
#
#
# Indices 1 2 3 4 5 6 
#
# 1 0.010130 0.000338 -0.004192 0.000000 -0.002577 0.000000
# 2 0.000338 0.017912 -0.005936 0.000000 -0.000284 0.000000
# 3 -0.004192 -0.005936 0.011289 0.000000 0.002997 0.000000
# 4 0.000000 0.000000 0.000000 0.032138 0.000000 0.005353
# 5 -0.002577 -0.000284 0.002997 0.000000 0.041409 0.000000
# 6 0.000000 0.000000 0.000000 0.005353 0.000000 0.032124
#
#
# Mechanical properties :
#
#
# Convention : Reuss Voigt Hill
#
# Bulk Modulus (GPa) = 50.63039 59.98896 55.30967
# Shear Modulus (GPa) = 29.21158 31.95983 30.58571
#
# Velocity S-wave (km/s) = 3.74239 3.91448 3.82940
# Velocity P-wave (km/s) = 6.55353 7.01374 6.78754
#
# Compressibility (1/GPa) = 0.01975098
#
# Stress axis : x y z
#
# Youngs Moduli (GPa) = 98.72056 55.82730 88.57992
#
# Poissons Ratio (x) = -0.01885 0.37134
# Poissons Ratio (y) = -0.03333 0.52577
# Poissons Ratio (z) = 0.41385 0.33137
#
# Static dielectric constant tensor:
#      x y z
#    x 4.168150 0.000000 -0.052190 
#    y 0.000000 3.639230 0.000000 
#    z -0.052190 0.000000 4.088640 
# 
# 
# High freq. dielectric constant tensor:
#      x y z
#    x 1.807050 0.000000 -0.010310 
#    y 0.000000 1.806050 0.000000 
#    z -0.010310 0.000000 1.827910 
# 
# From -- ./inp_files/264467.got.cif
#   From: 2010.06.25/outbox.cif.g09.slc.cpg/sg15_133_cif.got.tgz:264467.got - 2010.06.28 07:06:18.
