data_PCOD8140393
_publ_section_title
;
Structure prediction by ZEFSAII (Michael W. Deem and Ramdas Pophale) SiO2 
 PCOD8140393
Probable space group: C 2/C
;
_chemical_formula_sum "Si O2"
_cell_formula_units_Z 40
_cell_length_a 10.542847
_cell_length_b 10.038843
_cell_length_c 17.805229
_cell_angle_alpha 90.000000
_cell_angle_beta 102.942412
_cell_angle_gamma 90.000000
_cell_volume 1836.595889
_symmetry_space_group_name_H-M "C 2/C"
_symmetry_group_IT_number 15
_symmetry_cell_setting 'monoclinic'
loop_
_space_group_symop_operation_xyz
x,y,z
-x,y,1/2-z
-x,-y,-z
x,-y,1/2+z
1/2+x,1/2+y,z
1/2-x,1/2+y,1/2-z
1/2-x,1/2-y,-z
1/2+x,1/2-y,1/2+z
loop_
_atom_site_type_symbol
_atom_site_label
_atom_site_fract_x
_atom_site_fract_y
_atom_site_fract_z
Si Si1 0.792573 0.454077 0.826150
Si Si2 0.369636 0.683133 0.775774
Si Si3 0.497272 0.330525 0.441774
Si Si4 0.696665 0.438252 0.981970
Si Si5 0.948047 0.535649 0.072734
O O1 0.709173 0.572620 0.780900
O O2 0.785102 0.319083 0.775399
O O3 0.744918 0.412924 0.903707
O O4 0.943485 0.504965 0.850656
O O5 0.500000 0.723807 0.750000
O O6 0.409912 0.618212 0.860422
O O7 0.395884 0.317918 0.499636
O O8 0.612428 0.428912 0.475910
O O9 0.567251 0.194833 0.427645
O O10 0.809963 0.461023 0.060017
O O11 0.000000 0.500000 0.000000
#
# Coordination Sequence:
#
# PCOD8140393 Si02
#       5
#     8   8   8   8   8
#     4  10  23  43  68  93 130 173 212 267 315 390
#     4  11  23  44  62  92 135 170 213 261 324 382
#     4  10  21  38  68  92 126 169 206 267 316 377
#     4  10  20  41  66  96 123 163 217 261 323 367
#     4   9  20  37  60  94 128 158 206 265 310 372
#
# _framework density 21.779423000000001
#
# number of rings (size 3 to 8) (size 9 to 14) (size 15 to 20)
#    0.000    2.000    2.000    0.600    0.000   10.400 
#   14.400    7.000    0.000    0.000    0.000    0.000 
#    0.000    0.000    0.000    0.000    0.000    0.000 
#
# Total GULP energy -247763.703537 kJ/mol
# GULP energy per Si atom -12388.185177 kJ/mol
# Density = 2.172985 g / cm^3
# Si number density = 21.779423 Si / 1000 Ang^3
#
#
#
# Elastic Constant Matrix: (Units=GPa)
#
#
# Indices 1 2 3 4 5 6 
#
# 1 101.3552 45.8895 30.1254 0.0000 -2.5835 0.0000
# 2 45.8895 72.8560 31.6645 0.0000 5.4656 0.0000
# 3 30.1254 31.6645 84.8414 0.0000 2.7406 0.0000
# 4 0.0000 0.0000 0.0000 26.5647 0.0000 -2.7743
# 5 -2.5835 5.4656 2.7406 0.0000 34.3088 0.0000
# 6 0.0000 0.0000 0.0000 -2.7743 0.0000 10.9560
#
#
#
# Elastic Compliance Matrix: (Units=1/GPa)
#
#
# Indices 1 2 3 4 5 6 
#
# 1 0.014306 -0.008307 -0.002062 0.000000 0.002565 0.000000
# 2 -0.008307 0.021363 -0.004906 0.000000 -0.003637 0.000000
# 3 -0.002062 -0.004906 0.014367 0.000000 -0.000521 0.000000
# 4 0.000000 0.000000 0.000000 0.038666 0.000000 0.009791
# 5 0.002565 -0.003637 -0.000521 0.000000 0.029961 0.000000
# 6 0.000000 0.000000 0.000000 0.009791 0.000000 0.093754
#
#
# Mechanical properties :
#
#
# Convention : Reuss Voigt Hill
#
# Bulk Modulus (GPa) = 51.32074 52.71236 52.01655
# Shear Modulus (GPa) = 20.04316 24.45746 22.25031
#
# Velocity S-wave (km/s) = 3.03690 3.35470 3.19975
# Velocity P-wave (km/s) = 5.99267 6.26584 6.13077
#
# Compressibility (1/GPa) = 0.01948530
#
# Stress axis : x y z
#
# Youngs Moduli (GPa) = 69.90276 46.81008 69.60486
#
# Poissons Ratio (x) = 0.38884 0.14354
# Poissons Ratio (y) = 0.58067 0.34148
# Poissons Ratio (z) = 0.14416 0.22965
#
# Static dielectric constant tensor:
#      x y z
#    x 5.012480 0.000000 0.363990 
#    y 0.000000 3.886110 0.000000 
#    z 0.363990 0.000000 4.246370 
# 
# 
# High freq. dielectric constant tensor:
#      x y z
#    x 1.866530 0.000000 0.003430 
#    y 0.000000 1.848320 0.000000 
#    z 0.003430 0.000000 1.849500 
# 
# From -- ./inp_files/235915.got.cif
#   From: 2010.06.25/outbox.cif.g09.slc.cpg/sg15_118_cif.got.tgz:235915.got - 2010.06.28 07:06:18.
