data_PCOD8140575
_publ_section_title
;
Structure prediction by ZEFSAII (Michael W. Deem and Ramdas Pophale) SiO2 
 PCOD8140575
Probable space group: C 2/C
;
_chemical_formula_sum "Si O2"
_cell_formula_units_Z 64
_cell_length_a 22.399767
_cell_length_b 15.621863
_cell_length_c 17.504564
_cell_angle_alpha 90.000000
_cell_angle_beta 30.299856
_cell_angle_gamma 90.000000
_cell_volume 3090.371609
_symmetry_space_group_name_H-M "C 2/C"
_symmetry_group_IT_number 15
_symmetry_cell_setting 'monoclinic'
loop_
_space_group_symop_operation_xyz
x,y,z
-x,y,1/2-z
-x,-y,-z
x,-y,1/2+z
1/2+x,1/2+y,z
1/2-x,1/2+y,1/2-z
1/2-x,1/2-y,-z
1/2+x,1/2-y,1/2+z
loop_
_atom_site_type_symbol
_atom_site_label
_atom_site_fract_x
_atom_site_fract_y
_atom_site_fract_z
Si Si1 0.173357 0.881751 0.906674
Si Si2 0.090008 0.649554 0.766091
Si Si3 0.638036 0.762328 0.567914
Si Si4 0.362870 0.014385 0.663378
Si Si5 0.876665 0.170375 0.206749
Si Si6 0.528504 0.494601 0.380151
Si Si7 0.657475 0.114736 0.529294
Si Si8 0.722410 0.063767 0.908476
O O1 0.121175 0.842534 0.886278
O O2 0.302954 0.924109 0.754167
O O3 0.171349 0.806025 0.967925
O O4 0.087061 0.957076 0.033816
O O5 0.157216 0.586251 0.749830
O O6 0.065116 0.740330 0.833932
O O7 0.163825 0.657567 0.606028
O O8 0.966225 0.611138 0.877323
O O9 0.500000 0.751412 0.750000
O O10 0.750000 0.750000 0.500000
O O11 0.648613 0.855911 0.519617
O O12 0.305001 0.046033 0.649475
O O13 0.500000 0.000000 0.500000
O O14 0.942190 0.091816 0.178517
O O15 0.741345 0.171309 0.383282
O O16 0.500000 0.500000 0.500000
O O17 0.635192 0.427567 0.245169
O O18 0.691967 0.015319 0.497160
#
# Coordination Sequence:
#
# PCOD8140575 Si02
#       8
#     8   8   8   8   8   8   8   8
#     4  11  23  46  67 100 136 173 236 280 336 418
#     4  11  23  36  64  94 129 166 218 268 340 402
#     4  12  30  47  70 104 145 191 239 296 351 423
#     4  12  23  40  67 102 127 175 227 278 338 409
#     4  10  20  42  65  95 127 170 216 279 337 403
#     4   9  18  41  67  93 129 172 214 274 343 400
#     4  10  22  41  60  93 133 167 207 279 337 410
#     4  11  22  44  70  93 132 181 226 280 345 406
#
# _framework density 20.709484
#
# number of rings (size 3 to 8) (size 9 to 14) (size 15 to 20)
#    0.000    1.250    5.000    1.875    5.250    1.000 
#   11.250    0.000    0.000    0.000    0.000    0.000 
#    0.000    0.000    0.000    0.000    0.000    0.000 
#
# Total GULP energy -396569.339588 kJ/mol
# GULP energy per Si atom -12392.791862 kJ/mol
# Density = 2.066235 g / cm^3
# Si number density = 20.709484 Si / 1000 Ang^3
#
#
#
# Elastic Constant Matrix: (Units=GPa)
#
#
# Indices 1 2 3 4 5 6 
#
# 1 75.4694 39.2943 36.9007 0.0000 0.2555 0.0000
# 2 39.2943 119.4691 41.2863 0.0000 2.6546 0.0000
# 3 36.9007 41.2863 115.0067 0.0000 -11.7793 0.0000
# 4 0.0000 0.0000 0.0000 35.3113 0.0000 6.5948
# 5 0.2555 2.6546 -11.7793 0.0000 29.0576 0.0000
# 6 0.0000 0.0000 0.0000 6.5948 0.0000 18.8726
#
#
#
# Elastic Compliance Matrix: (Units=1/GPa)
#
#
# Indices 1 2 3 4 5 6 
#
# 1 0.017559 -0.004273 -0.004253 0.000000 -0.001488 0.000000
# 2 -0.004273 0.010753 -0.002698 0.000000 -0.002039 0.000000
# 3 -0.004253 -0.002698 0.011536 0.000000 0.004960 0.000000
# 4 0.000000 0.000000 0.000000 0.030297 0.000000 -0.010587
# 5 -0.001488 -0.002039 0.004960 0.000000 0.036625 0.000000
# 6 0.000000 0.000000 0.000000 -0.010587 0.000000 0.056686
#
#
# Mechanical properties :
#
#
# Convention : Reuss Voigt Hill
#
# Bulk Modulus (GPa) = 57.46455 60.54532 59.00493
# Shear Modulus (GPa) = 26.08177 29.47923 27.78050
#
# Velocity S-wave (km/s) = 3.55267 3.77698 3.66654
# Velocity P-wave (km/s) = 6.68108 6.95124 6.81750
#
# Compressibility (1/GPa) = 0.01740203
#
# Stress axis : x y z
#
# Youngs Moduli (GPa) = 56.94958 92.99326 86.68273
#
# Poissons Ratio (x) = 0.39734 0.36863
# Poissons Ratio (y) = 0.24333 0.23389
# Poissons Ratio (z) = 0.24218 0.25092
#
# Static dielectric constant tensor:
#      x y z
#    x 3.672680 0.000000 0.034560 
#    y 0.000000 4.208490 0.000000 
#    z 0.034560 0.000000 4.034820 
# 
# 
# High freq. dielectric constant tensor:
#      x y z
#    x 1.799430 0.000000 -0.001770 
#    y 0.000000 1.812420 0.000000 
#    z -0.001770 0.000000 1.825130 
# 
# From -- ./inp_files/219694.got.cif
#   From: 2010.06.25/outbox.cif.g09.slc.cpg/sg15_110_cif.got.tgz:219694.got - 2010.06.28 07:06:18.
