data_PCOD8140735
_publ_section_title
;
Structure prediction by ZEFSAII (Michael W. Deem and Ramdas Pophale) SiO2 
 PCOD8140735
Probable space group: C 2/C
;
_chemical_formula_sum "Si O2"
_cell_formula_units_Z 48
_cell_length_a 13.041223
_cell_length_b 27.403361
_cell_length_c 9.249762
_cell_angle_alpha 90.000000
_cell_angle_beta 134.600412
_cell_angle_gamma 90.000000
_cell_volume 2353.669678
_symmetry_space_group_name_H-M "C 2/C"
_symmetry_group_IT_number 15
_symmetry_cell_setting 'monoclinic'
loop_
_space_group_symop_operation_xyz
x,y,z
-x,y,1/2-z
-x,-y,-z
x,-y,1/2+z
1/2+x,1/2+y,z
1/2-x,1/2+y,1/2-z
1/2-x,1/2-y,-z
1/2+x,1/2-y,1/2+z
loop_
_atom_site_type_symbol
_atom_site_label
_atom_site_fract_x
_atom_site_fract_y
_atom_site_fract_z
Si Si1 0.416797 0.536882 0.316208
Si Si2 0.457273 0.353746 0.873233
Si Si3 0.423030 0.959737 0.019944
Si Si4 0.990940 0.368510 0.580194
Si Si5 0.261687 0.797567 0.684624
Si Si6 0.709327 0.313657 0.310327
O O1 0.500000 0.532427 0.250000
O O2 0.500000 0.500000 0.500000
O O3 0.435929 0.590608 0.399938
O O4 0.245806 0.526234 0.130624
O O5 0.500000 0.348413 0.750000
O O6 0.309378 0.324857 0.749957
O O7 0.566860 0.329361 0.090368
O O8 0.500000 0.958542 0.250000
O O9 0.444051 0.906862 0.968347
O O10 0.500000 0.000000 0.000000
O O11 0.828083 0.353680 0.380774
O O12 0.000000 0.391939 0.750000
O O13 0.075198 0.316920 0.662391
O O14 0.250916 0.740366 0.704274
O O15 0.183352 0.812099 0.456732
#
# Coordination Sequence:
#
# PCOD8140735 Si02
#       6
#     8   8   8   8   8   8
#     4  11  26  46  68  96 133 171 216 269 329 397
#     4  11  24  40  62  95 133 168 215 260 330 389
#     4  12  26  45  71  97 132 170 217 272 330 397
#     4  10  22  39  64  96 129 167 219 266 325 380
#     4  10  20  43  61  95 127 170 224 267 322 374
#     4  10  22  37  69  91 128 174 217 273 314 384
#
# _framework density 20.393685999999999
#
# number of rings (size 3 to 8) (size 9 to 14) (size 15 to 20)
#    0.000    1.333    1.667    3.000    7.000    4.667 
#    0.000    1.667    0.000    0.000    0.000    0.000 
#    0.000    0.000    0.000    0.000    0.000    0.000 
#
# Total GULP energy -297602.518983 kJ/mol
# GULP energy per Si atom -12400.104958 kJ/mol
# Density = 2.034727 g / cm^3
# Si number density = 20.393686 Si / 1000 Ang^3
#
#
#
# Elastic Constant Matrix: (Units=GPa)
#
#
# Indices 1 2 3 4 5 6 
#
# 1 117.0285 51.4742 40.3726 0.0000 12.1655 0.0000
# 2 51.4742 114.8489 43.8767 0.0000 -5.9290 0.0000
# 3 40.3726 43.8767 107.5058 0.0000 6.8626 0.0000
# 4 0.0000 0.0000 0.0000 48.9398 0.0000 1.4604
# 5 12.1655 -5.9290 6.8626 0.0000 24.8130 0.0000
# 6 0.0000 0.0000 0.0000 1.4604 0.0000 37.6592
#
#
#
# Elastic Compliance Matrix: (Units=1/GPa)
#
#
# Indices 1 2 3 4 5 6 
#
# 1 0.012143 -0.004974 -0.002111 0.000000 -0.006558 0.000000
# 2 -0.004974 0.012697 -0.003729 0.000000 0.006504 0.000000
# 3 -0.002111 -0.003729 0.011816 0.000000 -0.003124 0.000000
# 4 0.000000 0.000000 0.000000 0.020457 0.000000 -0.000793
# 5 -0.006558 0.006504 -0.003124 0.000000 0.045935 0.000000
# 6 0.000000 0.000000 0.000000 -0.000793 0.000000 0.026585
#
#
# Mechanical properties :
#
#
# Convention : Reuss Voigt Hill
#
# Bulk Modulus (GPa) = 66.54955 67.87001 67.20978
# Shear Modulus (GPa) = 31.99567 35.85972 33.92769
#
# Velocity S-wave (km/s) = 3.96523 4.19785 4.08320
# Velocity P-wave (km/s) = 7.32580 7.53976 7.43355
#
# Compressibility (1/GPa) = 0.01502640
#
# Stress axis : x y z
#
# Youngs Moduli (GPa) = 82.35232 78.75880 84.63002
#
# Poissons Ratio (x) = 0.39177 0.17868
# Poissons Ratio (y) = 0.40965 0.31560
# Poissons Ratio (z) = 0.17387 0.29371
#
# Static dielectric constant tensor:
#      x y z
#    x 3.778260 0.000000 0.082450 
#    y 0.000000 3.984890 0.000000 
#    z 0.082450 0.000000 3.761790 
# 
# 
# High freq. dielectric constant tensor:
#      x y z
#    x 1.810940 0.000000 0.008570 
#    y 0.000000 1.806310 0.000000 
#    z 0.008570 0.000000 1.794170 
# 
# From -- ./inp_files/43950.got.cif
#   From: 2010.06.25/outbox.cif.g09.slc.cpg/sg15_22_cif.got.tgz:43950.got - 2010.06.28 07:06:18.
