data_PCOD8140218
_publ_section_title
;
Structure prediction by ZEFSAII (Michael W. Deem and Ramdas Pophale) SiO2 
 PCOD8140218
Probable space group: C 2/C
;
_chemical_formula_sum "Si O2"
_cell_formula_units_Z 36
_cell_length_a 8.185910
_cell_length_b 16.675348
_cell_length_c 17.466740
_cell_angle_alpha 90.000000
_cell_angle_beta 139.851700
_cell_angle_gamma 90.000000
_cell_volume 1537.295493
_symmetry_space_group_name_H-M "C 2/C"
_symmetry_group_IT_number 15
_symmetry_cell_setting 'monoclinic'
loop_
_space_group_symop_operation_xyz
x,y,z
-x,y,1/2-z
-x,-y,-z
x,-y,1/2+z
1/2+x,1/2+y,z
1/2-x,1/2+y,1/2-z
1/2-x,1/2-y,-z
1/2+x,1/2-y,1/2+z
loop_
_atom_site_type_symbol
_atom_site_label
_atom_site_fract_x
_atom_site_fract_y
_atom_site_fract_z
Si Si1 0.500000 0.641694 0.250000
Si Si2 0.371601 0.890516 0.383353
Si Si3 0.490797 0.240413 0.454216
Si Si4 0.842329 0.017690 0.073182
Si Si5 0.785145 0.900926 0.337540
O O1 0.487764 0.585575 0.172046
O O2 0.758983 0.692340 0.330734
O O3 0.443439 0.802770 0.442212
O O4 0.622467 0.939304 0.445400
O O5 0.190978 0.877345 0.245386
O O6 0.257511 0.945484 0.409179
O O7 0.750000 0.250000 0.500000
O O8 0.378625 0.329351 0.426203
O O9 0.038839 0.977968 0.084329
O O10 0.500000 0.924868 0.250000
#
# Coordination Sequence:
#
# PCOD8140218 Si02
#       5
#     4   8   8   8   8
#     4  10  20  42  66  96 128 176 216 262 328 414
#     4  10  22  41  69  93 129 177 226 268 328 403
#     4  11  23  39  66  98 132 168 223 270 333 399
#     4  10  20  40  70  92 122 178 229 261 325 402
#     4  12  24  40  65  99 140 171 219 283 332 385
#
# _framework density 23.417748
#
# number of rings (size 3 to 8) (size 9 to 14) (size 15 to 20)
#    0.000    1.333    5.556    0.000    0.000    1.778 
#    0.000    0.000    0.000    0.000    0.000    0.000 
#    0.000    0.000    0.000    0.000    0.000    0.000 
#
# Total GULP energy -223068.507167 kJ/mol
# GULP energy per Si atom -12392.694843 kJ/mol
# Density = 2.336445 g / cm^3
# Si number density = 23.417748 Si / 1000 Ang^3
#
#
#
# Elastic Constant Matrix: (Units=GPa)
#
#
# Indices 1 2 3 4 5 6 
#
# 1 49.5209 49.8974 23.1809 0.0001 29.7702 0.0001
# 2 49.8974 136.2173 45.5392 0.0007 27.3415 0.0005
# 3 23.1809 45.5392 105.5856 0.0012 19.5344 0.0011
# 4 0.0001 0.0007 0.0012 31.4524 0.0003 13.0893
# 5 29.7702 27.3415 19.5344 0.0003 52.3200 0.0004
# 6 0.0001 0.0005 0.0011 13.0893 0.0004 39.5835
#
#
#
# Elastic Compliance Matrix: (Units=1/GPa)
#
#
# Indices 1 2 3 4 5 6 
#
# 1 0.043746 -0.012016 -0.001051 0.000000 -0.018220 0.000000
# 2 -0.012016 0.012456 -0.003002 0.000000 0.001449 0.000000
# 3 -0.001051 -0.003002 0.011382 0.000000 -0.002083 0.000000
# 4 0.000000 0.000000 0.000000 0.036868 0.000000 -0.012191
# 5 -0.018220 0.001449 -0.002083 0.000000 0.029501 0.000000
# 6 0.000000 0.000000 0.000000 -0.012191 0.000000 0.029294
#
#
# Mechanical properties :
#
#
# Convention : Reuss Voigt Hill
#
# Bulk Modulus (GPa) = 28.21250 58.72877 43.47064
# Shear Modulus (GPa) = 24.13138 36.18494 30.15816
#
# Velocity S-wave (km/s) = 3.21358 3.93516 3.59253
# Velocity P-wave (km/s) = 5.08361 6.76613 5.98430
#
# Compressibility (1/GPa) = 0.03544528
#
# Stress axis : x y z
#
# Youngs Moduli (GPa) = 22.85928 80.28520 87.85922
#
# Poissons Ratio (x) = 0.96471 0.09233
# Poissons Ratio (y) = 0.27468 0.26376
# Poissons Ratio (z) = 0.02402 0.24102
#
# Static dielectric constant tensor:
#      x y z
#    x 4.108090 0.000000 0.282700 
#    y 0.000000 4.466540 0.000000 
#    z 0.282700 0.000000 4.616960 
# 
# 
# High freq. dielectric constant tensor:
#      x y z
#    x 1.913120 0.000000 0.026580 
#    y 0.000000 1.930210 0.000000 
#    z 0.026580 0.000000 1.939730 
# 
# From -- ./inp_files/76301.got.cif
#   From: 2010.06.25/outbox.cif.g09.slc.cpg/sg15_39_cif.got.tgz:76301.got - 2010.06.28 07:06:18.
