data_PCOD8140442
_publ_section_title
;
Structure prediction by ZEFSAII (Michael W. Deem and Ramdas Pophale) SiO2 
 PCOD8140442
Probable space group: C 2/C
;
_chemical_formula_sum "Si O2"
_cell_formula_units_Z 64
_cell_length_a 11.051407
_cell_length_b 20.177183
_cell_length_c 25.449253
_cell_angle_alpha 90.000000
_cell_angle_beta 146.198826
_cell_angle_gamma 90.000000
_cell_volume 3156.981777
_symmetry_space_group_name_H-M "C 2/C"
_symmetry_group_IT_number 15
_symmetry_cell_setting 'monoclinic'
loop_
_space_group_symop_operation_xyz
x,y,z
-x,y,1/2-z
-x,-y,-z
x,-y,1/2+z
1/2+x,1/2+y,z
1/2-x,1/2+y,1/2-z
1/2-x,1/2-y,-z
1/2+x,1/2-y,1/2+z
loop_
_atom_site_type_symbol
_atom_site_label
_atom_site_fract_x
_atom_site_fract_y
_atom_site_fract_z
Si Si1 0.932036 0.703522 0.586629
Si Si2 0.260925 0.536515 0.145996
Si Si3 0.022497 0.388189 0.879002
Si Si4 0.094134 0.255443 0.726203
Si Si5 0.883586 0.815431 0.060673
Si Si6 0.603507 0.929625 0.478892
Si Si7 0.254718 0.512358 0.926448
Si Si8 0.798442 0.644001 0.644416
O O1 0.750000 0.750000 0.500000
O O2 0.978338 0.644892 0.561843
O O3 0.810896 0.676026 0.592929
O O4 0.149032 0.743986 0.678426
O O5 0.500000 0.514887 0.250000
O O6 0.183901 0.588850 0.162097
O O7 0.116077 0.470934 0.093027
O O8 0.252959 0.569148 0.085102
O O9 0.108858 0.445592 0.870677
O O10 0.956505 0.324184 0.821623
O O11 0.211828 0.375010 0.991201
O O12 0.000000 0.258989 0.750000
O O13 0.983473 0.193421 0.655119
O O14 0.076199 0.830794 0.089733
O O15 0.750000 0.750000 0.000000
O O16 0.744534 0.958626 0.481830
O O17 0.175105 0.564766 0.853883
O O18 0.500000 0.500000 0.000000
O O19 0.000000 0.670889 0.750000
#
# Coordination Sequence:
#
# PCOD8140442 Si02
#       8
#     8   8   8   8   8   8   8   8
#     4  11  26  41  65  95 132 177 216 270 331 390
#     4  10  22  45  70  95 132 174 222 281 324 398
#     4  10  23  43  66  98 129 172 223 264 339 395
#     4  11  26  42  62  97 131 174 219 269 330 399
#     4  10  22  42  65  90 130 172 211 268 324 395
#     4   9  23  44  63 100 131 166 226 268 339 389
#     4  10  20  41  68  94 128 171 209 276 338 384
#     4  11  22  44  65  95 131 167 227 269 324 407
#
# _framework density 20.272528000000001
#
# number of rings (size 3 to 8) (size 9 to 14) (size 15 to 20)
#    0.000    1.750    2.500    0.000    7.000    2.000 
#   11.250    0.000    0.000    0.000    0.000    0.000 
#    0.000    0.000    0.000    0.000    0.000    0.000 
#
# Total GULP energy -396667.460240 kJ/mol
# GULP energy per Si atom -12395.858133 kJ/mol
# Density = 2.022639 g / cm^3
# Si number density = 20.272528 Si / 1000 Ang^3
#
#
#
# Elastic Constant Matrix: (Units=GPa)
#
#
# Indices 1 2 3 4 5 6 
#
# 1 103.9647 45.1703 48.3494 -0.0003 1.1055 0.0000
# 2 45.1703 117.7154 52.0762 -0.0002 -3.4377 0.0000
# 3 48.3494 52.0762 143.3764 -0.0009 2.6801 -0.0003
# 4 -0.0003 -0.0002 -0.0009 31.3289 -0.0003 -1.6003
# 5 1.1055 -3.4377 2.6801 -0.0003 34.0344 0.0000
# 6 0.0000 0.0000 -0.0003 -1.6003 0.0000 18.0114
#
#
#
# Elastic Compliance Matrix: (Units=1/GPa)
#
#
# Indices 1 2 3 4 5 6 
#
# 1 0.012518 -0.003522 -0.002932 0.000000 -0.000531 0.000000
# 2 -0.003522 0.011171 -0.002897 0.000000 0.001471 0.000000
# 3 -0.002932 -0.002897 0.009033 0.000000 -0.000909 0.000000
# 4 0.000000 0.000000 0.000000 0.032065 0.000000 0.002849
# 5 -0.000531 0.001471 -0.000909 0.000000 0.029619 0.000000
# 6 0.000000 0.000000 0.000000 0.002849 0.000000 0.055774
#
#
# Mechanical properties :
#
#
# Convention : Reuss Voigt Hill
#
# Bulk Modulus (GPa) = 71.33076 72.91649 72.12363
# Shear Modulus (GPa) = 28.80911 31.30564 30.05738
#
# Velocity S-wave (km/s) = 3.77383 3.93394 3.85472
# Velocity P-wave (km/s) = 7.36555 7.52866 7.44755
#
# Compressibility (1/GPa) = 0.01401920
#
# Stress axis : x y z
#
# Youngs Moduli (GPa) = 79.88425 89.51583 110.70735
#
# Poissons Ratio (x) = 0.31526 0.32462
# Poissons Ratio (y) = 0.28134 0.32076
# Poissons Ratio (z) = 0.23424 0.25936
#
# Static dielectric constant tensor:
#      x y z
#    x 3.779920 0.000000 -0.159550 
#    y 0.000000 3.825350 0.000000 
#    z -0.159550 0.000000 3.917080 
# 
# 
# High freq. dielectric constant tensor:
#      x y z
#    x 1.799880 0.000000 0.001180 
#    y 0.000000 1.797910 0.000000 
#    z 0.001180 0.000000 1.793970 
# 
# From -- ./inp_files/293764.got.cif
#   From: 2010.06.25/outbox.cif.g09.slc.cpg/sg15_147_cif.got.tgz:293764.got - 2010.06.28 07:06:18.
