data_PCOD8140913
_publ_section_title
;
Structure prediction by ZEFSAII (Michael W. Deem and Ramdas Pophale) SiO2 
 PCOD8140913
Probable space group: C 2/C
;
_chemical_formula_sum "Si O2"
_cell_formula_units_Z 52
_cell_length_a 14.704286
_cell_length_b 24.117095
_cell_length_c 8.374974
_cell_angle_alpha 90.000000
_cell_angle_beta 92.856618
_cell_angle_gamma 90.000000
_cell_volume 2966.281774
_symmetry_space_group_name_H-M "C 2/C"
_symmetry_group_IT_number 15
_symmetry_cell_setting 'monoclinic'
loop_
_space_group_symop_operation_xyz
x,y,z
-x,y,1/2-z
-x,-y,-z
x,-y,1/2+z
1/2+x,1/2+y,z
1/2-x,1/2+y,1/2-z
1/2-x,1/2-y,-z
1/2+x,1/2-y,1/2+z
loop_
_atom_site_type_symbol
_atom_site_label
_atom_site_fract_x
_atom_site_fract_y
_atom_site_fract_z
Si Si1 0.351817 0.705189 0.566923
Si Si2 0.180924 0.671838 0.406774
Si Si3 0.712940 0.693677 0.574659
Si Si4 0.389272 0.162953 0.459312
Si Si5 0.533060 0.281568 0.934209
Si Si6 0.945466 0.580774 0.999388
Si Si7 0.000000 0.502064 0.750000
O O1 0.290404 0.668299 0.439553
O O2 0.346151 0.769710 0.516358
O O3 0.316997 0.697657 0.744327
O O4 0.457235 0.690791 0.544189
O O5 0.135954 0.624196 0.509512
O O6 0.145426 0.667445 0.224679
O O7 0.750000 0.750000 0.500000
O O8 0.798599 0.651846 0.560332
O O9 0.622181 0.679258 0.464558
O O10 0.443232 0.218942 0.508453
O O11 0.456180 0.111122 0.484922
O O12 0.500000 0.281491 0.750000
O O13 0.934552 0.537808 0.143317
O O14 0.935075 0.542794 0.843642
#
# Coordination Sequence:
#
# PCOD8140913 Si02
#       7
#     8   8   8   8   8   8   4
#     4  11  22  33  51  75 106 144 188 218 260 331
#     4  11  21  34  52  73 105 145 183 220 270 324
#     4  10  21  32  46  73 104 139 185 220 249 321
#     4  11  21  34  51  73 104 148 181 217 275 315
#     4  11  22  33  49  73 106 144 183 220 253 315
#     4  11  22  38  57  76 110 141 184 233 278 317
#     4  10  24  38  54  82 102 140 192 236 274 328
#
# _framework density 17.530363999999999
#
# number of rings (size 3 to 8) (size 9 to 14) (size 15 to 20)
#    0.000    1.231    6.154    1.385    9.692    0.000 
#    0.000    0.000    0.000    0.000    0.000    0.000 
#    0.000    7.385    0.000    0.000    0.000    0.000 
#
# Total GULP energy -322122.085391 kJ/mol
# GULP energy per Si atom -12389.310977 kJ/mol
# Density = 1.749046 g / cm^3
# Si number density = 17.530364 Si / 1000 Ang^3
#
#
#
# Elastic Constant Matrix: (Units=GPa)
#
#
# Indices 1 2 3 4 5 6 
#
# 1 155.2393 42.7368 45.0680 0.0000 -0.8497 0.0000
# 2 42.7368 72.4364 28.9933 0.0000 -1.9890 0.0000
# 3 45.0680 28.9933 87.0803 0.0000 -2.1261 0.0000
# 4 0.0000 0.0000 0.0000 44.1541 0.0000 -9.3856
# 5 -0.8497 -1.9890 -2.1261 0.0000 29.3537 0.0000
# 6 0.0000 0.0000 0.0000 -9.3856 0.0000 20.5300
#
#
#
# Elastic Compliance Matrix: (Units=1/GPa)
#
#
# Indices 1 2 3 4 5 6 
#
# 1 0.008358 -0.003697 -0.003101 0.000000 -0.000233 0.000000
# 2 -0.003697 0.017577 -0.003920 0.000000 0.000800 0.000000
# 3 -0.003101 -0.003920 0.014410 0.000000 0.000688 0.000000
# 4 0.000000 0.000000 0.000000 0.025086 0.000000 0.011468
# 5 -0.000233 0.000800 0.000688 0.000000 0.034165 0.000000
# 6 0.000000 0.000000 0.000000 0.011468 0.000000 0.053952
#
#
# Mechanical properties :
#
#
# Convention : Reuss Voigt Hill
#
# Bulk Modulus (GPa) = 52.87711 60.92803 56.90257
# Shear Modulus (GPa) = 27.58080 32.00475 29.79277
#
# Velocity S-wave (km/s) = 3.97081 4.27743 4.12697
# Velocity P-wave (km/s) = 7.15903 7.69587 7.43230
#
# Compressibility (1/GPa) = 0.01891177
#
# Stress axis : x y z
#
# Youngs Moduli (GPa) = 119.64273 56.89261 69.39528
#
# Poissons Ratio (x) = 0.21031 0.21517
# Poissons Ratio (y) = 0.44227 0.27200
# Poissons Ratio (z) = 0.37097 0.22299
#
# Static dielectric constant tensor:
#      x y z
#    x 3.942050 0.000000 -0.029370 
#    y 0.000000 3.083170 0.000000 
#    z -0.029370 0.000000 3.451790 
# 
# 
# High freq. dielectric constant tensor:
#      x y z
#    x 1.684090 0.000000 -0.000620 
#    y 0.000000 1.618250 0.000000 
#    z -0.000620 0.000000 1.696190 
# 
# From -- ./inp_files/41773.got.cif
#   From: 2010.06.25/outbox.cif.g09.slc.cpg/sg15_21_cif.got.tgz:41773.got - 2010.06.28 07:06:18.
