data_PCOD8140437
_publ_section_title
;
Structure prediction by ZEFSAII (Michael W. Deem and Ramdas Pophale) SiO2 
 PCOD8140437
Probable space group: C 2/C
;
_chemical_formula_sum "Si O2"
_cell_formula_units_Z 56
_cell_length_a 20.730240
_cell_length_b 9.171934
_cell_length_c 14.194526
_cell_angle_alpha 90.000000
_cell_angle_beta 98.973504
_cell_angle_gamma 90.000000
_cell_volume 2665.863045
_symmetry_space_group_name_H-M "C 2/C"
_symmetry_group_IT_number 15
_symmetry_cell_setting 'monoclinic'
loop_
_space_group_symop_operation_xyz
x,y,z
-x,y,1/2-z
-x,-y,-z
x,-y,1/2+z
1/2+x,1/2+y,z
1/2-x,1/2+y,1/2-z
1/2-x,1/2-y,-z
1/2+x,1/2-y,1/2+z
loop_
_atom_site_type_symbol
_atom_site_label
_atom_site_fract_x
_atom_site_fract_y
_atom_site_fract_z
Si Si1 0.307574 0.280777 0.223086
Si Si2 0.903355 0.357257 0.874665
Si Si3 0.769101 0.980066 0.866049
Si Si4 0.349506 0.010151 0.538515
Si Si5 0.510033 0.097526 0.860475
Si Si6 0.351772 0.317939 0.033104
Si Si7 0.996103 0.831690 0.012932
O O1 0.366222 0.173076 0.269173
O O2 0.247408 0.171148 0.191338
O O3 0.294955 0.401556 0.298665
O O4 0.328260 0.363169 0.132293
O O5 0.953059 0.491317 0.882148
O O6 0.850112 0.392061 0.944366
O O7 0.944097 0.212940 0.907043
O O8 0.707445 0.059023 0.902647
O O9 0.825562 0.938356 0.953882
O O10 0.419975 0.022142 0.605546
O O11 0.326880 0.845873 0.505651
O O12 0.500000 0.136682 0.750000
O O13 0.501976 0.247257 0.915270
O O14 0.429076 0.301512 0.050393
O O15 0.000000 0.000000 0.000000
#
# Coordination Sequence:
#
# PCOD8140437 Si02
#       7
#     8   8   8   8   8   8   8
#     4  11  26  43  67  99 124 180 218 271 324 398
#     4  11  22  41  70  96 129 168 226 264 328 391
#     4  11  26  43  66  96 132 171 226 261 335 386
#     4  10  20  41  68  93 128 176 207 277 318 389
#     4  11  21  40  68 101 123 167 226 269 323 390
#     4  11  22  45  66  90 139 172 211 267 336 389
#     4  11  23  43  64  95 136 171 210 271 337 387
#
# _framework density 21.006330999999999
#
# number of rings (size 3 to 8) (size 9 to 14) (size 15 to 20)
#    0.000    1.143    2.857    5.143    4.000    1.714 
#   10.286    0.000    0.000    0.000    0.000    0.000 
#    0.000    0.000    0.000    0.000    0.000    0.000 
#
# Total GULP energy -347171.745715 kJ/mol
# GULP energy per Si atom -12398.990918 kJ/mol
# Density = 2.095852 g / cm^3
# Si number density = 21.006331 Si / 1000 Ang^3
#
#
#
# Elastic Constant Matrix: (Units=GPa)
#
#
# Indices 1 2 3 4 5 6 
#
# 1 82.6055 28.3351 47.0114 0.0000 -15.0292 0.0000
# 2 28.3351 102.9313 50.3435 0.0000 -9.3729 0.0000
# 3 47.0114 50.3435 114.5779 0.0000 -1.5778 0.0000
# 4 0.0000 0.0000 0.0000 40.6971 0.0000 -5.1863
# 5 -15.0292 -9.3729 -1.5778 0.0000 33.5552 0.0000
# 6 0.0000 0.0000 0.0000 -5.1863 0.0000 19.8102
#
#
#
# Elastic Compliance Matrix: (Units=1/GPa)
#
#
# Indices 1 2 3 4 5 6 
#
# 1 0.017559 -0.000884 -0.006716 0.000000 0.007302 0.000000
# 2 -0.000884 0.012773 -0.005209 0.000000 0.002927 0.000000
# 3 -0.006716 -0.005209 0.013719 0.000000 -0.003818 0.000000
# 4 0.000000 0.000000 0.000000 0.025420 0.000000 0.006655
# 5 0.007302 0.002927 -0.003818 0.000000 0.033710 0.000000
# 6 0.000000 0.000000 0.000000 0.006655 0.000000 0.052221
#
#
# Mechanical properties :
#
#
# Convention : Reuss Voigt Hill
#
# Bulk Modulus (GPa) = 54.24816 61.27719 57.76268
# Shear Modulus (GPa) = 26.71432 30.44083 28.57757
#
# Velocity S-wave (km/s) = 3.57000 3.81087 3.69240
# Velocity P-wave (km/s) = 6.54782 6.97121 6.76283
#
# Compressibility (1/GPa) = 0.01843380
#
# Stress axis : x y z
#
# Youngs Moduli (GPa) = 56.94934 78.29073 72.89006
#
# Poissons Ratio (x) = 0.06923 0.48950
# Poissons Ratio (y) = 0.05036 0.37969
# Poissons Ratio (z) = 0.38245 0.40782
#
# Static dielectric constant tensor:
#      x y z
#    x 3.659230 0.000000 -0.020570 
#    y 0.000000 3.492200 0.000000 
#    z -0.020570 0.000000 3.923210 
# 
# 
# High freq. dielectric constant tensor:
#      x y z
#    x 1.831710 0.000000 -0.000870 
#    y 0.000000 1.813030 0.000000 
#    z -0.000870 0.000000 1.828750 
# 
# From -- ./inp_files/166638.got.cif
#   From: 2010.06.25/outbox.cif.g09.slc.cpg/sg15_84_cif.got.tgz:166638.got - 2010.06.28 07:06:18.
