data_PCOD8140458
_publ_section_title
;
Structure prediction by ZEFSAII (Michael W. Deem and Ramdas Pophale) SiO2 
 PCOD8140458
Probable space group: C 2/C
;
_chemical_formula_sum "Si O2"
_cell_formula_units_Z 40
_cell_length_a 8.095628
_cell_length_b 24.853409
_cell_length_c 7.192117
_cell_angle_alpha 90.000000
_cell_angle_beta 92.298524
_cell_angle_gamma 90.000000
_cell_volume 1445.918095
_symmetry_space_group_name_H-M "C 2/C"
_symmetry_group_IT_number 15
_symmetry_cell_setting 'monoclinic'
loop_
_space_group_symop_operation_xyz
x,y,z
-x,y,1/2-z
-x,-y,-z
x,-y,1/2+z
1/2+x,1/2+y,z
1/2-x,1/2+y,1/2-z
1/2-x,1/2-y,-z
1/2+x,1/2-y,1/2+z
loop_
_atom_site_type_symbol
_atom_site_label
_atom_site_fract_x
_atom_site_fract_y
_atom_site_fract_z
Si Si1 0.685549 0.027642 0.211000
Si Si2 0.123504 0.109070 0.087978
Si Si3 0.688352 0.201591 0.237803
Si Si4 0.822623 0.924022 0.347336
Si Si5 0.188646 0.313696 0.309171
O O1 0.500000 0.008729 0.250000
O O2 0.727479 0.066793 0.385454
O O3 0.808231 0.976082 0.213781
O O4 0.711754 0.061516 0.023166
O O5 0.197863 0.169645 0.107405
O O6 0.000000 0.098267 0.250000
O O7 0.014945 0.093701 0.899937
O O8 0.500000 0.184187 0.250000
O O9 0.710991 0.264875 0.280461
O O10 0.738670 0.186055 0.029657
O O11 0.741753 0.872374 0.234449
O O12 0.000000 0.302453 0.250000
#
# Coordination Sequence:
#
# PCOD8140458 Si02
#       5
#     8   8   8   8   8
#     4  11  22  40  68 100 136 178 230 277 335 407
#     4  10  20  41  69  93 133 181 220 274 339 396
#     4  11  24  46  74 100 136 183 226 280 348 407
#     4  11  24  44  67  99 139 182 223 281 341 396
#     4  11  25  44  70 101 142 176 228 284 339 406
#
# _framework density 27.664086000000001
#
# number of rings (size 3 to 8) (size 9 to 14) (size 15 to 20)
#    0.000    1.200    4.000    3.000    2.800    0.800 
#    0.000    3.000    0.000    0.000    0.000    0.000 
#    0.000    0.000    0.000    0.000    0.000    0.000 
#
# Total GULP energy -248031.940508 kJ/mol
# GULP energy per Si atom -12401.597025 kJ/mol
# Density = 2.760112 g / cm^3
# Si number density = 27.664086 Si / 1000 Ang^3
#
#
#
# Elastic Constant Matrix: (Units=GPa)
#
#
# Indices 1 2 3 4 5 6 
#
# 1 140.8965 47.6674 31.4037 0.0000 15.1662 0.0000
# 2 47.6674 228.5025 58.3159 0.0000 19.5957 0.0000
# 3 31.4037 58.3159 118.0756 0.0000 19.0695 0.0000
# 4 0.0000 0.0000 0.0000 41.5608 0.0000 8.3262
# 5 15.1662 19.5957 19.0695 0.0000 35.5498 0.0000
# 6 0.0000 0.0000 0.0000 8.3262 0.0000 55.3498
#
#
#
# Elastic Compliance Matrix: (Units=1/GPa)
#
#
# Indices 1 2 3 4 5 6 
#
# 1 0.007992 -0.001179 -0.001202 0.000000 -0.002115 0.000000
# 2 -0.001179 0.005263 -0.002078 0.000000 -0.001283 0.000000
# 3 -0.001202 -0.002078 0.010453 0.000000 -0.003949 0.000000
# 4 0.000000 0.000000 0.000000 0.024809 0.000000 -0.003732
# 5 -0.002115 -0.001283 -0.003949 0.000000 0.031857 0.000000
# 6 0.000000 0.000000 0.000000 -0.003732 0.000000 0.018628
#
#
# Mechanical properties :
#
#
# Convention : Reuss Voigt Hill
#
# Bulk Modulus (GPa) = 67.61646 84.69427 76.15537
# Shear Modulus (GPa) = 44.30665 49.83125 47.06895
#
# Velocity S-wave (km/s) = 4.00633 4.24877 4.12933
# Velocity P-wave (km/s) = 6.77466 7.39940 7.09391
#
# Compressibility (1/GPa) = 0.01478930
#
# Stress axis : x y z
#
# Youngs Moduli (GPa) = 125.12838 190.01499 95.66666
#
# Poissons Ratio (x) = 0.22405 0.11495
# Poissons Ratio (y) = 0.14754 0.19883
# Poissons Ratio (z) = 0.15035 0.39492
#
# Static dielectric constant tensor:
#      x y z
#    x 4.892950 0.000000 0.268520 
#    y 0.000000 5.192020 0.000000 
#    z 0.268520 0.000000 5.609060 
# 
# 
# High freq. dielectric constant tensor:
#      x y z
#    x 2.120640 0.000000 -0.005630 
#    y 0.000000 2.132550 0.000000 
#    z -0.005630 0.000000 2.146740 
# 
# From -- ./inp_files/23766.got.cif
#   From: 2010.06.25/outbox.cif.g09.slc.cpg/sg15_12_cif.got.tgz:23766.got - 2010.06.28 07:06:18.
