data_PCOD8140768
_publ_section_title
;
Structure prediction by ZEFSAII (Michael W. Deem and Ramdas Pophale) SiO2 
 PCOD8140768
Probable space group: C 2/C
;
_chemical_formula_sum "Si O2"
_cell_formula_units_Z 48
_cell_length_a 21.794211
_cell_length_b 11.338542
_cell_length_c 14.137292
_cell_angle_alpha 90.000000
_cell_angle_beta 141.980906
_cell_angle_gamma 90.000000
_cell_volume 2151.749713
_symmetry_space_group_name_H-M "C 2/C"
_symmetry_group_IT_number 15
_symmetry_cell_setting 'monoclinic'
loop_
_space_group_symop_operation_xyz
x,y,z
-x,y,1/2-z
-x,-y,-z
x,-y,1/2+z
1/2+x,1/2+y,z
1/2-x,1/2+y,1/2-z
1/2-x,1/2-y,-z
1/2+x,1/2-y,1/2+z
loop_
_atom_site_type_symbol
_atom_site_label
_atom_site_fract_x
_atom_site_fract_y
_atom_site_fract_z
Si Si1 0.156755 0.566512 0.684917
Si Si2 0.643061 0.177098 0.267624
Si Si3 0.794357 0.623305 0.957237
Si Si4 0.323783 0.604632 0.168997
Si Si5 0.665651 0.296069 0.019085
Si Si6 0.990588 0.759787 0.949499
O O1 0.146223 0.430354 0.697767
O O2 0.139233 0.583860 0.551233
O O3 0.267982 0.609591 0.843400
O O4 0.074945 0.640792 0.643541
O O5 0.745310 0.249298 0.378914
O O6 0.633261 0.131601 0.363447
O O7 0.548343 0.256718 0.120550
O O8 0.703622 0.532659 0.866328
O O9 0.223942 0.674020 0.075667
O O10 0.413264 0.629977 0.352553
O O11 0.364367 0.646945 0.117021
O O12 0.566604 0.267187 0.955554
#
# Coordination Sequence:
#
# PCOD8140768 Si02
#       6
#     8   8   8   8   8   8
#     4  11  23  43  72  98 139 191 236 292 354 430
#     4  11  24  44  65 103 138 187 238 283 364 424
#     4  11  24  43  70  95 147 190 224 294 366 429
#     4  10  22  40  70 101 135 189 233 296 358 411
#     4  10  20  43  67 101 137 179 240 293 348 422
#     4  11  23  41  70 104 132 178 246 294 343 417
#
# _framework density 22.307427000000001
#
# number of rings (size 3 to 8) (size 9 to 14) (size 15 to 20)
#    0.000    1.333    3.333    2.000    2.333    1.333 
#    3.000    0.000    3.667    0.000    0.000    0.000 
#    0.000    0.000    0.000    0.000    0.000    0.000 
#
# Total GULP energy -297641.447455 kJ/mol
# GULP energy per Si atom -12401.726977 kJ/mol
# Density = 2.225665 g / cm^3
# Si number density = 22.307427 Si / 1000 Ang^3
#
#
#
# Elastic Constant Matrix: (Units=GPa)
#
#
# Indices 1 2 3 4 5 6 
#
# 1 101.3204 19.6946 47.7032 0.0000 11.0054 0.0000
# 2 19.6946 52.3236 26.1985 0.0000 5.6025 0.0000
# 3 47.7032 26.1985 115.7998 0.0000 -12.9751 0.0000
# 4 0.0000 0.0000 0.0000 30.4781 0.0000 -4.1680
# 5 11.0054 5.6025 -12.9751 0.0000 31.6629 0.0000
# 6 0.0000 0.0000 0.0000 -4.1680 0.0000 22.9665
#
#
#
# Elastic Compliance Matrix: (Units=1/GPa)
#
#
# Indices 1 2 3 4 5 6 
#
# 1 0.013812 -0.001344 -0.006181 0.000000 -0.007095 0.000000
# 2 -0.001344 0.022867 -0.005262 0.000000 -0.005735 0.000000
# 3 -0.006181 -0.005262 0.013329 0.000000 0.008541 0.000000
# 4 0.000000 0.000000 0.000000 0.033645 0.000000 0.006106
# 5 -0.007095 -0.005735 0.008541 0.000000 0.038564 0.000000
# 6 0.000000 0.000000 0.000000 0.006106 0.000000 0.044650
#
#
# Mechanical properties :
#
#
# Convention : Reuss Voigt Hill
#
# Bulk Modulus (GPa) = 40.92755 50.73740 45.83247
# Shear Modulus (GPa) = 24.92704 28.74465 26.83585
#
# Velocity S-wave (km/s) = 3.34643 3.59356 3.47219
# Velocity P-wave (km/s) = 5.77220 6.32552 6.05519
#
# Compressibility (1/GPa) = 0.02443342
#
# Stress axis : x y z
#
# Youngs Moduli (GPa) = 72.40302 43.73167 75.02330
#
# Poissons Ratio (x) = 0.05879 0.46368
# Poissons Ratio (y) = 0.09734 0.39479
# Poissons Ratio (z) = 0.44749 0.23012
#
# Static dielectric constant tensor:
#      x y z
#    x 3.843300 0.000000 -0.225540 
#    y 0.000000 3.974720 0.000000 
#    z -0.225540 0.000000 4.254070 
# 
# 
# High freq. dielectric constant tensor:
#      x y z
#    x 1.867110 0.000000 -0.011120 
#    y 0.000000 1.874080 0.000000 
#    z -0.011120 0.000000 1.884910 
# 
# From -- ./inp_files/167916.got.cif
#   From: 2010.06.25/outbox.cif.g09.slc.cpg/sg15_84_cif.got.tgz:167916.got - 2010.06.28 07:06:18.
