data_PCOD8140882
_publ_section_title
;
Structure prediction by ZEFSAII (Michael W. Deem and Ramdas Pophale) SiO2 
 PCOD8140882
Probable space group: C 2/C
;
_chemical_formula_sum "Si O2"
_cell_formula_units_Z 52
_cell_length_a 8.649959
_cell_length_b 15.199346
_cell_length_c 19.768203
_cell_angle_alpha 90.000000
_cell_angle_beta 102.820750
_cell_angle_gamma 90.000000
_cell_volume 2534.203676
_symmetry_space_group_name_H-M "C 2/C"
_symmetry_group_IT_number 15
_symmetry_cell_setting 'monoclinic'
loop_
_space_group_symop_operation_xyz
x,y,z
-x,y,1/2-z
-x,-y,-z
x,-y,1/2+z
1/2+x,1/2+y,z
1/2-x,1/2+y,1/2-z
1/2-x,1/2-y,-z
1/2+x,1/2-y,1/2+z
loop_
_atom_site_type_symbol
_atom_site_label
_atom_site_fract_x
_atom_site_fract_y
_atom_site_fract_z
Si Si1 0.147066 0.305883 0.415374
Si Si2 0.565140 0.963968 0.330008
Si Si3 0.847905 0.120672 0.049760
Si Si4 0.500000 0.547545 0.250000
Si Si5 0.745207 0.534650 0.874588
Si Si6 0.173281 0.889414 0.638702
Si Si7 0.699733 0.219092 0.569447
O O1 0.128362 0.363622 0.345437
O O2 0.187702 0.203967 0.402573
O O3 0.289708 0.352248 0.470011
O O4 0.988269 0.301990 0.446432
O O5 0.500000 0.979042 0.250000
O O6 0.423683 0.976121 0.367852
O O7 0.700177 0.034121 0.359897
O O8 0.035354 0.098126 0.068856
O O9 0.757252 0.034848 0.065112
O O10 0.380522 0.485400 0.196837
O O11 0.400958 0.607986 0.292757
O O12 0.706002 0.631238 0.899790
O O13 0.247403 0.793478 0.630065
O O14 0.750000 0.250000 0.500000
#
# Coordination Sequence:
#
# PCOD8140882 Si02
#       7
#     8   8   8   4   8   8   8
#     4   9  21  41  63  92 126 162 214 251 330 381
#     4  11  22  40  62  93 122 165 211 257 320 384
#     4   9  20  42  62  91 120 166 208 262 317 378
#     4  10  20  46  58  86 124 168 214 252 316 386
#     4  10  22  41  62  88 126 165 208 261 316 377
#     4  10  22  41  64  91 126 166 210 263 318 384
#     4  10  23  41  61  96 128 164 211 267 323 376
#
# _framework density 20.519265999999998
#
# number of rings (size 3 to 8) (size 9 to 14) (size 15 to 20)
#    0.000    2.154    1.538    0.000    4.308    1.846 
#   37.385    0.000    0.000    0.000    0.000    0.000 
#    0.000    0.000    0.000    0.000    0.000    0.000 
#
# Total GULP energy -322227.324446 kJ/mol
# GULP energy per Si atom -12393.358633 kJ/mol
# Density = 2.047256 g / cm^3
# Si number density = 20.519266 Si / 1000 Ang^3
#
#
#
# Elastic Constant Matrix: (Units=GPa)
#
#
# Indices 1 2 3 4 5 6 
#
# 1 68.8605 52.7765 37.4514 0.0000 0.1968 0.0000
# 2 52.7765 179.3036 56.5585 0.0000 -8.4100 0.0000
# 3 37.4514 56.5585 77.6957 0.0000 3.5546 0.0000
# 4 0.0000 0.0000 0.0000 36.9703 0.0000 1.1202
# 5 0.1968 -8.4100 3.5546 0.0000 33.5645 0.0000
# 6 0.0000 0.0000 0.0000 1.1202 0.0000 35.3092
#
#
#
# Elastic Compliance Matrix: (Units=1/GPa)
#
#
# Indices 1 2 3 4 5 6 
#
# 1 0.021698 -0.004035 -0.007506 0.000000 -0.000343 0.000000
# 2 -0.004035 0.008185 -0.004128 0.000000 0.002512 0.000000
# 3 -0.007506 -0.004128 0.019634 0.000000 -0.003070 0.000000
# 4 0.000000 0.000000 0.000000 0.027075 0.000000 -0.000859
# 5 -0.000343 0.002512 -0.003070 0.000000 0.030750 0.000000
# 6 0.000000 0.000000 0.000000 -0.000859 0.000000 0.028348
#
#
# Mechanical properties :
#
#
# Convention : Reuss Voigt Hill
#
# Bulk Modulus (GPa) = 55.00890 68.82584 61.91737
# Shear Modulus (GPa) = 28.88711 33.10702 30.99707
#
# Velocity S-wave (km/s) = 3.75614 4.02115 3.89090
# Velocity P-wave (km/s) = 6.75856 7.42795 7.10114
#
# Compressibility (1/GPa) = 0.01817888
#
# Stress axis : x y z
#
# Youngs Moduli (GPa) = 46.08726 122.17886 50.93157
#
# Poissons Ratio (x) = 0.49300 0.38229
# Poissons Ratio (y) = 0.18597 0.21024
# Poissons Ratio (z) = 0.34593 0.50435
#
# Static dielectric constant tensor:
#      x y z
#    x 3.731100 0.000000 0.192890 
#    y 0.000000 4.116610 0.000000 
#    z 0.192890 0.000000 3.474950 
# 
# 
# High freq. dielectric constant tensor:
#      x y z
#    x 1.797330 0.000000 0.013240 
#    y 0.000000 1.818010 0.000000 
#    z 0.013240 0.000000 1.784740 
# 
# From -- ./inp_files/231234.got.cif
#   From: 2010.06.25/outbox.cif.g09.slc.cpg/sg15_116_cif.got.tgz:231234.got - 2010.06.28 07:06:18.
