data_PCOD8140462
_publ_section_title
;
Structure prediction by ZEFSAII (Michael W. Deem and Ramdas Pophale) SiO2 
 PCOD8140462
Probable space group: C 2/C
;
_chemical_formula_sum "Si O2"
_cell_formula_units_Z 44
_cell_length_a 12.815331
_cell_length_b 15.396774
_cell_length_c 11.998273
_cell_angle_alpha 90.000000
_cell_angle_beta 59.971359
_cell_angle_gamma 90.000000
_cell_volume 2049.668004
_symmetry_space_group_name_H-M "C 2/C"
_symmetry_group_IT_number 15
_symmetry_cell_setting 'monoclinic'
loop_
_space_group_symop_operation_xyz
x,y,z
-x,y,1/2-z
-x,-y,-z
x,-y,1/2+z
1/2+x,1/2+y,z
1/2-x,1/2+y,1/2-z
1/2-x,1/2-y,-z
1/2+x,1/2-y,1/2+z
loop_
_atom_site_type_symbol
_atom_site_label
_atom_site_fract_x
_atom_site_fract_y
_atom_site_fract_z
Si Si1 0.828480 0.345535 0.659998
Si Si2 0.063410 0.114331 0.329239
Si Si3 0.000000 0.585966 0.250000
Si Si4 0.693715 0.025738 0.516007
Si Si5 0.657110 0.342647 0.417010
Si Si6 0.623518 0.427949 0.219481
O O1 0.692998 0.342205 0.781071
O O2 0.925324 0.350490 0.708302
O O3 0.853977 0.431495 0.572689
O O4 0.838818 0.261309 0.575558
O O5 0.000000 0.150906 0.250000
O O6 0.979719 0.131962 0.479869
O O7 0.082803 0.012288 0.309768
O O8 0.088683 0.521489 0.137681
O O9 0.750862 0.105846 0.553465
O O10 0.793199 0.952844 0.430548
O O11 0.691061 0.365839 0.270932
O O12 0.500000 0.379807 0.250000
#
# Coordination Sequence:
#
# PCOD8140462 Si02
#       6
#     8   8   4   8   8   8
#     4  11  26  43  64 104 137 172 224 279 347 394
#     4  10  20  41  69  96 126 170 233 278 318 398
#     4  12  28  46  68  94 150 186 210 272 348 424
#     4  11  23  45  69  94 129 184 232 259 328 416
#     4  12  23  40  70 100 134 172 223 295 330 379
#     4  10  21  37  65  97 126 165 228 269 331 392
#
# _framework density 21.466891
#
# number of rings (size 3 to 8) (size 9 to 14) (size 15 to 20)
#    0.000    1.091    5.455    3.818    3.818    2.909 
#    0.000    1.818    0.000    0.000    0.000    0.000 
#    0.000    0.000    0.000    0.000    0.000    0.000 
#
# Total GULP energy -272737.124919 kJ/mol
# GULP energy per Si atom -12397.142042 kJ/mol
# Density = 2.141803 g / cm^3
# Si number density = 21.466891 Si / 1000 Ang^3
#
#
#
# Elastic Constant Matrix: (Units=GPa)
#
#
# Indices 1 2 3 4 5 6 
#
# 1 119.9808 22.2695 45.8593 0.0000 -0.1496 0.0000
# 2 22.2695 52.0802 32.0730 0.0000 -9.1940 0.0000
# 3 45.8593 32.0730 90.7515 0.0000 -17.0201 0.0000
# 4 0.0000 0.0000 0.0000 20.8576 0.0000 13.0809
# 5 -0.1496 -9.1940 -17.0201 0.0000 38.9139 0.0000
# 6 0.0000 0.0000 0.0000 13.0809 0.0000 25.7022
#
#
#
# Elastic Compliance Matrix: (Units=1/GPa)
#
#
# Indices 1 2 3 4 5 6 
#
# 1 0.010677 -0.001798 -0.005264 0.000000 -0.002686 0.000000
# 2 -0.001798 0.025017 -0.007436 0.000000 0.002652 0.000000
# 3 -0.005264 -0.007436 0.017401 0.000000 0.005834 0.000000
# 4 0.000000 0.000000 0.000000 0.070421 0.000000 -0.035840
# 5 -0.002686 0.002652 0.005834 0.000000 0.028865 0.000000
# 6 0.000000 0.000000 0.000000 -0.035840 0.000000 0.057148
#
#
# Mechanical properties :
#
#
# Convention : Reuss Voigt Hill
#
# Bulk Modulus (GPa) = 41.49283 51.46845 46.48064
# Shear Modulus (GPa) = 20.27921 27.93546 24.10733
#
# Velocity S-wave (km/s) = 3.07689 3.61131 3.35476
# Velocity P-wave (km/s) = 5.65630 6.43556 6.05847
#
# Compressibility (1/GPa) = 0.02410055
#
# Stress axis : x y z
#
# Youngs Moduli (GPa) = 93.65985 39.97242 57.46835
#
# Poissons Ratio (x) = 0.07187 0.30249
# Poissons Ratio (y) = 0.16841 0.42731
# Poissons Ratio (z) = 0.49299 0.29722
#
# Static dielectric constant tensor:
#      x y z
#    x 4.111950 0.000000 -0.017190 
#    y 0.000000 3.617660 0.000000 
#    z -0.017190 0.000000 3.848730 
# 
# 
# High freq. dielectric constant tensor:
#      x y z
#    x 1.846720 0.000000 0.001010 
#    y 0.000000 1.822110 0.000000 
#    z 0.001010 0.000000 1.841950 
# 
# From -- ./inp_files/87728.got.cif
#   From: 2010.06.25/outbox.cif.g09.slc.cpg/sg15_44_cif.got.tgz:87728.got - 2010.06.28 07:06:18.
