data_PCOD8140411
_publ_section_title
;
Structure prediction by ZEFSAII (Michael W. Deem and Ramdas Pophale) SiO2 
 PCOD8140411
Probable space group: C 2/C
;
_chemical_formula_sum "Si O2"
_cell_formula_units_Z 48
_cell_length_a 17.888273
_cell_length_b 14.782541
_cell_length_c 8.609168
_cell_angle_alpha 90.000000
_cell_angle_beta 94.679418
_cell_angle_gamma 90.000000
_cell_volume 2268.969521
_symmetry_space_group_name_H-M "C 2/C"
_symmetry_group_IT_number 15
_symmetry_cell_setting 'monoclinic'
loop_
_space_group_symop_operation_xyz
x,y,z
-x,y,1/2-z
-x,-y,-z
x,-y,1/2+z
1/2+x,1/2+y,z
1/2-x,1/2+y,1/2-z
1/2-x,1/2-y,-z
1/2+x,1/2-y,1/2+z
loop_
_atom_site_type_symbol
_atom_site_label
_atom_site_fract_x
_atom_site_fract_y
_atom_site_fract_z
Si Si1 0.918685 0.628794 0.719394
Si Si2 0.732363 0.913509 0.796583
Si Si3 0.054715 0.964528 0.879584
Si Si4 0.153462 0.064242 0.663115
Si Si5 0.864190 0.498510 0.467060
Si Si6 0.234554 0.724723 0.821276
O O1 0.913899 0.576354 0.555048
O O2 0.914865 0.555134 0.855358
O O3 0.852394 0.701224 0.720256
O O4 0.000000 0.676841 0.750000
O O5 0.747844 0.807099 0.790270
O O6 0.807197 0.967125 0.857204
O O7 0.705932 0.951277 0.625411
O O8 0.667694 0.928366 0.912118
O O9 0.000000 0.908984 0.750000
O O10 0.092939 0.048151 0.790388
O O11 0.116481 0.907104 0.988471
O O12 0.000000 0.000000 0.000000
O O13 0.213796 0.140000 0.721581
O O14 0.250000 0.750000 0.000000
#
# Coordination Sequence:
#
# PCOD8140411 Si02
#       6
#     8   8   8   8   8   8
#     4  11  23  41  65  97 132 169 213 266 335 386
#     4  11  21  39  66  98 123 161 219 268 315 372
#     4   9  20  38  62  91 124 168 208 260 318 382
#     4  11  20  39  68  89 124 171 216 260 322 383
#     4  10  20  41  67  93 128 167 213 270 323 378
#     4  12  23  39  67  96 129 169 219 272 316 384
#
# _framework density 21.154979000000001
#
# number of rings (size 3 to 8) (size 9 to 14) (size 15 to 20)
#    0.000    1.333    5.000    2.500    0.000    0.667 
#    0.000    8.333    3.667    0.000    0.000    0.000 
#    0.000    0.000    0.000    0.000    0.000    0.000 
#
# Total GULP energy -297465.459819 kJ/mol
# GULP energy per Si atom -12394.394159 kJ/mol
# Density = 2.110683 g / cm^3
# Si number density = 21.154979 Si / 1000 Ang^3
#
#
#
# Elastic Constant Matrix: (Units=GPa)
#
#
# Indices 1 2 3 4 5 6 
#
# 1 144.9214 40.5163 38.2769 0.0000 22.3004 0.0000
# 2 40.5163 93.9692 17.1575 0.0000 9.3363 0.0000
# 3 38.2769 17.1575 91.7140 0.0000 14.2296 0.0000
# 4 0.0000 0.0000 0.0000 25.1845 0.0000 1.7795
# 5 22.3004 9.3363 14.2296 0.0000 32.8082 0.0000
# 6 0.0000 0.0000 0.0000 1.7795 0.0000 13.1333
#
#
#
# Elastic Compliance Matrix: (Units=1/GPa)
#
#
# Indices 1 2 3 4 5 6 
#
# 1 0.009069 -0.003025 -0.002569 0.000000 -0.004189 0.000000
# 2 -0.003025 0.012207 -0.000859 0.000000 -0.001045 0.000000
# 3 -0.002569 -0.000859 0.012681 0.000000 -0.003509 0.000000
# 4 0.000000 0.000000 0.000000 0.040091 0.000000 -0.005432
# 5 -0.004189 -0.001045 -0.003509 0.000000 0.035147 0.000000
# 6 0.000000 0.000000 0.000000 -0.005432 0.000000 0.076878
#
#
# Mechanical properties :
#
#
# Convention : Reuss Voigt Hill
#
# Bulk Modulus (GPa) = 47.50470 58.05623 52.78046
# Shear Modulus (GPa) = 24.27232 29.86880 27.07056
#
# Velocity S-wave (km/s) = 3.39094 3.76161 3.58107
# Velocity P-wave (km/s) = 6.15107 6.80949 6.48863
#
# Compressibility (1/GPa) = 0.02105055
#
# Stress axis : x y z
#
# Youngs Moduli (GPa) = 110.26280 81.92199 78.85912
#
# Poissons Ratio (x) = 0.24782 0.20260
# Poissons Ratio (y) = 0.33355 0.06774
# Poissons Ratio (z) = 0.28328 0.07037
#
# Static dielectric constant tensor:
#      x y z
#    x 4.250470 0.000000 0.514290 
#    y 0.000000 3.794630 0.000000 
#    z 0.514290 0.000000 4.454350 
# 
# 
# High freq. dielectric constant tensor:
#      x y z
#    x 1.839940 0.000000 0.007630 
#    y 0.000000 1.787690 0.000000 
#    z 0.007630 0.000000 1.847160 
# 
# From -- ./inp_files/47467.got.cif
#   From: 2010.06.25/outbox.cif.g09.slc.cpg/sg15_24_cif.got.tgz:47467.got - 2010.06.28 07:06:18.
