data_PCOD8140239
_publ_section_title
;
Structure prediction by ZEFSAII (Michael W. Deem and Ramdas Pophale) SiO2 
 PCOD8140239
Probable space group: C 2/C
;
_chemical_formula_sum "Si O2"
_cell_formula_units_Z 36
_cell_length_a 14.399602
_cell_length_b 10.166709
_cell_length_c 14.886530
_cell_angle_alpha 90.000000
_cell_angle_beta 138.877729
_cell_angle_gamma 90.000000
_cell_volume 1433.280330
_symmetry_space_group_name_H-M "C 2/C"
_symmetry_group_IT_number 15
_symmetry_cell_setting 'monoclinic'
loop_
_space_group_symop_operation_xyz
x,y,z
-x,y,1/2-z
-x,-y,-z
x,-y,1/2+z
1/2+x,1/2+y,z
1/2-x,1/2+y,1/2-z
1/2-x,1/2-y,-z
1/2+x,1/2-y,1/2+z
loop_
_atom_site_type_symbol
_atom_site_label
_atom_site_fract_x
_atom_site_fract_y
_atom_site_fract_z
Si Si1 0.000000 0.353851 0.250000
Si Si2 0.208243 0.961628 0.100821
Si Si3 0.136867 0.858591 0.395238
Si Si4 0.198780 0.465296 0.139824
Si Si5 0.525435 0.212368 0.960571
O O1 0.144115 0.438920 0.344601
O O2 0.008149 0.259276 0.341942
O O3 0.241665 0.024069 0.222604
O O4 0.117748 0.832446 0.064033
O O5 0.112342 0.057265 0.969168
O O6 0.250000 0.750000 0.500000
O O7 0.181263 0.954266 0.346942
O O8 0.000000 0.789847 0.250000
O O9 0.095961 0.570867 0.021949
O O10 0.125295 0.319180 0.100985
#
# Coordination Sequence:
#
# PCOD8140239 Si02
#       5
#     4   8   8   8   8
#     4  10  20  40  72 108 146 188 246 324 370 436
#     4  11  25  44  78 105 148 199 255 309 379 461
#     4  12  31  49  75 108 155 201 254 313 386 460
#     4  10  25  45  72 111 150 196 245 320 383 443
#     4  10  22  43  74 107 150 190 249 313 383 446
#
# _framework density 25.117207000000001
#
# number of rings (size 3 to 8) (size 9 to 14) (size 15 to 20)
#    0.000    1.333    2.222    0.667    9.333    2.667 
#    0.000    0.000    0.000    0.000    0.000    0.000 
#    0.000    0.000    0.000    0.000    0.000    0.000 
#
# Total GULP energy -223017.578836 kJ/mol
# GULP energy per Si atom -12389.865491 kJ/mol
# Density = 2.506004 g / cm^3
# Si number density = 25.117207 Si / 1000 Ang^3
#
#
#
# Elastic Constant Matrix: (Units=GPa)
#
#
# Indices 1 2 3 4 5 6 
#
# 1 69.8557 9.7516 27.2889 0.0000 -22.0921 0.0000
# 2 9.7516 75.1822 29.0907 0.0000 5.7595 0.0000
# 3 27.2889 29.0907 142.4651 0.0000 12.3248 0.0000
# 4 0.0000 0.0000 0.0000 29.3760 0.0000 -0.0538
# 5 -22.0921 5.7595 12.3248 0.0000 21.9650 0.0000
# 6 0.0000 0.0000 0.0000 -0.0538 0.0000 25.8118
#
#
#
# Elastic Compliance Matrix: (Units=1/GPa)
#
#
# Indices 1 2 3 4 5 6 
#
# 1 0.028496 -0.003306 -0.007712 0.000000 0.033855 0.000000
# 2 -0.003306 0.014931 -0.001881 0.000000 -0.006185 0.000000
# 3 -0.007712 -0.001881 0.009994 0.000000 -0.012871 0.000000
# 4 0.000000 0.000000 0.000000 0.034042 0.000000 0.000071
# 5 0.033855 -0.006185 -0.012871 0.000000 0.088422 0.000000
# 6 0.000000 0.000000 0.000000 0.000071 0.000000 0.038742
#
#
# Mechanical properties :
#
#
# Convention : Reuss Voigt Hill
#
# Bulk Modulus (GPa) = 36.19962 46.64058 41.42010
# Shear Modulus (GPa) = 20.02946 30.18869 25.10908
#
# Velocity S-wave (km/s) = 2.82696 3.47062 3.16520
# Velocity P-wave (km/s) = 5.00991 5.88811 5.46667
#
# Compressibility (1/GPa) = 0.02762460
#
# Stress axis : x y z
#
# Youngs Moduli (GPa) = 35.09232 66.97360 100.05925
#
# Poissons Ratio (x) = 0.22138 0.77168
# Poissons Ratio (y) = 0.11600 0.18818
# Poissons Ratio (z) = 0.27064 0.12596
#
# Static dielectric constant tensor:
#      x y z
#    x 4.965740 0.000000 -0.026290 
#    y 0.000000 4.054990 0.000000 
#    z -0.026290 0.000000 4.796180 
# 
# 
# High freq. dielectric constant tensor:
#      x y z
#    x 2.010630 0.000000 -0.009570 
#    y 0.000000 1.967380 0.000000 
#    z -0.009570 0.000000 2.021860 
# 
# From -- ./inp_files/152810.got.cif
#   From: 2010.06.25/outbox.cif.g09.slc.cpg/sg15_77_cif.got.tgz:152810.got - 2010.06.28 07:06:18.
