data_PCOD8140500
_publ_section_title
;
Structure prediction by ZEFSAII (Michael W. Deem and Ramdas Pophale) SiO2 
 PCOD8140500
Probable space group: C 2/C
;
_chemical_formula_sum "Si O2"
_cell_formula_units_Z 36
_cell_length_a 15.807502
_cell_length_b 5.410445
_cell_length_c 15.685834
_cell_angle_alpha 90.000000
_cell_angle_beta 80.012537
_cell_angle_gamma 90.000000
_cell_volume 1321.210605
_symmetry_space_group_name_H-M "C 2/C"
_symmetry_group_IT_number 15
_symmetry_cell_setting 'monoclinic'
loop_
_space_group_symop_operation_xyz
x,y,z
-x,y,1/2-z
-x,-y,-z
x,-y,1/2+z
1/2+x,1/2+y,z
1/2-x,1/2+y,1/2-z
1/2-x,1/2-y,-z
1/2+x,1/2-y,1/2+z
loop_
_atom_site_type_symbol
_atom_site_label
_atom_site_fract_x
_atom_site_fract_y
_atom_site_fract_z
Si Si1 0.000000 0.716073 0.250000
Si Si2 0.751968 0.954299 0.856296
Si Si3 0.177588 0.539966 0.188567
Si Si4 0.603463 0.183993 0.505731
Si Si5 0.439013 0.319941 0.432245
O O1 0.916827 0.544205 0.253303
O O2 0.988728 0.889343 0.335981
O O3 0.807104 0.708969 0.870575
O O4 0.743989 0.966833 0.755457
O O5 0.660562 0.921219 0.918956
O O6 0.802879 0.208395 0.871322
O O7 0.504985 0.255129 0.497104
O O8 0.630539 0.460192 0.534026
O O9 0.603849 0.957409 0.575465
#
# Coordination Sequence:
#
# PCOD8140500 Si02
#       5
#     4   8   8   8   8
#     4  12  24  46  58 106 120 168 196 284 292 390
#     4  10  20  42  61  92 117 173 203 252 293 396
#     4  10  23  36  66  88 128 158 209 249 319 349
#     4  10  20  42  61  92 117 173 203 252 293 396
#     4  10  23  36  66  88 128 158 209 249 319 349
#
# _framework density 27.247738999999999
#
# number of rings (size 3 to 8) (size 9 to 14) (size 15 to 20)
#    0.000    1.778    2.222    1.333    0.000    5.333 
#    0.000    6.667    0.000    0.000    0.000    0.000 
#    0.000    0.000    0.000    0.000    0.000    0.000 
#
# Total GULP energy -223113.074084 kJ/mol
# GULP energy per Si atom -12395.170782 kJ/mol
# Density = 2.718572 g / cm^3
# Si number density = 27.247739 Si / 1000 Ang^3
#
#
#
# Elastic Constant Matrix: (Units=GPa)
#
#
# Indices 1 2 3 4 5 6 
#
# 1 85.6823 79.2119 1.6631 0.0000 -20.6978 0.0000
# 2 79.2119 280.6099 75.9892 0.0000 -4.0403 0.0000
# 3 1.6631 75.9892 110.0148 0.0000 -14.9052 0.0000
# 4 0.0000 0.0000 0.0000 44.2804 0.0000 5.8624
# 5 -20.6978 -4.0403 -14.9052 0.0000 44.4182 0.0000
# 6 0.0000 0.0000 0.0000 5.8624 0.0000 46.6734
#
#
#
# Elastic Compliance Matrix: (Units=1/GPa)
#
#
# Indices 1 2 3 4 5 6 
#
# 1 0.021352 -0.007620 0.006490 0.000000 0.011434 0.000000
# 2 -0.007620 0.007121 -0.005444 0.000000 -0.004730 0.000000
# 3 0.006490 -0.005444 0.013718 0.000000 0.007132 0.000000
# 4 0.000000 0.000000 0.000000 0.022965 0.000000 -0.002885
# 5 0.011434 -0.004730 0.007132 0.000000 0.029804 0.000000
# 6 0.000000 0.000000 0.000000 -0.002885 0.000000 0.021788
#
#
# Mechanical properties :
#
#
# Convention : Reuss Voigt Hill
#
# Bulk Modulus (GPa) = 34.43324 87.78172 61.10748
# Shear Modulus (GPa) = 35.82233 48.37057 42.09645
#
# Velocity S-wave (km/s) = 3.62980 4.21790 3.93485
# Velocity P-wave (km/s) = 5.49834 7.48378 6.56654
#
# Compressibility (1/GPa) = 0.02904170
#
# Stress axis : x y z
#
# Youngs Moduli (GPa) = 46.83475 140.43272 72.89564
#
# Poissons Ratio (x) = 1.07010 -0.47306
# Poissons Ratio (y) = 0.35688 0.39685
# Poissons Ratio (z) = -0.30394 0.76453
#
# Static dielectric constant tensor:
#      x y z
#    x 4.975150 0.000000 0.498840 
#    y 0.000000 5.735890 0.000000 
#    z 0.498840 0.000000 4.715170 
# 
# 
# High freq. dielectric constant tensor:
#      x y z
#    x 2.128770 0.000000 0.051410 
#    y 0.000000 2.123540 0.000000 
#    z 0.051410 0.000000 2.095550 
# 
# From -- ./inp_files/112900.got.cif
#   From: 2010.06.25/outbox.cif.g09.slc.cpg/sg15_57_cif.got.tgz:112900.got - 2010.06.28 07:06:18.
