data_PCOD8140451
_publ_section_title
;
Structure prediction by ZEFSAII (Michael W. Deem and Ramdas Pophale) SiO2 
 PCOD8140451
Probable space group: C 2/C
;
_chemical_formula_sum "Si O2"
_cell_formula_units_Z 48
_cell_length_a 12.031800
_cell_length_b 7.739754
_cell_length_c 20.214124
_cell_angle_alpha 90.000000
_cell_angle_beta 90.537685
_cell_angle_gamma 90.000000
_cell_volume 1882.320462
_symmetry_space_group_name_H-M "C 2/C"
_symmetry_group_IT_number 15
_symmetry_cell_setting 'monoclinic'
loop_
_space_group_symop_operation_xyz
x,y,z
-x,y,1/2-z
-x,-y,-z
x,-y,1/2+z
1/2+x,1/2+y,z
1/2-x,1/2+y,1/2-z
1/2-x,1/2-y,-z
1/2+x,1/2-y,1/2+z
loop_
_atom_site_type_symbol
_atom_site_label
_atom_site_fract_x
_atom_site_fract_y
_atom_site_fract_z
Si Si1 0.720705 0.744151 0.667372
Si Si2 0.874151 0.077376 0.271199
Si Si3 0.868613 0.888498 0.045995
Si Si4 0.637908 0.236221 0.591984
Si Si5 0.460421 0.902494 0.928135
Si Si6 0.852029 0.727148 0.549148
O O1 0.790150 0.873529 0.713052
O O2 0.649896 0.621373 0.714001
O O3 0.637705 0.848332 0.621016
O O4 0.808562 0.646347 0.618433
O O5 0.847343 0.181785 0.337053
O O6 0.000000 0.105612 0.250000
O O7 0.744576 0.879537 0.073702
O O8 0.939038 0.733972 0.081516
O O9 0.911570 0.083937 0.062203
O O10 0.873869 0.877750 0.966129
O O11 0.527883 0.107791 0.593070
O O12 0.428152 0.905161 0.006773
O O13 0.750000 0.750000 0.500000
#
# Coordination Sequence:
#
# PCOD8140451 Si02
#       6
#     8   8   8   8   8   8
#     4  11  26  46  71 102 144 189 255 303 363 447
#     4  12  30  50  76 101 149 204 246 305 373 451
#     4  11  23  39  74 104 150 191 237 311 383 430
#     4  11  24  44  67 108 149 186 250 306 369 449
#     4  11  23  41  73 109 143 192 244 305 378 439
#     4  10  20  41  69 102 145 183 240 307 363 437
#
# _framework density 25.500442
#
# number of rings (size 3 to 8) (size 9 to 14) (size 15 to 20)
#    0.000    1.000    3.333    4.000    7.000    1.333 
#    0.000    1.667    0.000    0.000    0.000    0.000 
#    0.000    0.000    0.000    0.000    0.000    0.000 
#
# Total GULP energy -297425.879129 kJ/mol
# GULP energy per Si atom -12392.744964 kJ/mol
# Density = 2.544240 g / cm^3
# Si number density = 25.500442 Si / 1000 Ang^3
#
#
#
# Elastic Constant Matrix: (Units=GPa)
#
#
# Indices 1 2 3 4 5 6 
#
# 1 73.6529 -0.5226 40.4184 0.0000 6.3996 0.0000
# 2 -0.5226 93.7108 20.9605 0.0000 -9.1976 0.0000
# 3 40.4184 20.9605 146.1650 0.0000 13.2698 0.0000
# 4 0.0000 0.0000 0.0000 30.5609 0.0000 -3.1616
# 5 6.3996 -9.1976 13.2698 0.0000 42.2087 0.0000
# 6 0.0000 0.0000 0.0000 -3.1616 0.0000 41.8589
#
#
#
# Elastic Compliance Matrix: (Units=1/GPa)
#
#
# Indices 1 2 3 4 5 6 
#
# 1 0.016145 0.001027 -0.004539 0.000000 -0.000797 0.000000
# 2 0.001027 0.011468 -0.002204 0.000000 0.003036 0.000000
# 3 -0.004539 -0.002204 0.008641 0.000000 -0.002509 0.000000
# 4 0.000000 0.000000 0.000000 0.032979 0.000000 0.002491
# 5 -0.000797 0.003036 -0.002509 0.000000 0.025263 0.000000
# 6 0.000000 0.000000 0.000000 0.002491 0.000000 0.024078
#
#
# Mechanical properties :
#
#
# Convention : Reuss Voigt Hill
#
# Bulk Modulus (GPa) = 40.28936 48.36015 44.32475
# Shear Modulus (GPa) = 36.15860 39.77056 37.96458
#
# Velocity S-wave (km/s) = 3.76967 3.95346 3.86266
# Velocity P-wave (km/s) = 5.89754 6.31233 6.10845
#
# Compressibility (1/GPa) = 0.02482045
#
# Stress axis : x y z
#
# Youngs Moduli (GPa) = 61.93944 87.20016 115.73166
#
# Poissons Ratio (x) = -0.08957 0.52535
# Poissons Ratio (y) = -0.06362 0.25510
# Poissons Ratio (z) = 0.28117 0.19221
#
# Static dielectric constant tensor:
#      x y z
#    x 5.375050 0.000000 -0.147670 
#    y 0.000000 4.763590 0.000000 
#    z -0.147670 0.000000 4.832810 
# 
# 
# High freq. dielectric constant tensor:
#      x y z
#    x 2.047420 0.000000 0.018160 
#    y 0.000000 2.024240 0.000000 
#    z 0.018160 0.000000 2.017640 
# 
# From -- ./inp_files/202971.got.cif
#   From: 2010.06.25/outbox.cif.g09.slc.cpg/sg15_102_cif.got.tgz:202971.got - 2010.06.28 07:06:18.
