data_PCOD8140677
_publ_section_title
;
Structure prediction by ZEFSAII (Michael W. Deem and Ramdas Pophale) SiO2 
 PCOD8140677
Probable space group: C 2/C
;
_chemical_formula_sum "Si O2"
_cell_formula_units_Z 52
_cell_length_a 10.530823
_cell_length_b 29.054901
_cell_length_c 8.776394
_cell_angle_alpha 90.000000
_cell_angle_beta 99.095809
_cell_angle_gamma 90.000000
_cell_volume 2651.563962
_symmetry_space_group_name_H-M "C 2/C"
_symmetry_group_IT_number 15
_symmetry_cell_setting 'monoclinic'
loop_
_space_group_symop_operation_xyz
x,y,z
-x,y,1/2-z
-x,-y,-z
x,-y,1/2+z
1/2+x,1/2+y,z
1/2-x,1/2+y,1/2-z
1/2-x,1/2-y,-z
1/2+x,1/2-y,1/2+z
loop_
_atom_site_type_symbol
_atom_site_label
_atom_site_fract_x
_atom_site_fract_y
_atom_site_fract_z
Si Si1 0.500000 0.508192 0.250000
Si Si2 0.648529 0.122018 0.818088
Si Si3 0.241014 0.802303 0.956217
Si Si4 0.641265 0.773703 0.812276
Si Si5 0.005690 0.856152 0.574135
Si Si6 0.275195 0.679650 0.589008
Si Si7 0.869511 0.941593 0.456254
O O1 0.404429 0.478371 0.335077
O O2 0.601991 0.537298 0.370512
O O3 0.500000 0.109822 0.750000
O O4 0.720316 0.137573 0.676756
O O5 0.722158 0.077053 0.903385
O O6 0.656795 0.164609 0.937985
O O7 0.266391 0.803478 0.780482
O O8 0.095654 0.815469 0.965847
O O9 0.250000 0.750000 0.000000
O O10 0.500000 0.789505 0.750000
O O11 0.653302 0.717926 0.792901
O O12 0.663345 0.789958 0.989824
O O13 0.963510 0.898146 0.458164
O O14 0.000000 0.871622 0.750000
O O15 0.140741 0.840311 0.533396
#
# Coordination Sequence:
#
# PCOD8140677 Si02
#       7
#     4   8   8   8   8   8   8
#     4  10  20  42  70 100 124 150 196 262 322 398
#     4  11  24  41  61  90 129 168 209 257 315 377
#     4  11  21  36  56  81 121 170 213 264 302 346
#     4  11  22  36  50  79 114 163 222 257 299 355
#     4  11  21  37  59  88 121 153 208 261 312 357
#     4  11  23  37  56  81 117 166 210 263 305 360
#     4  10  22  39  67  97 123 154 196 256 323 386
#
# _framework density 19.611069000000001
#
# number of rings (size 3 to 8) (size 9 to 14) (size 15 to 20)
#    0.000    1.231    3.846    2.769    2.154    1.846 
#    0.000    0.769    0.000    0.000    0.000    0.000 
#    0.000    0.000    0.000    0.000    0.000    0.000 
#
# Total GULP energy -322193.314169 kJ/mol
# GULP energy per Si atom -12392.050545 kJ/mol
# Density = 1.956643 g / cm^3
# Si number density = 19.611069 Si / 1000 Ang^3
#
#
#
# Elastic Constant Matrix: (Units=GPa)
#
#
# Indices 1 2 3 4 5 6 
#
# 1 100.7601 46.8480 52.6792 0.0000 8.3337 0.0000
# 2 46.8480 100.0203 41.1502 0.0000 7.3334 0.0000
# 3 52.6792 41.1502 106.6878 0.0000 1.7162 0.0000
# 4 0.0000 0.0000 0.0000 29.3539 0.0000 6.0349
# 5 8.3337 7.3334 1.7162 0.0000 36.6067 0.0000
# 6 0.0000 0.0000 0.0000 6.0349 0.0000 21.5484
#
#
#
# Elastic Compliance Matrix: (Units=1/GPa)
#
#
# Indices 1 2 3 4 5 6 
#
# 1 0.015248 -0.004627 -0.005708 0.000000 -0.002277 0.000000
# 2 -0.004627 0.013462 -0.002884 0.000000 -0.001508 0.000000
# 3 -0.005708 -0.002884 0.013284 0.000000 0.001254 0.000000
# 4 0.000000 0.000000 0.000000 0.036148 0.000000 -0.010124
# 5 -0.002277 -0.001508 0.001254 0.000000 0.028079 0.000000
# 6 0.000000 0.000000 0.000000 -0.010124 0.000000 0.049242
#
#
# Mechanical properties :
#
#
# Convention : Reuss Voigt Hill
#
# Bulk Modulus (GPa) = 64.27838 65.42478 64.85158
# Shear Modulus (GPa) = 26.72566 28.62119 27.67342
#
# Velocity S-wave (km/s) = 3.69560 3.82441 3.76055
# Velocity P-wave (km/s) = 7.14546 7.27565 7.21085
#
# Compressibility (1/GPa) = 0.01555733
#
# Stress axis : x y z
#
# Youngs Moduli (GPa) = 65.58105 74.28297 75.28087
#
# Poissons Ratio (x) = 0.34369 0.42970
# Poissons Ratio (y) = 0.30343 0.21708
# Poissons Ratio (z) = 0.37433 0.21420
#
# Static dielectric constant tensor:
#      x y z
#    x 3.661760 0.000000 -0.018790 
#    y 0.000000 3.532230 0.000000 
#    z -0.018790 0.000000 4.406560 
# 
# 
# High freq. dielectric constant tensor:
#      x y z
#    x 1.743440 0.000000 0.007600 
#    y 0.000000 1.751160 0.000000 
#    z 0.007600 0.000000 1.786360 
# 
# From -- ./inp_files/33679.got.cif
#   From: 2010.06.25/outbox.cif.g09.slc.cpg/sg15_17_cif.got.tgz:33679.got - 2010.06.28 07:06:18.
