data_PCOD8140119
_publ_section_title
;
Structure prediction by ZEFSAII (Michael W. Deem and Ramdas Pophale) SiO2 
 PCOD8140119
Probable space group: C 2/C
;
_chemical_formula_sum "Si O2"
_cell_formula_units_Z 56
_cell_length_a 5.066614
_cell_length_b 20.677776
_cell_length_c 27.634363
_cell_angle_alpha 90.000000
_cell_angle_beta 115.125113
_cell_angle_gamma 90.000000
_cell_volume 2621.219168
_symmetry_space_group_name_H-M "C 2/C"
_symmetry_group_IT_number 15
_symmetry_cell_setting 'monoclinic'
loop_
_space_group_symop_operation_xyz
x,y,z
-x,y,1/2-z
-x,-y,-z
x,-y,1/2+z
1/2+x,1/2+y,z
1/2-x,1/2+y,1/2-z
1/2-x,1/2-y,-z
1/2+x,1/2-y,1/2+z
loop_
_atom_site_type_symbol
_atom_site_label
_atom_site_fract_x
_atom_site_fract_y
_atom_site_fract_z
Si Si1 0.386165 0.851302 0.011729
Si Si2 0.219833 0.351425 0.942215
Si Si3 0.384552 0.285217 0.094914
Si Si4 0.701568 0.897587 0.397657
Si Si5 0.666683 0.032861 0.366520
Si Si6 0.379249 0.358889 0.189775
Si Si7 0.509361 0.498239 0.806445
O O1 0.540235 0.877202 0.974651
O O2 0.050406 0.832038 0.979506
O O3 0.559054 0.789481 0.047157
O O4 0.428380 0.904735 0.057905
O O5 0.033739 0.289749 0.907446
O O6 0.253709 0.405516 0.904032
O O7 0.571825 0.338502 0.080764
O O8 0.422332 0.301631 0.154528
O O9 0.461555 0.878948 0.337823
O O10 0.840684 0.967598 0.396670
O O11 0.328226 0.020365 0.349610
O O12 0.767772 0.041960 0.318322
O O13 0.500000 0.331380 0.250000
O O14 0.557623 0.424896 0.191860
O O15 0.500000 0.477472 0.750000
#
# Coordination Sequence:
#
# PCOD8140119 Si02
#       7
#     8   8   8   8   8   8   8
#     4  11  24  42  62  91 118 175 212 252 302 377
#     4  12  26  39  64  87 131 165 211 249 316 372
#     4  11  22  41  63  91 123 164 207 263 304 375
#     4  10  22  39  66  88 131 155 215 260 309 363
#     4  11  23  41  59  97 125 161 203 265 314 372
#     4   9  20  37  64  96 121 157 205 262 315 364
#     4  10  20  40  67  89 120 163 210 252 308 379
#
# _framework density 21.364104000000001
#
# number of rings (size 3 to 8) (size 9 to 14) (size 15 to 20)
#    0.000    1.429    2.857    2.143    4.000    1.714 
#    0.000    1.429    0.000    0.000    0.000    0.000 
#    0.000    0.000    0.000    0.000    0.000    0.000 
#
# Total GULP energy -346901.802561 kJ/mol
# GULP energy per Si atom -12389.350091 kJ/mol
# Density = 2.131548 g / cm^3
# Si number density = 21.364104 Si / 1000 Ang^3
#
#
#
# Elastic Constant Matrix: (Units=GPa)
#
#
# Indices 1 2 3 4 5 6 
#
# 1 81.0208 34.6355 30.0283 0.0000 -20.1631 0.0000
# 2 34.6355 113.5572 64.7834 0.0000 -14.4002 0.0000
# 3 30.0283 64.7834 128.0255 0.0000 -18.7120 0.0000
# 4 0.0000 0.0000 0.0000 6.0436 0.0000 0.3715
# 5 -20.1631 -14.4002 -18.7120 0.0000 32.1000 0.0000
# 6 0.0000 0.0000 0.0000 0.3715 0.0000 20.2848
#
#
#
# Elastic Compliance Matrix: (Units=1/GPa)
#
#
# Indices 1 2 3 4 5 6 
#
# 1 0.016135 -0.003389 -0.000886 0.000000 0.008098 0.000000
# 2 -0.003389 0.013220 -0.005836 0.000000 0.000400 0.000000
# 3 -0.000886 -0.005836 0.011487 0.000000 0.003521 0.000000
# 4 0.000000 0.000000 0.000000 0.165652 0.000000 -0.003034
# 5 0.008098 0.000400 0.003521 0.000000 0.038471 0.000000
# 6 0.000000 0.000000 0.000000 -0.003034 0.000000 0.049353
#
#
# Mechanical properties :
#
#
# Convention : Reuss Voigt Hill
#
# Bulk Modulus (GPa) = 48.49821 64.61087 56.55454
# Shear Modulus (GPa) = 15.55628 24.56277 20.05952
#
# Velocity S-wave (km/s) = 2.70135 3.39443 3.06753
# Velocity P-wave (km/s) = 5.69911 6.75805 6.25104
#
# Compressibility (1/GPa) = 0.02061932
#
# Stress axis : x y z
#
# Youngs Moduli (GPa) = 61.97740 75.64297 87.05730
#
# Poissons Ratio (x) = 0.25634 0.07713
# Poissons Ratio (y) = 0.21003 0.50809
# Poissons Ratio (z) = 0.05491 0.44148
#
# Static dielectric constant tensor:
#      x y z
#    x 3.955200 0.000000 -0.134730 
#    y 0.000000 3.538240 0.000000 
#    z -0.134730 0.000000 3.904030 
# 
# 
# High freq. dielectric constant tensor:
#      x y z
#    x 1.844320 0.000000 -0.010340 
#    y 0.000000 1.799640 0.000000 
#    z -0.010340 0.000000 1.840780 
# 
# From -- ./inp_files/286448.got.cif
#   From: 2010.06.25/outbox.cif.g09.slc.cpg/sg15_144_cif.got.tgz:286448.got - 2010.06.28 07:06:18.
