data_PCOD8140327
_publ_section_title
;
Structure prediction by ZEFSAII (Michael W. Deem and Ramdas Pophale) SiO2 
 PCOD8140327
Probable space group: C 2/C
;
_chemical_formula_sum "Si O2"
_cell_formula_units_Z 56
_cell_length_a 9.297604
_cell_length_b 22.518219
_cell_length_c 12.995186
_cell_angle_alpha 90.000000
_cell_angle_beta 75.267447
_cell_angle_gamma 90.000000
_cell_volume 2631.294663
_symmetry_space_group_name_H-M "C 2/C"
_symmetry_group_IT_number 15
_symmetry_cell_setting 'monoclinic'
loop_
_space_group_symop_operation_xyz
x,y,z
-x,y,1/2-z
-x,-y,-z
x,-y,1/2+z
1/2+x,1/2+y,z
1/2-x,1/2+y,1/2-z
1/2-x,1/2-y,-z
1/2+x,1/2-y,1/2+z
loop_
_atom_site_type_symbol
_atom_site_label
_atom_site_fract_x
_atom_site_fract_y
_atom_site_fract_z
Si Si1 0.373965 0.618568 0.349070
Si Si2 0.343044 0.806844 0.024215
Si Si3 0.083605 0.771656 0.540503
Si Si4 0.961444 0.157228 0.868340
Si Si5 0.041783 0.407400 0.922734
Si Si6 0.072888 0.531162 0.633685
Si Si7 0.900218 0.052376 0.555126
O O1 0.500000 0.590503 0.250000
O O2 0.422633 0.686772 0.358003
O O3 0.376938 0.592672 0.461237
O O4 0.203170 0.609945 0.343856
O O5 0.469121 0.782910 0.080445
O O6 0.431553 0.850384 0.927553
O O7 0.217906 0.848095 0.097602
O O8 0.250000 0.750000 0.000000
O O9 0.250000 0.750000 0.500000
O O10 0.032307 0.800730 0.441994
O O11 0.022508 0.090283 0.868887
O O12 0.000000 0.183676 0.750000
O O13 0.043624 0.424484 0.043701
O O14 0.986636 0.464618 0.871544
O O15 0.247317 0.525949 0.624812
O O16 0.000000 0.558354 0.750000
O O17 0.000000 0.000000 0.500000
#
# Coordination Sequence:
#
# PCOD8140327 Si02
#       7
#     8   8   8   8   8   8   8
#     4  10  22  38  62  90 120 167 210 260 324 387
#     4  10  21  40  64  88 130 167 203 271 329 379
#     4  10  20  41  64  88 128 164 214 264 318 393
#     4  10  23  39  60  94 124 164 210 263 328 384
#     4  10  21  42  63  91 133 160 214 279 315 391
#     4  10  23  39  64  95 121 173 217 261 334 389
#     4  10  22  40  60  87 126 159 210 263 317 394
#
# _framework density 21.282297
#
# number of rings (size 3 to 8) (size 9 to 14) (size 15 to 20)
#    0.000    2.000    1.429    0.857    4.000    1.714 
#    0.000    1.429    0.000    0.000    0.000    0.000 
#    0.000    0.000    0.000    0.000    0.000    0.000 
#
# Total GULP energy -346891.210942 kJ/mol
# GULP energy per Si atom -12388.971819 kJ/mol
# Density = 2.123386 g / cm^3
# Si number density = 21.282297 Si / 1000 Ang^3
#
#
#
# Elastic Constant Matrix: (Units=GPa)
#
#
# Indices 1 2 3 4 5 6 
#
# 1 157.2706 49.4998 54.4812 0.0000 -44.7518 0.0000
# 2 49.4998 79.3689 13.7692 0.0000 -10.2991 0.0000
# 3 54.4812 13.7692 111.5769 0.0000 -27.9079 0.0000
# 4 0.0000 0.0000 0.0000 20.4574 0.0000 -10.5248
# 5 -44.7518 -10.2991 -27.9079 0.0000 39.6177 0.0000
# 6 0.0000 0.0000 0.0000 -10.5248 0.0000 41.0405
#
#
#
# Elastic Compliance Matrix: (Units=1/GPa)
#
#
# Indices 1 2 3 4 5 6 
#
# 1 0.011939 -0.005676 -0.002580 0.000000 0.010194 0.000000
# 2 -0.005676 0.015816 0.000297 0.000000 -0.002091 0.000000
# 3 -0.002580 0.000297 0.011503 0.000000 0.005266 0.000000
# 4 0.000000 0.000000 0.000000 0.056312 0.000000 0.014441
# 5 0.010194 -0.002091 0.005266 0.000000 0.039922 0.000000
# 6 0.000000 0.000000 0.000000 0.014441 0.000000 0.028070
#
#
# Mechanical properties :
#
#
# Convention : Reuss Voigt Hill
#
# Bulk Modulus (GPa) = 42.84375 64.85742 53.85058
# Shear Modulus (GPa) = 26.70098 35.58753 31.14426
#
# Velocity S-wave (km/s) = 3.54589 4.09365 3.82958
# Velocity P-wave (km/s) = 6.07777 7.27220 6.70165
#
# Compressibility (1/GPa) = 0.02334063
#
# Stress axis : x y z
#
# Youngs Moduli (GPa) = 83.75817 63.22539 86.93735
#
# Poissons Ratio (x) = 0.35885 0.22426
# Poissons Ratio (y) = 0.47539 -0.02579
# Poissons Ratio (z) = 0.21606 -0.01875
#
# Static dielectric constant tensor:
#      x y z
#    x 4.403390 0.000000 -0.287350 
#    y 0.000000 2.977690 0.000000 
#    z -0.287350 0.000000 3.605570 
# 
# 
# High freq. dielectric constant tensor:
#      x y z
#    x 1.849370 0.000000 -0.024160 
#    y 0.000000 1.838560 0.000000 
#    z -0.024160 0.000000 1.810870 
# 
# From -- ./inp_files/137732.got.cif
#   From: 2010.06.25/outbox.cif.g09.slc.cpg/sg15_69_cif.got.tgz:137732.got - 2010.06.28 07:06:18.
