data_PCOD8140663
_publ_section_title
;
Structure prediction by ZEFSAII (Michael W. Deem and Ramdas Pophale) SiO2 
 PCOD8140663
Probable space group: C 2/C
;
_chemical_formula_sum "Si O2"
_cell_formula_units_Z 60
_cell_length_a 8.721902
_cell_length_b 26.185520
_cell_length_c 23.788590
_cell_angle_alpha 90.000000
_cell_angle_beta 148.158184
_cell_angle_gamma 90.000000
_cell_volume 2866.329275
_symmetry_space_group_name_H-M "C 2/C"
_symmetry_group_IT_number 15
_symmetry_cell_setting 'monoclinic'
loop_
_space_group_symop_operation_xyz
x,y,z
-x,y,1/2-z
-x,-y,-z
x,-y,1/2+z
1/2+x,1/2+y,z
1/2-x,1/2+y,1/2-z
1/2-x,1/2-y,-z
1/2+x,1/2-y,1/2+z
loop_
_atom_site_type_symbol
_atom_site_label
_atom_site_fract_x
_atom_site_fract_y
_atom_site_fract_z
Si Si1 0.641028 0.008192 0.983958
Si Si2 0.567849 0.183474 0.837773
Si Si3 0.260425 0.496206 0.792005
Si Si4 0.267555 0.914538 0.296692
Si Si5 0.507448 0.084436 0.370334
Si Si6 0.500000 0.348518 0.750000
Si Si7 0.313975 0.713869 0.291134
Si Si8 0.685795 0.323555 0.584677
O O1 0.481692 0.052634 0.901507
O O2 0.668169 0.953923 0.961558
O O3 0.972690 0.025757 0.089719
O O4 0.500000 0.000000 0.000000
O O5 0.500000 0.187796 0.750000
O O6 0.449526 0.129976 0.824022
O O7 0.394780 0.226666 0.818438
O O8 0.912013 0.190875 0.959366
O O9 0.363097 0.546068 0.789435
O O10 0.185276 0.447881 0.731652
O O11 0.000000 0.514334 0.750000
O O12 0.000000 0.892225 0.250000
O O13 0.736013 0.117815 0.405680
O O14 0.292412 0.118494 0.340722
O O15 0.474925 0.313211 0.687415
O O16 0.384628 0.684923 0.371570
O O17 0.977703 0.710159 0.165520
#
# Coordination Sequence:
#
# PCOD8140663 Si02
#       8
#     8   8   8   8   8   4   8   8
#     4  11  23  42  68  96 137 184 227 280 342 406
#     4  12  27  46  70 100 144 183 225 287 348 414
#     4  11  25  41  66  95 137 177 223 283 331 404
#     4  11  26  44  65 100 134 178 230 273 344 415
#     4  10  24  39  65 101 131 171 231 278 338 396
#     4  10  20  42  68  96 130 172 226 292 336 412
#     4  10  23  48  70 101 133 175 237 285 349 409
#     4  10  25  44  72 100 137 175 235 283 345 414
#
# _framework density 20.932697000000001
#
# number of rings (size 3 to 8) (size 9 to 14) (size 15 to 20)
#    0.000    1.333    2.000    1.600   13.067    2.667 
#    0.000    0.000    0.000    0.000    0.000    0.000 
#    0.000    0.000    0.000    0.000    0.000    0.000 
#
# Total GULP energy -371898.918474 kJ/mol
# GULP energy per Si atom -12396.630616 kJ/mol
# Density = 2.088505 g / cm^3
# Si number density = 20.932697 Si / 1000 Ang^3
#
#
#
# Elastic Constant Matrix: (Units=GPa)
#
#
# Indices 1 2 3 4 5 6 
#
# 1 129.2501 51.8633 49.4511 0.0100 -8.5358 -0.0022
# 2 51.8633 127.5274 48.4681 0.0032 -6.5746 0.0003
# 3 49.4511 48.4681 139.3264 0.0307 3.4122 -0.0037
# 4 0.0100 0.0032 0.0307 -121.2837 0.0030 -4.6797
# 5 -8.5358 -6.5746 3.4122 0.0030 31.6715 -0.0024
# 6 -0.0022 0.0003 -0.0037 -4.6797 -0.0024 50.8079
#
#
#
# Elastic Compliance Matrix: (Units=1/GPa)
#
#
# Indices 1 2 3 4 5 6 
#
# 1 0.010089 -0.002993 -0.002598 0.000000 0.002378 0.000000
# 2 -0.002993 0.010083 -0.002483 -0.000001 0.001554 0.000000
# 3 -0.002598 -0.002483 0.009017 0.000002 -0.002187 0.000001
# 4 0.000000 -0.000001 0.000002 -0.008216 0.000000 -0.000757
# 5 0.002378 0.001554 -0.002187 0.000000 0.032773 0.000002
# 6 0.000000 0.000000 0.000001 -0.000757 0.000002 0.019612
#
#
# Mechanical properties :
#
#
# Convention : Reuss Voigt Hill
#
# Bulk Modulus (GPa) = 76.68677 77.29655 76.99166
# Shear Modulus (GPa) = 53.27491 8.66057 30.96774
#
# Velocity S-wave (km/s) = 5.05033 2.03625 3.85046
# Velocity P-wave (km/s) = 8.40965 6.52187 7.52519
#
# Compressibility (1/GPa) = 0.01304006
#
# Stress axis : x y z
#
# Youngs Moduli (GPa) = 99.11863 99.18120 110.90333
#
# Poissons Ratio (x) = 0.29686 0.28811
# Poissons Ratio (y) = 0.29667 0.27539
# Poissons Ratio (z) = 0.25750 0.24629
#
# Static dielectric constant tensor:
#      x y z
#    x 3.944170 0.000030 -0.118360 
#    y 0.000030 3.145240 0.000590 
#    z -0.118360 0.000590 3.473230 
# 
# 
# High freq. dielectric constant tensor:
#      x y z
#    x 1.831210 0.000000 0.000910 
#    y 0.000000 1.823330 0.000000 
#    z 0.000910 0.000000 1.821880 
# 
# From -- ./inp_files/266660.got.cif
#   From: 2010.06.25/outbox.cif.g09.slc.cpg/sg15_134_cif.got.tgz:266660.got - 2010.06.28 07:06:18.
