data_PCOD8140077
_publ_section_title
;
Structure prediction by ZEFSAII (Michael W. Deem and Ramdas Pophale) SiO2 
 PCOD8140077
Probable space group: C 2/C
;
_chemical_formula_sum "Si O2"
_cell_formula_units_Z 60
_cell_length_a 8.656491
_cell_length_b 25.638585
_cell_length_c 12.614061
_cell_angle_alpha 90.000000
_cell_angle_beta 99.594986
_cell_angle_gamma 90.000000
_cell_volume 2760.402787
_symmetry_space_group_name_H-M "C 2/C"
_symmetry_group_IT_number 15
_symmetry_cell_setting 'monoclinic'
loop_
_space_group_symop_operation_xyz
x,y,z
-x,y,1/2-z
-x,-y,-z
x,-y,1/2+z
1/2+x,1/2+y,z
1/2-x,1/2+y,1/2-z
1/2-x,1/2-y,-z
1/2+x,1/2-y,1/2+z
loop_
_atom_site_type_symbol
_atom_site_label
_atom_site_fract_x
_atom_site_fract_y
_atom_site_fract_z
Si Si1 0.500000 0.724512 0.750000
Si Si2 0.318999 0.403654 0.725988
Si Si3 0.693762 0.455555 0.984931
Si Si4 0.440475 0.202368 0.581001
Si Si5 0.776637 0.153595 0.618103
Si Si6 0.335573 0.104792 0.693808
Si Si7 0.256417 0.789982 0.848657
Si Si8 0.170487 0.068126 0.045346
O O1 0.432029 0.688987 0.646307
O O2 0.354694 0.757518 0.775059
O O3 0.500000 0.419021 0.750000
O O4 0.234081 0.432067 0.615914
O O5 0.301373 0.341742 0.715710
O O6 0.248863 0.424828 0.829457
O O7 0.765316 0.433712 0.100519
O O8 0.732647 0.517061 0.991174
O O9 0.514163 0.439035 0.965344
O O10 0.625766 0.191763 0.598793
O O11 0.355989 0.161777 0.647383
O O12 0.372614 0.195420 0.456606
O O13 0.396776 0.259035 0.624972
O O14 0.774311 0.112907 0.716341
O O15 0.786697 0.120431 0.512560
O O16 0.500000 0.080503 0.750000
#
# Coordination Sequence:
#
# PCOD8140077 Si02
#       8
#     4   8   8   8   8   8   8   8
#     4  12  26  38  64 100 132 176 222 276 338 386
#     4  10  23  41  67  96 132 178 219 272 339 396
#     4  10  21  44  67  97 133 176 223 275 334 410
#     4  10  23  43  65  90 134 183 221 266 337 403
#     4  11  24  42  63 101 133 171 223 283 326 402
#     4  10  20  40  66  90 126 174 221 261 324 404
#     4  11  24  41  65  96 131 181 223 273 333 408
#     4  10  24  40  69 100 134 172 223 286 338 381
#
# _framework density 21.735958
#
# number of rings (size 3 to 8) (size 9 to 14) (size 15 to 20)
#    0.000    1.600    2.667    0.800    5.600    1.600 
#    1.200    4.000    0.000    0.000    0.000    0.000 
#    0.000    0.000    0.000    0.000    0.000    0.000 
#
# Total GULP energy -371946.762924 kJ/mol
# GULP energy per Si atom -12398.225431 kJ/mol
# Density = 2.168649 g / cm^3
# Si number density = 21.735958 Si / 1000 Ang^3
#
#
#
# Elastic Constant Matrix: (Units=GPa)
#
#
# Indices 1 2 3 4 5 6 
#
# 1 40.5198 39.8541 22.4318 0.0000 2.8550 0.0000
# 2 39.8541 116.2836 59.6444 0.0000 2.8766 0.0000
# 3 22.4318 59.6444 146.1891 0.0000 4.7569 0.0000
# 4 0.0000 0.0000 0.0000 33.7855 0.0000 -4.2738
# 5 2.8550 2.8766 4.7569 0.0000 29.4575 0.0000
# 6 0.0000 0.0000 0.0000 -4.2738 0.0000 31.4125
#
#
#
# Elastic Compliance Matrix: (Units=1/GPa)
#
#
# Indices 1 2 3 4 5 6 
#
# 1 0.037433 -0.012476 -0.000579 0.000000 -0.002316 0.000000
# 2 -0.012476 0.015037 -0.004235 0.000000 0.000425 0.000000
# 3 -0.000579 -0.004235 0.008687 0.000000 -0.000933 0.000000
# 4 0.000000 0.000000 0.000000 0.030117 0.000000 0.004098
# 5 -0.002316 0.000425 -0.000933 0.000000 0.034281 0.000000
# 6 0.000000 0.000000 0.000000 0.004098 0.000000 0.032392
#
#
# Mechanical properties :
#
#
# Convention : Reuss Voigt Hill
#
# Bulk Modulus (GPa) = 37.62190 60.76145 49.19167
# Shear Modulus (GPa) = 24.82813 31.00192 27.91503
#
# Velocity S-wave (km/s) = 3.38340 3.78073 3.58757
# Velocity P-wave (km/s) = 5.71046 6.86102 6.31201
#
# Compressibility (1/GPa) = 0.02658027
#
# Stress axis : x y z
#
# Youngs Moduli (GPa) = 26.71418 66.50310 115.11111
#
# Poissons Ratio (x) = 0.82966 0.06660
# Poissons Ratio (y) = 0.33327 0.48744
# Poissons Ratio (z) = 0.01546 0.28161
#
# Static dielectric constant tensor:
#      x y z
#    x 4.064030 0.000000 0.462770 
#    y 0.000000 3.862030 0.000000 
#    z 0.462770 0.000000 4.698410 
# 
# 
# High freq. dielectric constant tensor:
#      x y z
#    x 1.830850 0.000000 0.009850 
#    y 0.000000 1.850380 0.000000 
#    z 0.009850 0.000000 1.873430 
# 
# From -- ./inp_files/81375.got.cif
#   From: 2010.06.25/outbox.cif.g09.slc.cpg/sg15_41_cif.got.tgz:81375.got - 2010.06.28 07:06:18.
