data_PCOD8140698
_publ_section_title
;
Structure prediction by ZEFSAII (Michael W. Deem and Ramdas Pophale) SiO2 
 PCOD8140698
Probable space group: C 2/C
;
_chemical_formula_sum "Si O2"
_cell_formula_units_Z 52
_cell_length_a 32.702978
_cell_length_b 13.262058
_cell_length_c 19.646940
_cell_angle_alpha 90.000000
_cell_angle_beta 163.679693
_cell_angle_gamma 90.000000
_cell_volume 2394.473751
_symmetry_space_group_name_H-M "C 2/C"
_symmetry_group_IT_number 15
_symmetry_cell_setting 'monoclinic'
loop_
_space_group_symop_operation_xyz
x,y,z
-x,y,1/2-z
-x,-y,-z
x,-y,1/2+z
1/2+x,1/2+y,z
1/2-x,1/2+y,1/2-z
1/2-x,1/2-y,-z
1/2+x,1/2-y,1/2+z
loop_
_atom_site_type_symbol
_atom_site_label
_atom_site_fract_x
_atom_site_fract_y
_atom_site_fract_z
Si Si1 0.000000 0.348890 0.250000
Si Si2 0.778556 0.714195 0.283450
Si Si3 0.026935 0.279800 0.083492
Si Si4 0.873264 0.458931 0.165941
Si Si5 0.880917 0.987286 0.002996
Si Si6 0.558804 0.553391 0.160348
Si Si7 0.613814 0.119439 0.587194
O O1 0.890262 0.419968 0.116179
O O2 0.100059 0.282620 0.461448
O O3 0.667895 0.807235 0.113373
O O4 0.858230 0.723296 0.337699
O O5 0.686813 0.612206 0.138298
O O6 0.109817 0.365166 0.257049
O O7 0.096334 0.170172 0.205366
O O8 0.043544 0.309520 0.031777
O O9 0.989782 0.545673 0.363438
O O10 0.711932 0.502084 0.920772
O O11 0.000000 0.960465 0.250000
O O12 0.951571 0.048045 0.053198
O O13 0.753289 0.053635 0.834148
O O14 0.500000 0.500000 0.000000
#
# Coordination Sequence:
#
# PCOD8140698 Si02
#       7
#     4   8   8   8   8   8   8
#     4  10  20  42  70  96 138 178 234 290 334 410
#     4  11  25  45  66 106 136 185 231 289 347 415
#     4  11  23  43  72 100 137 175 235 295 343 409
#     4  11  24  41  71 101 136 180 232 285 350 409
#     4  12  26  45  69 102 146 185 232 292 355 421
#     4  12  26  46  70 103 142 186 235 290 353 420
#     4  12  24  45  71 102 139 183 238 288 352 415
#
# _framework density 21.716671999999999
#
# number of rings (size 3 to 8) (size 9 to 14) (size 15 to 20)
#    0.000    0.615    4.615    4.615    3.231    1.231 
#    4.154    1.538    0.000    0.000    0.000    0.000 
#    0.000    0.000    0.000    0.000    0.000    0.000 
#
# Total GULP energy -322399.295825 kJ/mol
# GULP energy per Si atom -12399.972916 kJ/mol
# Density = 2.166724 g / cm^3
# Si number density = 21.716672 Si / 1000 Ang^3
#
#
#
# Elastic Constant Matrix: (Units=GPa)
#
#
# Indices 1 2 3 4 5 6 
#
# 1 103.1152 28.6708 52.2473 0.0000 18.4552 0.0000
# 2 28.6708 116.9082 63.9719 0.0000 7.8359 0.0000
# 3 52.2473 63.9719 124.9965 0.0000 22.6721 0.0000
# 4 0.0000 0.0000 0.0000 13.9123 0.0000 17.6074
# 5 18.4552 7.8359 22.6721 0.0000 30.0926 0.0000
# 6 0.0000 0.0000 0.0000 17.6074 0.0000 29.8455
#
#
#
# Elastic Compliance Matrix: (Units=1/GPa)
#
#
# Indices 1 2 3 4 5 6 
#
# 1 0.012813 -0.000495 -0.004286 0.000000 -0.004500 0.000000
# 2 -0.000495 0.011978 -0.006269 0.000000 0.001908 0.000000
# 3 -0.004286 -0.006269 0.014163 0.000000 -0.006409 0.000000
# 4 0.000000 0.000000 0.000000 0.283708 0.000000 -0.167374
# 5 -0.004500 0.001908 -0.006409 0.000000 0.040322 0.000000
# 6 0.000000 0.000000 0.000000 -0.167374 0.000000 0.132249
#
#
# Mechanical properties :
#
#
# Convention : Reuss Voigt Hill
#
# Bulk Modulus (GPa) = 59.33898 70.53332 64.93615
# Shear Modulus (GPa) = 9.56113 28.11207 18.83660
#
# Velocity S-wave (km/s) = 2.10053 3.60181 2.94833
# Velocity P-wave (km/s) = 5.76771 7.06022 6.44644
#
# Compressibility (1/GPa) = 0.01685233
#
# Stress axis : x y z
#
# Youngs Moduli (GPa) = 78.04842 83.48798 70.60798
#
# Poissons Ratio (x) = 0.04136 0.30261
# Poissons Ratio (y) = 0.03866 0.44265
# Poissons Ratio (z) = 0.33450 0.52340
#
# Static dielectric constant tensor:
#      x y z
#    x 4.208650 0.000000 0.384920 
#    y 0.000000 3.950070 0.000000 
#    z 0.384920 0.000000 3.867800 
# 
# 
# High freq. dielectric constant tensor:
#      x y z
#    x 1.863530 0.000000 0.025830 
#    y 0.000000 1.855930 0.000000 
#    z 0.025830 0.000000 1.846460 
# 
# From -- ./inp_files/225538.got.cif
#   From: 2010.06.25/outbox.cif.g09.slc.cpg/sg15_113_cif.got.tgz:225538.got - 2010.06.28 07:06:18.
