data_PCOD8140640
_publ_section_title
;
Structure prediction by ZEFSAII (Michael W. Deem and Ramdas Pophale) SiO2 
 PCOD8140640
Probable space group: C 2/C
;
_chemical_formula_sum "Si O2"
_cell_formula_units_Z 44
_cell_length_a 5.075872
_cell_length_b 23.764353
_cell_length_c 14.972746
_cell_angle_alpha 90.000000
_cell_angle_beta 80.338767
_cell_angle_gamma 90.000000
_cell_volume 1780.469445
_symmetry_space_group_name_H-M "C 2/C"
_symmetry_group_IT_number 15
_symmetry_cell_setting 'monoclinic'
loop_
_space_group_symop_operation_xyz
x,y,z
-x,y,1/2-z
-x,-y,-z
x,-y,1/2+z
1/2+x,1/2+y,z
1/2-x,1/2+y,1/2-z
1/2-x,1/2-y,-z
1/2+x,1/2-y,1/2+z
loop_
_atom_site_type_symbol
_atom_site_label
_atom_site_fract_x
_atom_site_fract_y
_atom_site_fract_z
Si Si1 0.712936 0.680041 0.313932
Si Si2 0.500000 0.377768 0.250000
Si Si3 0.048901 0.069617 0.418442
Si Si4 0.597596 0.800129 0.344977
Si Si5 0.432984 0.011143 0.151283
Si Si6 0.807703 0.404584 0.395499
O O1 0.500000 0.671503 0.250000
O O2 0.678378 0.628823 0.382981
O O3 0.656378 0.736949 0.376495
O O4 0.000000 0.682308 0.250000
O O5 0.363848 0.336980 0.330643
O O6 0.695070 0.414949 0.300584
O O7 0.840139 0.043032 0.358912
O O8 0.904129 0.075713 0.520579
O O9 0.306125 0.030693 0.420031
O O10 0.500000 0.792521 0.250000
O O11 0.383718 0.838914 0.411031
O O12 0.500000 0.025774 0.250000
O O13 0.424819 0.944472 0.125056
#
# Coordination Sequence:
#
# PCOD8140640 Si02
#       6
#     8   4   8   8   8   8
#     4  11  22  44  71  98 140 184 229 279 341 418
#     4  10  20  42  68 100 132 188 232 276 346 406
#     4  12  27  44  69 105 141 180 228 289 348 410
#     4   9  20  39  67  99 131 184 232 280 340 405
#     4  12  26  47  70  98 136 186 233 280 346 420
#     4  11  26  42  70 103 139 178 234 295 344 402
#
# _framework density 24.712586000000002
#
# number of rings (size 3 to 8) (size 9 to 14) (size 15 to 20)
#    0.000    1.091    0.909    6.000    7.636    0.727 
#    0.000    0.909    0.000    0.000    0.000    0.000 
#    0.000    0.000    0.000    0.000    0.000    0.000 
#
# Total GULP energy -272612.974415 kJ/mol
# GULP energy per Si atom -12391.498837 kJ/mol
# Density = 2.465634 g / cm^3
# Si number density = 24.712586 Si / 1000 Ang^3
#
#
#
# Elastic Constant Matrix: (Units=GPa)
#
#
# Indices 1 2 3 4 5 6 
#
# 1 101.3261 30.4115 -5.8943 0.0000 -7.0783 0.0000
# 2 30.4115 164.9670 31.5285 0.0000 -3.2664 0.0000
# 3 -5.8943 31.5285 55.7209 0.0000 -11.1681 0.0000
# 4 0.0000 0.0000 0.0000 -10.1996 0.0000 5.2193
# 5 -7.0783 -3.2664 -11.1681 0.0000 28.6998 0.0000
# 6 0.0000 0.0000 0.0000 5.2193 0.0000 18.1364
#
#
#
# Elastic Compliance Matrix: (Units=1/GPa)
#
#
# Indices 1 2 3 4 5 6 
#
# 1 0.011121 -0.002629 0.003421 0.000000 0.003775 0.000000
# 2 -0.002629 0.007435 -0.004821 0.000000 -0.001678 0.000000
# 3 0.003421 -0.004821 0.022880 0.000000 0.009198 0.000000
# 4 0.000000 0.000000 0.000000 -0.085458 0.000000 0.024593
# 5 0.003775 -0.001678 0.009198 0.000000 0.039163 0.000000
# 6 0.000000 0.000000 0.000000 0.024593 0.000000 0.048060
#
#
# Mechanical properties :
#
#
# Convention : Reuss Voigt Hill
#
# Bulk Modulus (GPa) = 29.96167 48.23394 39.09780
# Shear Modulus (GPa) = 80.14728 25.05855 52.60291
#
# Velocity S-wave (km/s) = 5.70107 3.18779 4.61867
# Velocity P-wave (km/s) = 7.44893 5.75410 6.65568
#
# Compressibility (1/GPa) = 0.03337598
#
# Stress axis : x y z
#
# Youngs Moduli (GPa) = 89.92097 134.50425 43.70613
#
# Poissons Ratio (x) = 0.35363 -0.14950
# Poissons Ratio (y) = 0.23641 0.21072
# Poissons Ratio (z) = -0.30758 0.64848
#
# Static dielectric constant tensor:
#      x y z
#    x 4.536000 0.000000 -0.242460 
#    y 0.000000 5.192910 0.000000 
#    z -0.242460 0.000000 4.070650 
# 
# 
# High freq. dielectric constant tensor:
#      x y z
#    x 1.991050 0.000000 -0.019200 
#    y 0.000000 2.005870 0.000000 
#    z -0.019200 0.000000 1.953520 
# 
# From -- ./inp_files/129723.got.cif
#   From: 2010.06.25/outbox.cif.g09.slc.cpg/sg15_65_cif.got.tgz:129723.got - 2010.06.28 07:06:18.
