data_PCOD8140266
_publ_section_title
;
Structure prediction by ZEFSAII (Michael W. Deem and Ramdas Pophale) SiO2 
 PCOD8140266
Probable space group: C 2/C
;
_chemical_formula_sum "Si O2"
_cell_formula_units_Z 64
_cell_length_a 8.652546
_cell_length_b 24.722342
_cell_length_c 14.402400
_cell_angle_alpha 90.000000
_cell_angle_beta 84.888762
_cell_angle_gamma 90.000000
_cell_volume 3068.584088
_symmetry_space_group_name_H-M "C 2/C"
_symmetry_group_IT_number 15
_symmetry_cell_setting 'monoclinic'
loop_
_space_group_symop_operation_xyz
x,y,z
-x,y,1/2-z
-x,-y,-z
x,-y,1/2+z
1/2+x,1/2+y,z
1/2-x,1/2+y,1/2-z
1/2-x,1/2-y,-z
1/2+x,1/2-y,1/2+z
loop_
_atom_site_type_symbol
_atom_site_label
_atom_site_fract_x
_atom_site_fract_y
_atom_site_fract_z
Si Si1 0.108269 0.849169 0.660268
Si Si2 0.566943 0.324834 0.349344
Si Si3 0.497418 0.589249 0.997735
Si Si4 0.503165 0.989830 0.855614
Si Si5 0.161340 0.734325 0.599531
Si Si6 0.079997 0.728629 0.025979
Si Si7 0.747146 0.497889 0.010248
Si Si8 0.963826 0.633011 0.151538
O O1 0.009322 0.863186 0.573438
O O2 0.141321 0.785524 0.667873
O O3 0.279125 0.875299 0.646369
O O4 0.000000 0.869966 0.750000
O O5 0.500000 0.326177 0.250000
O O6 0.528687 0.382729 0.396934
O O7 0.753514 0.313518 0.346653
O O8 0.500036 0.273740 0.407099
O O9 0.329421 0.560886 0.003943
O O10 0.619707 0.544144 0.020712
O O11 0.500000 0.011790 0.750000
O O12 0.465115 0.926326 0.860846
O O13 0.666372 0.005004 0.894889
O O14 0.364131 0.016038 0.922348
O O15 0.250000 0.750000 0.500000
O O16 0.991253 0.717873 0.572782
O O17 0.057868 0.670736 0.075824
O O18 0.250000 0.750000 0.000000
O O19 0.000000 0.658047 0.250000
#
# Coordination Sequence:
#
# PCOD8140266 Si02
#       8
#     8   8   8   8   8   8   8   8
#     4  12  24  38  67  96 128 166 214 264 319 376
#     4  11  23  41  63  89 132 174 209 254 319 387
#     4  11  23  43  64  94 123 165 220 267 317 376
#     4  10  23  42  65  92 125 164 209 264 333 385
#     4  10  20  41  60  86 130 169 203 260 305 375
#     4  11  23  37  64  93 128 169 210 258 314 385
#     4  10  24  42  67  90 124 164 214 275 322 376
#     4  11  23  38  61  95 130 163 207 266 317 379
#
# _framework density 20.856525000000001
#
# number of rings (size 3 to 8) (size 9 to 14) (size 15 to 20)
#    0.000    1.250    6.250    0.375    7.000    1.000 
#    0.000    2.500    0.000    0.750    0.000    0.000 
#    0.000    0.000    0.000    0.000    0.000    0.000 
#
# Total GULP energy -396616.162996 kJ/mol
# GULP energy per Si atom -12394.255094 kJ/mol
# Density = 2.080905 g / cm^3
# Si number density = 20.856525 Si / 1000 Ang^3
#
#
#
# Elastic Constant Matrix: (Units=GPa)
#
#
# Indices 1 2 3 4 5 6 
#
# 1 113.8781 18.8549 57.3620 0.0000 21.4244 0.0000
# 2 18.8549 47.4803 16.7302 0.0000 7.2468 0.0000
# 3 57.3620 16.7302 122.0401 0.0000 29.1041 0.0000
# 4 0.0000 0.0000 0.0000 24.5804 0.0000 4.6202
# 5 21.4244 7.2468 29.1041 0.0000 38.4534 0.0000
# 6 0.0000 0.0000 0.0000 4.6202 0.0000 19.9023
#
#
#
# Elastic Compliance Matrix: (Units=1/GPa)
#
#
# Indices 1 2 3 4 5 6 
#
# 1 0.012092 -0.002748 -0.004666 0.000000 -0.002688 0.000000
# 2 -0.002748 0.022921 -0.001447 0.000000 -0.001694 0.000000
# 3 -0.004666 -0.001447 0.012081 0.000000 -0.006271 0.000000
# 4 0.000000 0.000000 0.000000 0.042539 0.000000 -0.009875
# 5 -0.002688 -0.001694 -0.006271 0.000000 0.032569 0.000000
# 6 0.000000 0.000000 0.000000 -0.009875 0.000000 0.052538
#
#
# Mechanical properties :
#
#
# Convention : Reuss Voigt Hill
#
# Bulk Modulus (GPa) = 34.04446 52.14363 43.09404
# Shear Modulus (GPa) = 24.72164 29.28398 27.00281
#
# Velocity S-wave (km/s) = 3.44658 3.75115 3.60209
# Velocity P-wave (km/s) = 5.67425 6.61944 6.16499
#
# Compressibility (1/GPa) = 0.02937336
#
# Stress axis : x y z
#
# Youngs Moduli (GPa) = 82.69750 43.62856 82.77366
#
# Poissons Ratio (x) = 0.11987 0.38622
# Poissons Ratio (y) = 0.22722 0.11976
# Poissons Ratio (z) = 0.38587 0.06312
#
# Static dielectric constant tensor:
#      x y z
#    x 3.979380 0.000000 0.217350 
#    y 0.000000 3.647610 0.000000 
#    z 0.217350 0.000000 3.759240 
# 
# 
# High freq. dielectric constant tensor:
#      x y z
#    x 1.825070 0.000000 0.019540 
#    y 0.000000 1.804400 0.000000 
#    z 0.019540 0.000000 1.807960 
# 
# From -- ./inp_files/137871.got.cif
#   From: 2010.06.25/outbox.cif.g09.slc.cpg/sg15_69_cif.got.tgz:137871.got - 2010.06.28 07:06:18.
