data_PCOD8140902
_publ_section_title
;
Structure prediction by ZEFSAII (Michael W. Deem and Ramdas Pophale) SiO2 
 PCOD8140902
Probable space group: C 2/C
;
_chemical_formula_sum "Si O2"
_cell_formula_units_Z 40
_cell_length_a 9.508429
_cell_length_b 22.608916
_cell_length_c 10.538983
_cell_angle_alpha 90.000000
_cell_angle_beta 45.060949
_cell_angle_gamma 90.000000
_cell_volume 1603.739067
_symmetry_space_group_name_H-M "C 2/C"
_symmetry_group_IT_number 15
_symmetry_cell_setting 'monoclinic'
loop_
_space_group_symop_operation_xyz
x,y,z
-x,y,1/2-z
-x,-y,-z
x,-y,1/2+z
1/2+x,1/2+y,z
1/2-x,1/2+y,1/2-z
1/2-x,1/2-y,-z
1/2+x,1/2-y,1/2+z
loop_
_atom_site_type_symbol
_atom_site_label
_atom_site_fract_x
_atom_site_fract_y
_atom_site_fract_z
Si Si1 0.213523 0.492643 0.425042
Si Si2 0.000000 0.427794 0.750000
Si Si3 0.257971 0.117238 0.173627
Si Si4 0.987478 0.178306 0.528570
Si Si5 0.500000 0.605234 0.750000
Si Si6 0.955029 0.296181 0.140605
O O1 0.180478 0.471302 0.591327
O O2 0.314702 0.556477 0.346076
O O3 0.343178 0.439470 0.280829
O O4 0.000000 0.500000 0.500000
O O5 0.081281 0.388840 0.814626
O O6 0.053655 0.145497 0.357081
O O7 0.367648 0.157961 0.000235
O O8 0.098660 0.147391 0.578235
O O9 0.756649 0.171399 0.713875
O O10 0.045768 0.246953 0.470566
O O11 0.000000 0.267223 0.250000
#
# Coordination Sequence:
#
# PCOD8140902 Si02
#       6
#     8   4   8   8   4   8
#     4  10  23  44  71 108 150 196 242 310 379 445
#     4  10  20  47  70 106 149 184 254 300 378 446
#     4  11  25  46  76 106 151 200 243 314 373 440
#     4  12  26  47  77 110 150 196 256 316 375 448
#     4  12  26  49  76 116 149 194 262 310 386 458
#     4  12  28  49  74 111 152 205 258 304 382 451
#
# _framework density 24.941713
#
# number of rings (size 3 to 8) (size 9 to 14) (size 15 to 20)
#    0.000    0.800    4.000    3.000    1.400    4.000 
#    0.000    0.000    0.000    0.000    0.000    0.000 
#    0.000    0.000    0.000    0.000    0.000    0.000 
#
# Total GULP energy -247827.832853 kJ/mol
# GULP energy per Si atom -12391.391643 kJ/mol
# Density = 2.488494 g / cm^3
# Si number density = 24.941713 Si / 1000 Ang^3
#
#
#
# Elastic Constant Matrix: (Units=GPa)
#
#
# Indices 1 2 3 4 5 6 
#
# 1 55.1030 35.3238 18.2268 0.0000 -8.4284 0.0000
# 2 35.3238 176.7890 74.6550 0.0000 8.7208 0.0000
# 3 18.2268 74.6550 174.1971 0.0000 -11.5033 0.0000
# 4 0.0000 0.0000 0.0000 47.9711 0.0000 4.9909
# 5 -8.4284 8.7208 -11.5033 0.0000 40.1082 0.0000
# 6 0.0000 0.0000 0.0000 4.9909 0.0000 35.7952
#
#
#
# Elastic Compliance Matrix: (Units=1/GPa)
#
#
# Indices 1 2 3 4 5 6 
#
# 1 0.022009 -0.004717 0.000094 0.000000 0.005678 0.000000
# 2 -0.004717 0.008151 -0.003244 0.000000 -0.003694 0.000000
# 3 0.000094 -0.003244 0.007307 0.000000 0.002821 0.000000
# 4 0.000000 0.000000 0.000000 0.021153 0.000000 -0.002949
# 5 0.005678 -0.003694 0.002821 0.000000 0.027738 0.000000
# 6 0.000000 0.000000 0.000000 -0.002949 0.000000 0.028348
#
#
# Mechanical properties :
#
#
# Convention : Reuss Voigt Hill
#
# Bulk Modulus (GPa) = 46.01279 73.61115 59.81197
# Shear Modulus (GPa) = 36.31495 43.30048 39.80771
#
# Velocity S-wave (km/s) = 3.81989 4.17113 3.99937
# Velocity P-wave (km/s) = 6.15983 7.26465 6.73494
#
# Compressibility (1/GPa) = 0.02173309
#
# Stress axis : x y z
#
# Youngs Moduli (GPa) = 45.43545 122.68564 136.85191
#
# Poissons Ratio (x) = 0.57874 -0.01282
# Poissons Ratio (y) = 0.21433 0.44389
# Poissons Ratio (z) = -0.00426 0.39794
#
# Static dielectric constant tensor:
#      x y z
#    x 4.182050 0.000000 0.068490 
#    y 0.000000 4.848560 0.000000 
#    z 0.068490 0.000000 5.149280 
# 
# 
# High freq. dielectric constant tensor:
#      x y z
#    x 1.965910 0.000000 -0.008220 
#    y 0.000000 1.998500 0.000000 
#    z -0.008220 0.000000 2.017300 
# 
# From -- ./inp_files/89358.got.cif
#   From: 2010.06.25/outbox.cif.g09.slc.cpg/sg15_45_cif.got.tgz:89358.got - 2010.06.28 07:06:18.
