data_PCOD8140935
_publ_section_title
;
Structure prediction by ZEFSAII (Michael W. Deem and Ramdas Pophale) SiO2 
 PCOD8140935
Probable space group: C 2/C
;
_chemical_formula_sum "Si O2"
_cell_formula_units_Z 56
_cell_length_a 17.082452
_cell_length_b 8.776685
_cell_length_c 30.988473
_cell_angle_alpha 90.000000
_cell_angle_beta 140.664207
_cell_angle_gamma 90.000000
_cell_volume 2944.944410
_symmetry_space_group_name_H-M "C 2/C"
_symmetry_group_IT_number 15
_symmetry_cell_setting 'monoclinic'
loop_
_space_group_symop_operation_xyz
x,y,z
-x,y,1/2-z
-x,-y,-z
x,-y,1/2+z
1/2+x,1/2+y,z
1/2-x,1/2+y,1/2-z
1/2-x,1/2-y,-z
1/2+x,1/2-y,1/2+z
loop_
_atom_site_type_symbol
_atom_site_label
_atom_site_fract_x
_atom_site_fract_y
_atom_site_fract_z
Si Si1 0.436434 0.341993 0.527829
Si Si2 0.962446 0.277731 0.280930
Si Si3 0.292544 0.134620 0.348346
Si Si4 0.781203 0.137325 0.089629
Si Si5 0.509271 0.670842 0.962701
Si Si6 0.532078 0.920597 0.129076
Si Si7 0.319263 0.113713 0.007666
O O1 0.296669 0.281966 0.461631
O O2 0.436695 0.522273 0.539782
O O3 0.510795 0.343250 0.514762
O O4 0.506066 0.239561 0.593309
O O5 0.842788 0.171533 0.227132
O O6 0.933907 0.400720 0.305943
O O7 0.000000 0.350392 0.250000
O O8 0.076506 0.177129 0.345405
O O9 0.279130 0.076571 0.391810
O O10 0.374937 0.289172 0.385015
O O11 0.353158 0.003334 0.345127
O O12 0.779020 0.001915 0.054321
O O13 0.595701 0.816994 0.993413
O O14 0.409427 0.023313 0.078326
O O15 0.250000 0.250000 0.000000
#
# Coordination Sequence:
#
# PCOD8140935 Si02
#       7
#     8   8   8   8   8   8   8
#     4   9  18  32  59  87 109 140 182 230 285 335
#     4  10  22  38  59  80 111 153 194 231 270 330
#     4   9  19  39  57  78 109 152 189 222 270 337
#     4   9  19  36  59  80 112 146 182 224 284 337
#     4   9  18  33  54  86 116 139 176 233 282 326
#     4  10  21  36  58  81 108 147 188 229 278 331
#     4  10  21  33  54  84 116 137 174 233 285 332
#
# _framework density 19.015639
#
# number of rings (size 3 to 8) (size 9 to 14) (size 15 to 20)
#    0.000    2.571    0.000    0.857    4.000    5.714 
#    2.571    0.000    3.143    0.000    0.000    0.000 
#    0.000    0.000    0.000    0.000    0.000    0.000 
#
# Total GULP energy -347008.548732 kJ/mol
# GULP energy per Si atom -12393.162455 kJ/mol
# Density = 1.897236 g / cm^3
# Si number density = 19.015639 Si / 1000 Ang^3
#
#
#
# Elastic Constant Matrix: (Units=GPa)
#
#
# Indices 1 2 3 4 5 6 
#
# 1 79.4669 28.1848 43.6128 0.0000 -4.9624 0.0000
# 2 28.1848 86.4844 39.1747 -0.0001 -2.3702 0.0001
# 3 43.6128 39.1747 101.4811 0.0000 5.4422 0.0000
# 4 0.0000 -0.0001 0.0000 16.5395 0.0000 -4.0218
# 5 -4.9624 -2.3702 5.4422 0.0000 30.8058 0.0000
# 6 0.0000 0.0001 0.0000 -4.0218 0.0000 37.5452
#
#
#
# Elastic Compliance Matrix: (Units=1/GPa)
#
#
# Indices 1 2 3 4 5 6 
#
# 1 0.017397 -0.002529 -0.006703 0.000000 0.003792 0.000000
# 2 -0.002529 0.014511 -0.004596 0.000000 0.001521 0.000000
# 3 -0.006703 -0.004596 0.014726 0.000000 -0.004035 0.000000
# 4 0.000000 0.000000 0.000000 0.062078 0.000000 0.006650
# 5 0.003792 0.001521 -0.004035 0.000000 0.033902 0.000000
# 6 0.000000 0.000000 0.000000 0.006650 0.000000 0.027347
#
#
# Mechanical properties :
#
#
# Convention : Reuss Voigt Hill
#
# Bulk Modulus (GPa) = 52.69993 54.37520 53.53756
# Shear Modulus (GPa) = 24.51671 27.40877 25.96274
#
# Velocity S-wave (km/s) = 3.59457 3.80067 3.69905
# Velocity P-wave (km/s) = 6.70836 6.92222 6.81613
#
# Compressibility (1/GPa) = 0.01897536
#
# Stress axis : x y z
#
# Youngs Moduli (GPa) = 57.48242 68.91507 67.90888
#
# Poissons Ratio (x) = 0.17429 0.45523
# Poissons Ratio (y) = 0.14538 0.31212
# Poissons Ratio (z) = 0.38533 0.31675
#
# Static dielectric constant tensor:
#      x y z
#    x 3.757660 0.000000 -0.006640 
#    y 0.000000 3.544360 0.000000 
#    z -0.006640 0.000000 3.475060 
# 
# 
# High freq. dielectric constant tensor:
#      x y z
#    x 1.755780 0.000000 0.000400 
#    y 0.000000 1.725970 0.000000 
#    z 0.000400 0.000000 1.727570 
# 
# From -- ./inp_files/247585.got.cif
#   From: 2010.06.25/outbox.cif.g09.slc.cpg/sg15_124_cif.got.tgz:247585.got - 2010.06.28 07:06:18.
