data_PCOD8140878
_publ_section_title
;
Structure prediction by ZEFSAII (Michael W. Deem and Ramdas Pophale) SiO2 
 PCOD8140878
Probable space group: C 2/C
;
_chemical_formula_sum "Si O2"
_cell_formula_units_Z 44
_cell_length_a 16.282929
_cell_length_b 15.449620
_cell_length_c 7.944067
_cell_angle_alpha 90.000000
_cell_angle_beta 73.611821
_cell_angle_gamma 90.000000
_cell_volume 1917.257130
_symmetry_space_group_name_H-M "C 2/C"
_symmetry_group_IT_number 15
_symmetry_cell_setting 'monoclinic'
loop_
_space_group_symop_operation_xyz
x,y,z
-x,y,1/2-z
-x,-y,-z
x,-y,1/2+z
1/2+x,1/2+y,z
1/2-x,1/2+y,1/2-z
1/2-x,1/2-y,-z
1/2+x,1/2-y,1/2+z
loop_
_atom_site_type_symbol
_atom_site_label
_atom_site_fract_x
_atom_site_fract_y
_atom_site_fract_z
Si Si1 0.000000 0.869762 0.750000
Si Si2 0.316165 0.565614 0.368375
Si Si3 0.222669 0.275438 0.828321
Si Si4 0.955790 0.416833 0.103037
Si Si5 0.239378 0.403289 0.268692
Si Si6 0.024462 0.252798 0.917554
O O1 0.917577 0.930729 0.780174
O O2 0.006238 0.813095 0.578169
O O3 0.268024 0.631580 0.265161
O O4 0.286157 0.466451 0.371546
O O5 0.294665 0.593194 0.568300
O O6 0.256518 0.198954 0.682000
O O7 0.121561 0.286188 0.869086
O O8 0.250000 0.250000 0.000000
O O9 0.856982 0.436438 0.197758
O O10 0.000000 0.388846 0.250000
O O11 0.000000 0.500000 0.000000
O O12 0.964154 0.337038 0.970456
O O13 0.000000 0.211228 0.750000
#
# Coordination Sequence:
#
# PCOD8140878 Si02
#       6
#     4   8   8   8   8   8
#     4  12  24  50  72 100 144 198 236 312 364 422
#     4  11  25  44  73 100 142 194 245 298 375 432
#     4  10  20  45  70  98 144 192 234 292 374 427
#     4  12  23  40  68 104 150 190 235 302 372 436
#     4  11  23  43  67 103 139 191 239 293 365 437
#     4  12  25  43  74 111 141 189 251 294 365 444
#
# _framework density 22.949449999999999
#
# number of rings (size 3 to 8) (size 9 to 14) (size 15 to 20)
#    0.000    0.727    4.545    6.000    0.000    3.636 
#    1.636    2.727    0.000    0.000    0.000    0.000 
#    0.000    0.000    0.000    0.000    0.000    0.000 
#
# Total GULP energy -272770.578089 kJ/mol
# GULP energy per Si atom -12398.662640 kJ/mol
# Density = 2.289722 g / cm^3
# Si number density = 22.949450 Si / 1000 Ang^3
#
#
#
# Elastic Constant Matrix: (Units=GPa)
#
#
# Indices 1 2 3 4 5 6 
#
# 1 155.1329 0.8714 36.5304 0.0000 -25.5168 0.0000
# 2 0.8714 69.3038 8.3095 0.0000 5.2693 0.0000
# 3 36.5304 8.3095 72.8951 0.0000 2.4108 0.0000
# 4 0.0000 0.0000 0.0000 29.7460 0.0000 -2.7666
# 5 -25.5168 5.2693 2.4108 0.0000 44.7370 0.0000
# 6 0.0000 0.0000 0.0000 -2.7666 0.0000 25.2891
#
#
#
# Elastic Compliance Matrix: (Units=1/GPa)
#
#
# Indices 1 2 3 4 5 6 
#
# 1 0.008276 0.000037 -0.004315 0.000000 0.004949 0.000000
# 2 0.000037 0.014750 -0.001646 0.000000 -0.001627 0.000000
# 3 -0.004315 -0.001646 0.016172 0.000000 -0.003139 0.000000
# 4 0.000000 0.000000 0.000000 0.033964 0.000000 0.003716
# 5 0.004949 -0.001627 -0.003139 0.000000 0.025536 0.000000
# 6 0.000000 0.000000 0.000000 0.003716 0.000000 0.039949
#
#
# Mechanical properties :
#
#
# Convention : Reuss Voigt Hill
#
# Bulk Modulus (GPa) = 36.56371 43.19495 39.87933
# Shear Modulus (GPa) = 31.32590 36.72913 34.02751
#
# Velocity S-wave (km/s) = 3.69859 4.00489 3.85478
# Velocity P-wave (km/s) = 5.84862 6.34414 6.10141
#
# Compressibility (1/GPa) = 0.02734952
#
# Stress axis : x y z
#
# Youngs Moduli (GPa) = 120.83141 67.79725 61.83396
#
# Poissons Ratio (x) = -0.00251 0.26683
# Poissons Ratio (y) = -0.00448 0.10179
# Poissons Ratio (z) = 0.52142 0.11160
#
# Static dielectric constant tensor:
#      x y z
#    x 4.153420 0.000000 -0.158020 
#    y 0.000000 5.751660 0.000000 
#    z -0.158020 0.000000 4.427900 
# 
# 
# High freq. dielectric constant tensor:
#      x y z
#    x 1.913460 0.000000 -0.014080 
#    y 0.000000 1.913540 0.000000 
#    z -0.014080 0.000000 1.890170 
# 
# From -- ./inp_files/47004.got.cif
#   From: 2010.06.25/outbox.cif.g09.slc.cpg/sg15_24_cif.got.tgz:47004.got - 2010.06.28 07:06:18.
