data_PCOD8140413
_publ_section_title
;
Structure prediction by ZEFSAII (Michael W. Deem and Ramdas Pophale) SiO2 
 PCOD8140413
Probable space group: C 2/C
;
_chemical_formula_sum "Si O2"
_cell_formula_units_Z 44
_cell_length_a 15.475153
_cell_length_b 14.276918
_cell_length_c 20.683667
_cell_angle_alpha 90.000000
_cell_angle_beta 153.985176
_cell_angle_gamma 90.000000
_cell_volume 2004.329968
_symmetry_space_group_name_H-M "C 2/C"
_symmetry_group_IT_number 15
_symmetry_cell_setting 'monoclinic'
loop_
_space_group_symop_operation_xyz
x,y,z
-x,y,1/2-z
-x,-y,-z
x,-y,1/2+z
1/2+x,1/2+y,z
1/2-x,1/2+y,1/2-z
1/2-x,1/2-y,-z
1/2+x,1/2-y,1/2+z
loop_
_atom_site_type_symbol
_atom_site_label
_atom_site_fract_x
_atom_site_fract_y
_atom_site_fract_z
Si Si1 0.716813 0.486056 0.727575
Si Si2 0.186743 0.952688 0.563215
Si Si3 0.572820 0.831561 0.162385
Si Si4 0.213993 0.750021 0.401819
Si Si5 0.594518 0.809184 0.583326
Si Si6 0.000000 0.391613 0.250000
O O1 0.650271 0.440317 0.615233
O O2 0.515077 0.537602 0.614742
O O3 0.888450 0.561669 0.832986
O O4 0.796513 0.407838 0.830484
O O5 0.302486 0.858905 0.626042
O O6 0.308236 0.045199 0.628312
O O7 0.776821 0.774356 0.300547
O O8 0.475211 0.828063 0.168416
O O9 0.427898 0.791889 0.009151
O O10 0.250000 0.750000 0.500000
O O11 0.379705 0.806718 0.472888
O O12 0.000000 0.798107 0.250000
#
# Coordination Sequence:
#
# PCOD8140413 Si02
#       6
#     8   8   8   8   8   4
#     4  10  22  42  69  94 132 181 228 270 341 414
#     4  10  20  41  67  94 131 181 223 277 342 405
#     4  11  25  44  68  97 133 177 229 280 342 409
#     4  12  24  40  66 104 135 169 222 285 344 406
#     4  12  25  44  70  98 137 180 227 283 342 414
#     4  10  24  42  66  94 136 178 232 278 340 402
#
# _framework density 21.952475
#
# number of rings (size 3 to 8) (size 9 to 14) (size 15 to 20)
#    0.000    1.091    2.727    3.818    7.636    0.727 
#    0.000    0.000    0.000    0.000    0.000    0.000 
#    0.000    0.000    0.000    0.000    0.000    0.000 
#
# Total GULP energy -272710.942625 kJ/mol
# GULP energy per Si atom -12395.951938 kJ/mol
# Density = 2.190251 g / cm^3
# Si number density = 21.952475 Si / 1000 Ang^3
#
#
#
# Elastic Constant Matrix: (Units=GPa)
#
#
# Indices 1 2 3 4 5 6 
#
# 1 85.5626 0.6699 31.9132 0.0188 -15.4410 0.0051
# 2 0.6699 61.6392 14.8103 -0.0033 -9.0704 -0.0036
# 3 31.9132 14.8103 117.8903 0.0106 -15.3501 -0.0042
# 4 0.0188 -0.0033 0.0106 28.2385 -0.0055 -5.2394
# 5 -15.4410 -9.0704 -15.3501 -0.0055 39.7293 -0.0024
# 6 0.0051 -0.0036 -0.0042 -5.2394 -0.0024 31.3864
#
#
#
# Elastic Compliance Matrix: (Units=1/GPa)
#
#
# Indices 1 2 3 4 5 6 
#
# 1 0.013692 0.001283 -0.003303 -0.000007 0.004338 -0.000003
# 2 0.001283 0.017236 -0.002038 0.000003 0.003646 0.000002
# 3 -0.003303 -0.002038 0.009903 -0.000001 0.002077 0.000002
# 4 -0.000007 0.000003 -0.000001 0.036545 0.000003 0.006101
# 5 0.004338 0.003646 0.002077 0.000003 0.028492 0.000003
# 6 -0.000003 0.000002 0.000002 0.006101 0.000003 0.032879
#
#
# Mechanical properties :
#
#
# Convention : Reuss Voigt Hill
#
# Bulk Modulus (GPa) = 30.56619 39.98653 35.27636
# Shear Modulus (GPa) = 31.69240 34.38410 33.03825
#
# Velocity S-wave (km/s) = 3.80370 3.96194 3.88363
# Velocity P-wave (km/s) = 5.76584 6.25970 6.01784
#
# Compressibility (1/GPa) = 0.03271589
#
# Stress axis : x y z
#
# Youngs Moduli (GPa) = 73.03478 58.01903 100.97918
#
# Poissons Ratio (x) = -0.07445 0.33351
# Poissons Ratio (y) = -0.09372 0.20578
# Poissons Ratio (z) = 0.24122 0.11824
#
# Static dielectric constant tensor:
#      x y z
#    x 3.974780 -0.000010 -0.100900 
#    y -0.000010 3.636540 -0.000050 
#    z -0.100900 -0.000050 3.985170 
# 
# 
# High freq. dielectric constant tensor:
#      x y z
#    x 1.853130 0.000000 -0.003380 
#    y 0.000000 1.857290 0.000000 
#    z -0.003380 0.000000 1.869880 
# 
# From -- ./inp_files/47013.got.cif
#   From: 2010.06.25/outbox.cif.g09.slc.cpg/sg15_24_cif.got.tgz:47013.got - 2010.06.28 07:06:18.
