data_PCOD8140197
_publ_section_title
;
Structure prediction by ZEFSAII (Michael W. Deem and Ramdas Pophale) SiO2 
 PCOD8140197
Probable space group: C 2/C
;
_chemical_formula_sum "Si O2"
_cell_formula_units_Z 44
_cell_length_a 27.270301
_cell_length_b 12.649921
_cell_length_c 13.831909
_cell_angle_alpha 90.000000
_cell_angle_beta 158.033170
_cell_angle_gamma 90.000000
_cell_volume 1784.894162
_symmetry_space_group_name_H-M "C 2/C"
_symmetry_group_IT_number 15
_symmetry_cell_setting 'monoclinic'
loop_
_space_group_symop_operation_xyz
x,y,z
-x,y,1/2-z
-x,-y,-z
x,-y,1/2+z
1/2+x,1/2+y,z
1/2-x,1/2+y,1/2-z
1/2-x,1/2-y,-z
1/2+x,1/2-y,1/2+z
loop_
_atom_site_type_symbol
_atom_site_label
_atom_site_fract_x
_atom_site_fract_y
_atom_site_fract_z
Si Si1 0.962952 0.811220 0.073916
Si Si2 0.185836 0.987174 0.212692
Si Si3 0.266045 0.302438 0.427320
Si Si4 0.642162 0.004743 0.150326
Si Si5 0.500000 0.658580 0.250000
Si Si6 0.115845 0.621164 0.287820
O O1 0.000000 0.843172 0.250000
O O2 0.085485 0.747237 0.249347
O O3 0.839005 0.733174 0.845304
O O4 0.910236 0.918115 0.923610
O O5 0.297195 0.035605 0.343322
O O6 0.251574 0.920157 0.418863
O O7 0.098096 0.908432 0.992720
O O8 0.250000 0.250000 0.500000
O O9 0.244267 0.428345 0.395200
O O10 0.411501 0.269961 0.658688
O O11 0.627974 0.107004 0.193972
O O12 0.501110 0.949126 0.880866
#
# Coordination Sequence:
#
# PCOD8140197 Si02
#       6
#     8   8   8   8   4   8
#     4  11  22  41  65  95 131 171 224 278 330 412
#     4  11  21  41  68  93 133 177 217 278 348 398
#     4  10  21  42  66  96 133 173 226 284 340 410
#     4   9  20  39  65  96 128 171 225 270 341 417
#     4  10  22  42  64  94 132 172 222 276 346 412
#     4  10  20  40  69  91 132 178 215 280 344 402
#
# _framework density 24.651319999999998
#
# number of rings (size 3 to 8) (size 9 to 14) (size 15 to 20)
#    0.000    1.818    0.909    4.909    0.000    0.000 
#   16.364    3.636    0.000    0.000    0.000    0.000 
#    0.000    0.000    0.000    0.000    0.000    0.000 
#
# Total GULP energy -272591.164492 kJ/mol
# GULP energy per Si atom -12390.507477 kJ/mol
# Density = 2.459521 g / cm^3
# Si number density = 24.651320 Si / 1000 Ang^3
#
#
#
# Elastic Constant Matrix: (Units=GPa)
#
#
# Indices 1 2 3 4 5 6 
#
# 1 60.2293 27.8539 26.0186 0.0000 5.4946 0.0000
# 2 27.8539 84.7530 22.2103 0.0000 3.1520 0.0000
# 3 26.0186 22.2103 124.3650 0.0000 -1.2831 0.0000
# 4 0.0000 0.0000 0.0000 39.9070 0.0000 5.5117
# 5 5.4946 3.1520 -1.2831 0.0000 22.0991 0.0000
# 6 0.0000 0.0000 0.0000 5.5117 0.0000 33.1692
#
#
#
# Elastic Compliance Matrix: (Units=1/GPa)
#
#
# Indices 1 2 3 4 5 6 
#
# 1 0.021244 -0.005908 -0.003437 0.000000 -0.004639 0.000000
# 2 -0.005908 0.014101 -0.001289 0.000000 -0.000617 0.000000
# 3 -0.003437 -0.001289 0.009006 0.000000 0.001561 0.000000
# 4 0.000000 0.000000 0.000000 0.025647 0.000000 -0.004262
# 5 -0.004639 -0.000617 0.001561 0.000000 0.046583 0.000000
# 6 0.000000 0.000000 0.000000 -0.004262 0.000000 0.030857
#
#
# Mechanical properties :
#
#
# Convention : Reuss Voigt Hill
#
# Bulk Modulus (GPa) = 43.32203 46.83476 45.07840
# Shear Modulus (GPa) = 28.34468 31.91938 30.13203
#
# Velocity S-wave (km/s) = 3.39458 3.60228 3.49998
# Velocity P-wave (km/s) = 5.74250 6.02844 5.88721
#
# Compressibility (1/GPa) = 0.02308294
#
# Stress axis : x y z
#
# Youngs Moduli (GPa) = 47.07289 70.91483 111.03498
#
# Poissons Ratio (x) = 0.41900 0.38164
# Poissons Ratio (y) = 0.27813 0.14308
# Poissons Ratio (z) = 0.16179 0.09138
#
# Static dielectric constant tensor:
#      x y z
#    x 4.967340 0.000000 0.873980 
#    y 0.000000 4.510820 0.000000 
#    z 0.873980 0.000000 5.203060 
# 
# 
# High freq. dielectric constant tensor:
#      x y z
#    x 1.959910 0.000000 0.002880 
#    y 0.000000 1.964010 0.000000 
#    z 0.002880 0.000000 1.994810 
# 
# From -- ./inp_files/182367.got.cif
#   From: 2010.06.25/outbox.cif.g09.slc.cpg/sg15_92_cif.got.tgz:182367.got - 2010.06.28 07:06:18.
