data_PCOD8140560
_publ_section_title
;
Structure prediction by ZEFSAII (Michael W. Deem and Ramdas Pophale) SiO2 
 PCOD8140560
Probable space group: C 2/C
;
_chemical_formula_sum "Si O2"
_cell_formula_units_Z 56
_cell_length_a 23.487314
_cell_length_b 8.266226
_cell_length_c 13.095554
_cell_angle_alpha 90.000000
_cell_angle_beta 73.053060
_cell_angle_gamma 90.000000
_cell_volume 2432.112040
_symmetry_space_group_name_H-M "C 2/C"
_symmetry_group_IT_number 15
_symmetry_cell_setting 'monoclinic'
loop_
_space_group_symop_operation_xyz
x,y,z
-x,y,1/2-z
-x,-y,-z
x,-y,1/2+z
1/2+x,1/2+y,z
1/2-x,1/2+y,1/2-z
1/2-x,1/2-y,-z
1/2+x,1/2-y,1/2+z
loop_
_atom_site_type_symbol
_atom_site_label
_atom_site_fract_x
_atom_site_fract_y
_atom_site_fract_z
Si Si1 0.721573 0.223458 0.337069
Si Si2 0.167504 0.387366 0.297359
Si Si3 0.156586 0.847543 0.549106
Si Si4 0.945609 0.252788 0.848670
Si Si5 0.856847 0.057062 0.764156
Si Si6 0.891966 0.123247 0.061566
Si Si7 0.933981 0.387102 0.311095
O O1 0.791262 0.267977 0.292092
O O2 0.704812 0.235378 0.466162
O O3 0.689507 0.353818 0.282272
O O4 0.703717 0.046718 0.307406
O O5 0.148075 0.286479 0.407918
O O6 0.107045 0.424796 0.266085
O O7 0.096487 0.744371 0.599487
O O8 0.178807 0.932247 0.642442
O O9 0.145083 0.988031 0.475325
O O10 0.888342 0.187309 0.819293
O O11 0.942389 0.444618 0.866852
O O12 0.000000 0.198991 0.750000
O O13 0.949054 0.171474 0.960846
O O14 0.903768 0.949236 0.670093
O O15 0.000000 0.320941 0.250000
#
# Coordination Sequence:
#
# PCOD8140560 Si02
#       7
#     8   8   8   8   8   8   8
#     4  11  24  43  70 102 135 178 226 282 340 399
#     4  12  24  47  71  99 142 176 224 285 334 405
#     4  10  22  42  69 101 137 178 228 276 340 400
#     4  10  22  42  64  96 137 180 230 274 331 404
#     4  10  20  42  65 100 137 175 227 278 339 395
#     4  10  22  42  65  98 136 172 227 277 339 394
#     4  11  24  46  70  99 138 179 228 276 335 406
#
# _framework density 23.025255000000001
#
# number of rings (size 3 to 8) (size 9 to 14) (size 15 to 20)
#    0.000    1.429    2.857    2.571    0.000    3.429 
#    7.714    4.286    0.000    0.000    0.000    0.000 
#    0.000    0.000    0.000    0.000    0.000    0.000 
#
# Total GULP energy -346896.870673 kJ/mol
# GULP energy per Si atom -12389.173953 kJ/mol
# Density = 2.297285 g / cm^3
# Si number density = 23.025255 Si / 1000 Ang^3
#
#
#
# Elastic Constant Matrix: (Units=GPa)
#
#
# Indices 1 2 3 4 5 6 
#
# 1 72.6608 19.6104 18.3451 0.0000 -8.0467 0.0000
# 2 19.6104 109.4393 48.7469 0.0000 -0.8073 0.0000
# 3 18.3451 48.7469 161.6139 0.0000 -11.7968 0.0000
# 4 0.0000 0.0000 0.0000 42.5346 0.0000 -4.2971
# 5 -8.0467 -0.8073 -11.7968 0.0000 31.7748 0.0000
# 6 0.0000 0.0000 0.0000 -4.2971 0.0000 31.2183
#
#
#
# Elastic Compliance Matrix: (Units=1/GPa)
#
#
# Indices 1 2 3 4 5 6 
#
# 1 0.014960 -0.002323 -0.000745 0.000000 0.003453 0.000000
# 2 -0.002323 0.010944 -0.003145 0.000000 -0.001478 0.000000
# 3 -0.000745 -0.003145 0.007402 0.000000 0.002479 0.000000
# 4 0.000000 0.000000 0.000000 0.023842 0.000000 0.003282
# 5 0.003453 -0.001478 0.002479 0.000000 0.033229 0.000000
# 6 0.000000 0.000000 0.000000 0.003282 0.000000 0.032484
#
#
# Mechanical properties :
#
#
# Convention : Reuss Voigt Hill
#
# Bulk Modulus (GPa) = 47.89651 57.45764 52.67708
# Shear Modulus (GPa) = 35.15002 38.23964 36.69483
#
# Velocity S-wave (km/s) = 3.91139 4.07968 3.99642
# Velocity P-wave (km/s) = 6.42227 6.87023 6.65002
#
# Compressibility (1/GPa) = 0.02087835
#
# Stress axis : x y z
#
# Youngs Moduli (GPa) = 66.84423 91.37612 135.10200
#
# Poissons Ratio (x) = 0.21229 0.10070
# Poissons Ratio (y) = 0.15529 0.42491
# Poissons Ratio (z) = 0.04982 0.28739
#
# Static dielectric constant tensor:
#      x y z
#    x 3.743500 0.000000 -0.013920 
#    y 0.000000 4.380520 0.000000 
#    z -0.013920 0.000000 4.747360 
# 
# 
# High freq. dielectric constant tensor:
#      x y z
#    x 1.877520 0.000000 0.002280 
#    y 0.000000 1.937350 0.000000 
#    z 0.002280 0.000000 1.924650 
# 
# From -- ./inp_files/172279.got.cif
#   From: 2010.06.25/outbox.cif.g09.slc.cpg/sg15_87_cif.got.tgz:172279.got - 2010.06.28 07:06:18.
