data_PCOD8140526
_publ_section_title
;
Structure prediction by ZEFSAII (Michael W. Deem and Ramdas Pophale) SiO2 
 PCOD8140526
Probable space group: C 2/C
;
_chemical_formula_sum "Si O2"
_cell_formula_units_Z 40
_cell_length_a 17.328948
_cell_length_b 12.510229
_cell_length_c 9.217534
_cell_angle_alpha 90.000000
_cell_angle_beta 62.178332
_cell_angle_gamma 90.000000
_cell_volume 1767.271065
_symmetry_space_group_name_H-M "C 2/C"
_symmetry_group_IT_number 15
_symmetry_cell_setting 'monoclinic'
loop_
_space_group_symop_operation_xyz
x,y,z
-x,y,1/2-z
-x,-y,-z
x,-y,1/2+z
1/2+x,1/2+y,z
1/2-x,1/2+y,1/2-z
1/2-x,1/2-y,-z
1/2+x,1/2-y,1/2+z
loop_
_atom_site_type_symbol
_atom_site_label
_atom_site_fract_x
_atom_site_fract_y
_atom_site_fract_z
Si Si1 0.966953 0.331970 0.494735
Si Si2 0.187598 0.765477 0.838431
Si Si3 0.528053 0.604158 0.389771
Si Si4 0.852062 0.638540 0.346800
Si Si5 0.135345 0.600928 0.678714
O O1 0.943405 0.366485 0.678960
O O2 0.885981 0.353866 0.460130
O O3 0.976008 0.205213 0.493378
O O4 0.050626 0.396064 0.360373
O O5 0.130423 0.865452 0.827097
O O6 0.280038 0.802882 0.813423
O O7 0.205201 0.679462 0.694423
O O8 0.135470 0.701748 0.013287
O O9 0.500000 0.583222 0.250000
O O10 0.500000 0.500000 0.500000
O O11 0.823604 0.515193 0.388068
#
# Coordination Sequence:
#
# PCOD8140526 Si02
#       5
#     8   8   8   8   8
#     4  10  21  40  66  93 124 165 219 264 316 383
#     4  10  24  44  60  98 136 156 228 259 316 402
#     4  11  24  45  65  90 125 172 216 267 313 383
#     4  11  23  38  66  98 129 175 199 272 330 376
#     4  10  20  42  63  93 132 165 215 262 316 385
#
# _framework density 22.633765
#
# number of rings (size 3 to 8) (size 9 to 14) (size 15 to 20)
#    0.000    1.600    4.000    1.800    2.800    9.600 
#    7.200    0.000    0.000    0.000    0.000    0.000 
#    0.000    0.000    0.000    0.000    0.000    0.000 
#
# Total GULP energy -247858.489951 kJ/mol
# GULP energy per Si atom -12392.924498 kJ/mol
# Density = 2.258225 g / cm^3
# Si number density = 22.633765 Si / 1000 Ang^3
#
#
#
# Elastic Constant Matrix: (Units=GPa)
#
#
# Indices 1 2 3 4 5 6 
#
# 1 32.4180 23.5345 14.0318 0.0000 27.7675 0.0000
# 2 23.5345 133.2285 12.9938 0.0000 7.3738 0.0000
# 3 14.0318 12.9938 73.0148 0.0000 12.3304 0.0000
# 4 0.0000 0.0000 0.0000 27.3478 0.0000 1.0232
# 5 27.7675 7.3738 12.3304 0.0000 34.3680 0.0000
# 6 0.0000 0.0000 0.0000 1.0232 0.0000 22.4510
#
#
#
# Elastic Compliance Matrix: (Units=1/GPa)
#
#
# Indices 1 2 3 4 5 6 
#
# 1 0.132802 -0.017317 -0.005266 0.000000 -0.101692 0.000000
# 2 -0.017317 0.009945 -0.000473 0.000000 0.012027 0.000000
# 3 -0.005266 -0.000473 0.014963 0.000000 -0.001012 0.000000
# 4 0.000000 0.000000 0.000000 0.036629 0.000000 -0.001669
# 5 -0.101692 0.012027 -0.001012 0.000000 0.109041 0.000000
# 6 0.000000 0.000000 0.000000 -0.001669 0.000000 0.044618
#
#
# Mechanical properties :
#
#
# Convention : Reuss Voigt Hill
#
# Bulk Modulus (GPa) = 8.96081 37.75347 23.35714
# Shear Modulus (GPa) = 11.59261 29.37344 20.48303
#
# Velocity S-wave (km/s) = 2.26560 3.60637 3.01155
# Velocity P-wave (km/s) = 3.28809 5.83588 4.73651
#
# Compressibility (1/GPa) = 0.11159701
#
# Stress axis : x y z
#
# Youngs Moduli (GPa) = 7.53002 100.54891 66.83153
#
# Poissons Ratio (x) = 1.74122 0.35196
# Poissons Ratio (y) = 0.13040 0.03161
# Poissons Ratio (z) = 0.03966 0.04756
#
# Static dielectric constant tensor:
#      x y z
#    x 3.997940 0.000000 0.394330 
#    y 0.000000 3.720330 0.000000 
#    z 0.394330 0.000000 4.157080 
# 
# 
# High freq. dielectric constant tensor:
#      x y z
#    x 1.887690 0.000000 0.033600 
#    y 0.000000 1.897380 0.000000 
#    z 0.033600 0.000000 1.892670 
# 
# From -- ./inp_files/46093.got.cif
#   From: 2010.06.25/outbox.cif.g09.slc.cpg/sg15_24_cif.got.tgz:46093.got - 2010.06.28 07:06:18.
