data_PCOD8140604
_publ_section_title
;
Structure prediction by ZEFSAII (Michael W. Deem and Ramdas Pophale) SiO2 
 PCOD8140604
Probable space group: C 2/C
;
_chemical_formula_sum "Si O2"
_cell_formula_units_Z 56
_cell_length_a 23.213283
_cell_length_b 8.682623
_cell_length_c 15.145053
_cell_angle_alpha 90.000000
_cell_angle_beta 118.219190
_cell_angle_gamma 90.000000
_cell_volume 2689.711836
_symmetry_space_group_name_H-M "C 2/C"
_symmetry_group_IT_number 15
_symmetry_cell_setting 'monoclinic'
loop_
_space_group_symop_operation_xyz
x,y,z
-x,y,1/2-z
-x,-y,-z
x,-y,1/2+z
1/2+x,1/2+y,z
1/2-x,1/2+y,1/2-z
1/2-x,1/2-y,-z
1/2+x,1/2-y,1/2+z
loop_
_atom_site_type_symbol
_atom_site_label
_atom_site_fract_x
_atom_site_fract_y
_atom_site_fract_z
Si Si1 0.427104 0.835453 0.688891
Si Si2 0.553480 0.887078 0.430646
Si Si3 0.184128 0.829762 0.488031
Si Si4 0.658950 0.320099 0.949748
Si Si5 0.586057 0.995924 0.146022
Si Si6 0.755467 0.150330 0.141495
Si Si7 0.709536 0.838860 0.175580
O O1 0.500000 0.765447 0.750000
O O2 0.377548 0.706688 0.618650
O O3 0.424208 0.978993 0.619821
O O4 0.405339 0.879270 0.771215
O O5 0.582929 0.724460 0.414366
O O6 0.474694 0.881351 0.376938
O O7 0.579168 0.918154 0.547661
O O8 0.250000 0.750000 0.500000
O O9 0.173611 0.768827 0.578809
O O10 0.185021 0.013663 0.499618
O O11 0.675907 0.308372 0.857570
O O12 0.697225 0.189111 0.032189
O O13 0.652796 0.903804 0.195981
O O14 0.745226 0.239516 0.226084
O O15 0.753477 0.967733 0.159399
#
# Coordination Sequence:
#
# PCOD8140604 Si02
#       7
#     8   8   8   8   8   8   8
#     4  10  22  42  67  92 126 175 217 265 333 402
#     4  10  20  42  66  93 120 168 221 269 324 390
#     4  12  25  41  63  94 136 177 215 274 336 400
#     4  11  23  42  63  92 132 170 220 271 335 391
#     4  10  21  37  70  92 124 163 222 270 324 397
#     4  11  24  38  63  93 128 173 211 277 328 405
#     4  12  23  41  62  96 130 168 220 265 340 398
#
# _framework density 20.820074999999999
#
# number of rings (size 3 to 8) (size 9 to 14) (size 15 to 20)
#    0.000    1.143    4.286    1.714    6.000    0.000 
#    2.571    4.286    0.000    0.000    0.000    0.000 
#    0.000    0.000    0.000    0.000    0.000    0.000 
#
# Total GULP energy -347128.360457 kJ/mol
# GULP energy per Si atom -12397.441445 kJ/mol
# Density = 2.077269 g / cm^3
# Si number density = 20.820075 Si / 1000 Ang^3
#
#
#
# Elastic Constant Matrix: (Units=GPa)
#
#
# Indices 1 2 3 4 5 6 
#
# 1 107.6804 28.1970 19.8451 0.0000 -6.9713 0.0000
# 2 28.1970 88.2298 26.7507 0.0000 -7.1850 0.0000
# 3 19.8451 26.7507 114.6693 0.0000 -16.2479 0.0000
# 4 0.0000 0.0000 0.0000 32.8203 0.0000 -0.4493
# 5 -6.9713 -7.1850 -16.2479 0.0000 28.4557 0.0000
# 6 0.0000 0.0000 0.0000 -0.4493 0.0000 32.0612
#
#
#
# Elastic Compliance Matrix: (Units=1/GPa)
#
#
# Indices 1 2 3 4 5 6 
#
# 1 0.010301 -0.002909 -0.000925 0.000000 0.001261 0.000000
# 2 -0.002909 0.013084 -0.002374 0.000000 0.001236 0.000000
# 3 -0.000925 -0.002374 0.010138 0.000000 0.004962 0.000000
# 4 0.000000 0.000000 0.000000 0.030475 0.000000 0.000427
# 5 0.001261 0.001236 0.004962 0.000000 0.038597 0.000000
# 6 0.000000 0.000000 0.000000 0.000427 0.000000 0.031196
#
#
# Mechanical properties :
#
#
# Convention : Reuss Voigt Hill
#
# Bulk Modulus (GPa) = 47.37896 51.12946 49.25421
# Shear Modulus (GPa) = 32.62821 34.38656 33.50738
#
# Velocity S-wave (km/s) = 3.96302 4.06840 4.01606
# Velocity P-wave (km/s) = 6.61411 6.83230 6.72409
#
# Compressibility (1/GPa) = 0.02110642
#
# Stress axis : x y z
#
# Youngs Moduli (GPa) = 97.08197 76.42947 98.64042
#
# Poissons Ratio (x) = 0.22231 0.09129
# Poissons Ratio (y) = 0.28238 0.23416
# Poissons Ratio (z) = 0.08985 0.18143
#
# Static dielectric constant tensor:
#      x y z
#    x 3.973710 0.000000 -0.174260 
#    y 0.000000 3.520380 0.000000 
#    z -0.174260 0.000000 3.872460 
# 
# 
# High freq. dielectric constant tensor:
#      x y z
#    x 1.823250 0.000000 -0.016640 
#    y 0.000000 1.789490 0.000000 
#    z -0.016640 0.000000 1.826740 
# 
# From -- ./inp_files/172485.got.cif
#   From: 2010.06.25/outbox.cif.g09.slc.cpg/sg15_87_cif.got.tgz:172485.got - 2010.06.28 07:06:18.
