data_PCOD8140433
_publ_section_title
;
Structure prediction by ZEFSAII (Michael W. Deem and Ramdas Pophale) SiO2 
 PCOD8140433
Probable space group: C 2/C
;
_chemical_formula_sum "Si O2"
_cell_formula_units_Z 48
_cell_length_a 9.353341
_cell_length_b 28.580194
_cell_length_c 17.250095
_cell_angle_alpha 90.000000
_cell_angle_beta 30.592795
_cell_angle_gamma 90.000000
_cell_volume 2346.843832
_symmetry_space_group_name_H-M "C 2/C"
_symmetry_group_IT_number 15
_symmetry_cell_setting 'monoclinic'
loop_
_space_group_symop_operation_xyz
x,y,z
-x,y,1/2-z
-x,-y,-z
x,-y,1/2+z
1/2+x,1/2+y,z
1/2-x,1/2+y,1/2-z
1/2-x,1/2-y,-z
1/2+x,1/2-y,1/2+z
loop_
_atom_site_type_symbol
_atom_site_label
_atom_site_fract_x
_atom_site_fract_y
_atom_site_fract_z
Si Si1 0.267463 0.368046 0.170486
Si Si2 0.039204 0.539790 0.823335
Si Si3 0.796820 0.122475 0.154452
Si Si4 0.504491 0.729826 0.925374
Si Si5 0.050173 0.039431 0.316855
Si Si6 0.466164 0.722716 0.118131
O O1 0.153456 0.406948 0.283652
O O2 0.432908 0.323999 0.129376
O O3 0.000000 0.346135 0.250000
O O4 0.479942 0.395282 0.013733
O O5 0.268757 0.506910 0.755362
O O6 0.000000 0.529695 0.750000
O O7 0.747490 0.532978 0.002954
O O8 0.500000 0.134110 0.250000
O O9 0.945035 0.166370 0.128929
O O10 0.766410 0.081824 0.232248
O O11 0.769565 0.760609 0.779151
O O12 0.395839 0.736260 0.063118
O O13 0.250000 0.750000 0.000000
O O14 0.000000 0.049129 0.250000
O O15 0.750000 0.750000 0.000000
#
# Coordination Sequence:
#
# PCOD8140433 Si02
#       6
#     8   8   8   8   8   8
#     4  10  20  41  68  90 124 172 228 256 308 390
#     4  11  23  44  71  96 126 179 222 255 323 403
#     4  11  23  42  66  95 128 176 225 261 309 401
#     4  11  22  40  62  94 129 168 214 269 318 380
#     4  12  26  43  66 102 138 163 210 282 336 375
#     4  11  23  40  66  92 128 169 216 264 323 379
#
# _framework density 20.452999999999999
#
# number of rings (size 3 to 8) (size 9 to 14) (size 15 to 20)
#    0.000    1.000    3.333    6.500    2.333    1.333 
#    0.000    1.667    0.000    0.000    0.000    0.000 
#    0.000    0.000    0.000    0.000    0.000    0.000 
#
# Total GULP energy -297361.174524 kJ/mol
# GULP energy per Si atom -12390.048938 kJ/mol
# Density = 2.040645 g / cm^3
# Si number density = 20.453000 Si / 1000 Ang^3
#
#
#
# Elastic Constant Matrix: (Units=GPa)
#
#
# Indices 1 2 3 4 5 6 
#
# 1 83.7426 53.4416 21.0172 0.0000 -8.6785 0.0000
# 2 53.4416 137.0787 27.6971 0.0000 -19.0096 0.0000
# 3 21.0172 27.6971 108.2077 0.0001 -3.8203 0.0000
# 4 0.0000 0.0000 0.0001 29.2517 0.0000 -9.0707
# 5 -8.6785 -19.0096 -3.8203 0.0000 40.1733 0.0000
# 6 0.0000 0.0000 0.0000 -9.0707 0.0000 30.6340
#
#
#
# Elastic Compliance Matrix: (Units=1/GPa)
#
#
# Indices 1 2 3 4 5 6 
#
# 1 0.016169 -0.005902 -0.001610 0.000000 0.000547 0.000000
# 2 -0.005902 0.010360 -0.001382 0.000000 0.003496 0.000000
# 3 -0.001610 -0.001382 0.009906 0.000000 -0.000060 0.000000
# 4 0.000000 0.000000 0.000000 0.037642 0.000000 0.011146
# 5 0.000547 0.003496 -0.000060 0.000000 0.026659 0.000000
# 6 0.000000 0.000000 0.000000 0.011146 0.000000 0.035944
#
#
# Mechanical properties :
#
#
# Convention : Reuss Voigt Hill
#
# Bulk Modulus (GPa) = 53.63233 59.26008 56.44620
# Shear Modulus (GPa) = 31.11688 35.13667 33.12677
#
# Velocity S-wave (km/s) = 3.90472 4.14928 4.02886
# Velocity P-wave (km/s) = 6.82703 7.21055 7.02141
#
# Compressibility (1/GPa) = 0.01864547
#
# Stress axis : x y z
#
# Youngs Moduli (GPa) = 61.84714 96.52301 100.94994
#
# Poissons Ratio (x) = 0.56972 0.16257
# Poissons Ratio (y) = 0.36505 0.13951
# Poissons Ratio (z) = 0.09960 0.13339
#
# Static dielectric constant tensor:
#      x y z
#    x 3.441920 0.000000 -0.325760 
#    y 0.000000 3.778140 0.000000 
#    z -0.325760 0.000000 3.648150 
# 
# 
# High freq. dielectric constant tensor:
#      x y z
#    x 1.777030 0.000000 -0.008570 
#    y 0.000000 1.808120 0.000000 
#    z -0.008570 0.000000 1.822010 
# 
# From -- ./inp_files/52719.got.cif
#   From: 2010.06.25/outbox.cif.g09.slc.cpg/sg15_27_cif.got.tgz:52719.got - 2010.06.28 07:06:18.
