data_PCOD8140513
_publ_section_title
;
Structure prediction by ZEFSAII (Michael W. Deem and Ramdas Pophale) SiO2 
 PCOD8140513
Probable space group: C 2/C
;
_chemical_formula_sum "Si O2"
_cell_formula_units_Z 52
_cell_length_a 13.233318
_cell_length_b 17.666264
_cell_length_c 20.200381
_cell_angle_alpha 90.000000
_cell_angle_beta 32.361608
_cell_angle_gamma 90.000000
_cell_volume 2527.775853
_symmetry_space_group_name_H-M "C 2/C"
_symmetry_group_IT_number 15
_symmetry_cell_setting 'monoclinic'
loop_
_space_group_symop_operation_xyz
x,y,z
-x,y,1/2-z
-x,-y,-z
x,-y,1/2+z
1/2+x,1/2+y,z
1/2-x,1/2+y,1/2-z
1/2-x,1/2-y,-z
1/2+x,1/2-y,1/2+z
loop_
_atom_site_type_symbol
_atom_site_label
_atom_site_fract_x
_atom_site_fract_y
_atom_site_fract_z
Si Si1 0.747911 0.153550 0.455144
Si Si2 0.299620 0.343767 0.563887
Si Si3 0.500000 0.278065 0.250000
Si Si4 0.840908 0.188607 0.544557
Si Si5 0.500000 0.466381 0.750000
Si Si6 0.098299 0.402950 0.277170
Si Si7 0.500000 0.963824 0.750000
Si Si8 0.564107 0.598104 0.813167
O O1 0.882719 0.163992 0.445190
O O2 0.738884 0.225891 0.411884
O O3 0.537703 0.144638 0.600415
O O4 0.820911 0.085012 0.369337
O O5 0.159166 0.273768 0.627465
O O6 0.467364 0.318456 0.519866
O O7 0.185282 0.413377 0.658582
O O8 0.370089 0.375228 0.454726
O O9 0.385125 0.331987 0.263035
O O10 0.669968 0.138549 0.669887
O O11 0.548785 0.518676 0.784814
O O12 0.284875 0.418030 0.214927
O O13 0.994601 0.481928 0.317379
#
# Coordination Sequence:
#
# PCOD8140513 Si02
#       8
#     8   8   4   8   4   8   4   8
#     4  11  23  40  61  90 131 158 208 255 303 375
#     4  10  22  40  64  92 117 166 209 260 298 362
#     4  10  20  42  62  92 120 166 210 252 308 360
#     4  10  23  38  65  89 123 164 210 254 307 356
#     4  11  26  40  60  95 126 170 192 257 320 368
#     4  11  22  41  62  93 121 167 204 259 300 370
#     4  11  22  36  62  91 122 152 214 245 314 354
#     4  10  23  40  64  88 131 160 206 252 314 365
#
# _framework density 20.571445000000001
#
# number of rings (size 3 to 8) (size 9 to 14) (size 15 to 20)
#    0.000    1.538    1.538    2.308    6.462    1.846 
#    0.000    1.538    0.000    0.000    0.000    0.000 
#    0.000    0.000    0.000    0.000    0.000    0.000 
#
# Total GULP energy -322311.069556 kJ/mol
# GULP energy per Si atom -12396.579598 kJ/mol
# Density = 2.052462 g / cm^3
# Si number density = 20.571445 Si / 1000 Ang^3
#
#
#
# Elastic Constant Matrix: (Units=GPa)
#
#
# Indices 1 2 3 4 5 6 
#
# 1 86.0463 56.2378 31.8146 -0.0005 3.5961 -0.0010
# 2 56.2378 156.9157 55.3645 -0.0118 5.1603 0.0041
# 3 31.8146 55.3645 98.2049 -0.0198 5.8581 0.0093
# 4 -0.0005 -0.0118 -0.0198 32.9518 0.0091 8.1291
# 5 3.5961 5.1603 5.8581 0.0091 27.2302 -0.0022
# 6 -0.0010 0.0041 0.0093 8.1291 -0.0022 27.3884
#
#
#
# Elastic Compliance Matrix: (Units=1/GPa)
#
#
# Indices 1 2 3 4 5 6 
#
# 1 0.015620 -0.004750 -0.002343 -0.000003 -0.000659 0.000003
# 2 -0.004750 0.009408 -0.003744 0.000001 -0.000350 -0.000001
# 3 -0.002343 -0.003744 0.013161 0.000009 -0.001812 -0.000007
# 4 -0.000003 0.000001 0.000009 0.032745 -0.000013 -0.009719
# 5 -0.000659 -0.000350 -0.001812 -0.000013 0.037267 0.000008
# 6 0.000003 -0.000001 -0.000007 -0.009719 0.000008 0.039397
#
#
# Mechanical properties :
#
#
# Convention : Reuss Voigt Hill
#
# Bulk Modulus (GPa) = 60.55372 69.77788 65.16580
# Shear Modulus (GPa) = 28.60809 30.69741 29.65275
#
# Velocity S-wave (km/s) = 3.73321 3.86714 3.80076
# Velocity P-wave (km/s) = 6.93414 7.34391 7.14196
#
# Compressibility (1/GPa) = 0.01651426
#
# Stress axis : x y z
#
# Youngs Moduli (GPa) = 64.02129 106.29657 75.98307
#
# Poissons Ratio (x) = 0.50487 0.17805
# Poissons Ratio (y) = 0.30408 0.28449
# Poissons Ratio (z) = 0.15002 0.39799
#
# Static dielectric constant tensor:
#      x y z
#    x 3.652270 -0.000010 0.090040 
#    y -0.000010 3.827560 0.000030 
#    z 0.090040 0.000030 3.703730 
# 
# 
# High freq. dielectric constant tensor:
#      x y z
#    x 1.803470 0.000000 0.000050 
#    y 0.000000 1.818270 0.000000 
#    z 0.000050 0.000000 1.801210 
# 
# From -- ./inp_files/245024.got.cif
#   From: 2010.06.25/outbox.cif.g09.slc.cpg/sg15_123_cif.got.tgz:245024.got - 2010.06.28 07:06:18.
