data_PCOD8140046
_publ_section_title
;
Structure prediction by ZEFSAII (Michael W. Deem and Ramdas Pophale) SiO2 
 PCOD8140046
Probable space group: C 2/C
;
_chemical_formula_sum "Si O2"
_cell_formula_units_Z 60
_cell_length_a 8.241769
_cell_length_b 19.698347
_cell_length_c 17.406135
_cell_angle_alpha 90.000000
_cell_angle_beta 91.095742
_cell_angle_gamma 90.000000
_cell_volume 2825.355789
_symmetry_space_group_name_H-M "C 2/C"
_symmetry_group_IT_number 15
_symmetry_cell_setting 'monoclinic'
loop_
_space_group_symop_operation_xyz
x,y,z
-x,y,1/2-z
-x,-y,-z
x,-y,1/2+z
1/2+x,1/2+y,z
1/2-x,1/2+y,1/2-z
1/2-x,1/2-y,-z
1/2+x,1/2-y,1/2+z
loop_
_atom_site_type_symbol
_atom_site_label
_atom_site_fract_x
_atom_site_fract_y
_atom_site_fract_z
Si Si1 0.893801 0.887171 0.318469
Si Si2 0.905823 0.517830 0.670987
Si Si3 0.768271 0.115221 0.379740
Si Si4 0.611812 0.349348 0.455080
Si Si5 0.963413 0.359976 0.414974
Si Si6 0.999157 0.296906 0.931781
Si Si7 0.000000 0.158442 0.250000
Si Si8 0.713944 0.758384 0.339311
O O1 0.746457 0.937020 0.311739
O O2 0.839062 0.809942 0.300260
O O3 0.000000 0.913131 0.250000
O O4 0.979872 0.890345 0.402983
O O5 0.845754 0.450226 0.629107
O O6 0.015541 0.563366 0.615230
O O7 0.000000 0.499135 0.750000
O O8 0.858688 0.113499 0.463358
O O9 0.641520 0.178958 0.373661
O O10 0.911295 0.114978 0.316305
O O11 0.552042 0.273344 0.472481
O O12 0.773490 0.343465 0.404763
O O13 0.013561 0.356287 0.504785
O O14 0.068032 0.302495 0.373234
O O15 0.818180 0.288002 0.898221
O O16 0.855293 0.205306 0.220426
#
# Coordination Sequence:
#
# PCOD8140046 Si02
#       8
#     8   8   8   8   8   8   4   8
#     4  10  23  40  69  95 128 174 210 270 326 386
#     4  11  26  43  62  88 131 174 231 262 314 396
#     4  11  26  43  63  92 130 183 212 276 327 380
#     4  10  21  42  69 102 134 159 217 273 339 393
#     4  10  20  40  65  93 127 167 208 271 323 386
#     4  10  21  40  68  97 133 161 210 273 339 395
#     4  12  26  38  62  92 132 166 222 268 338 390
#     4  10  23  35  65  98 128 164 211 263 328 401
#
# _framework density 21.236263999999998
#
# number of rings (size 3 to 8) (size 9 to 14) (size 15 to 20)
#    0.000    1.600    0.000    4.400   12.133    4.800 
#    0.000    0.000    0.000    0.000    0.000    0.000 
#    0.000    0.000    0.000    0.000    0.000    0.000 
#
# Total GULP energy -371810.729192 kJ/mol
# GULP energy per Si atom -12393.690973 kJ/mol
# Density = 2.118793 g / cm^3
# Si number density = 21.236264 Si / 1000 Ang^3
#
#
#
# Elastic Constant Matrix: (Units=GPa)
#
#
# Indices 1 2 3 4 5 6 
#
# 1 81.1547 15.6324 40.7700 0.0000 15.9280 0.0000
# 2 15.6324 74.5503 47.1841 0.0000 23.1484 0.0000
# 3 40.7700 47.1841 107.0795 0.0000 8.2650 0.0000
# 4 0.0000 0.0000 0.0000 43.1323 0.0000 1.7876
# 5 15.9280 23.1484 8.2650 0.0000 41.4867 0.0000
# 6 0.0000 0.0000 0.0000 1.7876 0.0000 17.9651
#
#
#
# Elastic Compliance Matrix: (Units=1/GPa)
#
#
# Indices 1 2 3 4 5 6 
#
# 1 0.016658 0.003162 -0.007217 0.000000 -0.006722 0.000000
# 2 0.003162 0.023100 -0.010455 0.000000 -0.012020 0.000000
# 3 -0.007217 -0.010455 0.016280 0.000000 0.005361 0.000000
# 4 0.000000 0.000000 0.000000 0.023280 0.000000 -0.002316
# 5 -0.006722 -0.012020 0.005361 0.000000 0.032324 0.000000
# 6 0.000000 0.000000 0.000000 -0.002316 0.000000 0.055894
#
#
# Mechanical properties :
#
#
# Convention : Reuss Voigt Hill
#
# Bulk Modulus (GPa) = 37.01240 52.21750 44.61495
# Shear Modulus (GPa) = 24.32346 31.13003 27.72674
#
# Velocity S-wave (km/s) = 3.38801 3.83285 3.61727
# Velocity P-wave (km/s) = 5.72464 6.65055 6.20489
#
# Compressibility (1/GPa) = 0.02701797
#
# Stress axis : x y z
#
# Youngs Moduli (GPa) = 60.03137 43.28919 61.42556
#
# Poissons Ratio (x) = -0.13688 0.44330
# Poissons Ratio (y) = -0.18981 0.64222
# Poissons Ratio (z) = 0.43324 0.45260
#
# Static dielectric constant tensor:
#      x y z
#    x 4.133250 0.000000 0.048640 
#    y 0.000000 3.943030 0.000000 
#    z 0.048640 0.000000 3.974880 
# 
# 
# High freq. dielectric constant tensor:
#      x y z
#    x 1.852470 0.000000 0.003070 
#    y 0.000000 1.814380 0.000000 
#    z 0.003070 0.000000 1.828390 
# 
# From -- ./inp_files/190994.got.cif
#   From: 2010.06.25/outbox.cif.g09.slc.cpg/sg15_96_cif.got.tgz:190994.got - 2010.06.28 07:06:18.
