data_PCOD8140362
_publ_section_title
;
Structure prediction by ZEFSAII (Michael W. Deem and Ramdas Pophale) SiO2 
 PCOD8140362
Probable space group: C 2/C
;
_chemical_formula_sum "Si O2"
_cell_formula_units_Z 56
_cell_length_a 14.627367
_cell_length_b 17.878622
_cell_length_c 19.612687
_cell_angle_alpha 90.000000
_cell_angle_beta 30.396159
_cell_angle_gamma 90.000000
_cell_volume 2595.178085
_symmetry_space_group_name_H-M "C 2/C"
_symmetry_group_IT_number 15
_symmetry_cell_setting 'monoclinic'
loop_
_space_group_symop_operation_xyz
x,y,z
-x,y,1/2-z
-x,-y,-z
x,-y,1/2+z
1/2+x,1/2+y,z
1/2-x,1/2+y,1/2-z
1/2-x,1/2-y,-z
1/2+x,1/2-y,1/2+z
loop_
_atom_site_type_symbol
_atom_site_label
_atom_site_fract_x
_atom_site_fract_y
_atom_site_fract_z
Si Si1 0.957113 0.252090 0.564082
Si Si2 0.045328 0.386259 0.418930
Si Si3 0.073391 0.025845 0.025223
Si Si4 0.545258 0.129979 0.329904
Si Si5 0.781343 0.872768 0.546863
Si Si6 0.659112 0.150345 0.696282
Si Si7 0.285610 0.964511 0.673236
O O1 0.075220 0.307214 0.439327
O O2 0.873890 0.300103 0.679721
O O3 0.797077 0.217507 0.622192
O O4 0.071364 0.187959 0.527459
O O5 0.845225 0.419679 0.566311
O O6 0.064842 0.376983 0.326003
O O7 0.198189 0.445674 0.346008
O O8 0.912402 0.061695 0.174380
O O9 0.235345 0.084004 0.910441
O O10 0.133956 0.952460 0.027283
O O11 0.000000 0.000000 0.000000
O O12 0.338525 0.150002 0.441685
O O13 0.658326 0.113122 0.190927
O O14 0.563161 0.057288 0.366557
O O15 0.500000 0.180173 0.750000
#
# Coordination Sequence:
#
# PCOD8140362 Si02
#       7
#     8   8   8   8   8   8   8
#     4  11  22  41  61  91 134 173 212 272 336 394
#     4  10  22  40  68  89 132 172 218 271 334 390
#     4  12  21  38  67  95 130 173 226 273 324 393
#     4  10  21  35  63  91 126 166 215 267 329 391
#     4  11  21  35  61  96 125 163 219 267 324 393
#     4  12  26  42  68  95 128 178 233 274 329 400
#     4  10  20  41  65  96 127 177 215 270 337 390
#
# _framework density 21.578481
#
# number of rings (size 3 to 8) (size 9 to 14) (size 15 to 20)
#    0.000    1.143    4.286    1.286    4.000    1.714 
#    0.000    0.714    0.000    5.143    0.000    0.000 
#    0.000    0.000    0.000    0.000    0.000    0.000 
#
# Total GULP energy -347028.650786 kJ/mol
# GULP energy per Si atom -12393.880385 kJ/mol
# Density = 2.152937 g / cm^3
# Si number density = 21.578481 Si / 1000 Ang^3
#
#
#
# Elastic Constant Matrix: (Units=GPa)
#
#
# Indices 1 2 3 4 5 6 
#
# 1 78.5950 48.7251 40.5414 -0.0650 -14.7525 -0.0054
# 2 48.7251 127.3473 35.7513 -0.1125 -8.8411 -0.0147
# 3 40.5414 35.7513 120.5000 -0.2923 10.1475 -0.0425
# 4 -0.0650 -0.1125 -0.2923 55.4010 0.0231 5.6426
# 5 -14.7525 -8.8411 10.1475 0.0231 37.9302 0.0078
# 6 -0.0054 -0.0147 -0.0425 5.6426 0.0078 23.0851
#
#
#
# Elastic Compliance Matrix: (Units=1/GPa)
#
#
# Indices 1 2 3 4 5 6 
#
# 1 0.021006 -0.005745 -0.006075 -0.000022 0.008456 -0.000007
# 2 -0.005745 0.010424 -0.001204 0.000008 0.000518 0.000001
# 3 -0.006075 -0.001204 0.011174 0.000051 -0.005633 0.000008
# 4 -0.000022 0.000008 0.000051 0.018511 -0.000031 -0.004525
# 5 0.008456 0.000518 -0.005633 -0.000031 0.031281 -0.000011
# 6 -0.000007 0.000001 0.000008 -0.004525 -0.000011 0.044424
#
#
# Mechanical properties :
#
#
# Convention : Reuss Voigt Hill
#
# Bulk Modulus (GPa) = 60.39447 64.05310 62.22378
# Shear Modulus (GPa) = 29.69363 36.71154 33.20259
#
# Velocity S-wave (km/s) = 3.71357 4.12916 3.92687
# Velocity P-wave (km/s) = 6.81444 7.24441 7.03271
#
# Compressibility (1/GPa) = 0.01655781
#
# Stress axis : x y z
#
# Youngs Moduli (GPa) = 47.60603 95.92923 89.49148
#
# Poissons Ratio (x) = 0.55107 0.54366
# Poissons Ratio (y) = 0.27348 0.10772
# Poissons Ratio (z) = 0.28921 0.11546
#
# Static dielectric constant tensor:
#      x y z
#    x 3.931500 -0.000070 -0.019060 
#    y -0.000070 4.115840 0.000120 
#    z -0.019060 0.000120 4.108510 
# 
# 
# High freq. dielectric constant tensor:
#      x y z
#    x 1.823320 0.000000 0.012850 
#    y 0.000000 1.854630 0.000010 
#    z 0.012850 0.000010 1.848990 
# 
# From -- ./inp_files/245109.got.cif
#   From: 2010.06.25/outbox.cif.g09.slc.cpg/sg15_123_cif.got.tgz:245109.got - 2010.06.28 07:06:18.
