data_PCOD8140331
_publ_section_title
;
Structure prediction by ZEFSAII (Michael W. Deem and Ramdas Pophale) SiO2 
 PCOD8140331
Probable space group: C 2/C
;
_chemical_formula_sum "Si O2"
_cell_formula_units_Z 40
_cell_length_a 14.066234
_cell_length_b 26.316414
_cell_length_c 10.476856
_cell_angle_alpha 90.000000
_cell_angle_beta 150.523475
_cell_angle_gamma 90.000000
_cell_volume 1908.357309
_symmetry_space_group_name_H-M "C 2/C"
_symmetry_group_IT_number 15
_symmetry_cell_setting 'monoclinic'
loop_
_space_group_symop_operation_xyz
x,y,z
-x,y,1/2-z
-x,-y,-z
x,-y,1/2+z
1/2+x,1/2+y,z
1/2-x,1/2+y,1/2-z
1/2-x,1/2-y,-z
1/2+x,1/2-y,1/2+z
loop_
_atom_site_type_symbol
_atom_site_label
_atom_site_fract_x
_atom_site_fract_y
_atom_site_fract_z
Si Si1 0.578958 0.801826 0.047649
Si Si2 0.065221 0.803815 0.183857
Si Si3 0.243444 0.632410 0.219897
Si Si4 0.004009 0.543390 0.899676
Si Si5 0.775266 0.865476 0.474990
O O1 0.701514 0.808316 0.057728
O O2 0.735738 0.817069 0.338961
O O3 0.510172 0.744113 0.987142
O O4 0.392785 0.838349 0.837324
O O5 0.000000 0.793052 0.250000
O O6 0.964989 0.855606 0.015275
O O7 0.191630 0.650183 0.015683
O O8 0.204639 0.572005 0.171956
O O9 0.831516 0.584766 0.708612
O O10 0.000000 0.520939 0.750000
O O11 0.000000 0.500000 0.000000
O O12 0.000000 0.878627 0.750000
#
# Coordination Sequence:
#
# PCOD8140331 Si02
#       5
#     8   8   8   8   8
#     4  11  22  38  60  83 122 167 201 245 301 352
#     4  12  24  38  55  87 125 167 210 247 297 353
#     4  10  22  41  61  88 123 159 199 254 304 363
#     4   9  20  42  65  90 122 155 199 255 316 365
#     4  10  20  41  64  89 121 156 202 255 302 361
#
# _framework density 20.960435
#
# number of rings (size 3 to 8) (size 9 to 14) (size 15 to 20)
#    0.000    1.600    4.000    2.400    0.000    0.800 
#   10.800    5.000    0.000    0.000    0.000    0.000 
#    0.000    0.000    0.000    0.000    0.000    0.000 
#
# Total GULP energy -247815.799174 kJ/mol
# GULP energy per Si atom -12390.789959 kJ/mol
# Density = 2.091273 g / cm^3
# Si number density = 20.960435 Si / 1000 Ang^3
#
#
#
# Elastic Constant Matrix: (Units=GPa)
#
#
# Indices 1 2 3 4 5 6 
#
# 1 112.5970 41.8215 -3.0781 0.0000 3.3516 0.0000
# 2 41.8215 91.9501 23.7545 0.0000 -16.6582 0.0000
# 3 -3.0781 23.7545 47.2103 -0.0001 6.5195 0.0000
# 4 0.0000 0.0000 -0.0001 26.0334 0.0000 -6.7314
# 5 3.3516 -16.6582 6.5195 0.0000 34.5142 0.0000
# 6 0.0000 0.0000 0.0000 -6.7314 0.0000 29.3960
#
#
#
# Elastic Compliance Matrix: (Units=1/GPa)
#
#
# Indices 1 2 3 4 5 6 
#
# 1 0.012277 -0.008214 0.005797 0.000000 -0.006251 0.000000
# 2 -0.008214 0.020165 -0.012461 0.000000 0.012884 0.000000
# 3 0.005797 -0.012461 0.029508 0.000000 -0.012151 0.000000
# 4 0.000000 0.000000 0.000000 0.040830 0.000000 0.009350
# 5 -0.006251 0.012884 -0.012151 0.000000 0.038094 0.000000
# 6 0.000000 0.000000 0.000000 0.009350 0.000000 0.036159
#
#
# Mechanical properties :
#
#
# Convention : Reuss Voigt Hill
#
# Bulk Modulus (GPa) = 31.06294 41.86150 36.46222
# Shear Modulus (GPa) = 22.98655 30.60601 26.79628
#
# Velocity S-wave (km/s) = 3.31518 3.82538 3.57938
# Velocity P-wave (km/s) = 5.43193 6.28700 5.87504
#
# Compressibility (1/GPa) = 0.03219271
#
# Stress axis : x y z
#
# Youngs Moduli (GPa) = 81.45581 49.59200 33.88968
#
# Poissons Ratio (x) = 0.40734 -0.19644
# Poissons Ratio (y) = 0.66906 0.42229
# Poissons Ratio (z) = -0.47217 0.61795
#
# Static dielectric constant tensor:
#      x y z
#    x 4.116670 0.000000 0.197490 
#    y 0.000000 3.528320 0.000000 
#    z 0.197490 0.000000 3.920240 
# 
# 
# High freq. dielectric constant tensor:
#      x y z
#    x 1.835550 0.000000 0.009710 
#    y 0.000000 1.786780 0.000000 
#    z 0.009710 0.000000 1.820450 
# 
# From -- ./inp_files/31749.got.cif
#   From: 2010.06.25/outbox.cif.g09.slc.cpg/sg15_16_cif.got.tgz:31749.got - 2010.06.28 07:06:18.
