data_PCOD8140791
_publ_section_title
;
Structure prediction by ZEFSAII (Michael W. Deem and Ramdas Pophale) SiO2 
 PCOD8140791
Probable space group: C 2/C
;
_chemical_formula_sum "Si O2"
_cell_formula_units_Z 60
_cell_length_a 11.610231
_cell_length_b 17.486719
_cell_length_c 13.763200
_cell_angle_alpha 90.000000
_cell_angle_beta 86.650248
_cell_angle_gamma 90.000000
_cell_volume 2789.497437
_symmetry_space_group_name_H-M "C 2/C"
_symmetry_group_IT_number 15
_symmetry_cell_setting 'monoclinic'
loop_
_space_group_symop_operation_xyz
x,y,z
-x,y,1/2-z
-x,-y,-z
x,-y,1/2+z
1/2+x,1/2+y,z
1/2-x,1/2+y,1/2-z
1/2-x,1/2-y,-z
1/2+x,1/2-y,1/2+z
loop_
_atom_site_type_symbol
_atom_site_label
_atom_site_fract_x
_atom_site_fract_y
_atom_site_fract_z
Si Si1 0.787475 0.740552 0.246190
Si Si2 0.500000 0.349236 0.250000
Si Si3 0.569397 0.890773 0.842247
Si Si4 0.342169 0.706009 0.059662
Si Si5 0.295880 0.040201 0.646147
Si Si6 0.966204 0.648562 0.538352
Si Si7 0.621776 0.134624 0.692296
Si Si8 0.937877 0.935433 0.437461
O O1 0.840787 0.677624 0.173291
O O2 0.720351 0.694823 0.333841
O O3 0.697697 0.789270 0.188088
O O4 0.888662 0.796889 0.279920
O O5 0.520243 0.398503 0.348876
O O6 0.500000 0.912172 0.750000
O O7 0.635241 0.963845 0.878673
O O8 0.473332 0.865293 0.923765
O O9 0.453785 0.761351 0.062734
O O10 0.250000 0.750000 0.000000
O O11 0.386136 0.626058 0.014975
O O12 0.349148 0.108902 0.580803
O O13 0.308243 0.065125 0.759473
O O14 0.164739 0.026771 0.620824
O O15 0.083511 0.615408 0.583522
O O16 0.500000 0.150875 0.750000
O O17 0.000000 0.000000 0.500000
#
# Coordination Sequence:
#
# PCOD8140791 Si02
#       8
#     8   4   8   8   8   8   8   8
#     4  12  23  41  75  99 137 190 234 298 350 434
#     4  12  22  48  70 104 150 186 244 294 372 428
#     4  12  26  39  65 109 137 168 239 304 353 412
#     4  12  20  44  72  96 134 192 248 275 355 454
#     4  11  23  46  66  97 145 188 229 286 375 426
#     4  11  22  42  73  98 132 189 238 291 351 431
#     4  10  20  43  70  95 133 188 230 276 349 432
#     4  12  28  45  73 108 147 197 238 304 376 446
#
# _framework density 21.509250000000002
#
# number of rings (size 3 to 8) (size 9 to 14) (size 15 to 20)
#    0.000    0.533    7.333    3.200    0.000    3.733 
#    0.000    0.000    0.000    0.000    0.000    0.000 
#    0.000    0.000    0.000    0.000    0.000    0.000 
#
# Total GULP energy -371912.679389 kJ/mol
# GULP energy per Si atom -12397.089313 kJ/mol
# Density = 2.146029 g / cm^3
# Si number density = 21.509250 Si / 1000 Ang^3
#
#
#
# Elastic Constant Matrix: (Units=GPa)
#
#
# Indices 1 2 3 4 5 6 
#
# 1 105.3330 35.9727 29.4509 0.0000 18.5982 0.0000
# 2 35.9727 105.5870 22.8827 0.0000 1.1652 0.0000
# 3 29.4509 22.8827 108.0874 0.0000 1.4004 0.0000
# 4 0.0000 0.0000 0.0000 22.5088 0.0000 5.1550
# 5 18.5982 1.1652 1.4004 0.0000 28.2805 0.0000
# 6 0.0000 0.0000 0.0000 5.1550 0.0000 26.8551
#
#
#
# Elastic Compliance Matrix: (Units=1/GPa)
#
#
# Indices 1 2 3 4 5 6 
#
# 1 0.012968 -0.003757 -0.002631 0.000000 -0.008243 0.000000
# 2 -0.003757 0.011017 -0.001336 0.000000 0.002083 0.000000
# 3 -0.002631 -0.001336 0.010235 0.000000 0.001279 0.000000
# 4 0.000000 0.000000 0.000000 0.046470 0.000000 -0.008920
# 5 -0.008243 0.002083 0.001279 0.000000 0.040632 0.000000
# 6 0.000000 0.000000 0.000000 -0.008920 0.000000 0.038949
#
#
# Mechanical properties :
#
#
# Convention : Reuss Voigt Hill
#
# Bulk Modulus (GPa) = 53.26980 55.06888 54.16934
# Shear Modulus (GPa) = 27.47613 30.90895 29.19254
#
# Velocity S-wave (km/s) = 3.57796 3.79490 3.68803
# Velocity P-wave (km/s) = 6.47216 6.69774 6.58592
#
# Compressibility (1/GPa) = 0.01877236
#
# Stress axis : x y z
#
# Youngs Moduli (GPa) = 77.11401 90.76650 97.70450
#
# Poissons Ratio (x) = 0.34099 0.25708
# Poissons Ratio (y) = 0.28970 0.13051
# Poissons Ratio (z) = 0.20291 0.12124
#
# Static dielectric constant tensor:
#      x y z
#    x 4.119890 0.000000 0.205480 
#    y 0.000000 4.060940 0.000000 
#    z 0.205480 0.000000 4.168580 
# 
# 
# High freq. dielectric constant tensor:
#      x y z
#    x 1.842990 0.000000 0.001600 
#    y 0.000000 1.837910 0.000000 
#    z 0.001600 0.000000 1.844650 
# 
# From -- ./inp_files/145646.got.cif
#   From: 2010.06.25/outbox.cif.g09.slc.cpg/sg15_73_cif.got.tgz:145646.got - 2010.06.28 07:06:18.
