data_PCOD8140747
_publ_section_title
;
Structure prediction by ZEFSAII (Michael W. Deem and Ramdas Pophale) SiO2 
 PCOD8140747
Probable space group: C 2/C
;
_chemical_formula_sum "Si O2"
_cell_formula_units_Z 44
_cell_length_a 13.648083
_cell_length_b 13.396353
_cell_length_c 11.126841
_cell_angle_alpha 90.000000
_cell_angle_beta 97.805902
_cell_angle_gamma 90.000000
_cell_volume 2015.520055
_symmetry_space_group_name_H-M "C 2/C"
_symmetry_group_IT_number 15
_symmetry_cell_setting 'monoclinic'
loop_
_space_group_symop_operation_xyz
x,y,z
-x,y,1/2-z
-x,-y,-z
x,-y,1/2+z
1/2+x,1/2+y,z
1/2-x,1/2+y,1/2-z
1/2-x,1/2-y,-z
1/2+x,1/2-y,1/2+z
loop_
_atom_site_type_symbol
_atom_site_label
_atom_site_fract_x
_atom_site_fract_y
_atom_site_fract_z
Si Si1 0.361583 0.678506 0.422160
Si Si2 0.403266 0.157818 0.308014
Si Si3 0.500000 0.263135 0.750000
Si Si4 0.701905 0.326842 0.337716
Si Si5 0.230737 0.501963 0.811325
Si Si6 0.840129 0.323237 0.052655
O O1 0.461963 0.675070 0.359836
O O2 0.379478 0.664133 0.568336
O O3 0.307385 0.786526 0.404564
O O4 0.298082 0.586751 0.366876
O O5 0.500000 0.182703 0.250000
O O6 0.327588 0.247047 0.267890
O O7 0.416252 0.161359 0.454543
O O8 0.366166 0.048308 0.263059
O O9 0.596530 0.205589 0.817629
O O10 0.712946 0.435220 0.281222
O O11 0.205710 0.569620 0.922308
O O12 0.750000 0.250000 0.000000
#
# Coordination Sequence:
#
# PCOD8140747 Si02
#       6
#     8   8   4   8   8   8
#     4  10  22  39  66  97 131 173 228 275 326 409
#     4  11  24  40  66 101 133 170 226 284 333 395
#     4  12  24  44  70 104 132 182 228 280 338 394
#     4  10  20  43  64  89 136 183 212 270 348 393
#     4  11  22  42  68  98 132 181 225 268 347 404
#     4  12  24  46  71  96 142 181 220 280 342 399
#
# _framework density 21.830594000000001
#
# number of rings (size 3 to 8) (size 9 to 14) (size 15 to 20)
#    0.000    1.091    3.636    3.273    1.273    0.727 
#    1.636    1.818    0.000    0.000    0.000    0.000 
#    0.000    0.000    0.000    0.000    0.000    0.000 
#
# Total GULP energy -272658.723945 kJ/mol
# GULP energy per Si atom -12393.578361 kJ/mol
# Density = 2.178091 g / cm^3
# Si number density = 21.830594 Si / 1000 Ang^3
#
#
#
# Elastic Constant Matrix: (Units=GPa)
#
#
# Indices 1 2 3 4 5 6 
#
# 1 70.4750 13.6415 29.5066 0.0000 -17.9791 0.0000
# 2 13.6415 96.0443 26.8191 0.0000 6.4961 0.0000
# 3 29.5066 26.8191 131.1894 0.0000 -29.6253 0.0000
# 4 0.0000 0.0000 0.0000 26.1055 0.0000 -10.0073
# 5 -17.9791 6.4961 -29.6253 0.0000 52.6594 0.0000
# 6 0.0000 0.0000 0.0000 -10.0073 0.0000 19.2685
#
#
#
# Elastic Compliance Matrix: (Units=1/GPa)
#
#
# Indices 1 2 3 4 5 6 
#
# 1 0.016739 -0.002055 -0.002288 0.000000 0.004682 0.000000
# 2 -0.002055 0.011729 -0.002773 0.000000 -0.003709 0.000000
# 3 -0.002288 -0.002773 0.009857 0.000000 0.005107 0.000000
# 4 0.000000 0.000000 0.000000 0.047828 0.000000 0.024840
# 5 0.004682 -0.003709 0.005107 0.000000 0.023919 0.000000
# 6 0.000000 0.000000 0.000000 0.024840 0.000000 0.064799
#
#
# Mechanical properties :
#
#
# Convention : Reuss Voigt Hill
#
# Bulk Modulus (GPa) = 41.50472 48.62701 45.06586
# Shear Modulus (GPa) = 25.36339 34.78946 30.07643
#
# Velocity S-wave (km/s) = 3.41226 3.99634 3.71579
# Velocity P-wave (km/s) = 5.88032 6.60434 6.25282
#
# Compressibility (1/GPa) = 0.02409365
#
# Stress axis : x y z
#
# Youngs Moduli (GPa) = 59.73919 85.25908 101.44981
#
# Poissons Ratio (x) = 0.17525 0.23207
# Poissons Ratio (y) = 0.12279 0.28131
# Poissons Ratio (z) = 0.13665 0.23642
#
# Static dielectric constant tensor:
#      x y z
#    x 3.729720 0.000000 -0.230760 
#    y 0.000000 3.836720 0.000000 
#    z -0.230760 0.000000 4.542960 
# 
# 
# High freq. dielectric constant tensor:
#      x y z
#    x 1.839370 0.000000 -0.025930 
#    y 0.000000 1.850810 0.000000 
#    z -0.025930 0.000000 1.879220 
# 
# From -- ./inp_files/95094.got.cif
#   From: 2010.06.25/outbox.cif.g09.slc.cpg/sg15_48_cif.got.tgz:95094.got - 2010.06.28 07:06:18.
