data_PCOD8140139
_publ_section_title
;
Structure prediction by ZEFSAII (Michael W. Deem and Ramdas Pophale) SiO2 
 PCOD8140139
Probable space group: C 2/C
;
_chemical_formula_sum "Si O2"
_cell_formula_units_Z 52
_cell_length_a 16.900235
_cell_length_b 6.050297
_cell_length_c 27.198637
_cell_angle_alpha 90.000000
_cell_angle_beta 120.294093
_cell_angle_gamma 90.000000
_cell_volume 2401.333865
_symmetry_space_group_name_H-M "C 2/C"
_symmetry_group_IT_number 15
_symmetry_cell_setting 'monoclinic'
loop_
_space_group_symop_operation_xyz
x,y,z
-x,y,1/2-z
-x,-y,-z
x,-y,1/2+z
1/2+x,1/2+y,z
1/2-x,1/2+y,1/2-z
1/2-x,1/2-y,-z
1/2+x,1/2-y,1/2+z
loop_
_atom_site_type_symbol
_atom_site_label
_atom_site_fract_x
_atom_site_fract_y
_atom_site_fract_z
Si Si1 0.368220 0.105416 0.753957
Si Si2 0.705439 0.324520 0.681538
Si Si3 0.500000 0.211930 0.250000
Si Si4 0.897780 0.922859 0.424573
Si Si5 0.280021 0.873222 0.960043
Si Si6 0.668489 0.508470 0.333534
Si Si7 0.064051 0.318386 0.997924
O O1 0.373822 0.243906 0.806005
O O2 0.350870 0.263748 0.701458
O O3 0.287994 0.928228 0.738086
O O4 0.458409 0.956078 0.777156
O O5 0.665014 0.540921 0.642143
O O6 0.743415 0.124953 0.659568
O O7 0.576827 0.359294 0.301244
O O8 0.846031 0.779799 0.448867
O O9 0.997566 0.822039 0.440383
O O10 0.909287 0.168750 0.447933
O O11 0.192681 0.940584 0.898564
O O12 0.250000 0.750000 0.000000
O O13 0.342405 0.084448 0.996685
O O14 0.000000 0.500000 0.000000
#
# Coordination Sequence:
#
# PCOD8140139 Si02
#       7
#     8   8   4   8   8   8   8
#     4  11  22  42  68 104 132 171 227 271 343 402
#     4  11  21  38  74  99 124 182 223 278 332 403
#     4  10  26  44  68  96 144 176 212 284 340 400
#     4  10  20  40  67  94 128 166 221 280 326 382
#     4  11  23  41  71  94 131 182 224 273 336 398
#     4  11  22  44  67  98 140 175 224 280 333 405
#     4   9  20  40  62  92 128 165 216 274 319 382
#
# _framework density 21.654630999999998
#
# number of rings (size 3 to 8) (size 9 to 14) (size 15 to 20)
#    0.000    1.538    4.615    0.462    0.000    0.615 
#    0.000   12.308    0.000    0.000    0.000    0.000 
#    0.000    0.000    0.000    0.000    0.000    0.000 
#
# Total GULP energy -322130.717525 kJ/mol
# GULP energy per Si atom -12389.642982 kJ/mol
# Density = 2.160534 g / cm^3
# Si number density = 21.654631 Si / 1000 Ang^3
#
#
#
# Elastic Constant Matrix: (Units=GPa)
#
#
# Indices 1 2 3 4 5 6 
#
# 1 120.5923 56.2269 68.7687 0.0000 7.9315 -0.0001
# 2 56.2269 106.9677 42.1265 0.0000 5.3516 -0.0002
# 3 68.7687 42.1265 108.7530 0.0000 0.9079 0.0000
# 4 0.0000 0.0000 0.0000 41.3712 0.0000 8.4477
# 5 7.9315 5.3516 0.9079 0.0000 29.9356 0.0000
# 6 -0.0001 -0.0002 0.0000 8.4477 0.0000 45.6801
#
#
#
# Elastic Compliance Matrix: (Units=1/GPa)
#
#
# Indices 1 2 3 4 5 6 
#
# 1 0.015073 -0.004759 -0.007663 0.000000 -0.002910 0.000000
# 2 -0.004759 0.012637 -0.001878 0.000000 -0.000941 0.000000
# 3 -0.007663 -0.001878 0.014752 0.000000 0.001919 0.000000
# 4 0.000000 0.000000 0.000000 0.025120 0.000000 -0.004645
# 5 -0.002910 -0.000941 0.001919 0.000000 0.034286 0.000000
# 6 0.000000 0.000000 0.000000 -0.004645 0.000000 0.022750
#
#
# Mechanical properties :
#
#
# Convention : Reuss Voigt Hill
#
# Bulk Modulus (GPa) = 72.14250 74.50634 73.32442
# Shear Modulus (GPa) = 31.67763 34.67676 33.17720
#
# Velocity S-wave (km/s) = 3.82888 4.00604 3.91846
# Velocity P-wave (km/s) = 7.27561 7.47523 7.37610
#
# Compressibility (1/GPa) = 0.01386145
#
# Stress axis : x y z
#
# Youngs Moduli (GPa) = 66.34374 79.13329 67.78625
#
# Poissons Ratio (x) = 0.37663 0.51947
# Poissons Ratio (y) = 0.31576 0.12728
# Poissons Ratio (z) = 0.50841 0.14858
#
# Static dielectric constant tensor:
#      x y z
#    x 4.012330 0.000000 0.258640 
#    y 0.000000 4.556180 0.000000 
#    z 0.258640 0.000000 4.232610 
# 
# 
# High freq. dielectric constant tensor:
#      x y z
#    x 1.835880 0.000000 0.025670 
#    y 0.000000 1.877250 0.000000 
#    z 0.025670 0.000000 1.832120 
# 
# From -- ./inp_files/297845.got.cif
#   From: 2010.06.25/outbox.cif.g09.slc.cpg/sg15_149_cif.got.tgz:297845.got - 2010.06.28 07:06:18.
