data_PCOD8140727
_publ_section_title
;
Structure prediction by ZEFSAII (Michael W. Deem and Ramdas Pophale) SiO2 
 PCOD8140727
Probable space group: C 2/C
;
_chemical_formula_sum "Si O2"
_cell_formula_units_Z 44
_cell_length_a 18.948173
_cell_length_b 9.243925
_cell_length_c 13.274658
_cell_angle_alpha 90.000000
_cell_angle_beta 119.892868
_cell_angle_gamma 90.000000
_cell_volume 2015.791228
_symmetry_space_group_name_H-M "C 2/C"
_symmetry_group_IT_number 15
_symmetry_cell_setting 'monoclinic'
loop_
_space_group_symop_operation_xyz
x,y,z
-x,y,1/2-z
-x,-y,-z
x,-y,1/2+z
1/2+x,1/2+y,z
1/2-x,1/2+y,1/2-z
1/2-x,1/2-y,-z
1/2+x,1/2-y,1/2+z
loop_
_atom_site_type_symbol
_atom_site_label
_atom_site_fract_x
_atom_site_fract_y
_atom_site_fract_z
Si Si1 0.556093 0.818052 0.425587
Si Si2 0.317263 0.339202 0.606545
Si Si3 0.868168 0.331880 0.323997
Si Si4 0.755700 0.157237 0.602397
Si Si5 0.500000 0.934410 0.750000
Si Si6 0.875766 0.653362 0.306527
O O1 0.595679 0.687047 0.388164
O O2 0.463301 0.788456 0.392521
O O3 0.608508 0.836242 0.563582
O O4 0.559889 0.961826 0.358853
O O5 0.250000 0.250000 0.500000
O O6 0.320950 0.286580 0.724578
O O7 0.292157 0.505108 0.594186
O O8 0.834655 0.343053 0.414185
O O9 0.850604 0.488535 0.262042
O O10 0.750000 0.250000 0.500000
O O11 0.810653 0.228062 0.728518
O O12 0.545024 0.823935 0.706784
#
# Coordination Sequence:
#
# PCOD8140727 Si02
#       6
#     8   8   8   8   4   8
#     4  11  22  43  74 102 133 176 236 279 343 410
#     4  12  24  44  71  97 139 184 230 283 352 412
#     4  11  22  45  71  97 134 185 234 277 342 415
#     4  12  28  43  65 103 143 181 231 289 346 411
#     4  10  20  42  74 102 130 182 222 284 334 422
#     4  11  24  41  72 100 136 175 234 279 343 405
#
# _framework density 21.827656999999999
#
# number of rings (size 3 to 8) (size 9 to 14) (size 15 to 20)
#    0.000    0.727    3.636    6.545    5.091    1.455 
#    3.273    1.818    0.000    0.000    0.000    0.000 
#    0.000    0.000    0.000    0.000    0.000    0.000 
#
# Total GULP energy -272703.356323 kJ/mol
# GULP energy per Si atom -12395.607106 kJ/mol
# Density = 2.177798 g / cm^3
# Si number density = 21.827657 Si / 1000 Ang^3
#
#
#
# Elastic Constant Matrix: (Units=GPa)
#
#
# Indices 1 2 3 4 5 6 
#
# 1 151.5466 56.3656 27.9021 0.0000 -28.5191 0.0000
# 2 56.3656 123.9468 43.0682 0.0000 3.5936 0.0000
# 3 27.9021 43.0682 128.3894 0.0000 -3.8451 0.0000
# 4 0.0000 0.0000 0.0000 29.9839 0.0000 -0.2011
# 5 -28.5191 3.5936 -3.8451 0.0000 45.0168 0.0000
# 6 0.0000 0.0000 0.0000 -0.2011 0.0000 27.8532
#
#
#
# Elastic Compliance Matrix: (Units=1/GPa)
#
#
# Indices 1 2 3 4 5 6 
#
# 1 0.009483 -0.004352 -0.000411 0.000000 0.006320 0.000000
# 2 -0.004352 0.011175 -0.002919 0.000000 -0.003899 0.000000
# 3 -0.000411 -0.002919 0.008879 0.000000 0.000731 0.000000
# 4 0.000000 0.000000 0.000000 0.033353 0.000000 0.000241
# 5 0.006320 -0.003899 0.000731 0.000000 0.026591 0.000000
# 6 0.000000 0.000000 0.000000 0.000241 0.000000 0.035904
#
#
# Mechanical properties :
#
#
# Convention : Reuss Voigt Hill
#
# Bulk Modulus (GPa) = 70.57196 73.17272 71.87234
# Shear Modulus (GPa) = 34.37010 39.00723 36.68867
#
# Velocity S-wave (km/s) = 3.97244 4.23194 4.10425
# Velocity P-wave (km/s) = 7.31041 7.58122 7.44704
#
# Compressibility (1/GPa) = 0.01416993
#
# Stress axis : x y z
#
# Youngs Moduli (GPa) = 105.45719 89.48729 112.61965
#
# Poissons Ratio (x) = 0.38949 0.04634
# Poissons Ratio (y) = 0.45900 0.32879
# Poissons Ratio (z) = 0.04339 0.26125
#
# Static dielectric constant tensor:
#      x y z
#    x 52.789880 0.000000 5.206560 
#    y 0.000000 3.792490 0.000000 
#    z 5.206560 0.000000 4.656790 
# 
# 
# High freq. dielectric constant tensor:
#      x y z
#    x 1.877780 0.000000 -0.018800 
#    y 0.000000 1.828860 0.000000 
#    z -0.018800 0.000000 1.871920 
# 
# From -- ./inp_files/110161.got.cif
#   From: 2010.06.25/outbox.cif.g09.slc.cpg/sg15_56_cif.got.tgz:110161.got - 2010.06.28 07:06:18.
