data_PCOD8140144
_publ_section_title
;
Structure prediction by ZEFSAII (Michael W. Deem and Ramdas Pophale) SiO2 
 PCOD8140144
Probable space group: C 2/C
;
_chemical_formula_sum "Si O2"
_cell_formula_units_Z 60
_cell_length_a 15.450959
_cell_length_b 8.193939
_cell_length_c 22.852537
_cell_angle_alpha 90.000000
_cell_angle_beta 101.053395
_cell_angle_gamma 90.000000
_cell_volume 2839.555079
_symmetry_space_group_name_H-M "C 2/C"
_symmetry_group_IT_number 15
_symmetry_cell_setting 'monoclinic'
loop_
_space_group_symop_operation_xyz
x,y,z
-x,y,1/2-z
-x,-y,-z
x,-y,1/2+z
1/2+x,1/2+y,z
1/2-x,1/2+y,1/2-z
1/2-x,1/2-y,-z
1/2+x,1/2-y,1/2+z
loop_
_atom_site_type_symbol
_atom_site_label
_atom_site_fract_x
_atom_site_fract_y
_atom_site_fract_z
Si Si1 0.561788 0.102981 0.110001
Si Si2 0.000000 0.096573 0.750000
Si Si3 0.936966 0.560285 0.685499
Si Si4 0.966439 0.112567 0.133597
Si Si5 0.373820 0.237676 0.917970
Si Si6 0.163582 0.205710 0.712982
Si Si7 0.750865 0.392113 0.683685
Si Si8 0.450099 0.622394 0.534872
O O1 0.643280 0.178708 0.155836
O O2 0.519014 0.237050 0.062171
O O3 0.486600 0.051420 0.145487
O O4 0.604968 0.955130 0.079216
O O5 0.915067 0.210679 0.748636
O O6 0.996437 0.990101 0.692209
O O7 0.911928 0.732516 0.650502
O O8 0.844934 0.477333 0.688318
O O9 0.000000 0.590517 0.750000
O O10 0.052055 0.173065 0.110435
O O11 0.912271 0.985966 0.084366
O O12 0.279872 0.286609 0.876780
O O13 0.372623 0.295606 0.985782
O O14 0.247758 0.272418 0.759702
O O15 0.178539 0.026997 0.689360
O O16 0.500000 0.500000 0.500000
#
# Coordination Sequence:
#
# PCOD8140144 Si02
#       8
#     8   4   8   8   8   8   8   8
#     4  11  21  41  66  94 120 178 216 262 333 384
#     4  12  20  38  64  92 126 160 208 254 322 396
#     4  11  23  40  62  93 136 169 209 263 331 398
#     4  10  21  37  67  92 124 168 213 257 327 383
#     4  10  22  42  62  94 127 167 218 272 315 382
#     4  12  24  36  62  92 133 165 211 263 328 388
#     4  12  25  40  58  98 133 172 213 270 326 383
#     4  10  20  40  67  96 123 165 226 272 306 391
#
# _framework density 21.130071999999998
#
# number of rings (size 3 to 8) (size 9 to 14) (size 15 to 20)
#    0.000    1.067    4.667    2.800    3.733    0.000 
#    0.000    1.333    0.000    0.000    0.000    0.000 
#    0.000    0.000    0.000    0.000    0.000    0.000 
#
# Total GULP energy -371843.982318 kJ/mol
# GULP energy per Si atom -12394.799411 kJ/mol
# Density = 2.108198 g / cm^3
# Si number density = 21.130072 Si / 1000 Ang^3
#
#
#
# Elastic Constant Matrix: (Units=GPa)
#
#
# Indices 1 2 3 4 5 6 
#
# 1 48.5040 23.6704 20.7440 0.0000 6.5952 0.0000
# 2 23.6704 139.9194 76.8333 0.0000 9.7919 0.0000
# 3 20.7440 76.8333 159.4478 0.0000 23.8964 0.0000
# 4 0.0000 0.0000 0.0000 44.5012 0.0000 5.9689
# 5 6.5952 9.7919 23.8964 0.0000 29.1736 0.0000
# 6 0.0000 0.0000 0.0000 5.9689 0.0000 23.1909
#
#
#
# Elastic Compliance Matrix: (Units=1/GPa)
#
#
# Indices 1 2 3 4 5 6 
#
# 1 0.023016 -0.003115 -0.000992 0.000000 -0.003345 0.000000
# 2 -0.003115 0.010151 -0.004652 0.000000 0.001108 0.000000
# 3 -0.000992 -0.004652 0.009547 0.000000 -0.006034 0.000000
# 4 0.000000 0.000000 0.000000 0.023275 0.000000 -0.005990
# 5 -0.003345 0.001108 -0.006034 0.000000 0.039605 0.000000
# 6 0.000000 0.000000 0.000000 -0.005990 0.000000 0.044662
#
#
# Mechanical properties :
#
#
# Convention : Reuss Voigt Hill
#
# Bulk Modulus (GPa) = 39.68948 65.59629 52.64289
# Shear Modulus (GPa) = 28.38126 34.48135 31.43131
#
# Velocity S-wave (km/s) = 3.66890 4.04401 3.86102
# Velocity P-wave (km/s) = 6.06399 7.27440 6.69660
#
# Compressibility (1/GPa) = 0.02519559
#
# Stress axis : x y z
#
# Youngs Moduli (GPa) = 43.44798 98.51166 104.74637
#
# Poissons Ratio (x) = 0.30684 0.10392
# Poissons Ratio (y) = 0.13533 0.48731
# Poissons Ratio (z) = 0.04311 0.45831
#
# Static dielectric constant tensor:
#      x y z
#    x 3.308430 0.000000 0.086970 
#    y 0.000000 4.327600 0.000000 
#    z 0.086970 0.000000 4.261800 
# 
# 
# High freq. dielectric constant tensor:
#      x y z
#    x 1.784720 0.000000 0.001920 
#    y 0.000000 1.856630 0.000000 
#    z 0.001920 0.000000 1.838220 
# 
# From -- ./inp_files/273130.got.cif
#   From: 2010.06.25/outbox.cif.g09.slc.cpg/sg15_137_cif.got.tgz:273130.got - 2010.06.28 07:06:18.
