data_PCOD8140250
_publ_section_title
;
Structure prediction by ZEFSAII (Michael W. Deem and Ramdas Pophale) SiO2 
 PCOD8140250
Probable space group: C 2/C
;
_chemical_formula_sum "Si O2"
_cell_formula_units_Z 60
_cell_length_a 8.349157
_cell_length_b 14.886425
_cell_length_c 29.220275
_cell_angle_alpha 90.000000
_cell_angle_beta 127.000188
_cell_angle_gamma 90.000000
_cell_volume 2900.446659
_symmetry_space_group_name_H-M "C 2/C"
_symmetry_group_IT_number 15
_symmetry_cell_setting 'monoclinic'
loop_
_space_group_symop_operation_xyz
x,y,z
-x,y,1/2-z
-x,-y,-z
x,-y,1/2+z
1/2+x,1/2+y,z
1/2-x,1/2+y,1/2-z
1/2-x,1/2-y,-z
1/2+x,1/2-y,1/2+z
loop_
_atom_site_type_symbol
_atom_site_label
_atom_site_fract_x
_atom_site_fract_y
_atom_site_fract_z
Si Si1 0.185484 0.364133 0.438952
Si Si2 0.834206 0.709378 0.060948
Si Si3 0.079183 0.465190 0.610054
Si Si4 0.203052 0.995383 0.262341
Si Si5 0.650896 0.645697 0.630365
Si Si6 0.000000 0.618581 0.750000
Si Si7 0.996720 0.039283 0.141945
Si Si8 0.483896 0.320876 0.566674
O O1 0.313021 0.384784 0.415560
O O2 0.323099 0.372572 0.507475
O O3 0.109937 0.261817 0.421536
O O4 0.005376 0.434773 0.411946
O O5 0.659665 0.720042 0.067131
O O6 0.904261 0.606074 0.068787
O O7 0.019037 0.766108 0.110990
O O8 0.750000 0.750000 0.000000
O O9 0.166510 0.454648 0.676482
O O10 0.257258 0.449848 0.604578
O O11 0.358382 0.934258 0.261275
O O12 0.000000 0.947946 0.250000
O O13 0.110201 0.064410 0.208924
O O14 0.545466 0.562980 0.637427
O O15 0.855153 0.674811 0.691747
O O16 0.076327 0.107567 0.117594
#
# Coordination Sequence:
#
# PCOD8140250 Si02
#       8
#     8   8   8   8   8   4   8   8
#     4  11  23  41  68  92 129 170 214 267 325 386
#     4  12  26  42  63  94 133 171 221 270 315 393
#     4  11  23  43  67  94 129 173 212 270 331 385
#     4   9  20  40  66 101 129 166 220 272 326 402
#     4  11  22  43  66  98 127 171 215 266 327 384
#     4  10  20  40  74  92 136 166 222 270 332 392
#     4  10  23  41  69  95 128 167 214 268 331 390
#     4  11  25  42  63  97 130 169 219 268 323 394
#
# _framework density 20.68647
#
# number of rings (size 3 to 8) (size 9 to 14) (size 15 to 20)
#    0.000    1.333    2.667    2.400    5.600    1.600 
#    6.000    0.000    0.000    0.000    0.000    0.000 
#    0.000    0.000    0.000    0.000    0.000    0.000 
#
# Total GULP energy -371895.941490 kJ/mol
# GULP energy per Si atom -12396.531383 kJ/mol
# Density = 2.063939 g / cm^3
# Si number density = 20.686470 Si / 1000 Ang^3
#
#
#
# Elastic Constant Matrix: (Units=GPa)
#
#
# Indices 1 2 3 4 5 6 
#
# 1 111.5295 15.1244 39.6553 0.0000 -3.9081 0.0000
# 2 15.1244 71.9572 56.5738 0.0000 0.6734 0.0000
# 3 39.6553 56.5738 136.1498 0.0000 1.0677 0.0000
# 4 0.0000 0.0000 0.0000 28.2698 0.0000 4.3711
# 5 -3.9081 0.6734 1.0677 0.0000 34.1137 0.0000
# 6 0.0000 0.0000 0.0000 4.3711 0.0000 31.6054
#
#
#
# Elastic Compliance Matrix: (Units=1/GPa)
#
#
# Indices 1 2 3 4 5 6 
#
# 1 0.010058 0.000275 -0.003054 0.000000 0.001242 0.000000
# 2 0.000275 0.020648 -0.008659 0.000000 -0.000105 0.000000
# 3 -0.003054 -0.008659 0.011837 0.000000 -0.000549 0.000000
# 4 0.000000 0.000000 0.000000 0.036146 0.000000 -0.004999
# 5 0.001242 -0.000105 -0.000549 0.000000 0.029475 0.000000
# 6 0.000000 0.000000 0.000000 -0.004999 0.000000 0.032332
#
#
# Mechanical properties :
#
#
# Convention : Reuss Voigt Hill
#
# Bulk Modulus (GPa) = 50.84473 60.26039 55.55256
# Shear Modulus (GPa) = 29.42423 32.68332 31.05378
#
# Velocity S-wave (km/s) = 3.77555 3.97915 3.87869
# Velocity P-wave (km/s) = 6.60594 7.09261 6.85360
#
# Compressibility (1/GPa) = 0.01966772
#
# Stress axis : x y z
#
# Youngs Moduli (GPa) = 99.42123 48.43010 84.48304
#
# Poissons Ratio (x) = -0.01332 0.25798
# Poissons Ratio (y) = -0.02735 0.73156
# Poissons Ratio (z) = 0.30360 0.41937
#
# Static dielectric constant tensor:
#      x y z
#    x 4.014540 0.000000 0.085550 
#    y 0.000000 3.430890 0.000000 
#    z 0.085550 0.000000 4.131290 
# 
# 
# High freq. dielectric constant tensor:
#      x y z
#    x 1.830150 0.000000 -0.000970 
#    y 0.000000 1.780150 0.000000 
#    z -0.000970 0.000000 1.826680 
# 
# From -- ./inp_files/308293.got.cif
#   From: 2010.06.25/outbox.cif.g09.slc.cpg/sg15_155_cif.got.tgz:308293.got - 2010.06.28 07:06:18.
