data_PCOD8140061
_publ_section_title
;
Structure prediction by ZEFSAII (Michael W. Deem and Ramdas Pophale) SiO2 
 PCOD8140061
Probable space group: C 2/C
;
_chemical_formula_sum "Si O2"
_cell_formula_units_Z 64
_cell_length_a 22.614167
_cell_length_b 24.988677
_cell_length_c 12.483657
_cell_angle_alpha 90.000000
_cell_angle_beta 25.941229
_cell_angle_gamma 90.000000
_cell_volume 3085.979913
_symmetry_space_group_name_H-M "C 2/C"
_symmetry_group_IT_number 15
_symmetry_cell_setting 'monoclinic'
loop_
_space_group_symop_operation_xyz
x,y,z
-x,y,1/2-z
-x,-y,-z
x,-y,1/2+z
1/2+x,1/2+y,z
1/2-x,1/2+y,1/2-z
1/2-x,1/2-y,-z
1/2+x,1/2-y,1/2+z
loop_
_atom_site_type_symbol
_atom_site_label
_atom_site_fract_x
_atom_site_fract_y
_atom_site_fract_z
Si Si1 0.000400 0.577739 0.921948
Si Si2 0.774760 0.345950 0.816504
Si Si3 0.297926 0.828604 0.410676
Si Si4 0.678041 0.395951 0.182345
Si Si5 0.975085 0.248008 0.483707
Si Si6 0.926208 0.839516 0.543222
Si Si7 0.372733 0.345737 0.013932
Si Si8 0.427750 0.036159 0.263969
O O1 0.104451 0.622955 0.721441
O O2 0.042690 0.527079 0.782224
O O3 0.851474 0.602389 0.140089
O O4 0.005571 0.562508 0.038212
O O5 0.638233 0.338252 0.969741
O O6 0.864648 0.293624 0.671824
O O7 0.744168 0.354521 0.991164
O O8 0.378443 0.772519 0.286089
O O9 0.181803 0.833671 0.686703
O O10 0.246673 0.835241 0.373731
O O11 0.517359 0.394060 0.411377
O O12 0.691684 0.378773 0.283365
O O13 0.764434 0.451356 0.029735
O O14 0.980761 0.213368 0.585838
O O15 0.934014 0.210198 0.453368
O O16 0.500000 0.376684 0.750000
O O17 0.500000 0.061553 0.250000
#
# Coordination Sequence:
#
# PCOD8140061 Si02
#       8
#     8   8   8   8   8   8   8   8
#     4   9  22  38  62  93 111 153 199 248 295 359
#     4  10  22  39  60  86 125 157 205 240 297 353
#     4  11  21  36  58  88 122 154 204 241 296 343
#     4  10  22  41  59  86 117 162 195 248 304 357
#     4  10  22  35  58  91 116 168 204 244 284 349
#     4  11  22  34  59  87 125 162 193 242 297 351
#     4  11  21  36  57  81 122 159 198 241 293 351
#     4  10  20  40  66  86 116 146 198 253 304 352
#
# _framework density 20.738956000000002
#
# number of rings (size 3 to 8) (size 9 to 14) (size 15 to 20)
#    0.000    1.750    2.500    2.250    3.500    3.000 
#    0.000    3.125    0.000    0.000    0.000    0.000 
#    0.000    0.000    0.000    0.000    0.000    0.000 
#
# Total GULP energy -396465.571988 kJ/mol
# GULP energy per Si atom -12389.549125 kJ/mol
# Density = 2.069175 g / cm^3
# Si number density = 20.738956 Si / 1000 Ang^3
#
#
#
# Elastic Constant Matrix: (Units=GPa)
#
#
# Indices 1 2 3 4 5 6 
#
# 1 93.3099 9.4745 23.7931 0.0005 2.0220 -0.0003
# 2 9.4745 69.1858 34.4327 -0.0046 0.5550 -0.0009
# 3 23.7931 34.4327 100.9617 -0.0121 -2.0006 -0.0015
# 4 0.0005 -0.0046 -0.0121 24.9429 0.0007 2.6247
# 5 2.0220 0.5550 -2.0006 0.0007 34.3205 0.0000
# 6 -0.0003 -0.0009 -0.0015 2.6247 0.0000 12.2683
#
#
#
# Elastic Compliance Matrix: (Units=1/GPa)
#
#
# Indices 1 2 3 4 5 6 
#
# 1 0.011429 -0.000253 -0.002624 -0.000002 -0.000822 0.000000
# 2 -0.000253 0.017428 -0.005896 0.000000 -0.000611 0.000000
# 3 -0.002624 -0.005896 0.012553 0.000005 0.000982 0.000000
# 4 -0.000002 0.000000 0.000005 0.041015 0.000000 -0.008775
# 5 -0.000822 -0.000611 0.000982 0.000000 0.029253 0.000000
# 6 0.000000 0.000000 0.000000 -0.008775 0.000000 0.083388
#
#
# Mechanical properties :
#
#
# Convention : Reuss Voigt Hill
#
# Bulk Modulus (GPa) = 41.90183 44.31758 43.10970
# Shear Modulus (GPa) = 22.66885 27.35681 25.01283
#
# Velocity S-wave (km/s) = 3.30973 3.63589 3.47663
# Velocity P-wave (km/s) = 5.90373 6.24835 6.07848
#
# Compressibility (1/GPa) = 0.02386531
#
# Stress axis : x y z
#
# Youngs Moduli (GPa) = 87.49324 57.37959 79.65992
#
# Poissons Ratio (x) = 0.01451 0.20899
# Poissons Ratio (y) = 0.02212 0.46969
# Poissons Ratio (z) = 0.22954 0.33832
#
# Static dielectric constant tensor:
#      x y z
#    x 3.900870 0.000000 -0.151920 
#    y 0.000000 3.755560 0.000030 
#    z -0.151920 0.000030 4.146530 
# 
# 
# High freq. dielectric constant tensor:
#      x y z
#    x 1.820380 0.000000 0.002800 
#    y 0.000000 1.784650 0.000000 
#    z 0.002800 0.000000 1.824940 
# 
# From -- ./inp_files/115004.got.cif
#   From: 2010.06.25/outbox.cif.g09.slc.cpg/sg15_58_cif.got.tgz:115004.got - 2010.06.28 07:06:18.
