data_PCOD8140871
_publ_section_title
;
Structure prediction by ZEFSAII (Michael W. Deem and Ramdas Pophale) SiO2 
 PCOD8140871
Probable space group: C 2/C
;
_chemical_formula_sum "Si O2"
_cell_formula_units_Z 44
_cell_length_a 12.111552
_cell_length_b 11.815089
_cell_length_c 18.033889
_cell_angle_alpha 90.000000
_cell_angle_beta 53.207176
_cell_angle_gamma 90.000000
_cell_volume 2066.587115
_symmetry_space_group_name_H-M "C 2/C"
_symmetry_group_IT_number 15
_symmetry_cell_setting 'monoclinic'
loop_
_space_group_symop_operation_xyz
x,y,z
-x,y,1/2-z
-x,-y,-z
x,-y,1/2+z
1/2+x,1/2+y,z
1/2-x,1/2+y,1/2-z
1/2-x,1/2-y,-z
1/2+x,1/2-y,1/2+z
loop_
_atom_site_type_symbol
_atom_site_label
_atom_site_fract_x
_atom_site_fract_y
_atom_site_fract_z
Si Si1 0.548372 0.871015 0.482415
Si Si2 0.651796 0.712138 0.324989
Si Si3 0.335668 0.435368 0.417819
Si Si4 0.000000 0.901098 0.750000
Si Si5 0.339603 0.501239 0.074850
Si Si6 0.103035 0.799648 0.357317
O O1 0.547321 0.802497 0.405072
O O2 0.708186 0.860523 0.441658
O O3 0.442016 0.811165 0.580103
O O4 0.500000 0.000000 0.500000
O O5 0.577413 0.674000 0.279674
O O6 0.694661 0.608993 0.361059
O O7 0.799675 0.767392 0.249653
O O8 0.380731 0.526503 0.338290
O O9 0.276783 0.493191 0.517362
O O10 0.466611 0.357265 0.380371
O O11 0.302628 0.383849 0.130306
O O12 0.500000 0.500000 0.000000
#
# Coordination Sequence:
#
# PCOD8140871 Si02
#       6
#     8   8   8   4   8   8
#     4  12  26  43  65 103 139 176 226 286 333 404
#     4  12  25  42  69 102 139 172 233 281 338 408
#     4  11  22  44  73  96 133 183 227 273 351 401
#     4  12  22  42  72  98 132 186 220 280 350 412
#     4  10  20  45  67  96 134 178 224 280 340 399
#     4  11  23  42  71  98 134 178 224 286 334 402
#
# _framework density 21.291142000000001
#
# number of rings (size 3 to 8) (size 9 to 14) (size 15 to 20)
#    0.000    0.727    7.273    2.727    2.545    1.455 
#    0.000    3.636    0.000    0.000    0.000    0.000 
#    0.000    0.000    0.000    0.000    0.000    0.000 
#
# Total GULP energy -272718.088252 kJ/mol
# GULP energy per Si atom -12396.276739 kJ/mol
# Density = 2.124268 g / cm^3
# Si number density = 21.291142 Si / 1000 Ang^3
#
#
#
# Elastic Constant Matrix: (Units=GPa)
#
#
# Indices 1 2 3 4 5 6 
#
# 1 52.0951 17.3143 22.5790 0.0000 15.5157 0.0000
# 2 17.3143 135.9823 49.6759 0.0000 6.1232 0.0000
# 3 22.5790 49.6759 112.6048 0.0000 7.1966 0.0000
# 4 0.0000 0.0000 0.0000 56.6376 0.0000 5.5958
# 5 15.5157 6.1232 7.1966 0.0000 36.6870 0.0000
# 6 0.0000 0.0000 0.0000 5.5958 0.0000 29.5789
#
#
#
# Elastic Compliance Matrix: (Units=1/GPa)
#
#
# Indices 1 2 3 4 5 6 
#
# 1 0.023945 -0.001306 -0.003638 0.000000 -0.009195 0.000000
# 2 -0.001306 0.008856 -0.003632 0.000000 -0.000213 0.000000
# 3 -0.003638 -0.003632 0.011216 0.000000 -0.000056 0.000000
# 4 0.000000 0.000000 0.000000 0.017992 0.000000 -0.003404
# 5 -0.009195 -0.000213 -0.000056 0.000000 0.031193 0.000000
# 6 0.000000 0.000000 0.000000 -0.003404 0.000000 0.034452
#
#
# Mechanical properties :
#
#
# Convention : Reuss Voigt Hill
#
# Bulk Modulus (GPa) = 37.22045 53.31341 45.26693
# Shear Modulus (GPa) = 32.51821 38.65489 35.58655
#
# Velocity S-wave (km/s) = 3.91232 4.26554 4.09274
# Velocity P-wave (km/s) = 6.15857 7.02526 6.60614
#
# Compressibility (1/GPa) = 0.02686695
#
# Stress axis : x y z
#
# Youngs Moduli (GPa) = 41.76245 112.91220 89.16140
#
# Poissons Ratio (x) = 0.14746 0.32433
# Poissons Ratio (y) = 0.05454 0.32379
# Poissons Ratio (z) = 0.15191 0.41004
#
# Static dielectric constant tensor:
#      x y z
#    x 2.036150 0.000000 -1.945830 
#    y 0.000000 4.664480 0.000000 
#    z -1.945830 0.000000 1.331340 
# 
# 
# High freq. dielectric constant tensor:
#      x y z
#    x 1.813720 0.000000 0.010960 
#    y 0.000000 1.844200 0.000000 
#    z 0.010960 0.000000 1.854970 
# 
# From -- ./inp_files/196443.got.cif
#   From: 2010.06.25/outbox.cif.g09.slc.cpg/sg15_99_cif.got.tgz:196443.got - 2010.06.28 07:06:18.
