data_PCOD8140021
_publ_section_title
;
Structure prediction by ZEFSAII (Michael W. Deem and Ramdas Pophale) SiO2 
 PCOD8140021
Probable space group: C 2/C
;
_chemical_formula_sum "Si O2"
_cell_formula_units_Z 56
_cell_length_a 8.083818
_cell_length_b 23.653814
_cell_length_c 17.264393
_cell_angle_alpha 90.000000
_cell_angle_beta 53.721383
_cell_angle_gamma 90.000000
_cell_volume 2661.242363
_symmetry_space_group_name_H-M "C 2/C"
_symmetry_group_IT_number 15
_symmetry_cell_setting 'monoclinic'
loop_
_space_group_symop_operation_xyz
x,y,z
-x,y,1/2-z
-x,-y,-z
x,-y,1/2+z
1/2+x,1/2+y,z
1/2-x,1/2+y,1/2-z
1/2-x,1/2-y,-z
1/2+x,1/2-y,1/2+z
loop_
_atom_site_type_symbol
_atom_site_label
_atom_site_fract_x
_atom_site_fract_y
_atom_site_fract_z
Si Si1 0.266714 0.040025 0.979364
Si Si2 0.821416 0.605914 0.118162
Si Si3 0.864501 0.506069 0.212519
Si Si4 0.029482 0.940789 0.394090
Si Si5 0.548054 0.261752 0.965668
Si Si6 0.242327 0.657165 0.978222
Si Si7 0.867479 0.223427 0.353581
O O1 0.153252 0.069822 0.939058
O O2 0.498077 0.023757 0.891100
O O3 0.271146 0.084662 0.046361
O O4 0.151462 0.984545 0.040007
O O5 0.763047 0.562023 0.202770
O O6 0.692386 0.662658 0.165177
O O7 0.063775 0.616354 0.057804
O O8 0.681112 0.463650 0.285700
O O9 0.000000 0.522634 0.250000
O O10 0.929577 0.881386 0.394570
O O11 0.658786 0.200029 0.935291
O O12 0.510518 0.281499 0.889051
O O13 0.693065 0.307466 0.964518
O O14 0.334482 0.259550 0.072015
O O15 0.000000 0.254536 0.250000
#
# Coordination Sequence:
#
# PCOD8140021 Si02
#       7
#     8   8   8   8   8   8   8
#     4  10  21  39  56  84 131 164 198 254 302 374
#     4  11  22  37  62  89 123 159 203 253 308 366
#     4  10  22  37  55  89 129 165 210 251 295 381
#     4  10  21  37  62  86 123 168 201 248 314 360
#     4   9  21  43  65  89 124 154 214 261 315 370
#     4  10  20  40  65  88 118 171 200 257 317 363
#     4  10  22  40  65  93 117 159 201 262 318 373
#
# _framework density 21.042802999999999
#
# number of rings (size 3 to 8) (size 9 to 14) (size 15 to 20)
#    0.000    2.000    1.429    1.286    2.000    1.143 
#    0.000   13.571    0.000    0.000    0.000    0.000 
#    0.000    0.000    0.000    0.000    0.000    0.000 
#
# Total GULP energy -347259.135512 kJ/mol
# GULP energy per Si atom -12402.111983 kJ/mol
# Density = 2.099491 g / cm^3
# Si number density = 21.042803 Si / 1000 Ang^3
#
#
#
# Elastic Constant Matrix: (Units=GPa)
#
#
# Indices 1 2 3 4 5 6 
#
# 1 94.6530 35.7117 37.2413 0.0000 -6.4526 0.0000
# 2 35.7117 68.8497 29.7180 0.0000 -10.6091 0.0000
# 3 37.2413 29.7180 117.8972 0.0000 -6.8123 0.0000
# 4 0.0000 0.0000 0.0000 20.8997 0.0000 2.5171
# 5 -6.4526 -10.6091 -6.8123 0.0000 21.7636 0.0000
# 6 0.0000 0.0000 0.0000 2.5171 0.0000 32.3464
#
#
#
# Elastic Compliance Matrix: (Units=1/GPa)
#
#
# Indices 1 2 3 4 5 6 
#
# 1 0.013970 -0.005944 -0.002895 0.000000 0.000338 0.000000
# 2 -0.005944 0.019873 -0.002723 0.000000 0.007073 0.000000
# 3 -0.002895 -0.002723 0.010140 0.000000 0.000988 0.000000
# 4 0.000000 0.000000 0.000000 0.048300 0.000000 -0.003759
# 5 0.000338 0.007073 0.000988 0.000000 0.049806 0.000000
# 6 0.000000 0.000000 0.000000 -0.003759 0.000000 0.031208
#
#
# Mechanical properties :
#
#
# Convention : Reuss Voigt Hill
#
# Bulk Modulus (GPa) = 47.94290 54.08243 51.01267
# Shear Modulus (GPa) = 24.58540 26.91721 25.75131
#
# Velocity S-wave (km/s) = 3.42182 3.58042 3.50202
# Velocity P-wave (km/s) = 6.20039 6.54595 6.37551
#
# Compressibility (1/GPa) = 0.02085815
#
# Stress axis : x y z
#
# Youngs Moduli (GPa) = 71.58369 50.32007 98.62093
#
# Poissons Ratio (x) = 0.29912 0.28549
# Poissons Ratio (y) = 0.42552 0.26854
# Poissons Ratio (z) = 0.20722 0.13702
#
# Static dielectric constant tensor:
#      x y z
#    x 4.016560 0.000000 -0.080530 
#    y 0.000000 3.705370 0.000000 
#    z -0.080530 0.000000 3.711760 
# 
# 
# High freq. dielectric constant tensor:
#      x y z
#    x 1.842230 0.000000 -0.008300 
#    y 0.000000 1.816470 0.000000 
#    z -0.008300 0.000000 1.810070 
# 
# From -- ./inp_files/193191.got.cif
#   From: 2010.06.25/outbox.cif.g09.slc.cpg/sg15_97_cif.got.tgz:193191.got - 2010.06.28 07:06:18.
