data_PCOD8140671
_publ_section_title
;
Structure prediction by ZEFSAII (Michael W. Deem and Ramdas Pophale) SiO2 
 PCOD8140671
Probable space group: C 2/C
;
_chemical_formula_sum "Si O2"
_cell_formula_units_Z 48
_cell_length_a 9.580979
_cell_length_b 28.755182
_cell_length_c 17.686706
_cell_angle_alpha 90.000000
_cell_angle_beta 29.136387
_cell_angle_gamma 90.000000
_cell_volume 2372.487819
_symmetry_space_group_name_H-M "C 2/C"
_symmetry_group_IT_number 15
_symmetry_cell_setting 'monoclinic'
loop_
_space_group_symop_operation_xyz
x,y,z
-x,y,1/2-z
-x,-y,-z
x,-y,1/2+z
1/2+x,1/2+y,z
1/2-x,1/2+y,1/2-z
1/2-x,1/2-y,-z
1/2+x,1/2-y,1/2+z
loop_
_atom_site_type_symbol
_atom_site_label
_atom_site_fract_x
_atom_site_fract_y
_atom_site_fract_z
Si Si1 0.531195 0.224308 0.050331
Si Si2 0.303427 0.958672 0.064138
Si Si3 0.189088 0.623974 0.358487
Si Si4 0.034657 0.770785 0.894495
Si Si5 0.701761 0.369726 0.857138
Si Si6 0.700911 0.540330 0.435133
O O1 0.519720 0.168547 0.050778
O O2 0.228897 0.238265 0.229488
O O3 0.750000 0.250000 0.000000
O O4 0.622500 0.241653 0.925324
O O5 0.000000 0.956684 0.250000
O O6 0.495297 0.913507 0.993791
O O7 0.237656 0.964408 0.006902
O O8 0.500000 0.000000 0.000000
O O9 0.500000 0.634056 0.250000
O O10 0.245291 0.604271 0.247757
O O11 0.002837 0.824959 0.934717
O O12 0.750000 0.750000 0.000000
O O13 0.566477 0.408497 0.977666
O O14 0.000000 0.350030 0.750000
O O15 0.500000 0.500000 0.500000
O O16 0.000000 0.537025 0.250000
#
# Coordination Sequence:
#
# PCOD8140671 Si02
#       6
#     8   8   8   8   8   8
#     4  11  23  40  67  94 130 174 221 269 330 394
#     4  12  26  43  68 103 135 169 219 282 338 394
#     4  11  23  43  67  95 134 183 223 270 338 403
#     4  11  22  40  63  96 129 171 220 272 328 389
#     4  10  20  42  69  88 127 182 224 255 333 404
#     4  11  23  44  69  95 129 175 220 264 331 403
#
# _framework density 20.231926000000001
#
# number of rings (size 3 to 8) (size 9 to 14) (size 15 to 20)
#    0.000    1.000    3.333    6.500    2.333    1.333 
#    0.000    1.667    0.000    0.000    0.000    0.000 
#    0.000    0.000    0.000    0.000    0.000    0.000 
#
# Total GULP energy -297315.674381 kJ/mol
# GULP energy per Si atom -12388.153099 kJ/mol
# Density = 2.018588 g / cm^3
# Si number density = 20.231926 Si / 1000 Ang^3
#
#
#
# Elastic Constant Matrix: (Units=GPa)
#
#
# Indices 1 2 3 4 5 6 
#
# 1 111.8019 50.9713 28.1430 0.0000 3.5775 0.0000
# 2 50.9713 160.5340 60.6655 0.0000 -17.6023 0.0000
# 3 28.1430 60.6655 93.8517 0.0003 1.3528 0.0001
# 4 0.0000 0.0000 0.0003 30.6525 -0.0001 -3.6421
# 5 3.5775 -17.6023 1.3528 -0.0001 44.7402 0.0000
# 6 0.0000 0.0000 0.0001 -3.6421 0.0000 41.0712
#
#
#
# Elastic Compliance Matrix: (Units=1/GPa)
#
#
# Indices 1 2 3 4 5 6 
#
# 1 0.010762 -0.003227 -0.001111 0.000000 -0.002097 0.000000
# 2 -0.003227 0.009764 -0.005405 0.000000 0.004263 0.000000
# 3 -0.001111 -0.005405 0.014518 0.000000 -0.002477 0.000000
# 4 0.000000 0.000000 0.000000 0.032971 0.000000 0.002924
# 5 -0.002097 0.004263 -0.002477 0.000000 0.024271 0.000000
# 6 0.000000 0.000000 0.000000 0.002924 0.000000 0.024607
#
#
# Mechanical properties :
#
#
# Convention : Reuss Voigt Hill
#
# Bulk Modulus (GPa) = 64.27757 71.74967 68.01362
# Shear Modulus (GPa) = 35.31921 38.38662 36.85292
#
# Velocity S-wave (km/s) = 4.18271 4.36056 4.27256
# Velocity P-wave (km/s) = 7.42739 7.80341 7.61772
#
# Compressibility (1/GPa) = 0.01555753
#
# Stress axis : x y z
#
# Youngs Moduli (GPa) = 92.91537 102.41822 68.88111
#
# Poissons Ratio (x) = 0.33053 0.07653
# Poissons Ratio (y) = 0.29986 0.37231
# Poissons Ratio (z) = 0.10323 0.55358
#
# Static dielectric constant tensor:
#      x y z
#    x 4.016960 0.000000 0.122650 
#    y 0.000000 3.940800 0.000000 
#    z 0.122650 0.000000 3.748730 
# 
# 
# High freq. dielectric constant tensor:
#      x y z
#    x 1.814470 0.000000 0.006500 
#    y 0.000000 1.802010 0.000000 
#    z 0.006500 0.000000 1.772560 
# 
# From -- ./inp_files/194188.got.cif
#   From: 2010.06.25/outbox.cif.g09.slc.cpg/sg15_98_cif.got.tgz:194188.got - 2010.06.28 07:06:18.
