data_PCOD8140948
_publ_section_title
;
Structure prediction by ZEFSAII (Michael W. Deem and Ramdas Pophale) SiO2 
 PCOD8140948
Probable space group: C 2/C
;
_chemical_formula_sum "Si O2"
_cell_formula_units_Z 52
_cell_length_a 21.496731
_cell_length_b 25.131930
_cell_length_c 14.795378
_cell_angle_alpha 90.000000
_cell_angle_beta 161.800362
_cell_angle_gamma 90.000000
_cell_volume 2496.528471
_symmetry_space_group_name_H-M "C 2/C"
_symmetry_group_IT_number 15
_symmetry_cell_setting 'monoclinic'
loop_
_space_group_symop_operation_xyz
x,y,z
-x,y,1/2-z
-x,-y,-z
x,-y,1/2+z
1/2+x,1/2+y,z
1/2-x,1/2+y,1/2-z
1/2-x,1/2-y,-z
1/2+x,1/2-y,1/2+z
loop_
_atom_site_type_symbol
_atom_site_label
_atom_site_fract_x
_atom_site_fract_y
_atom_site_fract_z
Si Si1 0.573382 0.263323 0.592741
Si Si2 0.298655 0.397511 0.925680
Si Si3 0.342150 0.813021 0.452277
Si Si4 0.500000 0.907209 0.250000
Si Si5 0.572831 0.176990 0.986691
Si Si6 0.459785 0.926309 0.589119
Si Si7 0.802104 0.023567 0.268591
O O1 0.584689 0.230445 0.516721
O O2 0.570261 0.224131 0.675393
O O3 0.769109 0.300388 0.869032
O O4 0.379118 0.300338 0.318688
O O5 0.189549 0.345705 0.734995
O O6 0.355080 0.438632 0.924954
O O7 0.164572 0.425888 0.816268
O O8 0.500000 0.376982 0.250000
O O9 0.500000 0.813273 0.750000
O O10 0.337894 0.871843 0.402652
O O11 0.449223 0.869949 0.267027
O O12 0.689740 0.943617 0.534514
O O13 0.500000 0.934746 0.750000
O O14 0.331921 0.975881 0.377247
O O15 0.000000 0.000000 0.500000
#
# Coordination Sequence:
#
# PCOD8140948 Si02
#       7
#     8   8   8   4   8   8   8
#     4  10  21  39  58  92 123 171 214 269 320 393
#     4  11  24  40  63  96 132 174 217 274 337 393
#     4  10  21  33  58  87 129 167 214 261 328 383
#     4  10  24  44  68  94 130 172 218 274 326 384
#     4  10  23  41  66  90 132 167 221 266 330 388
#     4  11  22  39  62  93 129 172 218 271 325 394
#     4  11  24  44  70  94 130 171 224 275 337 394
#
# _framework density 20.828923
#
# number of rings (size 3 to 8) (size 9 to 14) (size 15 to 20)
#    0.000    1.538    2.308    1.846    8.615    3.077 
#    0.000    0.000    0.000    5.538    0.000    0.000 
#    0.000    0.000    0.000    0.000    0.000    0.000 
#
# Total GULP energy -322462.404528 kJ/mol
# GULP energy per Si atom -12402.400174 kJ/mol
# Density = 2.078152 g / cm^3
# Si number density = 20.828923 Si / 1000 Ang^3
#
#
#
# Elastic Constant Matrix: (Units=GPa)
#
#
# Indices 1 2 3 4 5 6 
#
# 1 94.9439 24.4449 42.2080 -0.0001 15.4669 0.0000
# 2 24.4449 100.6382 36.4592 -0.0001 0.8252 -0.0001
# 3 42.2080 36.4592 77.1229 -0.0006 5.9119 -0.0003
# 4 -0.0001 -0.0001 -0.0006 25.7508 -0.0002 -1.0845
# 5 15.4669 0.8252 5.9119 -0.0002 36.9551 -0.0001
# 6 0.0000 -0.0001 -0.0003 -1.0845 -0.0001 32.8745
#
#
#
# Elastic Compliance Matrix: (Units=1/GPa)
#
#
# Indices 1 2 3 4 5 6 
#
# 1 0.014831 -0.000917 -0.007298 0.000000 -0.005019 0.000000
# 2 -0.000917 0.012062 -0.005274 0.000000 0.000958 0.000000
# 3 -0.007298 -0.005274 0.019449 0.000000 0.000061 0.000000
# 4 0.000000 0.000000 0.000000 0.038888 0.000000 0.001283
# 5 -0.005019 0.000958 0.000061 0.000000 0.029129 0.000000
# 6 0.000000 0.000000 0.000000 0.001283 0.000000 0.030461
#
#
# Mechanical properties :
#
#
# Convention : Reuss Voigt Hill
#
# Bulk Modulus (GPa) = 51.64374 53.21434 52.42904
# Shear Modulus (GPa) = 28.05000 30.42227 29.23614
#
# Velocity S-wave (km/s) = 3.67370 3.82590 3.75057
# Velocity P-wave (km/s) = 6.54545 6.71717 6.63186
#
# Compressibility (1/GPa) = 0.01936343
#
# Stress axis : x y z
#
# Youngs Moduli (GPa) = 67.42705 82.90447 51.41655
#
# Poissons Ratio (x) = 0.07604 0.37525
# Poissons Ratio (y) = 0.06184 0.27116
# Poissons Ratio (z) = 0.49210 0.43722
#
# Static dielectric constant tensor:
#      x y z
#    x 3.777300 0.000000 0.099030 
#    y 0.000000 4.231190 0.000000 
#    z 0.099030 0.000000 3.634530 
# 
# 
# High freq. dielectric constant tensor:
#      x y z
#    x 1.815290 0.000000 0.005020 
#    y 0.000000 1.836910 0.000000 
#    z 0.005020 0.000000 1.797490 
# 
# From -- ./inp_files/33476.got.cif
#   From: 2010.06.25/outbox.cif.g09.slc.cpg/sg15_17_cif.got.tgz:33476.got - 2010.06.28 07:06:18.
