data_PCOD8140100
_publ_section_title
;
Structure prediction by ZEFSAII (Michael W. Deem and Ramdas Pophale) SiO2 
 PCOD8140100
Probable space group: C 2/C
;
_chemical_formula_sum "Si O2"
_cell_formula_units_Z 44
_cell_length_a 18.771619
_cell_length_b 15.614949
_cell_length_c 12.153417
_cell_angle_alpha 90.000000
_cell_angle_beta 31.143640
_cell_angle_gamma 90.000000
_cell_volume 1842.412737
_symmetry_space_group_name_H-M "C 2/C"
_symmetry_group_IT_number 15
_symmetry_cell_setting 'monoclinic'
loop_
_space_group_symop_operation_xyz
x,y,z
-x,y,1/2-z
-x,-y,-z
x,-y,1/2+z
1/2+x,1/2+y,z
1/2-x,1/2+y,1/2-z
1/2-x,1/2-y,-z
1/2+x,1/2-y,1/2+z
loop_
_atom_site_type_symbol
_atom_site_label
_atom_site_fract_x
_atom_site_fract_y
_atom_site_fract_z
Si Si1 0.000000 0.792738 0.750000
Si Si2 0.000000 0.482980 0.250000
Si Si3 0.000000 0.887797 0.250000
Si Si4 0.729753 0.583546 0.598714
Si Si5 0.983907 0.350622 0.446387
Si Si6 0.743185 0.728748 0.374769
Si Si7 0.739863 0.634114 0.817505
O O1 0.972748 0.735257 0.677812
O O2 0.125462 0.858597 0.563255
O O3 0.872561 0.539977 0.373044
O O4 0.071962 0.423265 0.062679
O O5 0.905021 0.946381 0.292997
O O6 0.894647 0.826437 0.451740
O O7 0.746164 0.688819 0.549917
O O8 0.699665 0.570782 0.768553
O O9 0.117998 0.396894 0.318884
O O10 0.879448 0.331218 0.685398
O O11 0.736816 0.771672 0.262863
#
# Coordination Sequence:
#
# PCOD8140100 Si02
#       7
#     4   4   4   8   8   8   8
#     4   9  18  36  62 102 125 164 216 289 320 370
#     4  11  25  44  64  94 138 178 216 263 335 396
#     4  12  21  40  62  92 135 174 216 276 325 380
#     4  10  24  39  64  98 131 174 219 270 326 395
#     4  10  20  40  66  95 129 176 220 269 321 397
#     4   9  21  37  66  99 123 170 225 270 321 388
#     4   9  20  35  64  95 127 164 224 268 323 382
#
# _framework density 23.881727000000001
#
# number of rings (size 3 to 8) (size 9 to 14) (size 15 to 20)
#    1.091    1.091    0.000    2.727    2.545    0.727 
#    0.000    1.818    0.000    0.000    0.000    0.000 
#    0.000    0.000    0.000    0.000    0.000    0.000 
#
# Total GULP energy -272549.884213 kJ/mol
# GULP energy per Si atom -12388.631101 kJ/mol
# Density = 2.382737 g / cm^3
# Si number density = 23.881727 Si / 1000 Ang^3
#
#
#
# Elastic Constant Matrix: (Units=GPa)
#
#
# Indices 1 2 3 4 5 6 
#
# 1 105.9715 19.5192 51.1406 0.0000 -29.4213 0.0000
# 2 19.5192 61.1698 42.9769 -0.0001 1.9018 0.0000
# 3 51.1406 42.9769 182.4827 -0.0001 -15.7402 0.0000
# 4 0.0000 -0.0001 -0.0001 22.1802 0.0000 -1.6027
# 5 -29.4213 1.9018 -15.7402 0.0000 39.0381 0.0001
# 6 0.0000 0.0000 0.0000 -1.6027 0.0001 17.5916
#
#
#
# Elastic Compliance Matrix: (Units=1/GPa)
#
#
# Indices 1 2 3 4 5 6 
#
# 1 0.013785 -0.003074 -0.002311 0.000000 0.009607 0.000000
# 2 -0.003074 0.020601 -0.004431 0.000000 -0.005107 0.000000
# 3 -0.002311 -0.004431 0.007293 0.000000 0.001415 0.000000
# 4 0.000000 0.000000 0.000000 0.045384 0.000000 0.004135
# 5 0.009607 -0.005107 0.001415 0.000000 0.033676 0.000000
# 6 0.000000 0.000000 0.000000 0.004135 0.000000 0.057222
#
#
# Mechanical properties :
#
#
# Convention : Reuss Voigt Hill
#
# Bulk Modulus (GPa) = 45.35560 64.09969 54.72764
# Shear Modulus (GPa) = 24.39727 31.49446 27.94587
#
# Velocity S-wave (km/s) = 3.19970 3.63542 3.42450
# Velocity P-wave (km/s) = 5.71697 6.67237 6.21306
#
# Compressibility (1/GPa) = 0.02204800
#
# Stress axis : x y z
#
# Youngs Moduli (GPa) = 72.54194 48.54228 137.11707
#
# Poissons Ratio (x) = 0.14923 0.31682
# Poissons Ratio (y) = 0.22300 0.60752
# Poissons Ratio (z) = 0.16761 0.21507
#
# Static dielectric constant tensor:
#      x y z
#    x 4.350050 0.000000 0.117840 
#    y 0.000000 3.921050 0.000000 
#    z 0.117840 0.000000 4.219060 
# 
# 
# High freq. dielectric constant tensor:
#      x y z
#    x 1.953810 0.000000 0.009250 
#    y 0.000000 1.918110 0.000000 
#    z 0.009250 0.000000 1.945500 
# 
# From -- ./inp_files/222765.got.cif
#   From: 2010.06.25/outbox.cif.g09.slc.cpg/sg15_112_cif.got.tgz:222765.got - 2010.06.28 07:06:18.
