data_PCOD8140439
_publ_section_title
;
Structure prediction by ZEFSAII (Michael W. Deem and Ramdas Pophale) SiO2 
 PCOD8140439
Probable space group: C 2/C
;
_chemical_formula_sum "Si O2"
_cell_formula_units_Z 40
_cell_length_a 7.903232
_cell_length_b 12.722475
_cell_length_c 22.888090
_cell_angle_alpha 90.000000
_cell_angle_beta 138.035516
_cell_angle_gamma 90.000000
_cell_volume 1538.854696
_symmetry_space_group_name_H-M "C 2/C"
_symmetry_group_IT_number 15
_symmetry_cell_setting 'monoclinic'
loop_
_space_group_symop_operation_xyz
x,y,z
-x,y,1/2-z
-x,-y,-z
x,-y,1/2+z
1/2+x,1/2+y,z
1/2-x,1/2+y,1/2-z
1/2-x,1/2-y,-z
1/2+x,1/2-y,1/2+z
loop_
_atom_site_type_symbol
_atom_site_label
_atom_site_fract_x
_atom_site_fract_y
_atom_site_fract_z
Si Si1 0.122244 0.851554 0.940039
Si Si2 0.033395 0.368277 0.960891
Si Si3 0.688964 0.967343 0.413322
Si Si4 0.585977 0.344359 0.124917
Si Si5 0.772775 0.300782 0.296368
O O1 0.313138 0.917107 0.945639
O O2 0.866140 0.815964 0.840934
O O3 0.250000 0.750000 0.000000
O O4 0.073727 0.932378 0.982248
O O5 0.082810 0.420079 0.909025
O O6 0.922459 0.250723 0.923770
O O7 0.293046 0.367851 0.065411
O O8 0.777598 0.947492 0.369145
O O9 0.458924 0.888947 0.368678
O O10 0.757698 0.307591 0.222633
O O11 0.500000 0.325912 0.250000
#
# Coordination Sequence:
#
# PCOD8140439 Si02
#       5
#     8   8   8   8   8
#     4  10  20  41  68  93 135 184 234 288 362 436
#     4  11  23  41  71  96 137 189 246 287 382 433
#     4  11  23  43  68 103 136 188 243 303 366 442
#     4  11  23  43  69  98 143 185 240 308 369 435
#     4  11  24  43  67  98 144 191 240 301 373 427
#
# _framework density 25.993358000000001
#
# number of rings (size 3 to 8) (size 9 to 14) (size 15 to 20)
#    0.000    1.200    4.000    4.200    2.800    0.000 
#    7.200    0.000    0.000    0.000    0.000    0.000 
#    0.000    0.000    0.000    0.000    0.000    0.000 
#
# Total GULP energy -247789.468713 kJ/mol
# GULP energy per Si atom -12389.473436 kJ/mol
# Density = 2.593420 g / cm^3
# Si number density = 25.993358 Si / 1000 Ang^3
#
#
#
# Elastic Constant Matrix: (Units=GPa)
#
#
# Indices 1 2 3 4 5 6 
#
# 1 61.9228 -7.5001 15.5208 0.0000 -16.0459 0.0000
# 2 -7.5001 63.6369 22.5073 0.0000 -11.4342 0.0000
# 3 15.5208 22.5073 114.2374 0.0000 -9.1685 0.0000
# 4 0.0000 0.0000 0.0000 41.3054 0.0000 -6.8544
# 5 -16.0459 -11.4342 -9.1685 0.0000 36.4502 0.0000
# 6 0.0000 0.0000 0.0000 -6.8544 0.0000 42.5499
#
#
#
# Elastic Compliance Matrix: (Units=1/GPa)
#
#
# Indices 1 2 3 4 5 6 
#
# 1 0.020023 0.005146 -0.002957 0.000000 0.009685 0.000000
# 2 0.005146 0.018988 -0.003858 0.000000 0.007251 0.000000
# 3 -0.002957 -0.003858 0.009914 0.000000 -0.000018 0.000000
# 4 0.000000 0.000000 0.000000 0.024875 0.000000 0.004007
# 5 0.009685 0.007251 -0.000018 0.000000 0.033968 0.000000
# 6 0.000000 0.000000 0.000000 0.004007 0.000000 0.024147
#
#
# Mechanical properties :
#
#
# Convention : Reuss Voigt Hill
#
# Bulk Modulus (GPa) = 21.93615 33.42810 27.68213
# Shear Modulus (GPa) = 33.23358 38.01237 35.62298
#
# Velocity S-wave (km/s) = 3.57955 3.82827 3.70599
# Velocity P-wave (km/s) = 5.05388 5.69465 5.38380
#
# Compressibility (1/GPa) = 0.04558684
#
# Stress axis : x y z
#
# Youngs Moduli (GPa) = 49.94200 52.66442 100.86598
#
# Poissons Ratio (x) = -0.27101 0.29826
# Poissons Ratio (y) = -0.25700 0.38917
# Poissons Ratio (z) = 0.14768 0.20319
#
# Static dielectric constant tensor:
#      x y z
#    x 4.728900 0.000000 0.056880 
#    y 0.000000 4.806720 0.000000 
#    z 0.056880 0.000000 5.092780 
# 
# 
# High freq. dielectric constant tensor:
#      x y z
#    x 2.056680 0.000000 0.006980 
#    y 0.000000 2.035940 0.000000 
#    z 0.006980 0.000000 2.029790 
# 
# From -- ./inp_files/264537.got.cif
#   From: 2010.06.25/outbox.cif.g09.slc.cpg/sg15_133_cif.got.tgz:264537.got - 2010.06.28 07:06:18.
