data_PCOD8140862
_publ_section_title
;
Structure prediction by ZEFSAII (Michael W. Deem and Ramdas Pophale) SiO2 
 PCOD8140862
Probable space group: C 2/C
;
_chemical_formula_sum "Si O2"
_cell_formula_units_Z 28
_cell_length_a 19.835720
_cell_length_b 11.804007
_cell_length_c 5.396233
_cell_angle_alpha 90.000000
_cell_angle_beta 56.480009
_cell_angle_gamma 90.000000
_cell_volume 1053.354071
_symmetry_space_group_name_H-M "C 2/C"
_symmetry_group_IT_number 15
_symmetry_cell_setting 'monoclinic'
loop_
_space_group_symop_operation_xyz
x,y,z
-x,y,1/2-z
-x,-y,-z
x,-y,1/2+z
1/2+x,1/2+y,z
1/2-x,1/2+y,1/2-z
1/2-x,1/2-y,-z
1/2+x,1/2-y,1/2+z
loop_
_atom_site_type_symbol
_atom_site_label
_atom_site_fract_x
_atom_site_fract_y
_atom_site_fract_z
Si Si1 0.728021 0.383486 0.160752
Si Si2 0.338259 0.370527 0.707103
Si Si3 0.000000 0.768314 0.250000
Si Si4 0.586092 0.936069 0.738455
O O1 0.706610 0.317566 0.459617
O O2 0.671102 0.494767 0.284268
O O3 0.702622 0.313427 0.961731
O O4 0.817963 0.429158 0.959844
O O5 0.433747 0.344002 0.526355
O O6 0.952028 0.688647 0.151305
O O7 0.558349 0.983280 0.521023
#
# Coordination Sequence:
#
# PCOD8140862 Si02
#       4
#     8   8   4   8
#     4  10  20  44  73  89 134 184 227 251 340 407
#     4  10  22  42  67 104 127 179 216 285 320 402
#     4  12  30  40  68 110 144 158 228 290 342 376
#     4  12  24  48  71  96 133 189 220 273 334 408
#
# _framework density 26.581758000000001
#
# number of rings (size 3 to 8) (size 9 to 14) (size 15 to 20)
#    0.000    1.143    5.714    0.857    0.000   12.571 
#    0.000    0.000    0.000    0.000    0.000    0.000 
#    0.000    0.000    0.000    0.000    0.000    0.000 
#
# Total GULP energy -173599.604593 kJ/mol
# GULP energy per Si atom -12399.971757 kJ/mol
# Density = 2.652126 g / cm^3
# Si number density = 26.581758 Si / 1000 Ang^3
#
#
#
# Elastic Constant Matrix: (Units=GPa)
#
#
# Indices 1 2 3 4 5 6 
#
# 1 144.9909 42.2158 106.3418 0.0000 13.5061 0.0000
# 2 42.2158 61.1781 41.2756 0.0000 -8.6552 0.0000
# 3 106.3418 41.2756 239.0510 0.0000 18.9025 0.0000
# 4 0.0000 0.0000 0.0000 22.7445 0.0000 12.2084
# 5 13.5061 -8.6552 18.9025 0.0000 62.3510 0.0000
# 6 0.0000 0.0000 0.0000 12.2084 0.0000 22.1682
#
#
#
# Elastic Compliance Matrix: (Units=1/GPa)
#
#
# Indices 1 2 3 4 5 6 
#
# 1 0.011721 -0.005633 -0.004077 0.000000 -0.002085 0.000000
# 2 -0.005633 0.022043 -0.001679 0.000000 0.004789 0.000000
# 3 -0.004077 -0.001679 0.006388 0.000000 -0.001287 0.000000
# 4 0.000000 0.000000 0.000000 0.062418 0.000000 -0.034374
# 5 -0.002085 0.004789 -0.001287 0.000000 0.017545 0.000000
# 6 0.000000 0.000000 0.000000 -0.034374 0.000000 0.064040
#
#
# Mechanical properties :
#
#
# Convention : Reuss Voigt Hill
#
# Bulk Modulus (GPa) = 57.55191 91.65403 74.60297
# Shear Modulus (GPa) = 23.50465 38.47854 30.99160
#
# Velocity S-wave (km/s) = 2.97684 3.80880 3.41823
# Velocity P-wave (km/s) = 5.78907 7.34149 6.61101
#
# Compressibility (1/GPa) = 0.01737562
#
# Stress axis : x y z
#
# Youngs Moduli (GPa) = 85.31479 45.36616 156.53338
#
# Poissons Ratio (x) = 0.25553 0.63815
# Poissons Ratio (y) = 0.48055 0.26282
# Poissons Ratio (z) = 0.34781 0.07617
#
# Static dielectric constant tensor:
#      x y z
#    x 5.434750 0.000000 0.752600 
#    y 0.000000 4.658250 0.000000 
#    z 0.752600 0.000000 5.913770 
# 
# 
# High freq. dielectric constant tensor:
#      x y z
#    x 2.085510 0.000000 -0.010390 
#    y 0.000000 2.061160 0.000000 
#    z -0.010390 0.000000 2.090980 
# 
# From -- ./inp_files/9443.got.cif
#   From: 2010.06.25/outbox.cif.g09.slc.cpg/sg15_5_cif.got.tgz:9443.got - 2010.06.28 07:06:18.
