data_PCOD8140452
_publ_section_title
;
Structure prediction by ZEFSAII (Michael W. Deem and Ramdas Pophale) SiO2 
 PCOD8140452
Probable space group: C 2/C
;
_chemical_formula_sum "Si O2"
_cell_formula_units_Z 56
_cell_length_a 14.246220
_cell_length_b 12.435698
_cell_length_c 14.567688
_cell_angle_alpha 90.000000
_cell_angle_beta 88.645513
_cell_angle_gamma 90.000000
_cell_volume 2580.115087
_symmetry_space_group_name_H-M "C 2/C"
_symmetry_group_IT_number 15
_symmetry_cell_setting 'monoclinic'
loop_
_space_group_symop_operation_xyz
x,y,z
-x,y,1/2-z
-x,-y,-z
x,-y,1/2+z
1/2+x,1/2+y,z
1/2-x,1/2+y,1/2-z
1/2-x,1/2-y,-z
1/2+x,1/2-y,1/2+z
loop_
_atom_site_type_symbol
_atom_site_label
_atom_site_fract_x
_atom_site_fract_y
_atom_site_fract_z
Si Si1 0.540347 0.301552 0.085818
Si Si2 0.160452 0.378178 0.004003
Si Si3 0.500000 0.605200 0.250000
Si Si4 0.658943 0.562679 0.710089
Si Si5 0.981989 0.284581 0.102367
Si Si6 0.500000 0.138586 0.250000
Si Si7 0.632386 0.018126 0.843476
Si Si8 0.335842 0.666785 0.602827
O O1 0.616748 0.385980 0.118575
O O2 0.524111 0.209784 0.161574
O O3 0.441523 0.363841 0.068593
O O4 0.572703 0.247384 0.990016
O O5 0.256344 0.407401 0.056529
O O6 0.082222 0.339373 0.078017
O O7 0.121601 0.481035 0.950003
O O8 0.184737 0.289722 0.925257
O O9 0.407188 0.531923 0.250868
O O10 0.500002 0.677715 0.159619
O O11 0.759256 0.516917 0.684110
O O12 0.668958 0.654934 0.787198
O O13 0.916481 0.365203 0.162159
O O14 0.412833 0.062508 0.228413
#
# Coordination Sequence:
#
# PCOD8140452 Si02
#       8
#     8   8   4   8   8   4   8   8
#     4  11  22  47  75  97 140 184 233 283 341 420
#     4  10  23  42  72 100 140 182 231 277 351 414
#     4  12  28  46  68 104 138 184 228 296 342 402
#     4  12  26  44  70 104 138 175 240 282 350 411
#     4  11  27  45  70 100 147 178 230 290 346 403
#     4  12  22  44  74 100 134 190 228 274 352 406
#     4  12  27  42  69 107 137 182 229 285 346 416
#     4  10  20  41  69 104 131 181 227 285 334 409
#
# _framework density 21.704459
#
# number of rings (size 3 to 8) (size 9 to 14) (size 15 to 20)
#    0.000    0.857    5.714    0.857   10.000    3.429 
#    0.000    0.000    0.000    0.000    0.000    0.000 
#    0.000    0.000    0.000    0.000    0.000    0.000 
#
# Total GULP energy -347247.860567 kJ/mol
# GULP energy per Si atom -12401.709306 kJ/mol
# Density = 2.165506 g / cm^3
# Si number density = 21.704459 Si / 1000 Ang^3
#
#
#
# Elastic Constant Matrix: (Units=GPa)
#
#
# Indices 1 2 3 4 5 6 
#
# 1 163.6886 48.3598 37.1424 0.0000 8.1058 0.0000
# 2 48.3598 75.5626 31.7027 0.0000 -3.5724 0.0000
# 3 37.1424 31.7027 98.0925 0.0000 2.6564 0.0000
# 4 0.0000 0.0000 0.0000 37.9958 0.0000 3.7966
# 5 8.1058 -3.5724 2.6564 0.0000 38.8761 0.0000
# 6 0.0000 0.0000 0.0000 3.7966 0.0000 22.4885
#
#
#
# Elastic Compliance Matrix: (Units=1/GPa)
#
#
# Indices 1 2 3 4 5 6 
#
# 1 0.007873 -0.004515 -0.001469 0.000000 -0.001956 0.000000
# 2 -0.004515 0.018019 -0.004192 0.000000 0.002884 0.000000
# 3 -0.001469 -0.004192 0.012130 0.000000 -0.000908 0.000000
# 4 0.000000 0.000000 0.000000 0.026770 0.000000 -0.004519
# 5 -0.001956 0.002884 -0.000908 0.000000 0.026458 0.000000
# 6 0.000000 0.000000 0.000000 -0.004519 0.000000 0.045230
#
#
# Mechanical properties :
#
#
# Convention : Reuss Voigt Hill
#
# Bulk Modulus (GPa) = 56.59287 63.52818 60.06052
# Shear Modulus (GPa) = 30.72721 34.54800 32.63761
#
# Velocity S-wave (km/s) = 3.76667 3.99400 3.88200
# Velocity P-wave (km/s) = 6.71178 7.11355 6.91558
#
# Compressibility (1/GPa) = 0.01767007
#
# Stress axis : x y z
#
# Youngs Moduli (GPa) = 127.01221 55.49773 82.43961
#
# Poissons Ratio (x) = 0.25057 0.12110
# Poissons Ratio (y) = 0.57346 0.34559
# Poissons Ratio (z) = 0.18658 0.23265
#
# Static dielectric constant tensor:
#      x y z
#    x 4.019450 0.000000 0.346650 
#    y 0.000000 3.873290 0.000000 
#    z 0.346650 0.000000 4.117180 
# 
# 
# High freq. dielectric constant tensor:
#      x y z
#    x 1.855600 0.000000 0.020030 
#    y 0.000000 1.841060 0.000000 
#    z 0.020030 0.000000 1.858740 
# 
# From -- ./inp_files/152647.got.cif
#   From: 2010.06.25/outbox.cif.g09.slc.cpg/sg15_77_cif.got.tgz:152647.got - 2010.06.28 07:06:18.
