data_PCOD8140456
_publ_section_title
;
Structure prediction by ZEFSAII (Michael W. Deem and Ramdas Pophale) SiO2 
 PCOD8140456
Probable space group: C 2/C
;
_chemical_formula_sum "Si O2"
_cell_formula_units_Z 48
_cell_length_a 9.091578
_cell_length_b 17.062908
_cell_length_c 14.344549
_cell_angle_alpha 90.000000
_cell_angle_beta 84.763466
_cell_angle_gamma 90.000000
_cell_volume 2215.964784
_symmetry_space_group_name_H-M "C 2/C"
_symmetry_group_IT_number 15
_symmetry_cell_setting 'monoclinic'
loop_
_space_group_symop_operation_xyz
x,y,z
-x,y,1/2-z
-x,-y,-z
x,-y,1/2+z
1/2+x,1/2+y,z
1/2-x,1/2+y,1/2-z
1/2-x,1/2-y,-z
1/2+x,1/2-y,1/2+z
loop_
_atom_site_type_symbol
_atom_site_label
_atom_site_fract_x
_atom_site_fract_y
_atom_site_fract_z
Si Si1 0.071270 0.417356 0.517393
Si Si2 0.223602 0.328308 0.946112
Si Si3 0.040377 0.094814 0.942380
Si Si4 0.656704 0.299492 0.762134
Si Si5 0.835533 0.053276 0.116205
Si Si6 0.283273 0.693430 0.911408
O O1 0.161272 0.432094 0.608714
O O2 0.175439 0.382442 0.428513
O O3 0.000000 0.500000 0.500000
O O4 0.945632 0.353256 0.540505
O O5 0.256717 0.318237 0.836018
O O6 0.250000 0.250000 0.000000
O O7 0.329831 0.389489 0.991001
O O8 0.958524 0.169017 0.897670
O O9 0.111507 0.035575 0.859518
O O10 0.906312 0.059301 0.009483
O O11 0.500000 0.257833 0.750000
O O12 0.612016 0.381466 0.814570
O O13 0.751976 0.240367 0.818718
O O14 0.250000 0.750000 0.000000
#
# Coordination Sequence:
#
# PCOD8140456 Si02
#       6
#     8   8   8   8   8   8
#     4  11  22  41  68  97 135 175 217 283 346 394
#     4  12  25  41  68  98 137 179 229 284 340 411
#     4  10  20  41  69  93 130 179 221 269 340 410
#     4  12  23  42  71  98 131 181 237 279 347 413
#     4  10  21  40  68  95 127 177 223 271 339 411
#     4  11  21  42  70  96 134 177 222 284 340 403
#
# _framework density 21.660993999999999
#
# number of rings (size 3 to 8) (size 9 to 14) (size 15 to 20)
#    0.000    1.000    6.667    2.000    0.000    0.667 
#    0.000    3.333    3.667    0.000    0.000    0.000 
#    0.000    0.000    0.000    0.000    0.000    0.000 
#
# Total GULP energy -297357.712182 kJ/mol
# GULP energy per Si atom -12389.904674 kJ/mol
# Density = 2.161169 g / cm^3
# Si number density = 21.660994 Si / 1000 Ang^3
#
#
#
# Elastic Constant Matrix: (Units=GPa)
#
#
# Indices 1 2 3 4 5 6 
#
# 1 132.6117 38.7566 33.6125 0.0000 18.1083 0.0000
# 2 38.7566 125.1906 45.4820 0.0000 6.9793 0.0000
# 3 33.6125 45.4820 87.4902 0.0000 8.9701 0.0000
# 4 0.0000 0.0000 0.0000 20.3839 0.0000 7.9030
# 5 18.1083 6.9793 8.9701 0.0000 30.2550 0.0000
# 6 0.0000 0.0000 0.0000 7.9030 0.0000 53.1748
#
#
#
# Elastic Compliance Matrix: (Units=1/GPa)
#
#
# Indices 1 2 3 4 5 6 
#
# 1 0.009227 -0.001832 -0.002135 0.000000 -0.004467 0.000000
# 2 -0.001832 0.010229 -0.004625 0.000000 0.000108 0.000000
# 3 -0.002135 -0.004625 0.014866 0.000000 -0.002063 0.000000
# 4 0.000000 0.000000 0.000000 0.052058 0.000000 -0.007737
# 5 -0.004467 0.000108 -0.002063 0.000000 0.036313 0.000000
# 6 0.000000 0.000000 0.000000 -0.007737 0.000000 0.019956
#
#
# Mechanical properties :
#
#
# Convention : Reuss Voigt Hill
#
# Bulk Modulus (GPa) = 58.34610 64.55499 61.45054
# Shear Modulus (GPa) = 30.20327 35.92550 33.06438
#
# Velocity S-wave (km/s) = 3.73817 4.07693 3.91122
# Velocity P-wave (km/s) = 6.75473 7.21311 6.98768
#
# Compressibility (1/GPa) = 0.01713911
#
# Stress axis : x y z
#
# Youngs Moduli (GPa) = 108.37417 97.75927 67.26888
#
# Poissons Ratio (x) = 0.17910 0.14359
# Poissons Ratio (y) = 0.19855 0.31111
# Poissons Ratio (z) = 0.23133 0.45213
#
# Static dielectric constant tensor:
#      x y z
#    x 5.491210 0.000000 0.861660 
#    y 0.000000 4.445450 0.000000 
#    z 0.861660 0.000000 3.995070 
# 
# 
# High freq. dielectric constant tensor:
#      x y z
#    x 1.873060 0.000000 0.019040 
#    y 0.000000 1.863200 0.000000 
#    z 0.019040 0.000000 1.809850 
# 
# From -- ./inp_files/134872.got.cif
#   From: 2010.06.25/outbox.cif.g09.slc.cpg/sg15_68_cif.got.tgz:134872.got - 2010.06.28 07:06:18.
