data_PCOD8140726
_publ_section_title
;
Structure prediction by ZEFSAII (Michael W. Deem and Ramdas Pophale) SiO2 
 PCOD8140726
Probable space group: C 2/C
;
_chemical_formula_sum "Si O2"
_cell_formula_units_Z 52
_cell_length_a 6.481680
_cell_length_b 28.888511
_cell_length_c 12.007707
_cell_angle_alpha 90.000000
_cell_angle_beta 65.221114
_cell_angle_gamma 90.000000
_cell_volume 2041.390755
_symmetry_space_group_name_H-M "C 2/C"
_symmetry_group_IT_number 15
_symmetry_cell_setting 'monoclinic'
loop_
_space_group_symop_operation_xyz
x,y,z
-x,y,1/2-z
-x,-y,-z
x,-y,1/2+z
1/2+x,1/2+y,z
1/2-x,1/2+y,1/2-z
1/2-x,1/2-y,-z
1/2+x,1/2-y,1/2+z
loop_
_atom_site_type_symbol
_atom_site_label
_atom_site_fract_x
_atom_site_fract_y
_atom_site_fract_z
Si Si1 0.537205 0.045569 0.870133
Si Si2 0.174415 0.622066 0.429341
Si Si3 0.000000 0.990357 0.250000
Si Si4 0.706630 0.627112 0.337603
Si Si5 0.793173 0.970070 0.590990
Si Si6 0.891825 0.301988 0.385219
Si Si7 0.404192 0.280332 0.541872
O O1 0.500000 0.063373 0.750000
O O2 0.399216 0.076496 0.987851
O O3 0.804812 0.043358 0.849440
O O4 0.436590 0.993515 0.900657
O O5 0.116083 0.621315 0.308773
O O6 0.443423 0.626885 0.363659
O O7 0.059400 0.665624 0.518307
O O8 0.160097 0.023341 0.287601
O O9 0.730291 0.585044 0.422902
O O10 0.751113 0.677017 0.382178
O O11 0.000000 0.000000 0.500000
O O12 0.622325 0.298601 0.424085
O O13 0.000000 0.324575 0.250000
O O14 0.002934 0.251340 0.377599
O O15 0.250000 0.250000 0.500000
#
# Coordination Sequence:
#
# PCOD8140726 Si02
#       7
#     8   8   4   8   8   8   8
#     4  10  22  43  69 100 147 194 238 285 353 426
#     4  10  20  42  73 107 140 188 233 295 361 426
#     4  10  24  44  62  96 150 192 236 290 344 412
#     4  10  22  42  72 106 142 180 242 297 358 419
#     4  11  22  43  69 104 140 191 239 290 351 424
#     4  10  23  43  72 103 144 186 230 290 369 433
#     4  10  24  46  72 104 142 184 233 298 359 436
#
# _framework density 25.472828
#
# number of rings (size 3 to 8) (size 9 to 14) (size 15 to 20)
#    0.000    1.846    1.538    1.385    6.462    1.231 
#    8.308    3.077    0.000    1.846    0.000    0.000 
#    0.000    0.000    0.000    0.000    0.000    0.000 
#
# Total GULP energy -322236.444714 kJ/mol
# GULP energy per Si atom -12393.709412 kJ/mol
# Density = 2.541485 g / cm^3
# Si number density = 25.472828 Si / 1000 Ang^3
#
#
#
# Elastic Constant Matrix: (Units=GPa)
#
#
# Indices 1 2 3 4 5 6 
#
# 1 94.1721 41.4576 28.1342 0.0000 -2.1498 0.0000
# 2 41.4576 201.6546 84.6478 0.0000 0.9440 0.0000
# 3 28.1342 84.6478 148.1802 0.0000 -11.2337 0.0000
# 4 0.0000 0.0000 0.0000 29.5478 0.0000 -1.7206
# 5 -2.1498 0.9440 -11.2337 0.0000 34.5753 0.0000
# 6 0.0000 0.0000 0.0000 -1.7206 0.0000 32.5994
#
#
#
# Elastic Compliance Matrix: (Units=1/GPa)
#
#
# Indices 1 2 3 4 5 6 
#
# 1 0.011823 -0.001979 -0.001081 0.000000 0.000438 0.000000
# 2 -0.001979 0.006923 -0.003694 0.000000 -0.001512 0.000000
# 3 -0.001081 -0.003694 0.009295 0.000000 0.003054 0.000000
# 4 0.000000 0.000000 0.000000 0.033948 0.000000 0.001792
# 5 0.000438 -0.001512 0.003054 0.000000 0.029983 0.000000
# 6 0.000000 0.000000 0.000000 0.001792 0.000000 0.030770
#
#
# Mechanical properties :
#
#
# Convention : Reuss Voigt Hill
#
# Bulk Modulus (GPa) = 68.80409 83.60956 76.20682
# Shear Modulus (GPa) = 35.43700 38.66233 37.04967
#
# Velocity S-wave (km/s) = 3.73388 3.90011 3.81790
# Velocity P-wave (km/s) = 6.75711 7.29215 7.02972
#
# Compressibility (1/GPa) = 0.01453402
#
# Stress axis : x y z
#
# Youngs Moduli (GPa) = 84.58082 144.43592 107.57909
#
# Poissons Ratio (x) = 0.28582 0.11631
# Poissons Ratio (y) = 0.16738 0.39739
# Poissons Ratio (z) = 0.09144 0.53354
#
# Static dielectric constant tensor:
#      x y z
#    x 4.410240 0.000000 -0.180950 
#    y 0.000000 4.835460 0.000000 
#    z -0.180950 0.000000 5.090450 
# 
# 
# High freq. dielectric constant tensor:
#      x y z
#    x 2.034260 0.000000 -0.010730 
#    y 0.000000 2.011000 0.000000 
#    z -0.010730 0.000000 2.024180 
# 
# From -- ./inp_files/130724.got.cif
#   From: 2010.06.25/outbox.cif.g09.slc.cpg/sg15_66_cif.got.tgz:130724.got - 2010.06.28 07:06:18.
