data_PCOD8140425
_publ_section_title
;
Structure prediction by ZEFSAII (Michael W. Deem and Ramdas Pophale) SiO2 
 PCOD8140425
Probable space group: C 2/C
;
_chemical_formula_sum "Si O2"
_cell_formula_units_Z 60
_cell_length_a 5.920649
_cell_length_b 16.833606
_cell_length_c 26.410555
_cell_angle_alpha 90.000000
_cell_angle_beta 96.839505
_cell_angle_gamma 90.000000
_cell_volume 2613.499087
_symmetry_space_group_name_H-M "C 2/C"
_symmetry_group_IT_number 15
_symmetry_cell_setting 'monoclinic'
loop_
_space_group_symop_operation_xyz
x,y,z
-x,y,1/2-z
-x,-y,-z
x,-y,1/2+z
1/2+x,1/2+y,z
1/2-x,1/2+y,1/2-z
1/2-x,1/2-y,-z
1/2+x,1/2-y,1/2+z
loop_
_atom_site_type_symbol
_atom_site_label
_atom_site_fract_x
_atom_site_fract_y
_atom_site_fract_z
Si Si1 0.355222 0.362253 0.459948
Si Si2 0.116721 0.957452 0.386729
Si Si3 0.000000 0.348992 0.750000
Si Si4 0.565571 0.816592 0.116878
Si Si5 0.894726 0.435069 0.960728
Si Si6 0.287401 0.290864 0.670749
Si Si7 0.092577 0.062898 0.197910
Si Si8 0.416575 0.784992 0.574105
O O1 0.490323 0.430988 0.434238
O O2 0.311046 0.388975 0.516360
O O3 0.502753 0.281206 0.464752
O O4 0.112249 0.353432 0.426682
O O5 0.244199 0.882163 0.364634
O O6 0.298037 0.025113 0.407085
O O7 0.931429 0.988946 0.341157
O O8 0.834609 0.291120 0.777650
O O9 0.852954 0.406498 0.709239
O O10 0.446490 0.786915 0.165986
O O11 0.678167 0.739644 0.092548
O O12 0.094611 0.371669 0.952275
O O13 0.000000 0.500000 0.000000
O O14 0.440823 0.368082 0.670382
O O15 0.105413 0.290126 0.622042
O O16 0.000000 0.035994 0.250000
#
# Coordination Sequence:
#
# PCOD8140425 Si02
#       8
#     8   8   4   8   8   8   8   8
#     4  10  23  41  62  94 142 182 225 273 326 405
#     4  11  23  44  68  99 142 175 222 284 342 400
#     4  10  22  38  70 110 122 160 234 284 338 402
#     4  10  22  42  67  98 136 185 219 271 340 395
#     4  12  23  41  65 104 132 182 230 281 335 396
#     4  10  20  41  68 102 127 173 221 283 335 401
#     4  10  22  41  73 101 130 169 225 282 341 407
#     4  10  22  41  66  90 138 181 227 269 336 394
#
# _framework density 22.957726999999998
#
# number of rings (size 3 to 8) (size 9 to 14) (size 15 to 20)
#    0.000    1.600    2.667    1.600    0.000    4.800 
#    4.800    0.000   44.000    0.000    0.000    0.000 
#    0.000    0.000    0.000    0.000    0.000    0.000 
#
# Total GULP energy -372013.698244 kJ/mol
# GULP energy per Si atom -12400.456608 kJ/mol
# Density = 2.290547 g / cm^3
# Si number density = 22.957727 Si / 1000 Ang^3
#
#
#
# Elastic Constant Matrix: (Units=GPa)
#
#
# Indices 1 2 3 4 5 6 
#
# 1 93.8986 39.5614 18.7139 0.0000 -17.1025 0.0000
# 2 39.5614 122.0915 52.0809 0.0000 -16.0567 0.0000
# 3 18.7139 52.0809 71.6541 0.0000 -10.7414 0.0000
# 4 0.0000 0.0000 0.0000 34.9418 0.0000 -1.0361
# 5 -17.1025 -16.0567 -10.7414 0.0000 27.2432 0.0000
# 6 0.0000 0.0000 0.0000 -1.0361 0.0000 24.7866
#
#
#
# Elastic Compliance Matrix: (Units=1/GPa)
#
#
# Indices 1 2 3 4 5 6 
#
# 1 0.013255 -0.003470 0.000001 0.000000 0.006276 0.000000
# 2 -0.003470 0.013166 -0.008318 0.000000 0.002302 0.000000
# 3 0.000001 -0.008318 0.020477 0.000000 0.003172 0.000000
# 4 0.000000 0.000000 0.000000 0.028654 0.000000 0.001198
# 5 0.006276 0.002302 0.003172 0.000000 0.043254 0.000000
# 6 0.000000 0.000000 0.000000 0.001198 0.000000 0.040394
#
#
# Mechanical properties :
#
#
# Convention : Reuss Voigt Hill
#
# Bulk Modulus (GPa) = 42.87468 56.48405 49.67937
# Shear Modulus (GPa) = 26.23998 29.21355 27.72676
#
# Velocity S-wave (km/s) = 3.38445 3.57107 3.47901
# Velocity P-wave (km/s) = 5.82998 6.45448 6.15016
#
# Compressibility (1/GPa) = 0.02332379
#
# Stress axis : x y z
#
# Youngs Moduli (GPa) = 75.44506 75.95304 48.83498
#
# Poissons Ratio (x) = 0.26356 -0.00006
# Poissons Ratio (y) = 0.26180 0.40622
# Poissons Ratio (z) = -0.00010 0.63180
#
# Static dielectric constant tensor:
#      x y z
#    x 4.347530 0.000000 -0.115410 
#    y 0.000000 4.307970 0.000000 
#    z -0.115410 0.000000 3.991540 
# 
# 
# High freq. dielectric constant tensor:
#      x y z
#    x 1.912770 0.000000 -0.002390 
#    y 0.000000 1.904120 0.000000 
#    z -0.002390 0.000000 1.890620 
# 
# From -- ./inp_files/286086.got.cif
#   From: 2010.06.25/outbox.cif.g09.slc.cpg/sg15_144_cif.got.tgz:286086.got - 2010.06.28 07:06:18.
