data_PCOD8140734
_publ_section_title
;
Structure prediction by ZEFSAII (Michael W. Deem and Ramdas Pophale) SiO2 
 PCOD8140734
Probable space group: C 2/C
;
_chemical_formula_sum "Si O2"
_cell_formula_units_Z 40
_cell_length_a 11.009273
_cell_length_b 9.037270
_cell_length_c 21.580827
_cell_angle_alpha 90.000000
_cell_angle_beta 112.259810
_cell_angle_gamma 90.000000
_cell_volume 1987.142368
_symmetry_space_group_name_H-M "C 2/C"
_symmetry_group_IT_number 15
_symmetry_cell_setting 'monoclinic'
loop_
_space_group_symop_operation_xyz
x,y,z
-x,y,1/2-z
-x,-y,-z
x,-y,1/2+z
1/2+x,1/2+y,z
1/2-x,1/2+y,1/2-z
1/2-x,1/2-y,-z
1/2+x,1/2-y,1/2+z
loop_
_atom_site_type_symbol
_atom_site_label
_atom_site_fract_x
_atom_site_fract_y
_atom_site_fract_z
Si Si1 0.828353 0.863722 0.260437
Si Si2 0.541200 0.876846 0.928748
Si Si3 0.401842 0.588617 0.636876
Si Si4 0.406805 0.052314 0.287354
Si Si5 0.202391 0.610677 0.031016
O O1 0.830802 0.862552 0.186404
O O2 0.688974 0.925899 0.254834
O O3 0.825211 0.699688 0.287775
O O4 0.948184 0.954270 0.315665
O O5 0.599748 0.725513 0.911660
O O6 0.422164 0.837342 0.952408
O O7 0.487549 0.987456 0.864658
O O8 0.658522 0.968030 0.982720
O O9 0.326780 0.445901 0.595285
O O10 0.500000 0.099162 0.250000
O O11 0.250000 0.750000 0.000000
#
# Coordination Sequence:
#
# PCOD8140734 Si02
#       5
#     8   8   8   8   8
#     4  10  21  39  64  91 123 159 196 258 306 362
#     4  10  22  41  62  87 125 162 202 248 304 366
#     4  10  20  43  61  87 129 158 198 252 311 356
#     4  11  21  41  64  91 121 159 203 252 311 359
#     4  11  24  40  63  90 124 164 208 250 295 363
#
# _framework density 20.129408999999999
#
# number of rings (size 3 to 8) (size 9 to 14) (size 15 to 20)
#    0.000    1.600    6.000    0.600    0.000    5.600 
#    3.600    0.000    0.000    0.000    0.000    0.000 
#    0.000    0.000    0.000    0.000    0.000    0.000 
#
# Total GULP energy -247901.515197 kJ/mol
# GULP energy per Si atom -12395.075760 kJ/mol
# Density = 2.008359 g / cm^3
# Si number density = 20.129409 Si / 1000 Ang^3
#
#
#
# Elastic Constant Matrix: (Units=GPa)
#
#
# Indices 1 2 3 4 5 6 
#
# 1 60.1879 43.7794 27.3200 0.0000 5.4593 0.0000
# 2 43.7794 72.8850 34.1931 0.0000 -2.5327 0.0000
# 3 27.3200 34.1931 99.4367 0.0000 -3.7449 0.0000
# 4 0.0000 0.0000 0.0000 36.4204 0.0000 4.2947
# 5 5.4593 -2.5327 -3.7449 0.0000 21.0428 0.0000
# 6 0.0000 0.0000 0.0000 4.2947 0.0000 22.1059
#
#
#
# Elastic Compliance Matrix: (Units=1/GPa)
#
#
# Indices 1 2 3 4 5 6 
#
# 1 0.032400 -0.018453 -0.002977 0.000000 -0.011156 0.000000
# 2 -0.018453 0.026888 -0.003900 0.000000 0.007329 0.000000
# 3 -0.002977 -0.003900 0.012310 0.000000 0.002494 0.000000
# 4 0.000000 0.000000 0.000000 0.028101 0.000000 -0.005459
# 5 -0.011156 0.007329 0.002494 0.000000 0.051742 0.000000
# 6 0.000000 0.000000 0.000000 -0.005459 0.000000 0.046297
#
#
# Mechanical properties :
#
#
# Convention : Reuss Voigt Hill
#
# Bulk Modulus (GPa) = 47.75821 49.23272 48.49546
# Shear Modulus (GPa) = 19.57891 24.39498 21.98694
#
# Velocity S-wave (km/s) = 3.12212 3.48502 3.30855
# Velocity P-wave (km/s) = 6.06415 6.38005 6.22411
#
# Compressibility (1/GPa) = 0.02093881
#
# Stress axis : x y z
#
# Youngs Moduli (GPa) = 30.86450 37.19072 81.23768
#
# Poissons Ratio (x) = 0.68626 0.24182
# Poissons Ratio (y) = 0.56953 0.31685
# Poissons Ratio (z) = 0.09187 0.14505
#
# Static dielectric constant tensor:
#      x y z
#    x 3.606180 0.000000 0.089880 
#    y 0.000000 3.394610 0.000000 
#    z 0.089880 0.000000 3.933710 
# 
# 
# High freq. dielectric constant tensor:
#      x y z
#    x 1.782110 0.000000 0.002950 
#    y 0.000000 1.765440 0.000000 
#    z 0.002950 0.000000 1.803210 
# 
# From -- ./inp_files/195079.got.cif
#   From: 2010.06.25/outbox.cif.g09.slc.cpg/sg15_98_cif.got.tgz:195079.got - 2010.06.28 07:06:18.
