data_PCOD8140848
_publ_section_title
;
Structure prediction by ZEFSAII (Michael W. Deem and Ramdas Pophale) SiO2 
 PCOD8140848
Probable space group: C 2/C
;
_chemical_formula_sum "Si O2"
_cell_formula_units_Z 52
_cell_length_a 8.622181
_cell_length_b 21.068592
_cell_length_c 16.090410
_cell_angle_alpha 90.000000
_cell_angle_beta 123.099542
_cell_angle_gamma 90.000000
_cell_volume 2448.613507
_symmetry_space_group_name_H-M "C 2/C"
_symmetry_group_IT_number 15
_symmetry_cell_setting 'monoclinic'
loop_
_space_group_symop_operation_xyz
x,y,z
-x,y,1/2-z
-x,-y,-z
x,-y,1/2+z
1/2+x,1/2+y,z
1/2-x,1/2+y,1/2-z
1/2-x,1/2-y,-z
1/2+x,1/2-y,1/2+z
loop_
_atom_site_type_symbol
_atom_site_label
_atom_site_fract_x
_atom_site_fract_y
_atom_site_fract_z
Si Si1 0.849440 0.256267 0.774473
Si Si2 0.324746 0.532558 0.406880
Si Si3 0.028956 0.143965 0.165824
Si Si4 0.913604 0.435077 0.507019
Si Si5 0.500000 0.946197 0.250000
Si Si6 0.136839 0.356515 0.152267
Si Si7 0.630494 0.817500 0.551738
O O1 0.677558 0.300972 0.709189
O O2 0.795250 0.182112 0.746629
O O3 0.913010 0.265155 0.889085
O O4 0.000000 0.275179 0.750000
O O5 0.500000 0.500000 0.500000
O O6 0.406451 0.587347 0.373570
O O7 0.202309 0.560718 0.444093
O O8 0.189130 0.487063 0.313672
O O9 0.000000 0.116548 0.250000
O O10 0.840942 0.178825 0.080913
O O11 0.783407 0.403435 0.396583
O O12 0.000000 0.500000 0.500000
O O13 0.083320 0.387297 0.576225
O O14 0.514827 0.900791 0.175445
O O15 0.999834 0.305181 0.066766
#
# Coordination Sequence:
#
# PCOD8140848 Si02
#       7
#     8   8   8   8   4   8   8
#     4  11  24  43  66  99 135 180 238 285 355 427
#     4  12  25  41  68 104 137 186 236 292 366 431
#     4  10  23  40  68  99 132 178 233 287 348 427
#     4  10  20  44  69  94 139 179 231 297 361 416
#     4  12  26  42  72 104 142 188 238 298 350 434
#     4  10  25  43  68  98 136 184 232 290 354 413
#     4   9  22  45  67  97 133 185 225 291 355 412
#
# _framework density 21.236508000000001
#
# number of rings (size 3 to 8) (size 9 to 14) (size 15 to 20)
#    0.923    0.615    1.538    2.769    8.615    3.692 
#    2.769    0.000    0.000    0.000    0.000    0.000 
#    0.000    0.000    0.000    0.000    0.000    0.000 
#
# Total GULP energy -322155.851441 kJ/mol
# GULP energy per Si atom -12390.609671 kJ/mol
# Density = 2.118817 g / cm^3
# Si number density = 21.236508 Si / 1000 Ang^3
#
#
#
# Elastic Constant Matrix: (Units=GPa)
#
#
# Indices 1 2 3 4 5 6 
#
# 1 122.7166 25.9180 20.6509 0.0000 -18.9032 0.0000
# 2 25.9180 86.1315 28.7304 0.0000 -16.5320 0.0000
# 3 20.6509 28.7304 88.7675 0.0000 -10.2359 0.0000
# 4 0.0000 0.0000 0.0000 38.6951 0.0000 -1.1710
# 5 -18.9032 -16.5320 -10.2359 0.0000 39.5442 0.0000
# 6 0.0000 0.0000 0.0000 -1.1710 0.0000 26.4104
#
#
#
# Elastic Compliance Matrix: (Units=1/GPa)
#
#
# Indices 1 2 3 4 5 6 
#
# 1 0.009237 -0.001731 -0.001199 0.000000 0.003382 0.000000
# 2 -0.001731 0.014160 -0.003704 0.000000 0.004134 0.000000
# 3 -0.001199 -0.003704 0.012883 0.000000 0.001213 0.000000
# 4 0.000000 0.000000 0.000000 0.025878 0.000000 0.001147
# 5 0.003382 0.004134 0.001213 0.000000 0.028947 0.000000
# 6 0.000000 0.000000 0.000000 0.001147 0.000000 0.037915
#
#
# Mechanical properties :
#
#
# Convention : Reuss Voigt Hill
#
# Bulk Modulus (GPa) = 43.45264 49.80156 46.62710
# Shear Modulus (GPa) = 33.34302 35.75102 34.54702
#
# Velocity S-wave (km/s) = 3.96672 4.10746 4.03771
# Velocity P-wave (km/s) = 6.44093 6.78210 6.61371
#
# Compressibility (1/GPa) = 0.02301356
#
# Stress axis : x y z
#
# Youngs Moduli (GPa) = 108.26003 70.62284 77.62221
#
# Poissons Ratio (x) = 0.12222 0.09306
# Poissons Ratio (y) = 0.18735 0.28749
# Poissons Ratio (z) = 0.12979 0.26156
#
# Static dielectric constant tensor:
#      x y z
#    x 4.230670 0.000000 -0.040710 
#    y 0.000000 3.747070 0.000000 
#    z -0.040710 0.000000 4.483770 
# 
# 
# High freq. dielectric constant tensor:
#      x y z
#    x 1.836000 0.000000 -0.010480 
#    y 0.000000 1.831230 0.000000 
#    z -0.010480 0.000000 1.836200 
# 
# From -- ./inp_files/191121.got.cif
#   From: 2010.06.25/outbox.cif.g09.slc.cpg/sg15_96_cif.got.tgz:191121.got - 2010.06.28 07:06:18.
