data_PCOD8140690
_publ_section_title
;
Structure prediction by ZEFSAII (Michael W. Deem and Ramdas Pophale) SiO2 
 PCOD8140690
Probable space group: C 2/C
;
_chemical_formula_sum "Si O2"
_cell_formula_units_Z 44
_cell_length_a 28.449906
_cell_length_b 8.501141
_cell_length_c 17.527538
_cell_angle_alpha 90.000000
_cell_angle_beta 27.399954
_cell_angle_gamma 90.000000
_cell_volume 1950.853743
_symmetry_space_group_name_H-M "C 2/C"
_symmetry_group_IT_number 15
_symmetry_cell_setting 'monoclinic'
loop_
_space_group_symop_operation_xyz
x,y,z
-x,y,1/2-z
-x,-y,-z
x,-y,1/2+z
1/2+x,1/2+y,z
1/2-x,1/2+y,1/2-z
1/2-x,1/2-y,-z
1/2+x,1/2-y,1/2+z
loop_
_atom_site_type_symbol
_atom_site_label
_atom_site_fract_x
_atom_site_fract_y
_atom_site_fract_z
Si Si1 0.707964 0.147471 0.791181
Si Si2 0.381698 0.218637 0.736548
Si Si3 0.000000 0.491180 0.750000
Si Si4 0.330841 0.777396 0.983375
Si Si5 0.602283 0.835068 0.968954
Si Si6 0.718189 0.496982 0.043595
O O1 0.659807 0.241782 0.789330
O O2 0.830741 0.176365 0.616588
O O3 0.679714 0.963677 0.820295
O O4 0.659983 0.212749 0.938565
O O5 0.503635 0.188958 0.557470
O O6 0.323527 0.078841 0.864782
O O7 0.363963 0.377431 0.809607
O O8 0.926084 0.373341 0.809761
O O9 0.066693 0.606415 0.602345
O O10 0.232742 0.870307 0.090967
O O11 0.329974 0.595680 0.959119
#
# Coordination Sequence:
#
# PCOD8140690 Si02
#       6
#     8   8   4   8   8   8
#     4  11  24  42  69  97 141 172 224 276 340 393
#     4  11  22  43  68 101 133 177 220 283 338 390
#     4  10  20  42  70  92 132 178 228 266 334 398
#     4  10  21  43  64  96 134 179 219 279 321 404
#     4  11  24  44  67  99 135 180 222 279 335 399
#     4  10  22  40  68  98 134 172 232 276 326 403
#
# _framework density 22.554228999999999
#
# number of rings (size 3 to 8) (size 9 to 14) (size 15 to 20)
#    0.000    1.455    1.818    3.818    2.545    0.000 
#   13.091    1.818    0.000    0.000    0.000    0.000 
#    0.000    0.000    0.000    0.000    0.000    0.000 
#
# Total GULP energy -272724.237003 kJ/mol
# GULP energy per Si atom -12396.556227 kJ/mol
# Density = 2.250289 g / cm^3
# Si number density = 22.554229 Si / 1000 Ang^3
#
#
#
# Elastic Constant Matrix: (Units=GPa)
#
#
# Indices 1 2 3 4 5 6 
#
# 1 124.9737 40.3223 39.4903 0.0005 -0.4840 -0.0002
# 2 40.3223 100.0441 41.9100 0.0022 5.1896 -0.0013
# 3 39.4903 41.9100 108.3588 0.0015 -14.2675 -0.0009
# 4 0.0005 0.0022 0.0015 32.6145 -0.0006 -7.7782
# 5 -0.4840 5.1896 -14.2675 -0.0006 38.9560 0.0001
# 6 -0.0002 -0.0013 -0.0009 -7.7782 0.0001 33.7393
#
#
#
# Elastic Compliance Matrix: (Units=1/GPa)
#
#
# Indices 1 2 3 4 5 6 
#
# 1 0.009706 -0.002847 -0.002490 0.000000 -0.000412 0.000000
# 2 -0.002847 0.013220 -0.004531 -0.000001 -0.003456 0.000000
# 3 -0.002490 -0.004531 0.012570 0.000000 0.005176 0.000000
# 4 0.000000 -0.000001 0.000000 0.032445 0.000000 0.007480
# 5 -0.000412 -0.003456 0.005176 0.000000 0.028021 0.000000
# 6 0.000000 0.000000 0.000000 0.007480 0.000000 0.031363
#
#
# Mechanical properties :
#
#
# Convention : Reuss Voigt Hill
#
# Bulk Modulus (GPa) = 63.45214 64.09130 63.77172
# Shear Modulus (GPa) = 32.82673 35.17223 33.99948
#
# Velocity S-wave (km/s) = 3.81918 3.95327 3.88681
# Velocity P-wave (km/s) = 6.90235 7.02254 6.96270
#
# Compressibility (1/GPa) = 0.01575991
#
# Stress axis : x y z
#
# Youngs Moduli (GPa) = 103.03334 75.64074 79.55459
#
# Poissons Ratio (x) = 0.21537 0.19810
# Poissons Ratio (y) = 0.29336 0.36043
# Poissons Ratio (z) = 0.25657 0.34270
#
# Static dielectric constant tensor:
#      x y z
#    x 4.054430 0.000000 -0.057640 
#    y 0.000000 4.121800 0.000000 
#    z -0.057640 0.000000 4.045250 
# 
# 
# High freq. dielectric constant tensor:
#      x y z
#    x 1.891740 0.000000 0.001220 
#    y 0.000000 1.887040 0.000000 
#    z 0.001220 0.000000 1.875930 
# 
# From -- ./inp_files/159377.got.cif
#   From: 2010.06.25/outbox.cif.g09.slc.cpg/sg15_80_cif.got.tgz:159377.got - 2010.06.28 07:06:18.
