data_PCOD8140337
_publ_section_title
;
Structure prediction by ZEFSAII (Michael W. Deem and Ramdas Pophale) SiO2 
 PCOD8140337
Probable space group: C 2/C
;
_chemical_formula_sum "Si O2"
_cell_formula_units_Z 56
_cell_length_a 15.446643
_cell_length_b 18.128960
_cell_length_c 9.702284
_cell_angle_alpha 90.000000
_cell_angle_beta 76.746046
_cell_angle_gamma 90.000000
_cell_volume 2644.575757
_symmetry_space_group_name_H-M "C 2/C"
_symmetry_group_IT_number 15
_symmetry_cell_setting 'monoclinic'
loop_
_space_group_symop_operation_xyz
x,y,z
-x,y,1/2-z
-x,-y,-z
x,-y,1/2+z
1/2+x,1/2+y,z
1/2-x,1/2+y,1/2-z
1/2-x,1/2-y,-z
1/2+x,1/2-y,1/2+z
loop_
_atom_site_type_symbol
_atom_site_label
_atom_site_fract_x
_atom_site_fract_y
_atom_site_fract_z
Si Si1 0.304060 0.833490 0.574164
Si Si2 0.962668 0.584694 0.130805
Si Si3 0.810970 0.834086 0.612706
Si Si4 0.338425 0.331491 0.072763
Si Si5 0.993054 0.923366 0.587374
Si Si6 0.429159 0.926045 0.168876
Si Si7 0.226187 0.331461 0.365541
O O1 0.394628 0.876108 0.556012
O O2 0.249108 0.843181 0.733044
O O3 0.336807 0.752140 0.517444
O O4 0.243942 0.870476 0.476848
O O5 0.917464 0.511731 0.215139
O O6 0.000000 0.631029 0.250000
O O7 0.044779 0.570466 0.000956
O O8 0.901565 0.880330 0.591735
O O9 0.826019 0.745908 0.590310
O O10 0.755784 0.864656 0.501488
O O11 0.318242 0.327280 0.243669
O O12 0.429723 0.371082 0.000442
O O13 0.000000 0.937666 0.750000
O O14 0.000000 0.000000 0.500000
O O15 0.500000 0.889125 0.250000
O O16 0.336778 0.882851 0.204129
#
# Coordination Sequence:
#
# PCOD8140337 Si02
#       7
#     8   8   8   8   8   8   8
#     4  10  20  41  64  93 123 168 212 263 318 381
#     4  10  21  35  56  89 126 159 200 249 316 382
#     4  10  23  42  64  93 131 164 221 269 320 387
#     4  10  23  41  65  93 123 161 224 264 314 389
#     4  12  28  47  68  97 134 178 223 276 338 399
#     4  10  21  36  57  91 124 159 204 252 313 384
#     4  10  22  40  65  98 127 169 215 268 324 379
#
# _framework density 21.175419000000002
#
# number of rings (size 3 to 8) (size 9 to 14) (size 15 to 20)
#    0.000    1.714    1.429    1.714    4.000    2.857 
#    0.000    0.000    0.000    0.000    0.000    0.000 
#    0.000    0.000    0.000    0.000    0.000    0.000 
#
# Total GULP energy -346904.049724 kJ/mol
# GULP energy per Si atom -12389.430347 kJ/mol
# Density = 2.112722 g / cm^3
# Si number density = 21.175419 Si / 1000 Ang^3
#
#
#
# Elastic Constant Matrix: (Units=GPa)
#
#
# Indices 1 2 3 4 5 6 
#
# 1 99.4124 43.3503 39.4007 0.0000 6.8095 0.0000
# 2 43.3503 66.0275 30.3833 0.0000 -6.4482 0.0000
# 3 39.4007 30.3833 120.7993 0.0000 11.7655 0.0000
# 4 0.0000 0.0000 0.0000 28.4398 0.0000 6.1556
# 5 6.8095 -6.4482 11.7655 0.0000 38.6972 0.0000
# 6 0.0000 0.0000 0.0000 6.1556 0.0000 8.7910
#
#
#
# Elastic Compliance Matrix: (Units=1/GPa)
#
#
# Indices 1 2 3 4 5 6 
#
# 1 0.015274 -0.009319 -0.002293 0.000000 -0.003544 0.000000
# 2 -0.009319 0.023534 -0.003526 0.000000 0.006633 0.000000
# 3 -0.002293 -0.003526 0.010234 0.000000 -0.003295 0.000000
# 4 0.000000 0.000000 0.000000 0.041443 0.000000 -0.029019
# 5 -0.003544 0.006633 -0.003295 0.000000 0.028573 0.000000
# 6 0.000000 0.000000 0.000000 -0.029019 0.000000 0.134072
#
#
# Mechanical properties :
#
#
# Convention : Reuss Voigt Hill
#
# Bulk Modulus (GPa) = 53.28666 56.94532 55.11599
# Shear Modulus (GPa) = 17.26156 26.72593 21.99375
#
# Velocity S-wave (km/s) = 2.85822 3.55649 3.22630
# Velocity P-wave (km/s) = 6.00929 6.61932 6.32167
#
# Compressibility (1/GPa) = 0.01876642
#
# Stress axis : x y z
#
# Youngs Moduli (GPa) = 65.46879 42.49160 97.71545
#
# Poissons Ratio (x) = 0.39600 0.22405
# Poissons Ratio (y) = 0.61013 0.34451
# Poissons Ratio (z) = 0.15011 0.14981
#
# Static dielectric constant tensor:
#      x y z
#    x 3.777380 0.000000 0.191780 
#    y 0.000000 3.783970 0.000000 
#    z 0.191780 0.000000 4.041510 
# 
# 
# High freq. dielectric constant tensor:
#      x y z
#    x 1.825010 0.000000 0.008990 
#    y 0.000000 1.806780 0.000000 
#    z 0.008990 0.000000 1.857560 
# 
# From -- ./inp_files/41234.got.cif
#   From: 2010.06.25/outbox.cif.g09.slc.cpg/sg15_21_cif.got.tgz:41234.got - 2010.06.28 07:06:18.
