data_PCOD8140382
_publ_section_title
;
Structure prediction by ZEFSAII (Michael W. Deem and Ramdas Pophale) SiO2 
 PCOD8140382
Probable space group: C 2/C
;
_chemical_formula_sum "Si O2"
_cell_formula_units_Z 48
_cell_length_a 24.956569
_cell_length_b 10.148029
_cell_length_c 22.764681
_cell_angle_alpha 90.000000
_cell_angle_beta 23.630719
_cell_angle_gamma 90.000000
_cell_volume 2310.997656
_symmetry_space_group_name_H-M "C 2/C"
_symmetry_group_IT_number 15
_symmetry_cell_setting 'monoclinic'
loop_
_space_group_symop_operation_xyz
x,y,z
-x,y,1/2-z
-x,-y,-z
x,-y,1/2+z
1/2+x,1/2+y,z
1/2-x,1/2+y,1/2-z
1/2-x,1/2-y,-z
1/2+x,1/2-y,1/2+z
loop_
_atom_site_type_symbol
_atom_site_label
_atom_site_fract_x
_atom_site_fract_y
_atom_site_fract_z
Si Si1 0.173472 0.768075 0.203962
Si Si2 0.556024 0.500318 0.755979
Si Si3 0.729925 0.504978 0.916557
Si Si4 0.912588 0.706283 0.781631
Si Si5 0.450677 0.895138 0.122520
Si Si6 0.073844 0.333944 0.479174
O O1 0.163050 0.894904 0.172175
O O2 0.219913 0.643123 0.118001
O O3 0.030045 0.746761 0.377467
O O4 0.278817 0.792310 0.149840
O O5 0.500000 0.551475 0.750000
O O6 0.629481 0.359675 0.674628
O O7 0.429650 0.486441 0.927149
O O8 0.782071 0.610597 0.913472
O O9 0.801100 0.542303 0.782876
O O10 0.993710 0.682600 0.638655
O O11 0.000000 0.667713 0.750000
O O12 0.558720 0.009493 0.003304
O O13 0.444517 0.800727 0.071732
#
# Coordination Sequence:
#
# PCOD8140382 Si02
#       6
#     8   8   8   8   8   8
#     4  11  22  41  65  95 127 169 213 266 320 379
#     4  11  24  40  61  97 129 165 216 266 316 386
#     4   9  21  42  60  89 131 157 217 261 310 380
#     4   9  21  40  62  88 123 170 206 261 314 381
#     4   8  20  41  62  91 125 167 206 262 317 378
#     4  10  20  41  66  92 127 164 214 267 318 377
#
# _framework density 20.770250999999998
#
# number of rings (size 3 to 8) (size 9 to 14) (size 15 to 20)
#    1.000    1.333    1.667    0.000    0.000    8.000 
#    9.000    1.667    0.000    0.000    0.000    0.000 
#    0.000    0.000    0.000    0.000    0.000    0.000 
#
# Total GULP energy -297420.330563 kJ/mol
# GULP energy per Si atom -12392.513773 kJ/mol
# Density = 2.072298 g / cm^3
# Si number density = 20.770251 Si / 1000 Ang^3
#
#
#
# Elastic Constant Matrix: (Units=GPa)
#
#
# Indices 1 2 3 4 5 6 
#
# 1 124.7837 54.4750 10.0768 0.0012 0.7971 -0.0005
# 2 54.4750 116.6824 17.2705 0.0041 -13.7551 -0.0026
# 3 10.0768 17.2705 46.3599 0.0053 -6.3127 -0.0030
# 4 0.0012 0.0041 0.0053 11.6875 -0.0022 -7.7937
# 5 0.7971 -13.7551 -6.3127 -0.0022 29.7020 0.0010
# 6 -0.0005 -0.0026 -0.0030 -7.7937 0.0010 30.9330
#
#
#
# Elastic Compliance Matrix: (Units=1/GPa)
#
#
# Indices 1 2 3 4 5 6 
#
# 1 0.010281 -0.005015 -0.000742 0.000000 -0.002756 0.000000
# 2 -0.005015 0.011903 -0.002652 -0.000001 0.005083 0.000000
# 3 -0.000742 -0.002652 0.023227 -0.000009 0.003728 0.000000
# 4 0.000000 -0.000001 -0.000009 0.102840 0.000004 0.025911
# 5 -0.002756 0.005083 0.003728 0.000004 0.036888 0.000001
# 6 0.000000 0.000000 0.000000 0.025911 0.000001 0.038856
#
#
# Mechanical properties :
#
#
# Convention : Reuss Voigt Hill
#
# Bulk Modulus (GPa) = 34.97246 50.16341 42.56794
# Shear Modulus (GPa) = 19.97252 28.19809 24.08531
#
# Velocity S-wave (km/s) = 3.10432 3.68859 3.40899
# Velocity P-wave (km/s) = 5.45192 6.50729 6.00284
#
# Compressibility (1/GPa) = 0.02859393
#
# Stress axis : x y z
#
# Youngs Moduli (GPa) = 97.27073 84.01046 43.05288
#
# Poissons Ratio (x) = 0.42129 0.03193
# Poissons Ratio (y) = 0.48779 0.11418
# Poissons Ratio (z) = 0.07215 0.22281
#
# Static dielectric constant tensor:
#      x y z
#    x 3.534450 0.000000 0.151620 
#    y 0.000000 3.779060 0.000000 
#    z 0.151620 0.000000 3.547660 
# 
# 
# High freq. dielectric constant tensor:
#      x y z
#    x 1.793640 0.000000 0.010660 
#    y 0.000000 1.813510 0.000000 
#    z 0.010660 0.000000 1.804520 
# 
# From -- ./inp_files/252512.got.cif
#   From: 2010.06.25/outbox.cif.g09.slc.cpg/sg15_127_cif.got.tgz:252512.got - 2010.06.28 07:06:18.
