data_PCOD8140273
_publ_section_title
;
Structure prediction by ZEFSAII (Michael W. Deem and Ramdas Pophale) SiO2 
 PCOD8140273
Probable space group: C 2/C
;
_chemical_formula_sum "Si O2"
_cell_formula_units_Z 52
_cell_length_a 11.119925
_cell_length_b 26.183585
_cell_length_c 9.458500
_cell_angle_alpha 90.000000
_cell_angle_beta 105.500785
_cell_angle_gamma 90.000000
_cell_volume 2653.762797
_symmetry_space_group_name_H-M "C 2/C"
_symmetry_group_IT_number 15
_symmetry_cell_setting 'monoclinic'
loop_
_space_group_symop_operation_xyz
x,y,z
-x,y,1/2-z
-x,-y,-z
x,-y,1/2+z
1/2+x,1/2+y,z
1/2-x,1/2+y,1/2-z
1/2-x,1/2-y,-z
1/2+x,1/2-y,1/2+z
loop_
_atom_site_type_symbol
_atom_site_label
_atom_site_fract_x
_atom_site_fract_y
_atom_site_fract_z
Si Si1 0.000000 0.536865 0.250000
Si Si2 0.192273 0.803364 0.534689
Si Si3 0.660255 0.057739 0.776245
Si Si4 0.901662 0.202065 0.976293
Si Si5 0.460015 0.098978 0.512832
Si Si6 0.860101 0.878133 0.230852
Si Si7 0.803962 0.307959 0.861306
O O1 0.119382 0.501225 0.250218
O O2 0.984544 0.571422 0.107766
O O3 0.250000 0.750000 0.500000
O O4 0.200439 0.847332 0.418844
O O5 0.274509 0.823909 0.691288
O O6 0.050265 0.797031 0.543305
O O7 0.571534 0.097733 0.662050
O O8 0.794025 0.068102 0.748450
O O9 0.654559 0.070203 0.942921
O O10 0.851639 0.156686 0.865094
O O11 0.867139 0.253088 0.882219
O O12 0.828823 0.195374 0.100248
O O13 0.408347 0.154683 0.458749
O O14 0.000000 0.895015 0.250000
#
# Coordination Sequence:
#
# PCOD8140273 Si02
#       7
#     4   8   8   8   8   8   8
#     4  10  22  40  64  94 118 144 196 266 306 352
#     4  11  23  36  54  81 119 160 200 246 283 341
#     4  10  20  41  61  86 119 150 194 246 309 358
#     4  10  22  39  55  81 121 161 201 237 289 351
#     4  10  22  36  63  91 116 149 192 252 307 357
#     4  10  21  39  59  82 118 162 199 236 293 358
#     4  11  22  37  58  85 117 158 199 246 294 355
#
# _framework density 19.594819000000001
#
# number of rings (size 3 to 8) (size 9 to 14) (size 15 to 20)
#    0.000    1.846    3.077    2.308    4.308    0.000 
#    2.769    0.000    0.000    5.538    0.000    0.000 
#    0.000    0.000    0.000    0.000    0.000    0.000 
#
# Total GULP energy -322149.144414 kJ/mol
# GULP energy per Si atom -12390.351708 kJ/mol
# Density = 1.955022 g / cm^3
# Si number density = 19.594819 Si / 1000 Ang^3
#
#
#
# Elastic Constant Matrix: (Units=GPa)
#
#
# Indices 1 2 3 4 5 6 
#
# 1 63.7911 41.7131 18.3499 0.0000 -9.9680 0.0000
# 2 41.7131 60.2185 4.5686 0.0000 -3.9634 0.0000
# 3 18.3499 4.5686 92.6126 0.0000 -5.5323 0.0000
# 4 0.0000 0.0000 0.0000 -54.3258 0.0000 72.0822
# 5 -9.9680 -3.9634 -5.5323 0.0000 21.5561 0.0000
# 6 0.0000 0.0000 0.0000 72.0822 0.0000 -61.7785
#
#
#
# Elastic Compliance Matrix: (Units=1/GPa)
#
#
# Indices 1 2 3 4 5 6 
#
# 1 0.032819 -0.021712 -0.004838 0.000000 0.009943 0.000000
# 2 -0.021712 0.031213 0.002544 0.000000 -0.003648 0.000000
# 3 -0.004838 0.002544 0.011704 0.000000 0.001235 0.000000
# 4 0.000000 0.000000 0.000000 0.033581 0.000000 0.039182
# 5 0.009943 -0.003648 0.001235 0.000000 0.050634 0.000000
# 6 0.000000 0.000000 0.000000 0.039182 0.000000 0.029530
#
#
# Mechanical properties :
#
#
# Convention : Reuss Voigt Hill
#
# Bulk Modulus (GPa) = 36.06806 38.43171 37.24988
# Shear Modulus (GPa) = 20.26473 -8.77693 5.74390
#
# Velocity S-wave (km/s) = 3.21937 -2.11871 1.71397
# Velocity P-wave (km/s) = 5.68032 3.69737 4.79252
#
# Compressibility (1/GPa) = 0.02772536
#
# Stress axis : x y z
#
# Youngs Moduli (GPa) = 30.47027 32.03805 85.43785
#
# Poissons Ratio (x) = 0.69561 0.41332
# Poissons Ratio (y) = 0.66157 -0.21738
# Poissons Ratio (z) = 0.14740 -0.08151
#
# Static dielectric constant tensor:
#      x y z
#    x 3.692250 0.000000 -0.220370 
#    y 0.000000 3.294690 0.000000 
#    z -0.220370 0.000000 3.680060 
# 
# 
# High freq. dielectric constant tensor:
#      x y z
#    x 1.764660 0.000000 -0.018250 
#    y 0.000000 1.741480 0.000000 
#    z -0.018250 0.000000 1.771930 
# 
# From -- ./inp_files/33744.got.cif
#   From: 2010.06.25/outbox.cif.g09.slc.cpg/sg15_17_cif.got.tgz:33744.got - 2010.06.28 07:06:18.
