data_PCOD8140627
_publ_section_title
;
Structure prediction by ZEFSAII (Michael W. Deem and Ramdas Pophale) SiO2 
 PCOD8140627
Probable space group: C 2/C
;
_chemical_formula_sum "Si O2"
_cell_formula_units_Z 56
_cell_length_a 20.915042
_cell_length_b 10.406411
_cell_length_c 14.414853
_cell_angle_alpha 90.000000
_cell_angle_beta 61.870146
_cell_angle_gamma 90.000000
_cell_volume 2766.814731
_symmetry_space_group_name_H-M "C 2/C"
_symmetry_group_IT_number 15
_symmetry_cell_setting 'monoclinic'
loop_
_space_group_symop_operation_xyz
x,y,z
-x,y,1/2-z
-x,-y,-z
x,-y,1/2+z
1/2+x,1/2+y,z
1/2-x,1/2+y,1/2-z
1/2-x,1/2-y,-z
1/2+x,1/2-y,1/2+z
loop_
_atom_site_type_symbol
_atom_site_label
_atom_site_fract_x
_atom_site_fract_y
_atom_site_fract_z
Si Si1 0.500000 0.771056 0.750000
Si Si2 0.381392 0.810084 0.239035
Si Si3 0.125210 0.556879 0.147397
Si Si4 0.699211 0.552026 0.216812
Si Si5 0.000000 0.837831 0.750000
Si Si6 0.101505 0.948438 0.134657
Si Si7 0.283955 0.618197 0.091821
Si Si8 0.837893 0.402100 0.077231
O O1 0.438452 0.868009 0.751363
O O2 0.451178 0.674925 0.846820
O O3 0.318104 0.702719 0.290413
O O4 0.459649 0.746020 0.199818
O O5 0.383297 0.890166 0.141522
O O6 0.370221 0.908082 0.330726
O O7 0.201175 0.621520 0.117938
O O8 0.110363 0.568588 0.046342
O O9 0.637314 0.459740 0.213682
O O10 0.701227 0.533835 0.326352
O O11 0.778244 0.515551 0.123503
O O12 0.945894 0.924401 0.848546
O O13 0.166672 0.949101 0.018396
O O14 0.299163 0.766820 0.092036
#
# Coordination Sequence:
#
# PCOD8140627 Si02
#       8
#     4   8   8   8   4   8   8   8
#     4  11  23  38  62  98 123 169 198 260 330 375
#     4  10  23  41  62  88 131 166 204 258 315 385
#     4  12  22  39  66  90 131 163 208 260 327 372
#     4  10  21  39  65  93 124 161 212 265 312 363
#     4   9  21  44  60  84 135 173 200 254 316 385
#     4  10  20  42  67  91 125 165 218 260 309 371
#     4  11  21  39  68  95 122 166 215 270 310 362
#     4  11  21  39  64  93 122 159 211 270 309 368
#
# _framework density 20.239882000000001
#
# number of rings (size 3 to 8) (size 9 to 14) (size 15 to 20)
#    0.000    1.429    4.286    1.714    0.000    0.571 
#    2.571    5.714    0.000    0.000    0.000    0.000 
#    0.000    0.000    0.000    0.000    0.000    0.000 
#
# Total GULP energy -346927.876974 kJ/mol
# GULP energy per Si atom -12390.281320 kJ/mol
# Density = 2.019381 g / cm^3
# Si number density = 20.239882 Si / 1000 Ang^3
#
#
#
# Elastic Constant Matrix: (Units=GPa)
#
#
# Indices 1 2 3 4 5 6 
#
# 1 116.6475 39.7947 58.3932 0.0000 -6.3711 0.0000
# 2 39.7947 80.7610 42.8138 0.0000 6.2252 0.0000
# 3 58.3932 42.8138 100.3619 0.0000 7.5188 0.0000
# 4 0.0000 0.0000 0.0000 26.2682 0.0000 0.6029
# 5 -6.3711 6.2252 7.5188 0.0000 26.7307 0.0000
# 6 0.0000 0.0000 0.0000 0.6029 0.0000 31.6832
#
#
#
# Elastic Compliance Matrix: (Units=1/GPa)
#
#
# Indices 1 2 3 4 5 6 
#
# 1 0.013499 -0.003502 -0.006806 0.000000 0.005947 0.000000
# 2 -0.003502 0.016999 -0.004959 0.000000 -0.003399 0.000000
# 3 -0.006806 -0.004959 0.016420 0.000000 -0.005086 0.000000
# 4 0.000000 0.000000 0.000000 0.038085 0.000000 -0.000725
# 5 0.005947 -0.003399 -0.005086 0.000000 0.041050 0.000000
# 6 0.000000 0.000000 0.000000 -0.000725 0.000000 0.031576
#
#
# Mechanical properties :
#
#
# Convention : Reuss Voigt Hill
#
# Bulk Modulus (GPa) = 61.03545 64.41933 62.72739
# Shear Modulus (GPa) = 25.82289 27.38767 26.60528
#
# Velocity S-wave (km/s) = 3.57577 3.68251 3.62953
# Velocity P-wave (km/s) = 6.87529 7.06953 6.97309
#
# Compressibility (1/GPa) = 0.01638392
#
# Stress axis : x y z
#
# Youngs Moduli (GPa) = 74.07694 58.82689 60.89974
#
# Poissons Ratio (x) = 0.20603 0.41448
# Poissons Ratio (y) = 0.25944 0.30202
# Poissons Ratio (z) = 0.50416 0.29174
#
# Static dielectric constant tensor:
#      x y z
#    x 3.950590 0.000000 0.089940 
#    y 0.000000 3.809640 0.000000 
#    z 0.089940 0.000000 3.645700 
# 
# 
# High freq. dielectric constant tensor:
#      x y z
#    x 1.797370 0.000000 -0.003000 
#    y 0.000000 1.799730 0.000000 
#    z -0.003000 0.000000 1.764420 
# 
# From -- ./inp_files/117706.got.cif
#   From: 2010.06.25/outbox.cif.g09.slc.cpg/sg15_59_cif.got.tgz:117706.got - 2010.06.28 07:06:18.
