data_PCOD8140867
_publ_section_title
;
Structure prediction by ZEFSAII (Michael W. Deem and Ramdas Pophale) SiO2 
 PCOD8140867
Probable space group: C 2/C
;
_chemical_formula_sum "Si O2"
_cell_formula_units_Z 40
_cell_length_a 8.980507
_cell_length_b 21.837924
_cell_length_c 9.732004
_cell_angle_alpha 90.000000
_cell_angle_beta 95.749894
_cell_angle_gamma 90.000000
_cell_volume 1898.995367
_symmetry_space_group_name_H-M "C 2/C"
_symmetry_group_IT_number 15
_symmetry_cell_setting 'monoclinic'
loop_
_space_group_symop_operation_xyz
x,y,z
-x,y,1/2-z
-x,-y,-z
x,-y,1/2+z
1/2+x,1/2+y,z
1/2-x,1/2+y,1/2-z
1/2-x,1/2-y,-z
1/2+x,1/2-y,1/2+z
loop_
_atom_site_type_symbol
_atom_site_label
_atom_site_fract_x
_atom_site_fract_y
_atom_site_fract_z
Si Si1 0.707002 0.432785 0.531544
Si Si2 0.423099 0.390099 0.380241
Si Si3 0.862183 0.250631 0.887023
Si Si4 0.826285 0.700712 0.097635
Si Si5 0.679025 0.031613 0.755300
O O1 0.525217 0.422359 0.508379
O O2 0.776280 0.366307 0.554587
O O3 0.753278 0.469733 0.672025
O O4 0.774860 0.464384 0.400615
O O5 0.500000 0.414450 0.250000
O O6 0.429691 0.317146 0.382025
O O7 0.251425 0.413938 0.356382
O O8 0.779427 0.276745 0.745547
O O9 0.997658 0.297706 0.919201
O O10 0.750000 0.250000 0.000000
O O11 0.750000 0.750000 0.000000
O O12 0.500000 0.034186 0.750000
#
# Coordination Sequence:
#
# PCOD8140867 Si02
#       5
#     8   8   8   8   8
#     4  11  24  44  68  94 142 182 223 281 339 407
#     4  10  20  45  65  93 132 179 219 284 337 401
#     4  11  24  40  68 100 132 172 231 278 345 406
#     4  11  22  45  68  97 140 175 219 288 345 397
#     4  11  25  41  66  98 130 178 229 274 337 400
#
# _framework density 21.063769000000001
#
# number of rings (size 3 to 8) (size 9 to 14) (size 15 to 20)
#    0.000    1.200    4.000    2.400    5.600    2.400 
#    0.000    2.000    0.000    0.000    0.000    0.000 
#    0.000    0.000    0.000    0.000    0.000    0.000 
#
# Total GULP energy -247813.982054 kJ/mol
# GULP energy per Si atom -12390.699103 kJ/mol
# Density = 2.101583 g / cm^3
# Si number density = 21.063769 Si / 1000 Ang^3
#
#
#
# Elastic Constant Matrix: (Units=GPa)
#
#
# Indices 1 2 3 4 5 6 
#
# 1 99.0783 30.3662 64.0098 0.0000 15.8392 0.0000
# 2 30.3662 131.0263 59.3730 0.0000 13.6168 0.0000
# 3 64.0098 59.3730 147.7443 0.0000 0.6857 0.0000
# 4 0.0000 0.0000 0.0000 44.8539 0.0000 11.5750
# 5 15.8392 13.6168 0.6857 0.0000 43.2294 0.0000
# 6 0.0000 0.0000 0.0000 11.5750 0.0000 13.3760
#
#
#
# Elastic Compliance Matrix: (Units=1/GPa)
#
#
# Indices 1 2 3 4 5 6 
#
# 1 0.015207 0.000023 -0.006572 0.000000 -0.005475 0.000000
# 2 0.000023 0.009704 -0.003896 0.000000 -0.003003 0.000000
# 3 -0.006572 -0.003896 0.011165 0.000000 0.003458 0.000000
# 4 0.000000 0.000000 0.000000 0.028705 0.000000 -0.024840
# 5 -0.005475 -0.003003 0.003458 0.000000 0.026029 0.000000
# 6 0.000000 0.000000 0.000000 -0.024840 0.000000 0.096256
#
#
# Mechanical properties :
#
#
# Convention : Reuss Voigt Hill
#
# Bulk Modulus (GPa) = 65.84820 76.14964 70.99892
# Shear Modulus (GPa) = 23.47206 35.23189 29.35198
#
# Velocity S-wave (km/s) = 3.34178 4.09422 3.73699
# Velocity P-wave (km/s) = 6.79847 7.65380 7.23878
#
# Compressibility (1/GPa) = 0.01518644
#
# Stress axis : x y z
#
# Youngs Moduli (GPa) = 65.75790 103.04856 89.56310
#
# Poissons Ratio (x) = -0.00234 0.58863
# Poissons Ratio (y) = -0.00149 0.34891
# Poissons Ratio (z) = 0.43218 0.40144
#
# Static dielectric constant tensor:
#      x y z
#    x 3.938390 0.000000 0.394460 
#    y 0.000000 -72.036280 0.000000 
#    z 0.394460 0.000000 3.579010 
# 
# 
# High freq. dielectric constant tensor:
#      x y z
#    x 1.826690 0.000000 0.023500 
#    y 0.000000 1.833700 0.000000 
#    z 0.023500 0.000000 1.828550 
# 
# From -- ./inp_files/23731.got.cif
#   From: 2010.06.25/outbox.cif.g09.slc.cpg/sg15_12_cif.got.tgz:23731.got - 2010.06.28 07:06:18.
