data_PCOD8140363
_publ_section_title
;
Structure prediction by ZEFSAII (Michael W. Deem and Ramdas Pophale) SiO2 
 PCOD8140363
Probable space group: C 2/C
;
_chemical_formula_sum "Si O2"
_cell_formula_units_Z 60
_cell_length_a 18.933271
_cell_length_b 19.971192
_cell_length_c 12.596628
_cell_angle_alpha 90.000000
_cell_angle_beta 146.001542
_cell_angle_gamma 90.000000
_cell_volume 2663.350136
_symmetry_space_group_name_H-M "C 2/C"
_symmetry_group_IT_number 15
_symmetry_cell_setting 'monoclinic'
loop_
_space_group_symop_operation_xyz
x,y,z
-x,y,1/2-z
-x,-y,-z
x,-y,1/2+z
1/2+x,1/2+y,z
1/2-x,1/2+y,1/2-z
1/2-x,1/2-y,-z
1/2+x,1/2-y,1/2+z
loop_
_atom_site_type_symbol
_atom_site_label
_atom_site_fract_x
_atom_site_fract_y
_atom_site_fract_z
Si Si1 0.487529 0.140256 0.351971
Si Si2 0.837432 0.493350 0.658213
Si Si3 0.726477 0.914609 0.243408
Si Si4 0.921583 0.185983 0.046113
Si Si5 0.645438 0.173148 0.106752
Si Si6 0.586766 0.607671 0.101171
Si Si7 0.113939 0.027334 0.746835
Si Si8 0.000000 0.404644 0.250000
O O1 0.500000 0.174702 0.250000
O O2 0.626069 0.138366 0.574455
O O3 0.396031 0.177909 0.321027
O O4 0.437924 0.065208 0.275243
O O5 0.839594 0.524036 0.778288
O O6 0.694690 0.468131 0.455532
O O7 0.877858 0.550840 0.625429
O O8 0.822292 0.874340 0.439563
O O9 0.797332 0.947061 0.235100
O O10 0.000000 0.197520 0.250000
O O11 0.014449 0.170968 0.062512
O O12 0.839391 0.251842 0.917246
O O13 0.775671 0.131615 0.263972
O O14 0.537360 0.138496 0.900005
O O15 0.581719 0.550332 0.185692
O O16 0.510624 0.575183 0.905241
#
# Coordination Sequence:
#
# PCOD8140363 Si02
#       8
#     8   8   8   8   8   8   8   4
#     4  12  25  43  69 101 140 183 234 287 348 409
#     4  12  21  37  69 101 139 171 225 278 354 413
#     4  11  23  41  68 102 140 177 228 287 347 418
#     4  11  26  44  70 101 138 186 229 294 353 411
#     4  12  26  43  68 102 140 185 231 290 347 420
#     4  10  23  41  66  97 143 177 228 274 352 421
#     4  10  20  41  65  97 139 178 218 279 343 421
#     4  12  22  36  66 108 138 176 218 282 360 414
#
# _framework density 22.528017999999999
#
# number of rings (size 3 to 8) (size 9 to 14) (size 15 to 20)
#    0.000    0.800    5.333    2.000    1.867    0.533 
#    0.000    5.333    0.000    0.000    0.000    0.000 
#    0.000    0.000    0.000    0.000    0.000    0.000 
#
# Total GULP energy -371957.062003 kJ/mol
# GULP energy per Si atom -12398.568733 kJ/mol
# Density = 2.247674 g / cm^3
# Si number density = 22.528018 Si / 1000 Ang^3
#
#
#
# Elastic Constant Matrix: (Units=GPa)
#
#
# Indices 1 2 3 4 5 6 
#
# 1 76.0333 8.4522 34.2830 0.0000 -1.1421 0.0000
# 2 8.4522 65.7461 15.8710 0.0000 5.8846 0.0000
# 3 34.2830 15.8710 118.4815 0.0000 7.8715 0.0000
# 4 0.0000 0.0000 0.0000 28.6449 0.0000 4.2979
# 5 -1.1421 5.8846 7.8715 0.0000 31.9200 0.0000
# 6 0.0000 0.0000 0.0000 4.2979 0.0000 27.9709
#
#
#
# Elastic Compliance Matrix: (Units=1/GPa)
#
#
# Indices 1 2 3 4 5 6 
#
# 1 0.015282 -0.001066 -0.004401 0.000000 0.001829 0.000000
# 2 -0.001066 0.015978 -0.001661 0.000000 -0.002574 0.000000
# 3 -0.004401 -0.001661 0.010091 0.000000 -0.002340 0.000000
# 4 0.000000 0.000000 0.000000 0.035734 0.000000 -0.005491
# 5 0.001829 -0.002574 -0.002340 0.000000 0.032445 0.000000
# 6 0.000000 0.000000 0.000000 -0.005491 0.000000 0.036595
#
#
# Mechanical properties :
#
#
# Convention : Reuss Voigt Hill
#
# Bulk Modulus (GPa) = 36.90443 41.94148 39.42296
# Shear Modulus (GPa) = 29.51347 31.15081 30.33214
#
# Velocity S-wave (km/s) = 3.62343 3.72258 3.67334
# Velocity P-wave (km/s) = 5.82433 6.09382 5.96060
#
# Compressibility (1/GPa) = 0.02709701
#
# Stress axis : x y z
#
# Youngs Moduli (GPa) = 65.43496 62.58444 99.09406
#
# Poissons Ratio (x) = 0.06672 0.43608
# Poissons Ratio (y) = 0.06975 0.16458
# Poissons Ratio (z) = 0.28796 0.10395
#
# Static dielectric constant tensor:
#      x y z
#    x 3.957440 0.000000 0.666890 
#    y 0.000000 3.955340 0.000000 
#    z 0.666890 0.000000 16.375120 
# 
# 
# High freq. dielectric constant tensor:
#      x y z
#    x 1.882280 0.000000 0.009660 
#    y 0.000000 1.868930 0.000000 
#    z 0.009660 0.000000 1.897930 
# 
# From -- ./inp_files/107657.got.cif
#   From: 2010.06.25/outbox.cif.g09.slc.cpg/sg15_54_cif.got.tgz:107657.got - 2010.06.28 07:06:18.
