data_PCOD8140025
_publ_section_title
;
Structure prediction by ZEFSAII (Michael W. Deem and Ramdas Pophale) SiO2 
 PCOD8140025
Probable space group: C 2/C
;
_chemical_formula_sum "Si O2"
_cell_formula_units_Z 48
_cell_length_a 13.427016
_cell_length_b 13.460259
_cell_length_c 14.489234
_cell_angle_alpha 90.000000
_cell_angle_beta 104.548699
_cell_angle_gamma 90.000000
_cell_volume 2534.686835
_symmetry_space_group_name_H-M "C 2/C"
_symmetry_group_IT_number 15
_symmetry_cell_setting 'monoclinic'
loop_
_space_group_symop_operation_xyz
x,y,z
-x,y,1/2-z
-x,-y,-z
x,-y,1/2+z
1/2+x,1/2+y,z
1/2-x,1/2+y,1/2-z
1/2-x,1/2-y,-z
1/2+x,1/2-y,1/2+z
loop_
_atom_site_type_symbol
_atom_site_label
_atom_site_fract_x
_atom_site_fract_y
_atom_site_fract_z
Si Si1 0.172133 0.257145 0.565708
Si Si2 0.342850 0.735957 0.452780
Si Si3 0.996500 0.396923 0.449368
Si Si4 0.514357 0.405754 0.067154
Si Si5 0.000000 0.347632 0.250000
Si Si6 0.500000 0.481138 0.750000
Si Si7 0.165540 0.183901 0.253983
O O1 0.250000 0.250000 0.500000
O O2 0.082273 0.328213 0.512930
O O3 0.125187 0.148193 0.578723
O O4 0.226751 0.307148 0.667057
O O5 0.250000 0.750000 0.500000
O O6 0.386418 0.844815 0.438608
O O7 0.426604 0.672684 0.525664
O O8 0.311605 0.679835 0.350412
O O9 0.014141 0.415022 0.344093
O O10 0.000000 0.500000 0.500000
O O11 0.499755 0.443305 0.166277
O O12 0.500000 0.500000 0.000000
O O13 0.100318 0.280184 0.264507
O O14 0.397332 0.413491 0.728219
#
# Coordination Sequence:
#
# PCOD8140025 Si02
#       7
#     8   8   8   8   4   4   8
#     4  11  22  40  64  91 124 157 207 255 302 373
#     4  10  23  42  62  87 131 161 201 258 309 363
#     4  10  22  42  60  89 120 163 202 249 305 361
#     4  11  23  41  62  96 124 162 205 259 313 364
#     4   9  18  40  65  80 118 158 201 244 299 364
#     4  11  22  40  67  90 128 160 211 258 307 376
#     4  10  20  40  65  89 116 166 203 249 310 359
#
# _framework density 18.937249999999999
#
# number of rings (size 3 to 8) (size 9 to 14) (size 15 to 20)
#    0.000    1.667    3.333    1.000    2.333    2.667 
#    6.000    0.000    0.000    0.000    0.000    0.000 
#    0.000    0.000    0.000    0.000    0.000    0.000 
#
# Total GULP energy -297574.554210 kJ/mol
# GULP energy per Si atom -12398.939759 kJ/mol
# Density = 1.889415 g / cm^3
# Si number density = 18.937250 Si / 1000 Ang^3
#
#
#
# Elastic Constant Matrix: (Units=GPa)
#
#
# Indices 1 2 3 4 5 6 
#
# 1 112.8447 38.9316 62.9572 0.0000 -17.2882 0.0000
# 2 38.9316 106.7799 64.0404 0.0000 -16.7636 0.0000
# 3 62.9572 64.0404 170.0955 0.0000 -17.2980 0.0000
# 4 0.0000 0.0000 0.0000 39.0614 0.0000 -5.8174
# 5 -17.2882 -16.7636 -17.2980 0.0000 37.7218 0.0000
# 6 0.0000 0.0000 0.0000 -5.8174 0.0000 26.1894
#
#
#
# Elastic Compliance Matrix: (Units=1/GPa)
#
#
# Indices 1 2 3 4 5 6 
#
# 1 0.011848 -0.001801 -0.003394 0.000000 0.003073 0.000000
# 2 -0.001801 0.012814 -0.003842 0.000000 0.003107 0.000000
# 3 -0.003394 -0.003842 0.008653 0.000000 0.000705 0.000000
# 4 0.000000 0.000000 0.000000 0.026477 0.000000 0.005881
# 5 0.003073 0.003107 0.000705 0.000000 0.029622 0.000000
# 6 0.000000 0.000000 0.000000 0.005881 0.000000 0.039490
#
#
# Mechanical properties :
#
#
# Convention : Reuss Voigt Hill
#
# Bulk Modulus (GPa) = 65.61688 80.17538 72.89613
# Shear Modulus (GPa) = 32.88208 35.51394 34.19801
#
# Velocity S-wave (km/s) = 4.17150 4.33523 4.25415
# Velocity P-wave (km/s) = 7.61096 8.21512 7.91881
#
# Compressibility (1/GPa) = 0.01523998
#
# Stress axis : x y z
#
# Youngs Moduli (GPa) = 84.40376 78.04218 115.56035
#
# Poissons Ratio (x) = 0.14059 0.39227
# Poissons Ratio (y) = 0.15205 0.44393
# Poissons Ratio (z) = 0.28651 0.29980
#
# Static dielectric constant tensor:
#      x y z
#    x 3.504610 0.000000 0.029410 
#    y 0.000000 3.390220 0.000000 
#    z 0.029410 0.000000 3.755070 
# 
# 
# High freq. dielectric constant tensor:
#      x y z
#    x 1.732440 0.000000 -0.002880 
#    y 0.000000 1.727470 0.000000 
#    z -0.002880 0.000000 1.756540 
# 
# From -- ./inp_files/152231.got.cif
#   From: 2010.06.25/outbox.cif.g09.slc.cpg/sg15_77_cif.got.tgz:152231.got - 2010.06.28 07:06:18.
