data_PCOD8140268
_publ_section_title
;
Structure prediction by ZEFSAII (Michael W. Deem and Ramdas Pophale) SiO2 
 PCOD8140268
Probable space group: C 2/C
;
_chemical_formula_sum "Si O2"
_cell_formula_units_Z 56
_cell_length_a 9.396091
_cell_length_b 18.168620
_cell_length_c 20.381530
_cell_angle_alpha 90.000000
_cell_angle_beta 126.053336
_cell_angle_gamma 90.000000
_cell_volume 2812.998942
_symmetry_space_group_name_H-M "C 2/C"
_symmetry_group_IT_number 15
_symmetry_cell_setting 'monoclinic'
loop_
_space_group_symop_operation_xyz
x,y,z
-x,y,1/2-z
-x,-y,-z
x,-y,1/2+z
1/2+x,1/2+y,z
1/2-x,1/2+y,1/2-z
1/2-x,1/2-y,-z
1/2+x,1/2-y,1/2+z
loop_
_atom_site_type_symbol
_atom_site_label
_atom_site_fract_x
_atom_site_fract_y
_atom_site_fract_z
Si Si1 0.493105 0.576740 0.674157
Si Si2 0.616412 0.409705 0.580051
Si Si3 0.554087 0.590659 0.336965
Si Si4 0.248215 0.336067 0.007798
Si Si5 0.810178 0.453656 0.178772
Si Si6 0.115633 0.682001 0.033061
Si Si7 0.729591 0.341487 0.059466
O O1 0.500000 0.609083 0.750000
O O2 0.400974 0.496482 0.645318
O O3 0.400672 0.631477 0.596714
O O4 0.698114 0.566070 0.712532
O O5 0.600233 0.384811 0.652811
O O6 0.740359 0.364489 0.564204
O O7 0.697624 0.491102 0.602388
O O8 0.414720 0.402954 0.500865
O O9 0.500000 0.612739 0.250000
O O10 0.728922 0.635960 0.394425
O O11 0.250000 0.250000 0.000000
O O12 0.062485 0.356430 0.990546
O O13 0.842452 0.378002 0.147903
O O14 0.000000 0.487165 0.250000
O O15 0.127755 0.768213 0.056801
O O16 0.128748 0.678634 0.957774
#
# Coordination Sequence:
#
# PCOD8140268 Si02
#       7
#     8   8   8   8   8   8   8
#     4  10  23  41  61  89 132 163 197 263 318 356
#     4  10  21  39  65  84 124 164 199 257 306 361
#     4   9  21  41  62  90 126 163 204 257 312 363
#     4  12  23  40  63  93 123 163 210 254 309 374
#     4  11  23  38  63  92 120 161 213 250 309 373
#     4  10  22  36  64  89 118 164 212 246 304 376
#     4  10  20  41  60  87 121 163 205 254 300 364
#
# _framework density 19.907578999999998
#
# number of rings (size 3 to 8) (size 9 to 14) (size 15 to 20)
#    0.000    1.714    2.857    0.429    6.000    4.571 
#    0.000    3.571    0.000    0.000    0.000    0.000 
#    0.000    0.000    0.000    0.000    0.000    0.000 
#
# Total GULP energy -346921.255194 kJ/mol
# GULP energy per Si atom -12390.044828 kJ/mol
# Density = 1.986227 g / cm^3
# Si number density = 19.907579 Si / 1000 Ang^3
#
#
#
# Elastic Constant Matrix: (Units=GPa)
#
#
# Indices 1 2 3 4 5 6 
#
# 1 143.8106 39.2252 47.1774 0.0000 -9.9080 0.0000
# 2 39.2252 81.5642 52.6662 0.0000 -4.0235 0.0000
# 3 47.1774 52.6662 84.6785 0.0000 -15.9175 0.0000
# 4 0.0000 0.0000 0.0000 17.7024 0.0000 0.3757
# 5 -9.9080 -4.0235 -15.9175 0.0000 37.5238 0.0000
# 6 0.0000 0.0000 0.0000 0.3757 0.0000 27.8527
#
#
#
# Elastic Compliance Matrix: (Units=1/GPa)
#
#
# Indices 1 2 3 4 5 6 
#
# 1 0.008667 -0.001824 -0.003587 0.000000 0.000571 0.000000
# 2 -0.001824 0.021301 -0.012924 0.000000 -0.003680 0.000000
# 3 -0.003587 -0.012924 0.023262 0.000000 0.007535 0.000000
# 4 0.000000 0.000000 0.000000 0.056506 0.000000 -0.000762
# 5 0.000571 -0.003680 0.007535 0.000000 0.029602 0.000000
# 6 0.000000 0.000000 0.000000 -0.000762 0.000000 0.035913
#
#
# Mechanical properties :
#
#
# Convention : Reuss Voigt Hill
#
# Bulk Modulus (GPa) = 60.38304 65.35456 62.86880
# Shear Modulus (GPa) = 22.99477 28.01475 25.50476
#
# Velocity S-wave (km/s) = 3.40233 3.75539 3.58321
# Velocity P-wave (km/s) = 6.76993 7.19056 6.98341
#
# Compressibility (1/GPa) = 0.01656094
#
# Stress axis : x y z
#
# Youngs Moduli (GPa) = 115.37817 46.94684 42.98823
#
# Poissons Ratio (x) = 0.08562 0.15420
# Poissons Ratio (y) = 0.21042 0.55557
# Poissons Ratio (z) = 0.41387 0.60673
#
# Static dielectric constant tensor:
#      x y z
#    x 4.145230 0.000000 -0.217170 
#    y 0.000000 3.658480 0.000000 
#    z -0.217170 0.000000 3.493050 
# 
# 
# High freq. dielectric constant tensor:
#      x y z
#    x 1.791060 0.000000 -0.020860 
#    y 0.000000 1.770710 0.000000 
#    z -0.020860 0.000000 1.757100 
# 
# From -- ./inp_files/232771.got.cif
#   From: 2010.06.25/outbox.cif.g09.slc.cpg/sg15_117_cif.got.tgz:232771.got - 2010.06.28 07:06:18.
