data_PCOD8140168
_publ_section_title
;
Structure prediction by ZEFSAII (Michael W. Deem and Ramdas Pophale) SiO2 
 PCOD8140168
Probable space group: C 2/C
;
_chemical_formula_sum "Si O2"
_cell_formula_units_Z 36
_cell_length_a 10.120963
_cell_length_b 13.035875
_cell_length_c 16.737879
_cell_angle_alpha 90.000000
_cell_angle_beta 54.491824
_cell_angle_gamma 90.000000
_cell_volume 1797.646403
_symmetry_space_group_name_H-M "C 2/C"
_symmetry_group_IT_number 15
_symmetry_cell_setting 'monoclinic'
loop_
_space_group_symop_operation_xyz
x,y,z
-x,y,1/2-z
-x,-y,-z
x,-y,1/2+z
1/2+x,1/2+y,z
1/2-x,1/2+y,1/2-z
1/2-x,1/2-y,-z
1/2+x,1/2-y,1/2+z
loop_
_atom_site_type_symbol
_atom_site_label
_atom_site_fract_x
_atom_site_fract_y
_atom_site_fract_z
Si Si1 0.677159 0.480447 0.175617
Si Si2 0.000000 0.823206 0.750000
Si Si3 0.980516 0.495197 0.663875
Si Si4 0.425159 0.797780 0.426922
Si Si5 0.137186 0.664155 0.001269
O O1 0.500000 0.427852 0.250000
O O2 0.654300 0.603739 0.174297
O O3 0.796648 0.467026 0.209407
O O4 0.754971 0.429018 0.070778
O O5 0.027270 0.754080 0.818695
O O6 0.099467 0.582887 0.587328
O O7 0.020504 0.386709 0.608221
O O8 0.000000 0.479162 0.750000
O O9 0.250000 0.750000 0.500000
O O10 0.529497 0.782833 0.470575
O O11 0.250000 0.750000 0.000000
#
# Coordination Sequence:
#
# PCOD8140168 Si02
#       5
#     8   4   8   8   8
#     4   9  22  42  63  89 129 163 205 264 310 361
#     4  10  20  40  68  92 120 166 216 250 304 374
#     4  11  23  42  64  93 130 165 208 258 314 368
#     4  11  22  42  67  94 124 166 214 251 312 376
#     4  11  25  42  63  93 133 167 203 263 318 367
#
# _framework density 20.026185000000002
#
# number of rings (size 3 to 8) (size 9 to 14) (size 15 to 20)
#    0.667    0.889    1.111    5.333    3.111    2.667 
#    4.000    3.333    0.000    0.000    0.000    0.000 
#    0.000    0.000    0.000    0.000    0.000    0.000 
#
# Total GULP energy -223093.806447 kJ/mol
# GULP energy per Si atom -12394.100358 kJ/mol
# Density = 1.998060 g / cm^3
# Si number density = 20.026185 Si / 1000 Ang^3
#
#
#
# Elastic Constant Matrix: (Units=GPa)
#
#
# Indices 1 2 3 4 5 6 
#
# 1 161.4189 66.3453 95.3539 0.0000 17.2227 0.0000
# 2 66.3453 104.6796 45.2065 0.0000 10.6762 0.0000
# 3 95.3539 45.2065 98.2903 0.0000 14.7746 0.0000
# 4 0.0000 0.0000 0.0000 35.8596 0.0000 -3.4608
# 5 17.2227 10.6762 14.7746 0.0000 42.9954 0.0000
# 6 0.0000 0.0000 0.0000 -3.4608 0.0000 28.4220
#
#
#
# Elastic Compliance Matrix: (Units=1/GPa)
#
#
# Indices 1 2 3 4 5 6 
#
# 1 0.015923 -0.004235 -0.013391 0.000000 -0.000725 0.000000
# 2 -0.004235 0.013100 -0.001774 0.000000 -0.000947 0.000000
# 3 -0.013391 -0.001774 0.024367 0.000000 -0.002569 0.000000
# 4 0.000000 0.000000 0.000000 0.028218 0.000000 0.003436
# 5 -0.000725 -0.000947 -0.002569 0.000000 0.024667 0.000000
# 6 0.000000 0.000000 0.000000 0.003436 0.000000 0.035602
#
#
# Mechanical properties :
#
#
# Convention : Reuss Voigt Hill
#
# Bulk Modulus (GPa) = 68.54008 86.46666 77.50337
# Shear Modulus (GPa) = 26.94828 31.95427 29.45128
#
# Velocity S-wave (km/s) = 3.67229 3.99886 3.83905
# Velocity P-wave (km/s) = 7.23053 8.03690 7.64435
#
# Compressibility (1/GPa) = 0.01459000
#
# Stress axis : x y z
#
# Youngs Moduli (GPa) = 62.80037 76.33631 41.03966
#
# Poissons Ratio (x) = 0.32331 0.54955
# Poissons Ratio (y) = 0.26598 0.07280
# Poissons Ratio (z) = 0.84095 0.13541
#
# Static dielectric constant tensor:
#      x y z
#    x 3.613900 0.000000 -0.005590 
#    y 0.000000 3.751500 0.000000 
#    z -0.005590 0.000000 3.563620 
# 
# 
# High freq. dielectric constant tensor:
#      x y z
#    x 1.780820 0.000000 0.002700 
#    y 0.000000 1.783800 0.000000 
#    z 0.002700 0.000000 1.779840 
# 
# From -- ./inp_files/141398.got.cif
#   From: 2010.06.25/outbox.cif.g09.slc.cpg/sg15_71_cif.got.tgz:141398.got - 2010.06.28 07:06:18.
