data_PCOD8140352
_publ_section_title
;
Structure prediction by ZEFSAII (Michael W. Deem and Ramdas Pophale) SiO2 
 PCOD8140352
Probable space group: C 2/C
;
_chemical_formula_sum "Si O2"
_cell_formula_units_Z 48
_cell_length_a 28.286079
_cell_length_b 14.080800
_cell_length_c 12.517281
_cell_angle_alpha 90.000000
_cell_angle_beta 151.069816
_cell_angle_gamma 90.000000
_cell_volume 2411.710876
_symmetry_space_group_name_H-M "C 2/C"
_symmetry_group_IT_number 15
_symmetry_cell_setting 'monoclinic'
loop_
_space_group_symop_operation_xyz
x,y,z
-x,y,1/2-z
-x,-y,-z
x,-y,1/2+z
1/2+x,1/2+y,z
1/2-x,1/2+y,1/2-z
1/2-x,1/2-y,-z
1/2+x,1/2-y,1/2+z
loop_
_atom_site_type_symbol
_atom_site_label
_atom_site_fract_x
_atom_site_fract_y
_atom_site_fract_z
Si Si1 0.447813 0.905509 0.364324
Si Si2 0.789372 0.494997 0.421690
Si Si3 0.394864 0.843356 0.488529
Si Si4 0.190261 0.152645 0.871526
Si Si5 0.788752 0.158264 0.352966
Si Si6 0.577130 0.236220 0.993269
O O1 0.398246 0.856118 0.368163
O O2 0.530894 0.839793 0.480505
O O3 0.500000 0.000000 0.500000
O O4 0.370269 0.930062 0.120062
O O5 0.827272 0.424768 0.404909
O O6 0.753655 0.434353 0.452031
O O7 0.705519 0.562275 0.206043
O O8 0.500000 0.852036 0.750000
O O9 0.351015 0.739895 0.420677
O O10 0.100659 0.170740 0.612441
O O11 0.250000 0.250000 0.000000
O O12 0.160093 0.129400 0.933160
O O13 0.676520 0.192918 0.141884
O O14 0.500000 0.267010 0.750000
#
# Coordination Sequence:
#
# PCOD8140352 Si02
#       6
#     8   8   8   8   8   8
#     4  12  23  35  64 102 130 159 222 285 333 383
#     4  12  22  40  66  99 129 171 223 277 328 393
#     4  12  24  41  66  97 133 173 219 277 333 389
#     4  10  20  41  65  90 132 180 211 261 336 395
#     4  11  24  42  65  97 137 173 221 266 337 397
#     4  11  21  41  63  95 131 170 214 271 329 391
#
# _framework density 19.902882999999999
#
# number of rings (size 3 to 8) (size 9 to 14) (size 15 to 20)
#    0.000    0.667    6.667    5.000    0.000    0.667 
#    0.000    0.833    0.000    3.000    0.000    0.000 
#    0.000    0.000    0.000    0.000    0.000    0.000 
#
# Total GULP energy -297573.389155 kJ/mol
# GULP energy per Si atom -12398.891215 kJ/mol
# Density = 1.985758 g / cm^3
# Si number density = 19.902883 Si / 1000 Ang^3
#
#
#
# Elastic Constant Matrix: (Units=GPa)
#
#
# Indices 1 2 3 4 5 6 
#
# 1 57.8171 21.1941 4.1957 0.0000 -9.8853 0.0000
# 2 21.1941 84.1555 17.3161 0.0000 -1.6798 0.0000
# 3 4.1957 17.3161 73.6365 0.0000 -21.5188 0.0000
# 4 0.0000 0.0000 0.0000 40.9168 0.0000 -13.5169
# 5 -9.8853 -1.6798 -21.5188 0.0000 27.9197 0.0000
# 6 0.0000 0.0000 0.0000 -13.5169 0.0000 53.4905
#
#
#
# Elastic Compliance Matrix: (Units=1/GPa)
#
#
# Indices 1 2 3 4 5 6 
#
# 1 0.020717 -0.005615 0.002820 0.000000 0.009171 0.000000
# 2 -0.005615 0.014092 -0.004294 0.000000 -0.004450 0.000000
# 3 0.002820 -0.004294 0.018903 0.000000 0.015310 0.000000
# 4 0.000000 0.000000 0.000000 0.026666 0.000000 0.006738
# 5 0.009171 -0.004450 0.015310 0.000000 0.050596 0.000000
# 6 0.000000 0.000000 0.000000 0.006738 0.000000 0.020398
#
#
# Mechanical properties :
#
#
# Convention : Reuss Voigt Hill
#
# Bulk Modulus (GPa) = 25.29453 33.44677 29.37065
# Shear Modulus (GPa) = 27.97547 35.99229 31.98388
#
# Velocity S-wave (km/s) = 3.75320 4.25714 4.01309
# Velocity P-wave (km/s) = 5.61414 6.40357 6.02181
#
# Compressibility (1/GPa) = 0.03953423
#
# Stress axis : x y z
#
# Youngs Moduli (GPa) = 48.26846 70.96446 52.90091
#
# Poissons Ratio (x) = 0.39845 -0.14917
# Poissons Ratio (y) = 0.27102 0.22717
# Poissons Ratio (z) = -0.13611 0.30473
#
# Static dielectric constant tensor:
#      x y z
#    x 3.689860 0.000000 -0.267300 
#    y 0.000000 3.649160 0.000000 
#    z -0.267300 0.000000 4.116690 
# 
# 
# High freq. dielectric constant tensor:
#      x y z
#    x 1.778380 0.000000 -0.024830 
#    y 0.000000 1.772070 0.000000 
#    z -0.024830 0.000000 1.771800 
# 
# From -- ./inp_files/96379.got.cif
#   From: 2010.06.25/outbox.cif.g09.slc.cpg/sg15_49_cif.got.tgz:96379.got - 2010.06.28 07:06:18.
