data_PCOD8140063
_publ_section_title
;
Structure prediction by ZEFSAII (Michael W. Deem and Ramdas Pophale) SiO2 
 PCOD8140063
Probable space group: C 2/C
;
_chemical_formula_sum "Si O2"
_cell_formula_units_Z 60
_cell_length_a 24.805607
_cell_length_b 20.737689
_cell_length_c 12.402014
_cell_angle_alpha 90.000000
_cell_angle_beta 154.412250
_cell_angle_gamma 90.000000
_cell_volume 2755.361099
_symmetry_space_group_name_H-M "C 2/C"
_symmetry_group_IT_number 15
_symmetry_cell_setting 'monoclinic'
loop_
_space_group_symop_operation_xyz
x,y,z
-x,y,1/2-z
-x,-y,-z
x,-y,1/2+z
1/2+x,1/2+y,z
1/2-x,1/2+y,1/2-z
1/2-x,1/2-y,-z
1/2+x,1/2-y,1/2+z
loop_
_atom_site_type_symbol
_atom_site_label
_atom_site_fract_x
_atom_site_fract_y
_atom_site_fract_z
Si Si1 0.186100 0.483675 0.820252
Si Si2 0.809964 0.097059 0.133029
Si Si3 0.499124 0.078349 0.125212
Si Si4 0.261880 0.885054 0.765538
Si Si5 0.000000 0.827940 0.250000
Si Si6 0.623666 0.751447 0.543548
Si Si7 0.331271 0.808630 0.273310
Si Si8 0.506291 0.700795 0.994342
O O1 0.087727 0.538598 0.612780
O O2 0.212315 0.447773 0.757071
O O3 0.137243 0.433095 0.823257
O O4 0.308004 0.522900 0.086210
O O5 0.719848 0.099398 0.075155
O O6 0.948143 0.126234 0.406908
O O7 0.759475 0.144199 0.951337
O O8 0.500000 0.053241 0.250000
O O9 0.451194 0.152289 0.036467
O O10 0.117879 0.871254 0.487320
O O11 0.356194 0.827756 0.902942
O O12 0.967296 0.786771 0.298742
O O13 0.751243 0.723272 0.725067
O O14 0.606125 0.716948 0.627736
O O15 0.500000 0.737768 0.250000
O O16 0.379887 0.751710 0.281296
#
# Coordination Sequence:
#
# PCOD8140063 Si02
#       8
#     8   8   8   8   4   8   8   8
#     4  10  22  40  61  92 122 176 233 262 326 401
#     4  10  20  40  66  86 134 167 215 288 313 392
#     4  10  22  37  60  91 132 166 208 285 334 384
#     4  11  23  42  63  93 128 176 224 266 337 401
#     4  10  24  42  60  88 132 178 206 266 340 396
#     4  12  23  37  69 101 128 176 225 273 333 406
#     4  11  21  39  61  98 131 166 217 273 340 392
#     4  11  22  40  62  95 133 172 216 273 339 400
#
# _framework density 21.775729999999999
#
# number of rings (size 3 to 8) (size 9 to 14) (size 15 to 20)
#    0.000    1.333    4.000    2.800    0.933    4.267 
#    0.000    5.333    0.000    0.000    0.000    0.000 
#    0.000    0.000    0.000    0.000    0.000    0.000 
#
# Total GULP energy -371812.337914 kJ/mol
# GULP energy per Si atom -12393.744597 kJ/mol
# Density = 2.172617 g / cm^3
# Si number density = 21.775730 Si / 1000 Ang^3
#
#
#
# Elastic Constant Matrix: (Units=GPa)
#
#
# Indices 1 2 3 4 5 6 
#
# 1 113.9033 45.3715 1.9007 0.0000 -1.3616 0.0000
# 2 45.3715 111.4864 18.0263 0.0000 3.5314 0.0000
# 3 1.9007 18.0263 36.4207 0.0000 -3.6631 0.0000
# 4 0.0000 0.0000 0.0000 27.0212 0.0000 -9.1751
# 5 -1.3616 3.5314 -3.6631 0.0000 31.4923 0.0000
# 6 0.0000 0.0000 0.0000 -9.1751 0.0000 27.1113
#
#
#
# Elastic Compliance Matrix: (Units=1/GPa)
#
#
# Indices 1 2 3 4 5 6 
#
# 1 0.010620 -0.004663 0.001874 0.000000 0.001200 0.000000
# 2 -0.004663 0.011885 -0.005862 0.000000 -0.002216 0.000000
# 3 0.001874 -0.005862 0.030694 0.000000 0.004309 0.000000
# 4 0.000000 0.000000 0.000000 0.041813 0.000000 0.014150
# 5 0.001200 -0.002216 0.004309 0.000000 0.032555 0.000000
# 6 0.000000 0.000000 0.000000 0.014150 0.000000 0.041674
#
#
# Mechanical properties :
#
#
# Convention : Reuss Voigt Hill
#
# Bulk Modulus (GPa) = 27.85699 43.60082 35.72890
# Shear Modulus (GPa) = 25.18780 30.22575 27.70678
#
# Velocity S-wave (km/s) = 3.40471 3.72969 3.57090
# Velocity P-wave (km/s) = 5.31756 6.21399 5.78317
#
# Compressibility (1/GPa) = 0.03589764
#
# Stress axis : x y z
#
# Youngs Moduli (GPa) = 94.16283 84.13616 32.57970
#
# Poissons Ratio (x) = 0.39233 -0.06107
# Poissons Ratio (y) = 0.43909 0.19099
# Poissons Ratio (z) = -0.17650 0.49323
#
# Static dielectric constant tensor:
#      x y z
#    x 4.082080 0.000000 -0.164810 
#    y 0.000000 4.110220 0.000000 
#    z -0.164810 0.000000 3.883220 
# 
# 
# High freq. dielectric constant tensor:
#      x y z
#    x 1.862890 0.000000 -0.015700 
#    y 0.000000 1.849400 0.000000 
#    z -0.015700 0.000000 1.836340 
# 
# From -- ./inp_files/119933.got.cif
#   From: 2010.06.25/outbox.cif.g09.slc.cpg/sg15_60_cif.got.tgz:119933.got - 2010.06.28 07:06:18.
