data_PCOD8140404
_publ_section_title
;
Structure prediction by ZEFSAII (Michael W. Deem and Ramdas Pophale) SiO2 
 PCOD8140404
Probable space group: C 2/C
;
_chemical_formula_sum "Si O2"
_cell_formula_units_Z 48
_cell_length_a 8.677979
_cell_length_b 20.504110
_cell_length_c 13.871848
_cell_angle_alpha 90.000000
_cell_angle_beta 87.672171
_cell_angle_gamma 90.000000
_cell_volume 2466.239817
_symmetry_space_group_name_H-M "C 2/C"
_symmetry_group_IT_number 15
_symmetry_cell_setting 'monoclinic'
loop_
_space_group_symop_operation_xyz
x,y,z
-x,y,1/2-z
-x,-y,-z
x,-y,1/2+z
1/2+x,1/2+y,z
1/2-x,1/2+y,1/2-z
1/2-x,1/2-y,-z
1/2+x,1/2-y,1/2+z
loop_
_atom_site_type_symbol
_atom_site_label
_atom_site_fract_x
_atom_site_fract_y
_atom_site_fract_z
Si Si1 0.111710 0.219562 0.944601
Si Si2 0.173116 0.909863 0.352423
Si Si3 0.818257 0.932411 0.361379
Si Si4 0.302150 0.676615 0.013330
Si Si5 0.855430 0.542134 0.028856
Si Si6 0.977928 0.653463 0.361598
O O1 0.178390 0.167787 0.867630
O O2 0.026207 0.272663 0.881743
O O3 0.250000 0.250000 0.000000
O O4 0.989217 0.181783 0.019547
O O5 0.244531 0.923053 0.245460
O O6 0.273543 0.944580 0.430245
O O7 0.001618 0.938064 0.361320
O O8 0.759733 0.870169 0.424372
O O9 0.756942 0.001535 0.399729
O O10 0.204846 0.646282 0.105663
O O11 0.250000 0.750000 0.000000
O O12 0.908692 0.608234 0.079080
O O13 0.000000 0.500000 0.000000
O O14 0.000000 0.635537 0.250000
#
# Coordination Sequence:
#
# PCOD8140404 Si02
#       6
#     8   8   8   8   8   8
#     4  10  20  41  67  90 123 162 212 269 316 364
#     4  10  23  41  65  92 120 166 216 262 316 383
#     4  10  22  40  66  89 122 170 211 257 322 383
#     4   9  20  38  61  88 125 160 204 257 312 369
#     4  12  24  40  60  90 132 165 208 263 315 380
#     4  11  24  40  62  92 129 171 205 258 321 377
#
# _framework density 19.462826
#
# number of rings (size 3 to 8) (size 9 to 14) (size 15 to 20)
#    0.000    1.667    3.333    0.500    9.333    0.000 
#    0.000    0.833    0.000    0.000    0.000    0.000 
#    0.000    0.000    0.000    0.000    0.000    0.000 
#
# Total GULP energy -297484.424828 kJ/mol
# GULP energy per Si atom -12395.184368 kJ/mol
# Density = 1.941853 g / cm^3
# Si number density = 19.462826 Si / 1000 Ang^3
#
#
#
# Elastic Constant Matrix: (Units=GPa)
#
#
# Indices 1 2 3 4 5 6 
#
# 1 87.5305 37.5208 71.0669 0.0000 3.6839 0.0000
# 2 37.5208 105.2658 51.3638 0.0000 -1.5527 0.0000
# 3 71.0669 51.3638 166.1445 0.0000 -2.6843 0.0000
# 4 0.0000 0.0000 0.0000 27.7382 0.0000 -1.8501
# 5 3.6839 -1.5527 -2.6843 0.0000 30.4331 0.0000
# 6 0.0000 0.0000 0.0000 -1.8501 0.0000 37.7459
#
#
#
# Elastic Compliance Matrix: (Units=1/GPa)
#
#
# Indices 1 2 3 4 5 6 
#
# 1 0.018650 -0.003269 -0.007016 0.000000 -0.003043 0.000000
# 2 -0.003269 0.011763 -0.002225 0.000000 0.000800 0.000000
# 3 -0.007016 -0.002225 0.009734 0.000000 0.001594 0.000000
# 4 0.000000 0.000000 0.000000 0.036170 0.000000 0.001773
# 5 -0.003043 0.000800 0.001594 0.000000 0.033409 0.000000
# 6 0.000000 0.000000 0.000000 0.001773 0.000000 0.026580
#
#
# Mechanical properties :
#
#
# Convention : Reuss Voigt Hill
#
# Bulk Modulus (GPa) = 66.11208 75.42711 70.76960
# Shear Modulus (GPa) = 30.05392 32.44938 31.25165
#
# Velocity S-wave (km/s) = 3.93386 4.08763 4.01148
# Velocity P-wave (km/s) = 7.39431 7.81773 7.60896
#
# Compressibility (1/GPa) = 0.01512583
#
# Stress axis : x y z
#
# Youngs Moduli (GPa) = 53.61797 85.01553 102.73712
#
# Poissons Ratio (x) = 0.27793 0.72081
# Poissons Ratio (y) = 0.17529 0.22860
# Poissons Ratio (z) = 0.37619 0.18917
#
# Static dielectric constant tensor:
#      x y z
#    x 3.885500 0.000000 -0.225040 
#    y 0.000000 3.508310 0.000000 
#    z -0.225040 0.000000 3.651570 
# 
# 
# High freq. dielectric constant tensor:
#      x y z
#    x 1.762330 0.000000 -0.012710 
#    y 0.000000 1.772300 0.000000 
#    z -0.012710 0.000000 1.744740 
# 
# From -- ./inp_files/79246.got.cif
#   From: 2010.06.25/outbox.cif.g09.slc.cpg/sg15_40_cif.got.tgz:79246.got - 2010.06.28 07:06:18.
