data_PCOD8140814
_publ_section_title
;
Structure prediction by ZEFSAII (Michael W. Deem and Ramdas Pophale) SiO2 
 PCOD8140814
Probable space group: C 2/C
;
_chemical_formula_sum "Si O2"
_cell_formula_units_Z 44
_cell_length_a 11.131614
_cell_length_b 14.614022
_cell_length_c 11.899204
_cell_angle_alpha 90.000000
_cell_angle_beta 99.684602
_cell_angle_gamma 90.000000
_cell_volume 1908.147860
_symmetry_space_group_name_H-M "C 2/C"
_symmetry_group_IT_number 15
_symmetry_cell_setting 'monoclinic'
loop_
_space_group_symop_operation_xyz
x,y,z
-x,y,1/2-z
-x,-y,-z
x,-y,1/2+z
1/2+x,1/2+y,z
1/2-x,1/2+y,1/2-z
1/2-x,1/2-y,-z
1/2+x,1/2-y,1/2+z
loop_
_atom_site_type_symbol
_atom_site_label
_atom_site_fract_x
_atom_site_fract_y
_atom_site_fract_z
Si Si1 0.365091 0.659930 0.418976
Si Si2 0.874234 0.239942 0.645309
Si Si3 0.252718 0.020284 0.242931
Si Si4 0.000000 0.398448 0.750000
Si Si5 0.871744 0.843209 0.613074
Si Si6 0.793270 0.824863 0.348712
O O1 0.273141 0.744456 0.382381
O O2 0.408571 0.664859 0.556304
O O3 0.297417 0.564518 0.381272
O O4 0.481867 0.667690 0.354706
O O5 0.943652 0.336459 0.639479
O O6 0.901125 0.211313 0.781446
O O7 0.394125 0.041799 0.288803
O O8 0.173896 0.064047 0.332646
O O9 0.251654 0.911772 0.230340
O O10 0.840847 0.853719 0.476943
O O11 0.809265 0.753802 0.656853
#
# Coordination Sequence:
#
# PCOD8140814 Si02
#       6
#     8   8   8   4   8   8
#     4  10  22  41  68  97 135 172 223 276 324 395
#     4  10  21  41  68  96 130 182 217 266 340 395
#     4  11  25  43  65 101 130 173 224 279 326 399
#     4  10  20  44  64  92 136 168 220 274 328 392
#     4  11  24  47  66  97 139 172 224 277 334 401
#     4  11  25  43  70  97 133 180 221 270 343 389
#
# _framework density 23.059010000000001
#
# number of rings (size 3 to 8) (size 9 to 14) (size 15 to 20)
#    0.000    1.455    3.636    1.636    5.091    2.182 
#    6.545    0.909    0.000    0.000    0.000    0.000 
#    0.000    0.000    0.000    0.000    0.000    0.000 
#
# Total GULP energy -272602.363401 kJ/mol
# GULP energy per Si atom -12391.016518 kJ/mol
# Density = 2.300653 g / cm^3
# Si number density = 23.059010 Si / 1000 Ang^3
#
#
#
# Elastic Constant Matrix: (Units=GPa)
#
#
# Indices 1 2 3 4 5 6 
#
# 1 110.9387 41.3860 6.5583 0.0000 -25.6812 0.0000
# 2 41.3860 120.9072 35.5018 0.0000 -14.4106 0.0000
# 3 6.5583 35.5018 98.1879 0.0000 -28.9048 0.0000
# 4 0.0000 0.0000 0.0000 32.4730 0.0000 5.7288
# 5 -25.6812 -14.4106 -28.9048 0.0000 31.6238 0.0000
# 6 0.0000 0.0000 0.0000 5.7288 0.0000 19.7254
#
#
#
# Elastic Compliance Matrix: (Units=1/GPa)
#
#
# Indices 1 2 3 4 5 6 
#
# 1 0.013382 -0.004355 0.004509 0.000000 0.013005 0.000000
# 2 -0.004355 0.010729 -0.004365 0.000000 -0.002637 0.000000
# 3 0.004509 -0.004365 0.016354 0.000000 0.016621 0.000000
# 4 0.000000 0.000000 0.000000 0.032458 0.000000 -0.009427
# 5 0.013005 -0.002637 0.016621 0.000000 0.056173 0.000000
# 6 0.000000 0.000000 0.000000 -0.009427 0.000000 0.053434
#
#
# Mechanical properties :
#
#
# Convention : Reuss Voigt Hill
#
# Bulk Modulus (GPa) = 31.20606 55.21399 43.21002
# Shear Modulus (GPa) = 24.79763 33.20363 29.00063
#
# Velocity S-wave (km/s) = 3.28288 3.79877 3.55021
# Velocity P-wave (km/s) = 5.28510 6.57553 5.96531
#
# Compressibility (1/GPa) = 0.03204506
#
# Stress axis : x y z
#
# Youngs Moduli (GPa) = 74.72506 93.20799 61.14551
#
# Poissons Ratio (x) = 0.40590 -0.27571
# Poissons Ratio (y) = 0.32541 0.26687
# Poissons Ratio (z) = -0.33694 0.40681
#
# Static dielectric constant tensor:
#      x y z
#    x 4.413140 0.000000 0.005820 
#    y 0.000000 3.829580 0.000000 
#    z 0.005820 0.000000 4.363730 
# 
# 
# High freq. dielectric constant tensor:
#      x y z
#    x 1.933840 0.000000 0.001320 
#    y 0.000000 1.884890 0.000000 
#    z 0.001320 0.000000 1.917710 
# 
# From -- ./inp_files/86159.got.cif
#   From: 2010.06.25/outbox.cif.g09.slc.cpg/sg15_44_cif.got.tgz:86159.got - 2010.06.28 07:06:18.
