data_PCOD8140013
_publ_section_title
;
Structure prediction by ZEFSAII (Michael W. Deem and Ramdas Pophale) SiO2 
 PCOD8140013
Probable space group: C 2/C
;
_chemical_formula_sum "Si O2"
_cell_formula_units_Z 48
_cell_length_a 17.461899
_cell_length_b 15.033709
_cell_length_c 17.502023
_cell_angle_alpha 90.000000
_cell_angle_beta 147.478282
_cell_angle_gamma 90.000000
_cell_volume 2470.134939
_symmetry_space_group_name_H-M "C 2/C"
_symmetry_group_IT_number 15
_symmetry_cell_setting 'monoclinic'
loop_
_space_group_symop_operation_xyz
x,y,z
-x,y,1/2-z
-x,-y,-z
x,-y,1/2+z
1/2+x,1/2+y,z
1/2-x,1/2+y,1/2-z
1/2-x,1/2-y,-z
1/2+x,1/2-y,1/2+z
loop_
_atom_site_type_symbol
_atom_site_label
_atom_site_fract_x
_atom_site_fract_y
_atom_site_fract_z
Si Si1 0.789851 0.428879 0.973438
Si Si2 0.802501 0.445069 0.349302
Si Si3 0.007038 0.724606 0.907397
Si Si4 0.500000 0.665684 0.250000
Si Si5 0.000000 0.470988 0.750000
Si Si6 0.593594 0.903444 0.666719
Si Si7 0.809586 0.782013 0.307428
O O1 0.750310 0.504205 0.880025
O O2 0.641953 0.390933 0.877376
O O3 0.891045 0.360840 0.013064
O O4 0.869768 0.466701 0.114733
O O5 0.815383 0.511712 0.286861
O O6 0.677862 0.370711 0.233828
O O7 0.954162 0.397248 0.495310
O O8 0.999127 0.772977 0.821543
O O9 0.846270 0.699632 0.789570
O O10 0.072320 0.788176 0.027356
O O11 0.053132 0.412755 0.722296
O O12 0.679534 0.810640 0.730141
#
# Coordination Sequence:
#
# PCOD8140013 Si02
#       7
#     8   8   8   4   4   8   8
#     4  11  23  43  60  93 126 167 203 254 311 372
#     4  10  20  40  65  84 126 165 205 252 306 366
#     4  12  23  38  63  92 127 159 205 255 314 368
#     4  12  25  38  57  98 136 152 200 265 317 362
#     4  10  23  38  69  86 118 172 210 245 309 370
#     4  10  20  41  62  93 119 161 214 254 298 375
#     4  12  22  40  66  93 119 168 211 252 305 368
#
# _framework density 19.432137000000001
#
# number of rings (size 3 to 8) (size 9 to 14) (size 15 to 20)
#    0.000    1.000    5.000    3.000    4.667    0.000 
#    3.000    5.833    0.000    0.000    0.000    0.000 
#    0.000    0.000    0.000    0.000    0.000    0.000 
#
# Total GULP energy -297545.004347 kJ/mol
# GULP energy per Si atom -12397.708514 kJ/mol
# Density = 1.938791 g / cm^3
# Si number density = 19.432137 Si / 1000 Ang^3
#
#
#
# Elastic Constant Matrix: (Units=GPa)
#
#
# Indices 1 2 3 4 5 6 
#
# 1 77.3100 35.9305 27.3133 0.0001 -13.5961 -0.0001
# 2 35.9305 132.1287 33.3213 0.0003 -14.1830 0.0000
# 3 27.3133 33.3213 75.6264 0.0004 -18.4427 -0.0001
# 4 0.0001 0.0003 0.0004 59.4037 0.0000 23.7988
# 5 -13.5961 -14.1830 -18.4427 0.0000 35.8527 -0.0003
# 6 -0.0001 0.0000 -0.0001 23.7988 -0.0003 38.0201
#
#
#
# Elastic Compliance Matrix: (Units=1/GPa)
#
#
# Indices 1 2 3 4 5 6 
#
# 1 0.016251 -0.003152 -0.003752 0.000000 0.002985 0.000000
# 2 -0.003152 0.009212 -0.002656 0.000000 0.001082 0.000000
# 3 -0.003752 -0.002656 0.017318 0.000000 0.006434 0.000000
# 4 0.000000 0.000000 0.000000 0.022468 0.000000 -0.014064
# 5 0.002985 0.001082 0.006434 0.000000 0.032762 0.000000
# 6 0.000000 0.000000 0.000000 -0.014064 0.000000 0.035105
#
#
# Mechanical properties :
#
#
# Convention : Reuss Voigt Hill
#
# Bulk Modulus (GPa) = 42.26846 53.13281 47.70063
# Shear Modulus (GPa) = 31.22589 39.22197 35.22393
#
# Velocity S-wave (km/s) = 4.01299 4.49754 4.26216
# Velocity P-wave (km/s) = 6.57808 7.37378 6.98727
#
# Compressibility (1/GPa) = 0.02365830
#
# Stress axis : x y z
#
# Youngs Moduli (GPa) = 61.53584 108.55782 57.74500
#
# Poissons Ratio (x) = 0.34222 0.21666
# Poissons Ratio (y) = 0.19399 0.15339
# Poissons Ratio (z) = 0.23089 0.28836
#
# Static dielectric constant tensor:
#      x y z
#    x 3.278940 0.000010 -0.063800 
#    y 0.000010 3.193920 0.000000 
#    z -0.063800 0.000000 3.608210 
# 
# 
# High freq. dielectric constant tensor:
#      x y z
#    x 1.753940 0.000000 -0.013870 
#    y 0.000000 1.757960 0.000000 
#    z -0.013870 0.000000 1.754510 
# 
# From -- ./inp_files/66446.got.cif
#   From: 2010.06.25/outbox.cif.g09.slc.cpg/sg15_34_cif.got.tgz:66446.got - 2010.06.28 07:06:18.
