data_PCOD8140978
_publ_section_title
;
Structure prediction by ZEFSAII (Michael W. Deem and Ramdas Pophale) SiO2 
 PCOD8140978
Probable space group: C 2/C
;
_chemical_formula_sum "Si O2"
_cell_formula_units_Z 40
_cell_length_a 19.241892
_cell_length_b 5.156017
_cell_length_c 25.454076
_cell_angle_alpha 90.000000
_cell_angle_beta 123.314440
_cell_angle_gamma 90.000000
_cell_volume 2110.346287
_symmetry_space_group_name_H-M "C 2/C"
_symmetry_group_IT_number 15
_symmetry_cell_setting 'monoclinic'
loop_
_space_group_symop_operation_xyz
x,y,z
-x,y,1/2-z
-x,-y,-z
x,-y,1/2+z
1/2+x,1/2+y,z
1/2-x,1/2+y,1/2-z
1/2-x,1/2-y,-z
1/2+x,1/2-y,1/2+z
loop_
_atom_site_type_symbol
_atom_site_label
_atom_site_fract_x
_atom_site_fract_y
_atom_site_fract_z
Si Si1 0.073356 0.034224 0.320647
Si Si2 0.662621 0.953176 0.879724
Si Si3 0.053566 0.222872 0.915591
Si Si4 0.925803 0.543079 0.429427
Si Si5 0.145797 0.945169 0.556486
O O1 0.136893 0.272868 0.344813
O O2 0.000000 0.088239 0.250000
O O3 0.125083 0.774774 0.326804
O O4 0.035358 0.996373 0.363760
O O5 0.624279 0.919753 0.922691
O O6 0.760789 0.926302 0.925305
O O7 0.968223 0.383567 0.891174
O O8 0.084207 0.084734 0.981434
O O9 0.871991 0.277849 0.406958
O O10 0.000000 0.500000 0.500000
O O11 0.866509 0.776230 0.422763
#
# Coordination Sequence:
#
# PCOD8140978 Si02
#       5
#     8   8   8   8   8
#     4  10  22  37  58  82 107 149 198 234 266 327
#     4  10  22  35  59  83 113 142 185 238 281 316
#     4   9  22  34  60  83 112 148 183 223 278 337
#     4  10  21  34  54  83 121 149 174 216 283 354
#     4  11  21  35  56  89 120 138 177 231 292 341
#
# _framework density 18.954234
#
# number of rings (size 3 to 8) (size 9 to 14) (size 15 to 20)
#    1.200    0.800    0.000    4.800    8.400    0.800 
#    0.000    0.000    0.000    4.800    0.000    0.000 
#    0.000    0.000    0.000    0.000    0.000    0.000 
#
# Total GULP energy -247834.414282 kJ/mol
# GULP energy per Si atom -12391.720714 kJ/mol
# Density = 1.891109 g / cm^3
# Si number density = 18.954234 Si / 1000 Ang^3
#
#
#
# Elastic Constant Matrix: (Units=GPa)
#
#
# Indices 1 2 3 4 5 6 
#
# 1 106.2441 24.9816 18.4954 0.0009 5.9978 0.0033
# 2 24.9816 123.9538 16.3856 -0.0001 1.1698 0.0059
# 3 18.4954 16.3856 54.8051 -0.0002 -0.0975 0.0007
# 4 0.0009 -0.0001 -0.0002 19.0435 0.0009 12.7225
# 5 5.9978 1.1698 -0.0975 0.0009 6.3676 -0.0005
# 6 0.0033 0.0059 0.0007 12.7225 -0.0005 25.1707
#
#
#
# Elastic Compliance Matrix: (Units=1/GPa)
#
#
# Indices 1 2 3 4 5 6 
#
# 1 0.010933 -0.001685 -0.003204 0.000001 -0.010038 -0.000002
# 2 -0.001685 0.008675 -0.002025 0.000002 -0.000037 -0.000003
# 3 -0.003204 -0.002025 0.019940 0.000000 0.003695 0.000000
# 4 0.000001 0.000002 0.000000 0.079284 -0.000015 -0.040074
# 5 -0.010038 -0.000037 0.003695 -0.000015 0.166564 0.000012
# 6 -0.000002 -0.000003 0.000000 -0.040074 0.000012 0.059984
#
#
# Mechanical properties :
#
#
# Convention : Reuss Voigt Hill
#
# Bulk Modulus (GPa) = 38.88024 44.96979 41.92502
# Shear Modulus (GPa) = 13.59503 25.12571 19.36037
#
# Velocity S-wave (km/s) = 2.68107 3.64483 3.19944
# Velocity P-wave (km/s) = 5.49012 6.44127 5.98462
#
# Compressibility (1/GPa) = 0.02572001
#
# Stress axis : x y z
#
# Youngs Moduli (GPa) = 91.46720 115.27102 50.15133
#
# Poissons Ratio (x) = 0.19425 0.16067
# Poissons Ratio (y) = 0.15414 0.10156
# Poissons Ratio (z) = 0.29303 0.23343
#
# Static dielectric constant tensor:
#      x y z
#    x 3.768580 0.000000 0.014660 
#    y 0.000000 3.784320 0.000000 
#    z 0.014660 0.000000 2.951720 
# 
# 
# High freq. dielectric constant tensor:
#      x y z
#    x 1.738990 0.000000 0.010050 
#    y 0.000000 1.753890 0.000000 
#    z 0.010050 0.000000 1.681340 
# 
# From -- ./inp_files/297571.got.cif
#   From: 2010.06.25/outbox.cif.g09.slc.cpg/sg15_149_cif.got.tgz:297571.got - 2010.06.28 07:06:18.
