data_PCOD8140392
_publ_section_title
;
Structure prediction by ZEFSAII (Michael W. Deem and Ramdas Pophale) SiO2 
 PCOD8140392
Probable space group: C 2/C
;
_chemical_formula_sum "Si O2"
_cell_formula_units_Z 48
_cell_length_a 5.297603
_cell_length_b 25.478907
_cell_length_c 14.763797
_cell_angle_alpha 90.000000
_cell_angle_beta 99.220211
_cell_angle_gamma 90.000000
_cell_volume 1967.027968
_symmetry_space_group_name_H-M "C 2/C"
_symmetry_group_IT_number 15
_symmetry_cell_setting 'monoclinic'
loop_
_space_group_symop_operation_xyz
x,y,z
-x,y,1/2-z
-x,-y,-z
x,-y,1/2+z
1/2+x,1/2+y,z
1/2-x,1/2+y,1/2-z
1/2-x,1/2-y,-z
1/2+x,1/2-y,1/2+z
loop_
_atom_site_type_symbol
_atom_site_label
_atom_site_fract_x
_atom_site_fract_y
_atom_site_fract_z
Si Si1 0.682310 0.891470 0.602763
Si Si2 0.000000 0.633178 0.750000
Si Si3 0.500000 0.044956 0.250000
Si Si4 0.874679 0.911533 0.005865
Si Si5 0.926808 0.721674 0.438989
Si Si6 0.308647 0.315060 0.109981
Si Si7 0.657898 0.457214 0.168215
O O1 0.683557 0.918215 0.700912
O O2 0.427501 0.910721 0.533419
O O3 0.698300 0.828484 0.617671
O O4 0.947282 0.908308 0.571771
O O5 0.837391 0.672241 0.805087
O O6 0.830962 0.595613 0.676341
O O7 0.334796 0.008813 0.172557
O O8 0.956640 0.866509 0.084160
O O9 0.965399 0.961738 0.071013
O O10 0.750000 0.750000 0.500000
O O11 0.153122 0.698317 0.510914
O O12 0.008302 0.764128 0.366193
O O13 0.500000 0.458337 0.250000
#
# Coordination Sequence:
#
# PCOD8140392 Si02
#       7
#     8   4   4   8   8   8   8
#     4  11  26  47  72 102 148 191 238 293 353 432
#     4  11  22  40  66 106 142 172 234 309 362 410
#     4  11  30  48  66 104 144 190 232 305 360 422
#     4  11  23  45  74 102 138 189 239 291 359 421
#     4  10  20  41  66  95 139 187 232 281 339 432
#     4  10  21  38  65 104 136 179 230 290 354 413
#     4  11  24  44  71 100 140 181 238 307 360 417
#
# _framework density 24.402297000000001
#
# number of rings (size 3 to 8) (size 9 to 14) (size 15 to 20)
#    0.000    1.333    3.333    2.000    4.667    1.333 
#    3.000    0.000    0.000    0.000    0.000    0.000 
#    0.000    0.000    0.000    0.000    0.000    0.000 
#
# Total GULP energy -297411.899711 kJ/mol
# GULP energy per Si atom -12392.162488 kJ/mol
# Density = 2.434676 g / cm^3
# Si number density = 24.402297 Si / 1000 Ang^3
#
#
#
# Elastic Constant Matrix: (Units=GPa)
#
#
# Indices 1 2 3 4 5 6 
#
# 1 81.5914 12.1790 7.8016 0.0000 -23.6649 0.0000
# 2 12.1790 97.4032 35.2179 0.0000 -22.3715 0.0000
# 3 7.8016 35.2179 80.4281 0.0000 -38.9821 0.0000
# 4 0.0000 0.0000 0.0000 27.4731 0.0000 -20.2692
# 5 -23.6649 -22.3715 -38.9821 0.0000 54.8870 0.0000
# 6 0.0000 0.0000 0.0000 -20.2692 0.0000 -38.4426
#
#
#
# Elastic Compliance Matrix: (Units=1/GPa)
#
#
# Indices 1 2 3 4 5 6 
#
# 1 0.014403 -0.001035 0.002839 0.000000 0.007804 0.000000
# 2 -0.001035 0.012389 -0.004717 0.000000 0.001253 0.000000
# 3 0.002839 -0.004717 0.021174 0.000000 0.014339 0.000000
# 4 0.000000 0.000000 0.000000 0.026205 0.000000 -0.013817
# 5 0.007804 0.001253 0.014339 0.000000 0.032279 0.000000
# 6 0.000000 0.000000 0.000000 -0.013817 0.000000 -0.018728
#
#
# Mechanical properties :
#
#
# Convention : Reuss Voigt Hill
#
# Bulk Modulus (GPa) = 23.73101 41.09107 32.41104
# Shear Modulus (GPa) = 46.47027 22.39845 34.43436
#
# Velocity S-wave (km/s) = 4.36861 3.03294 3.76055
# Velocity P-wave (km/s) = 5.93231 5.39820 5.67155
#
# Compressibility (1/GPa) = 0.04213896
#
# Stress axis : x y z
#
# Youngs Moduli (GPa) = 69.43125 80.71379 47.22848
#
# Poissons Ratio (x) = 0.08352 -0.13406
# Poissons Ratio (y) = 0.07184 0.22279
# Poissons Ratio (z) = -0.19708 0.38074
#
# Static dielectric constant tensor:
#      x y z
#    x 4.480110 0.000000 0.068260 
#    y 0.000000 4.783370 0.000000 
#    z 0.068260 0.000000 4.080880 
# 
# 
# High freq. dielectric constant tensor:
#      x y z
#    x 1.970350 0.000000 -0.008250 
#    y 0.000000 1.985280 0.000000 
#    z -0.008250 0.000000 1.950650 
# 
# From -- ./inp_files/130080.got.cif
#   From: 2010.06.25/outbox.cif.g09.slc.cpg/sg15_66_cif.got.tgz:130080.got - 2010.06.28 07:06:18.
