data_PCOD8140416
_publ_section_title
;
Structure prediction by ZEFSAII (Michael W. Deem and Ramdas Pophale) SiO2 
 PCOD8140416
Probable space group: C 2/C
;
_chemical_formula_sum "Si O2"
_cell_formula_units_Z 40
_cell_length_a 7.653920
_cell_length_b 13.402268
_cell_length_c 18.659011
_cell_angle_alpha 90.000000
_cell_angle_beta 95.422461
_cell_angle_gamma 90.000000
_cell_volume 1905.473908
_symmetry_space_group_name_H-M "C 2/C"
_symmetry_group_IT_number 15
_symmetry_cell_setting 'monoclinic'
loop_
_space_group_symop_operation_xyz
x,y,z
-x,y,1/2-z
-x,-y,-z
x,-y,1/2+z
1/2+x,1/2+y,z
1/2-x,1/2+y,1/2-z
1/2-x,1/2-y,-z
1/2+x,1/2-y,1/2+z
loop_
_atom_site_type_symbol
_atom_site_label
_atom_site_fract_x
_atom_site_fract_y
_atom_site_fract_z
Si Si1 0.866117 0.842113 0.025998
Si Si2 0.221460 0.499561 0.113098
Si Si3 0.026779 0.118624 0.673923
Si Si4 0.077269 0.622568 0.829102
Si Si5 0.649947 0.696568 0.432995
O O1 0.746142 0.939136 0.038523
O O2 0.975680 0.812343 0.103275
O O3 0.750000 0.750000 0.000000
O O4 0.992676 0.866569 0.963973
O O5 0.389921 0.474574 0.170302
O O6 0.219840 0.618295 0.100716
O O7 0.038555 0.465924 0.141209
O O8 0.225645 0.081344 0.671281
O O9 0.000000 0.174460 0.750000
O O10 0.070693 0.723230 0.875385
O O11 0.000000 0.653986 0.750000
O O12 0.750000 0.750000 0.500000
#
# Coordination Sequence:
#
# PCOD8140416 Si02
#       5
#     8   8   8   8   8
#     4  10  20  41  67  96 135 176 226 284 344 404
#     4  10  24  41  68  96 134 179 228 279 355 401
#     4  10  21  42  68  91 135 179 223 285 345 411
#     4  12  23  44  69  97 140 181 230 289 348 417
#     4  12  23  43  66 103 136 177 232 284 343 413
#
# _framework density 20.992153999999999
#
# number of rings (size 3 to 8) (size 9 to 14) (size 15 to 20)
#    1.200    0.000    6.000    0.600    0.000    1.600 
#    3.600    1.000    0.000    0.000    0.000    0.000 
#    0.000    0.000    0.000    0.000    0.000    0.000 
#
# Total GULP energy -247816.558478 kJ/mol
# GULP energy per Si atom -12390.827924 kJ/mol
# Density = 2.094438 g / cm^3
# Si number density = 20.992154 Si / 1000 Ang^3
#
#
#
# Elastic Constant Matrix: (Units=GPa)
#
#
# Indices 1 2 3 4 5 6 
#
# 1 160.7238 38.6177 51.2122 0.0000 -8.2503 0.0000
# 2 38.6177 90.2944 53.7224 0.0000 1.2264 0.0000
# 3 51.2122 53.7224 130.7526 0.0000 -1.6843 0.0000
# 4 0.0000 0.0000 0.0000 23.9758 0.0000 -5.0256
# 5 -8.2503 1.2264 -1.6843 0.0000 42.6006 0.0000
# 6 0.0000 0.0000 0.0000 -5.0256 0.0000 32.6449
#
#
#
# Elastic Compliance Matrix: (Units=1/GPa)
#
#
# Indices 1 2 3 4 5 6 
#
# 1 0.007429 -0.001954 -0.002089 0.000000 0.001412 0.000000
# 2 -0.001954 0.015191 -0.005489 0.000000 -0.001033 0.000000
# 3 -0.002089 -0.005489 0.010724 0.000000 0.000177 0.000000
# 4 0.000000 0.000000 0.000000 0.043100 0.000000 0.006635
# 5 0.001412 -0.001033 0.000177 0.000000 0.023784 0.000000
# 6 0.000000 0.000000 0.000000 0.006635 0.000000 0.031654
#
#
# Mechanical properties :
#
#
# Convention : Reuss Voigt Hill
#
# Bulk Modulus (GPa) = 70.02990 74.31948 72.17469
# Shear Modulus (GPa) = 32.11181 35.72548 33.91865
#
# Velocity S-wave (km/s) = 3.91539 4.12982 4.02403
# Velocity P-wave (km/s) = 7.33981 7.63026 7.48644
#
# Compressibility (1/GPa) = 0.01427962
#
# Stress axis : x y z
#
# Youngs Moduli (GPa) = 134.60005 65.83042 93.24937
#
# Poissons Ratio (x) = 0.12862 0.19479
# Poissons Ratio (y) = 0.26298 0.51188
# Poissons Ratio (z) = 0.28117 0.36137
#
# Static dielectric constant tensor:
#      x y z
#    x 4.305610 0.000000 -0.371540 
#    y 0.000000 3.299510 0.000000 
#    z -0.371540 0.000000 4.201390 
# 
# 
# High freq. dielectric constant tensor:
#      x y z
#    x 1.839390 0.000000 -0.007390 
#    y 0.000000 1.778010 0.000000 
#    z -0.007390 0.000000 1.830160 
# 
# From -- ./inp_files/187959.got.cif
#   From: 2010.06.25/outbox.cif.g09.slc.cpg/sg15_94_cif.got.tgz:187959.got - 2010.06.28 07:06:18.
