data_PCOD8140195
_publ_section_title
;
Structure prediction by ZEFSAII (Michael W. Deem and Ramdas Pophale) SiO2 
 PCOD8140195
Probable space group: C 2/C
;
_chemical_formula_sum "Si O2"
_cell_formula_units_Z 52
_cell_length_a 10.564788
_cell_length_b 15.559599
_cell_length_c 20.234542
_cell_angle_alpha 90.000000
_cell_angle_beta 138.263076
_cell_angle_gamma 90.000000
_cell_volume 2214.310652
_symmetry_space_group_name_H-M "C 2/C"
_symmetry_group_IT_number 15
_symmetry_cell_setting 'monoclinic'
loop_
_space_group_symop_operation_xyz
x,y,z
-x,y,1/2-z
-x,-y,-z
x,-y,1/2+z
1/2+x,1/2+y,z
1/2-x,1/2+y,1/2-z
1/2-x,1/2-y,-z
1/2+x,1/2-y,1/2+z
loop_
_atom_site_type_symbol
_atom_site_label
_atom_site_fract_x
_atom_site_fract_y
_atom_site_fract_z
Si Si1 0.500000 0.384374 0.750000
Si Si2 0.706061 0.744266 0.106885
Si Si3 0.437155 0.904488 0.151362
Si Si4 0.204246 0.748465 0.088440
Si Si5 0.689109 0.454771 0.594433
Si Si6 0.061466 0.803028 0.176836
Si Si7 0.801365 0.978717 0.259172
O O1 0.634319 0.326035 0.849075
O O2 0.649485 0.446217 0.771969
O O3 0.676052 0.645093 0.077538
O O4 0.803100 0.759924 0.215139
O O5 0.843810 0.774636 0.101427
O O6 0.493186 0.785439 0.021210
O O7 0.500000 0.878993 0.250000
O O8 0.289267 0.827172 0.076583
O O9 0.617012 0.916372 0.171830
O O10 0.347207 0.999486 0.111200
O O11 0.154055 0.777911 0.143381
O O12 0.500000 0.500000 0.500000
O O13 0.741476 0.472975 0.690113
O O14 0.035181 0.906573 0.173413
#
# Coordination Sequence:
#
# PCOD8140195 Si02
#       7
#     4   8   8   8   8   8   8
#     4  12  26  42  66  96 140 178 220 268 348 402
#     4  11  25  39  70 104 133 176 230 266 339 403
#     4  10  20  40  69  87 129 173 220 270 333 373
#     4  12  22  46  65 101 135 179 214 284 337 398
#     4  11  21  40  68 103 125 165 231 283 318 391
#     4  11  23  45  67  94 142 179 219 279 331 401
#     4  11  24  46  65  92 133 182 221 274 332 400
#
# _framework density 23.483606999999999
#
# number of rings (size 3 to 8) (size 9 to 14) (size 15 to 20)
#    0.000    0.923    5.385    2.308    8.615    0.000 
#    2.769    3.846    0.000    0.000    0.000    0.000 
#    0.000    0.000    0.000    0.000    0.000    0.000 
#
# Total GULP energy -322151.818619 kJ/mol
# GULP energy per Si atom -12390.454562 kJ/mol
# Density = 2.343016 g / cm^3
# Si number density = 23.483607 Si / 1000 Ang^3
#
#
#
# Elastic Constant Matrix: (Units=GPa)
#
#
# Indices 1 2 3 4 5 6 
#
# 1 108.7201 41.7974 27.4521 0.0000 33.5936 0.0000
# 2 41.7974 119.8151 14.6523 0.0000 20.9369 0.0000
# 3 27.4521 14.6523 92.5119 0.0000 36.9576 0.0000
# 4 0.0000 0.0000 0.0000 28.8719 0.0000 13.7165
# 5 33.5936 20.9369 36.9576 0.0000 38.4131 0.0000
# 6 0.0000 0.0000 0.0000 13.7165 0.0000 38.9429
#
#
#
# Elastic Compliance Matrix: (Units=1/GPa)
#
#
# Indices 1 2 3 4 5 6 
#
# 1 0.013511 -0.002883 0.000877 0.000000 -0.011088 0.000000
# 2 -0.002883 0.009885 0.000707 0.000000 -0.003547 0.000000
# 3 0.000877 0.000707 0.017701 0.000000 -0.018182 0.000000
# 4 0.000000 0.000000 0.000000 0.041596 0.000000 -0.014651
# 5 -0.011088 -0.003547 -0.018182 0.000000 0.055157 0.000000
# 6 0.000000 0.000000 0.000000 -0.014651 0.000000 0.030839
#
#
# Mechanical properties :
#
#
# Convention : Reuss Voigt Hill
#
# Bulk Modulus (GPa) = 25.97494 54.31675 40.14585
# Shear Modulus (GPa) = 27.15615 37.05526 32.10570
#
# Velocity S-wave (km/s) = 3.40426 3.97661 3.70152
# Velocity P-wave (km/s) = 5.15139 6.65315 5.94985
#
# Compressibility (1/GPa) = 0.03849864
#
# Stress axis : x y z
#
# Youngs Moduli (GPa) = 74.01357 101.16102 56.49413
#
# Poissons Ratio (x) = 0.29164 -0.04955
# Poissons Ratio (y) = 0.21338 -0.03992
# Poissons Ratio (z) = -0.06491 -0.07149
#
# Static dielectric constant tensor:
#      x y z
#    x 4.051090 0.000000 0.563670 
#    y 0.000000 4.670010 0.000000 
#    z 0.563670 0.000000 3.853110 
# 
# 
# High freq. dielectric constant tensor:
#      x y z
#    x 1.927380 0.000000 0.030550 
#    y 0.000000 1.938520 0.000000 
#    z 0.030550 0.000000 1.917210 
# 
# From -- ./inp_files/269983.got.cif
#   From: 2010.06.25/outbox.cif.g09.slc.cpg/sg15_135_cif.got.tgz:269983.got - 2010.06.28 07:06:18.
