data_PCOD8140047
_publ_section_title
;
Structure prediction by ZEFSAII (Michael W. Deem and Ramdas Pophale) SiO2 
 PCOD8140047
Probable space group: C 2/C
;
_chemical_formula_sum "Si O2"
_cell_formula_units_Z 40
_cell_length_a 29.493506
_cell_length_b 9.810855
_cell_length_c 18.210758
_cell_angle_alpha 90.000000
_cell_angle_beta 21.923360
_cell_angle_gamma 90.000000
_cell_volume 1967.415525
_symmetry_space_group_name_H-M "C 2/C"
_symmetry_group_IT_number 15
_symmetry_cell_setting 'monoclinic'
loop_
_space_group_symop_operation_xyz
x,y,z
-x,y,1/2-z
-x,-y,-z
x,-y,1/2+z
1/2+x,1/2+y,z
1/2-x,1/2+y,1/2-z
1/2-x,1/2-y,-z
1/2+x,1/2-y,1/2+z
loop_
_atom_site_type_symbol
_atom_site_label
_atom_site_fract_x
_atom_site_fract_y
_atom_site_fract_z
Si Si1 0.028380 0.656448 0.953091
Si Si2 0.605819 0.761642 0.699637
Si Si3 0.000000 0.517205 0.250000
Si Si4 0.767152 0.897500 0.153186
Si Si5 0.365779 0.145349 0.071044
Si Si6 0.000000 0.958766 0.250000
O O1 0.966229 0.732241 0.115515
O O2 0.976348 0.706517 0.953651
O O3 0.000000 0.500000 0.000000
O O4 0.174622 0.668107 0.732588
O O5 0.750000 0.750000 0.500000
O O6 0.577629 0.893298 0.691340
O O7 0.553846 0.630285 0.735510
O O8 0.908959 0.417654 0.429492
O O9 0.779740 0.775841 0.192496
O O10 0.710368 0.031333 0.273374
O O11 0.896205 0.935932 0.927694
#
# Coordination Sequence:
#
# PCOD8140047 Si02
#       6
#     8   8   4   8   8   4
#     4  10  20  40  65  93 128 174 210 267 325 387
#     4  11  22  39  68  99 132 171 223 267 327 392
#     4  11  23  40  62 100 128 178 206 266 334 380
#     4  11  23  44  64  95 132 172 216 275 320 390
#     4  11  24  42  68  93 133 169 217 265 333 385
#     4  11  25  40  66  98 132 170 224 270 324 388
#
# _framework density 20.331242
#
# number of rings (size 3 to 8) (size 9 to 14) (size 15 to 20)
#    0.000    1.200    4.000    4.200    5.600    0.000 
#    3.600    4.000    0.000    0.000    0.000    0.000 
#    0.000    0.000    0.000    0.000    0.000    0.000 
#
# Total GULP energy -247839.296202 kJ/mol
# GULP energy per Si atom -12391.964810 kJ/mol
# Density = 2.028497 g / cm^3
# Si number density = 20.331242 Si / 1000 Ang^3
#
#
#
# Elastic Constant Matrix: (Units=GPa)
#
#
# Indices 1 2 3 4 5 6 
#
# 1 121.5211 47.1805 43.8779 0.0000 -28.9489 0.0000
# 2 47.1805 85.9376 29.1851 0.0000 -19.9020 0.0000
# 3 43.8779 29.1851 130.2185 0.0000 -24.1387 0.0000
# 4 0.0000 0.0000 0.0000 36.0819 0.0000 0.1677
# 5 -28.9489 -19.9020 -24.1387 0.0000 46.3717 0.0000
# 6 0.0000 0.0000 0.0000 0.1677 0.0000 24.2180
#
#
#
# Elastic Compliance Matrix: (Units=1/GPa)
#
#
# Indices 1 2 3 4 5 6 
#
# 1 0.011880 -0.004815 -0.002139 0.000000 0.004237 0.000000
# 2 -0.004815 0.015395 -0.001284 0.000000 0.002933 0.000000
# 3 -0.002139 -0.001284 0.009229 0.000000 0.002918 0.000000
# 4 0.000000 0.000000 0.000000 0.027716 0.000000 -0.000192
# 5 0.004237 0.002933 0.002918 0.000000 0.026987 0.000000
# 6 0.000000 0.000000 0.000000 -0.000192 0.000000 0.041293
#
#
# Mechanical properties :
#
#
# Convention : Reuss Voigt Hill
#
# Bulk Modulus (GPa) = 49.92901 64.24047 57.08474
# Shear Modulus (GPa) = 32.12323 35.82992 33.97658
#
# Velocity S-wave (km/s) = 3.97923 4.20254 4.09241
# Velocity P-wave (km/s) = 6.76191 7.43061 7.10413
#
# Compressibility (1/GPa) = 0.02002844
#
# Stress axis : x y z
#
# Youngs Moduli (GPa) = 84.17693 64.95577 108.35760
#
# Poissons Ratio (x) = 0.31274 0.23172
# Poissons Ratio (y) = 0.40528 0.13917
# Poissons Ratio (z) = 0.18001 0.08343
#
# Static dielectric constant tensor:
#      x y z
#    x 5.775730 0.000000 -2.673920 
#    y 0.000000 3.556810 0.000000 
#    z -2.673920 0.000000 6.399360 
# 
# 
# High freq. dielectric constant tensor:
#      x y z
#    x 1.807490 0.000000 -0.018020 
#    y 0.000000 1.792720 0.000000 
#    z -0.018020 0.000000 1.795790 
# 
# From -- ./inp_files/126374.got.cif
#   From: 2010.06.25/outbox.cif.g09.slc.cpg/sg15_64_cif.got.tgz:126374.got - 2010.06.28 07:06:18.
