data_PCOD8140580
_publ_section_title
;
Structure prediction by ZEFSAII (Michael W. Deem and Ramdas Pophale) SiO2 
 PCOD8140580
Probable space group: C 2/C
;
_chemical_formula_sum "Si O2"
_cell_formula_units_Z 60
_cell_length_a 11.113145
_cell_length_b 30.267861
_cell_length_c 16.435931
_cell_angle_alpha 90.000000
_cell_angle_beta 146.177437
_cell_angle_gamma 90.000000
_cell_volume 3077.329661
_symmetry_space_group_name_H-M "C 2/C"
_symmetry_group_IT_number 15
_symmetry_cell_setting 'monoclinic'
loop_
_space_group_symop_operation_xyz
x,y,z
-x,y,1/2-z
-x,-y,-z
x,-y,1/2+z
1/2+x,1/2+y,z
1/2-x,1/2+y,1/2-z
1/2-x,1/2-y,-z
1/2+x,1/2-y,1/2+z
loop_
_atom_site_type_symbol
_atom_site_label
_atom_site_fract_x
_atom_site_fract_y
_atom_site_fract_z
Si Si1 0.497398 0.756326 0.653877
Si Si2 0.768713 0.063701 0.011565
Si Si3 0.105835 0.532581 0.393073
Si Si4 0.507839 0.159244 0.445308
Si Si5 0.591835 0.606329 0.885843
Si Si6 0.265487 0.072831 0.316916
Si Si7 0.000000 0.368864 0.250000
Si Si8 0.236066 0.330569 0.237649
O O1 0.500000 0.766497 0.750000
O O2 0.584542 0.797382 0.650319
O O3 0.636935 0.714756 0.703957
O O4 0.250000 0.750000 0.500000
O O5 0.708556 0.067722 0.072121
O O6 0.027666 0.064283 0.148269
O O7 0.657939 0.101561 0.894934
O O8 0.681679 0.017455 0.930259
O O9 0.315193 0.563740 0.517057
O O10 0.000000 0.547199 0.250000
O O11 0.936690 0.539514 0.371773
O O12 0.731977 0.144599 0.529504
O O13 0.324344 0.122938 0.327844
O O14 0.550370 0.167023 0.564723
O O15 0.500000 0.587835 0.750000
O O16 0.396247 0.627509 0.825687
O O17 0.130849 0.334686 0.267011
#
# Coordination Sequence:
#
# PCOD8140580 Si02
#       8
#     8   8   8   8   8   8   4   8
#     4  12  22  39  72 103 128 161 205 270 332 378
#     4  11  24  45  63  90 126 183 219 255 317 385
#     4  11  24  39  62 100 128 160 220 281 320 368
#     4  10  20  42  65  97 130 161 209 266 327 379
#     4   9  20  37  64  92 127 165 207 270 327 370
#     4  10  24  43  67  89 130 172 216 265 319 386
#     4  12  26  42  68  86 132 184 214 252 310 386
#     4  11  22  42  63  96 132 168 212 259 321 380
#
# _framework density 19.497423000000001
#
# number of rings (size 3 to 8) (size 9 to 14) (size 15 to 20)
#    0.000    1.333    4.667    0.800    3.733    4.800 
#    0.000    2.000    0.000    0.000    0.000    0.000 
#    0.000    0.000    0.000    0.000    0.000    0.000 
#
# Total GULP energy -372005.889467 kJ/mol
# GULP energy per Si atom -12400.196316 kJ/mol
# Density = 1.945305 g / cm^3
# Si number density = 19.497423 Si / 1000 Ang^3
#
#
#
# Elastic Constant Matrix: (Units=GPa)
#
#
# Indices 1 2 3 4 5 6 
#
# 1 114.8595 38.9217 40.0600 0.0000 -3.8723 0.0000
# 2 38.9217 104.4967 41.0797 0.0000 0.5136 0.0000
# 3 40.0600 41.0797 105.4814 0.0000 -5.3275 0.0000
# 4 0.0000 0.0000 0.0000 25.8512 0.0000 -4.9971
# 5 -3.8723 0.5136 -5.3275 0.0000 27.3165 0.0000
# 6 0.0000 0.0000 0.0000 -4.9971 0.0000 21.5326
#
#
#
# Elastic Compliance Matrix: (Units=1/GPa)
#
#
# Indices 1 2 3 4 5 6 
#
# 1 0.010722 -0.002855 -0.002910 0.000000 0.001006 0.000000
# 2 -0.002855 0.012092 -0.003693 0.000000 -0.001352 0.000000
# 3 -0.002910 -0.003693 0.012126 0.000000 0.002022 0.000000
# 4 0.000000 0.000000 0.000000 0.040500 0.000000 0.009399
# 5 0.001006 -0.001352 0.002022 0.000000 0.037170 0.000000
# 6 0.000000 0.000000 0.000000 0.009399 0.000000 0.048622
#
#
# Mechanical properties :
#
#
# Convention : Reuss Voigt Hill
#
# Bulk Modulus (GPa) = 62.40407 62.77338 62.58873
# Shear Modulus (GPa) = 26.95586 28.59182 27.77384
#
# Velocity S-wave (km/s) = 3.72228 3.83357 3.77833
# Velocity P-wave (km/s) = 7.10982 7.20143 7.15578
#
# Compressibility (1/GPa) = 0.01602460
#
# Stress axis : x y z
#
# Youngs Moduli (GPa) = 93.26267 82.70267 82.46933
#
# Poissons Ratio (x) = 0.23611 0.23995
# Poissons Ratio (y) = 0.26626 0.30457
# Poissons Ratio (z) = 0.27135 0.30543
#
# Static dielectric constant tensor:
#      x y z
#    x 3.630930 0.000000 0.334000 
#    y 0.000000 3.367750 0.000000 
#    z 0.334000 0.000000 2.970860 
# 
# 
# High freq. dielectric constant tensor:
#      x y z
#    x 1.755740 0.000000 -0.006680 
#    y 0.000000 1.760590 0.000000 
#    z -0.006680 0.000000 1.769680 
# 
# From -- ./inp_files/201279.got.cif
#   From: 2010.06.25/outbox.cif.g09.slc.cpg/sg15_101_cif.got.tgz:201279.got - 2010.06.28 07:06:18.
