data_PCOD8140128
_publ_section_title
;
Structure prediction by ZEFSAII (Michael W. Deem and Ramdas Pophale) SiO2 
 PCOD8140128
Probable space group: C 2/C
;
_chemical_formula_sum "Si O2"
_cell_formula_units_Z 56
_cell_length_a 11.919342
_cell_length_b 13.898281
_cell_length_c 17.851574
_cell_angle_alpha 90.000000
_cell_angle_beta 67.205784
_cell_angle_gamma 90.000000
_cell_volume 2726.307049
_symmetry_space_group_name_H-M "C 2/C"
_symmetry_group_IT_number 15
_symmetry_cell_setting 'monoclinic'
loop_
_space_group_symop_operation_xyz
x,y,z
-x,y,1/2-z
-x,-y,-z
x,-y,1/2+z
1/2+x,1/2+y,z
1/2-x,1/2+y,1/2-z
1/2-x,1/2-y,-z
1/2+x,1/2-y,1/2+z
loop_
_atom_site_type_symbol
_atom_site_label
_atom_site_fract_x
_atom_site_fract_y
_atom_site_fract_z
Si Si1 0.871409 0.310843 0.479220
Si Si2 0.498362 0.345657 0.472886
Si Si3 0.671294 0.515316 0.407332
Si Si4 0.557455 0.962085 0.154389
Si Si5 0.628780 0.523023 0.755064
Si Si6 0.149096 0.586005 0.364613
Si Si7 0.575157 0.270484 0.302246
O O1 0.750000 0.250000 0.500000
O O2 0.981569 0.242699 0.476435
O O3 0.915096 0.360008 0.391318
O O4 0.851141 0.392146 0.547378
O O5 0.616703 0.414671 0.451329
O O6 0.374553 0.399052 0.527443
O O7 0.483907 0.307550 0.391435
O O8 0.816405 0.518759 0.369116
O O9 0.623775 0.531896 0.335425
O O10 0.500000 0.940997 0.250000
O O11 0.471367 0.027995 0.126135
O O12 0.500000 0.507178 0.750000
O O13 0.733387 0.479294 0.677113
O O14 0.657460 0.637343 0.757829
O O15 0.157846 0.684182 0.313014
O O16 0.500000 0.232242 0.250000
#
# Coordination Sequence:
#
# PCOD8140128 Si02
#       7
#     8   8   8   8   8   8   8
#     4  11  24  44  65  97 135 177 221 276 335 397
#     4   9  20  40  63  93 125 169 224 266 324 389
#     4  10  20  40  67  91 127 173 220 269 325 393
#     4  12  24  43  66  97 137 176 217 275 341 399
#     4  10  22  40  63  96 126 171 225 267 328 391
#     4  11  24  43  68  94 135 176 217 279 338 398
#     4   9  20  40  65  91 128 170 215 274 330 390
#
# _framework density 20.540606
#
# number of rings (size 3 to 8) (size 9 to 14) (size 15 to 20)
#    0.000    1.714    2.857    0.857    2.000    2.286 
#    5.143    2.857    0.000    0.000    0.000    0.000 
#    0.000    0.000    0.000    0.000    0.000    0.000 
#
# Total GULP energy -347237.606712 kJ/mol
# GULP energy per Si atom -12401.343097 kJ/mol
# Density = 2.049385 g / cm^3
# Si number density = 20.540606 Si / 1000 Ang^3
#
#
#
# Elastic Constant Matrix: (Units=GPa)
#
#
# Indices 1 2 3 4 5 6 
#
# 1 126.5153 49.3766 59.8890 0.0000 -10.4676 0.0000
# 2 49.3766 97.5077 58.9356 0.0000 -9.8234 0.0000
# 3 59.8890 58.9356 119.5062 0.0000 -5.1605 0.0000
# 4 0.0000 0.0000 0.0000 35.4268 0.0000 -3.7790
# 5 -10.4676 -9.8234 -5.1605 0.0000 35.0915 0.0000
# 6 0.0000 0.0000 0.0000 -3.7790 0.0000 28.5127
#
#
#
# Elastic Compliance Matrix: (Units=1/GPa)
#
#
# Indices 1 2 3 4 5 6 
#
# 1 0.011139 -0.003029 -0.004007 0.000000 0.001886 0.000000
# 2 -0.003029 0.015766 -0.006145 0.000000 0.002606 0.000000
# 3 -0.004007 -0.006145 0.013365 0.000000 -0.000950 0.000000
# 4 0.000000 0.000000 0.000000 0.028632 0.000000 0.003795
# 5 0.001886 0.002606 -0.000950 0.000000 0.029649 0.000000
# 6 0.000000 0.000000 0.000000 0.003795 0.000000 0.035575
#
#
# Mechanical properties :
#
#
# Convention : Reuss Voigt Hill
#
# Bulk Modulus (GPa) = 71.89602 75.54796 73.72199
# Shear Modulus (GPa) = 30.28024 31.49474 30.88749
#
# Velocity S-wave (km/s) = 3.84365 3.91997 3.88200
# Velocity P-wave (km/s) = 7.40109 7.57284 7.48746
#
# Compressibility (1/GPa) = 0.01390898
#
# Stress axis : x y z
#
# Youngs Moduli (GPa) = 89.77359 63.42808 74.82098
#
# Poissons Ratio (x) = 0.19211 0.29982
# Poissons Ratio (y) = 0.27190 0.45976
# Poissons Ratio (z) = 0.35974 0.38975
#
# Static dielectric constant tensor:
#      x y z
#    x 3.551670 0.000000 0.194520 
#    y 0.000000 3.847240 0.000000 
#    z 0.194520 0.000000 3.803500 
# 
# 
# High freq. dielectric constant tensor:
#      x y z
#    x 1.791290 0.000000 0.016350 
#    y 0.000000 1.805630 0.000000 
#    z 0.016350 0.000000 1.808650 
# 
# From -- ./inp_files/197746.got.cif
#   From: 2010.06.25/outbox.cif.g09.slc.cpg/sg15_99_cif.got.tgz:197746.got - 2010.06.28 07:06:18.
