data_PCOD8140845
_publ_section_title
;
Structure prediction by ZEFSAII (Michael W. Deem and Ramdas Pophale) SiO2 
 PCOD8140845
Probable space group: C 2/C
;
_chemical_formula_sum "Si O2"
_cell_formula_units_Z 60
_cell_length_a 7.993681
_cell_length_b 14.678154
_cell_length_c 21.560342
_cell_angle_alpha 90.000000
_cell_angle_beta 109.761144
_cell_angle_gamma 90.000000
_cell_volume 2380.753397
_symmetry_space_group_name_H-M "C 2/C"
_symmetry_group_IT_number 15
_symmetry_cell_setting 'monoclinic'
loop_
_space_group_symop_operation_xyz
x,y,z
-x,y,1/2-z
-x,-y,-z
x,-y,1/2+z
1/2+x,1/2+y,z
1/2-x,1/2+y,1/2-z
1/2-x,1/2-y,-z
1/2+x,1/2-y,1/2+z
loop_
_atom_site_type_symbol
_atom_site_label
_atom_site_fract_x
_atom_site_fract_y
_atom_site_fract_z
Si Si1 0.500000 0.643911 0.750000
Si Si2 0.930632 0.392929 0.147280
Si Si3 0.303567 0.853780 0.847808
Si Si4 0.664850 0.731420 0.220341
Si Si5 0.353212 0.288541 0.455663
Si Si6 0.722711 0.544748 0.878142
Si Si7 0.359705 0.578947 0.492433
Si Si8 0.343280 0.084020 0.157053
O O1 0.664307 0.704647 0.749761
O O2 0.558877 0.584366 0.817204
O O3 0.757306 0.372975 0.085203
O O4 0.865945 0.477880 0.184243
O O5 0.995756 0.298202 0.186842
O O6 0.087969 0.424694 0.122969
O O7 0.141909 0.814175 0.785745
O O8 0.387276 0.786209 0.907752
O O9 0.457016 0.876169 0.816206
O O10 0.213477 0.936045 0.873412
O O11 0.702538 0.649868 0.174762
O O12 0.250000 0.250000 0.500000
O O13 0.543594 0.323629 0.502414
O O14 0.719258 0.574856 0.948633
O O15 0.500000 0.500000 0.500000
O O16 0.206473 0.575709 0.421864
#
# Coordination Sequence:
#
# PCOD8140845 Si02
#       8
#     4   8   8   8   8   8   8   8
#     4  10  20  44  68  98 142 182 242 296 364 446
#     4  10  25  46  70 105 143 190 237 309 369 443
#     4  11  25  44  70 106 142 189 247 308 373 446
#     4  11  22  47  72 106 143 187 253 305 375 454
#     4  12  26  45  69 107 146 183 243 307 367 446
#     4  10  25  44  72 101 140 195 240 299 373 447
#     4  12  25  44  72 105 143 191 243 300 371 447
#     4  11  24  46  74 106 145 198 242 307 376 453
#
# _framework density 25.202107000000002
#
# number of rings (size 3 to 8) (size 9 to 14) (size 15 to 20)
#    0.000    1.067    2.667    2.400    3.733    4.267 
#   12.000    0.000    0.000    0.000    0.000    0.000 
#    0.000    0.000    0.000    0.000    0.000    0.000 
#
# Total GULP energy -371883.806413 kJ/mol
# GULP energy per Si atom -12396.126880 kJ/mol
# Density = 2.514475 g / cm^3
# Si number density = 25.202107 Si / 1000 Ang^3
#
#
#
# Elastic Constant Matrix: (Units=GPa)
#
#
# Indices 1 2 3 4 5 6 
#
# 1 59.5701 39.0030 3.6079 0.0000 0.5471 0.0000
# 2 39.0030 164.7457 45.4506 0.0000 -8.9281 0.0000
# 3 3.6079 45.4506 99.7874 0.0000 -1.9093 0.0000
# 4 0.0000 0.0000 0.0000 32.1078 0.0000 5.8775
# 5 0.5471 -8.9281 -1.9093 0.0000 44.5327 0.0000
# 6 0.0000 0.0000 0.0000 5.8775 0.0000 47.9569
#
#
#
# Elastic Compliance Matrix: (Units=1/GPa)
#
#
# Indices 1 2 3 4 5 6 
#
# 1 0.020168 -0.005300 0.001661 0.000000 -0.001239 0.000000
# 2 -0.005300 0.008406 -0.003607 0.000000 0.001596 0.000000
# 3 0.001661 -0.003607 0.011599 0.000000 -0.000246 0.000000
# 4 0.000000 0.000000 0.000000 0.031860 0.000000 -0.003905
# 5 -0.001239 0.001596 -0.000246 0.000000 0.022780 0.000000
# 6 0.000000 0.000000 0.000000 -0.003905 0.000000 0.021331
#
#
# Mechanical properties :
#
#
# Convention : Reuss Voigt Hill
#
# Bulk Modulus (GPa) = 38.93745 55.58070 47.25907
# Shear Modulus (GPa) = 35.92060 40.65560 38.28810
#
# Velocity S-wave (km/s) = 3.77941 4.02080 3.90197
# Velocity P-wave (km/s) = 5.87613 6.60739 6.25246
#
# Compressibility (1/GPa) = 0.02568221
#
# Stress axis : x y z
#
# Youngs Moduli (GPa) = 49.58369 118.95904 86.21224
#
# Poissons Ratio (x) = 0.63050 -0.14321
# Poissons Ratio (y) = 0.26280 0.31094
# Poissons Ratio (z) = -0.08237 0.42905
#
# Static dielectric constant tensor:
#      x y z
#    x 4.444900 0.000000 0.169650 
#    y 0.000000 5.170640 0.000000 
#    z 0.169650 0.000000 4.715550 
# 
# 
# High freq. dielectric constant tensor:
#      x y z
#    x 2.014170 0.000000 0.010140 
#    y 0.000000 2.031950 0.000000 
#    z 0.010140 0.000000 2.007570 
# 
# From -- ./inp_files/264750.got.cif
#   From: 2010.06.25/outbox.cif.g09.slc.cpg/sg15_133_cif.got.tgz:264750.got - 2010.06.28 07:06:18.
