data_PCOD8140395
_publ_section_title
;
Structure prediction by ZEFSAII (Michael W. Deem and Ramdas Pophale) SiO2 
 PCOD8140395
Probable space group: C 2/C
;
_chemical_formula_sum "Si O2"
_cell_formula_units_Z 56
_cell_length_a 15.492742
_cell_length_b 12.253725
_cell_length_c 13.110013
_cell_angle_alpha 90.000000
_cell_angle_beta 71.832480
_cell_angle_gamma 90.000000
_cell_volume 2364.782682
_symmetry_space_group_name_H-M "C 2/C"
_symmetry_group_IT_number 15
_symmetry_cell_setting 'monoclinic'
loop_
_space_group_symop_operation_xyz
x,y,z
-x,y,1/2-z
-x,-y,-z
x,-y,1/2+z
1/2+x,1/2+y,z
1/2-x,1/2+y,1/2-z
1/2-x,1/2-y,-z
1/2+x,1/2-y,1/2+z
loop_
_atom_site_type_symbol
_atom_site_label
_atom_site_fract_x
_atom_site_fract_y
_atom_site_fract_z
Si Si1 0.663068 0.959460 0.077188
Si Si2 0.605943 0.835285 0.695710
Si Si3 0.486192 0.399810 0.644245
Si Si4 0.723389 0.902272 0.846952
Si Si5 0.638540 0.780497 0.243328
Si Si6 0.864511 0.062593 0.567236
Si Si7 0.295778 0.634244 0.792287
O O1 0.614018 0.876493 0.173163
O O2 0.768799 0.979562 0.062308
O O3 0.616337 0.078702 0.099575
O O4 0.654081 0.911346 0.967017
O O5 0.500000 0.815633 0.750000
O O6 0.661006 0.889782 0.769920
O O7 0.650128 0.716193 0.651661
O O8 0.500000 0.460017 0.750000
O O9 0.451821 0.277712 0.682409
O O10 0.415012 0.459684 0.598397
O O11 0.579900 0.386554 0.547537
O O12 0.793407 0.803957 0.837569
O O13 0.792117 0.007114 0.821466
O O14 0.690727 0.829356 0.322053
O O15 0.846919 0.151369 0.663133
#
# Coordination Sequence:
#
# PCOD8140395 Si02
#       7
#     8   8   8   8   8   8   8
#     4  11  23  43  72  96 132 180 234 276 343 417
#     4  11  25  45  64  99 142 180 226 287 342 415
#     4  11  22  36  63  97 136 166 219 285 343 384
#     4  11  21  43  74  92 130 184 229 277 350 405
#     4  10  20  41  66  97 128 170 227 287 329 407
#     4  10  21  40  63 100 130 173 223 280 332 409
#     4  10  21  44  68  90 136 182 221 276 347 411
#
# _framework density 23.680824000000001
#
# number of rings (size 3 to 8) (size 9 to 14) (size 15 to 20)
#    0.000    1.429    4.286    2.143    0.000    4.571 
#    5.143    0.000    0.000    0.000    0.000    0.000 
#    0.000    0.000    0.000    0.000    0.000    0.000 
#
# Total GULP energy -347031.304889 kJ/mol
# GULP energy per Si atom -12393.975175 kJ/mol
# Density = 2.362693 g / cm^3
# Si number density = 23.680824 Si / 1000 Ang^3
#
#
#
# Elastic Constant Matrix: (Units=GPa)
#
#
# Indices 1 2 3 4 5 6 
#
# 1 52.7991 10.4708 7.7969 0.0000 -10.1159 0.0000
# 2 10.4708 102.5070 5.0720 0.0000 -8.3403 0.0000
# 3 7.7969 5.0720 75.4569 0.0000 -10.1841 0.0000
# 4 0.0000 0.0000 0.0000 23.4030 0.0000 -10.9804
# 5 -10.1159 -8.3403 -10.1841 0.0000 28.0813 0.0000
# 6 0.0000 0.0000 0.0000 -10.9804 0.0000 21.0176
#
#
#
# Elastic Compliance Matrix: (Units=1/GPa)
#
#
# Indices 1 2 3 4 5 6 
#
# 1 0.020671 -0.001519 -0.001146 0.000000 0.006580 0.000000
# 2 -0.001519 0.010115 -0.000201 0.000000 0.002384 0.000000
# 3 -0.001146 -0.000201 0.014006 0.000000 0.004607 0.000000
# 4 0.000000 0.000000 0.000000 0.056604 0.000000 0.029572
# 5 0.006580 0.002384 0.004607 0.000000 0.040360 0.000000
# 6 0.000000 0.000000 0.000000 0.029572 0.000000 0.063029
#
#
# Mechanical properties :
#
#
# Convention : Reuss Voigt Hill
#
# Bulk Modulus (GPa) = 25.60228 30.82691 28.21459
# Shear Modulus (GPa) = 22.36764 28.32861 25.34813
#
# Velocity S-wave (km/s) = 3.07668 3.46246 3.27526
# Velocity P-wave (km/s) = 4.84316 5.38802 5.12284
#
# Compressibility (1/GPa) = 0.03905902
#
# Stress axis : x y z
#
# Youngs Moduli (GPa) = 48.37735 98.86755 71.39640
#
# Poissons Ratio (x) = 0.15022 0.08180
# Poissons Ratio (y) = 0.07351 0.01436
# Poissons Ratio (z) = 0.05543 0.01989
#
# Static dielectric constant tensor:
#      x y z
#    x 4.205160 0.000000 0.007480 
#    y 0.000000 4.313810 0.000000 
#    z 0.007480 0.000000 4.517590 
# 
# 
# High freq. dielectric constant tensor:
#      x y z
#    x 1.931710 0.000000 -0.004040 
#    y 0.000000 1.940810 0.000000 
#    z -0.004040 0.000000 1.921760 
# 
# From -- ./inp_files/160830.got.cif
#   From: 2010.06.25/outbox.cif.g09.slc.cpg/sg15_81_cif.got.tgz:160830.got - 2010.06.28 07:06:18.
