data_PCOD8140984
_publ_section_title
;
Structure prediction by ZEFSAII (Michael W. Deem and Ramdas Pophale) SiO2 
 PCOD8140984
Probable space group: C 2/C
;
_chemical_formula_sum "Si O2"
_cell_formula_units_Z 52
_cell_length_a 14.393969
_cell_length_b 24.032800
_cell_length_c 12.601193
_cell_angle_alpha 90.000000
_cell_angle_beta 150.469123
_cell_angle_gamma 90.000000
_cell_volume 2148.566663
_symmetry_space_group_name_H-M "C 2/C"
_symmetry_group_IT_number 15
_symmetry_cell_setting 'monoclinic'
loop_
_space_group_symop_operation_xyz
x,y,z
-x,y,1/2-z
-x,-y,-z
x,-y,1/2+z
1/2+x,1/2+y,z
1/2-x,1/2+y,1/2-z
1/2-x,1/2-y,-z
1/2+x,1/2-y,1/2+z
loop_
_atom_site_type_symbol
_atom_site_label
_atom_site_fract_x
_atom_site_fract_y
_atom_site_fract_z
Si Si1 0.278497 0.502600 0.275151
Si Si2 0.947163 0.799505 0.418748
Si Si3 0.755984 0.409550 0.917188
Si Si4 0.500000 0.655099 0.750000
Si Si5 0.818828 0.105359 0.920986
Si Si6 0.128945 0.674432 0.125093
Si Si7 0.648090 0.091837 0.312260
O O1 0.500000 0.500000 0.500000
O O2 0.199619 0.527856 0.084786
O O3 0.222885 0.438478 0.243104
O O4 0.198654 0.540339 0.289030
O O5 0.792606 0.834387 0.335856
O O6 0.954410 0.735951 0.464419
O O7 0.916551 0.805451 0.261449
O O8 0.147359 0.825002 0.641121
O O9 0.539346 0.401385 0.666029
O O10 0.899011 0.363441 0.008065
O O11 0.790660 0.402705 0.076655
O O12 0.337675 0.613616 0.553805
O O13 0.049286 0.642191 0.148336
O O14 0.500000 0.069973 0.250000
#
# Coordination Sequence:
#
# PCOD8140984 Si02
#       7
#     8   8   8   4   8   8   8
#     4   9  17  33  59  85 115 156 200 245 303 366
#     4  10  21  34  55  84 111 156 196 244 294 360
#     4   8  16  32  53  81 111 150 189 247 297 351
#     4  10  22  36  56  88 122 152 202 250 298 360
#     4   9  17  31  55  81 110 148 201 237 293 366
#     4   9  20  35  54  81 116 149 199 240 301 355
#     4  10  22  37  60  90 122 159 202 247 309 367
#
# _framework density 24.202181
#
# number of rings (size 3 to 8) (size 9 to 14) (size 15 to 20)
#    0.000    2.769    0.000    2.769    3.231    5.538 
#    0.000    0.000    3.385    7.385    0.000    0.000 
#    0.000    0.000    0.000    0.000    0.000    0.000 
#
# Total GULP energy -322095.035821 kJ/mol
# GULP energy per Si atom -12388.270608 kJ/mol
# Density = 2.414710 g / cm^3
# Si number density = 24.202181 Si / 1000 Ang^3
#
#
#
# Elastic Constant Matrix: (Units=GPa)
#
#
# Indices 1 2 3 4 5 6 
#
# 1 153.9598 54.9090 23.2794 0.0000 -33.3720 0.0000
# 2 54.9090 153.6108 24.3782 0.0000 -25.0846 0.0000
# 3 23.2794 24.3782 34.4221 0.0000 -25.1225 0.0000
# 4 0.0000 0.0000 0.0000 22.8309 0.0000 -4.6614
# 5 -33.3720 -25.0846 -25.1225 0.0000 31.3662 0.0000
# 6 0.0000 0.0000 0.0000 -4.6614 0.0000 -10.1884
#
#
#
# Elastic Compliance Matrix: (Units=1/GPa)
#
#
# Indices 1 2 3 4 5 6 
#
# 1 0.008997 -0.001990 0.002767 0.000000 0.010197 0.000000
# 2 -0.001990 0.008001 -0.002878 0.000000 0.001976 0.000000
# 3 0.002767 -0.002878 0.071459 0.000000 0.057876 0.000000
# 4 0.000000 0.000000 0.000000 0.040058 0.000000 -0.018327
# 5 0.010197 0.001976 0.057876 0.000000 0.090666 0.000000
# 6 0.000000 0.000000 0.000000 -0.018327 0.000000 -0.089766
#
#
# Mechanical properties :
#
#
# Convention : Reuss Voigt Hill
#
# Bulk Modulus (GPa) = 11.86901 60.79175 36.33038
# Shear Modulus (GPa) = 30.92108 24.76348 27.84228
#
# Velocity S-wave (km/s) = 3.57825 3.20221 3.39544
# Velocity P-wave (km/s) = 4.68899 6.23258 5.51505
#
# Compressibility (1/GPa) = 0.08425305
#
# Stress axis : x y z
#
# Youngs Moduli (GPa) = 111.15112 124.98868 13.99410
#
# Poissons Ratio (x) = 0.24872 -0.03872
# Poissons Ratio (y) = 0.22118 0.04028
# Poissons Ratio (z) = -0.30753 0.35977
#
# Static dielectric constant tensor:
#      x y z
#    x 4.775870 0.000000 -0.131620 
#    y 0.000000 4.525660 0.000000 
#    z -0.131620 0.000000 3.986770 
# 
# 
# High freq. dielectric constant tensor:
#      x y z
#    x 1.974230 0.000000 0.005520 
#    y 0.000000 1.959960 0.000000 
#    z 0.005520 0.000000 1.948070 
# 
# From -- ./inp_files/100703.got.cif
#   From: 2010.06.25/outbox.cif.g09.slc.cpg/sg15_51_cif.got.tgz:100703.got - 2010.06.28 07:06:18.
