data_PCOD8140833
_publ_section_title
;
Structure prediction by ZEFSAII (Michael W. Deem and Ramdas Pophale) SiO2 
 PCOD8140833
Probable space group: C 2/C
;
_chemical_formula_sum "Si O2"
_cell_formula_units_Z 48
_cell_length_a 12.702203
_cell_length_b 7.576443
_cell_length_c 23.488942
_cell_angle_alpha 90.000000
_cell_angle_beta 96.496409
_cell_angle_gamma 90.000000
_cell_volume 2246.002557
_symmetry_space_group_name_H-M "C 2/C"
_symmetry_group_IT_number 15
_symmetry_cell_setting 'monoclinic'
loop_
_space_group_symop_operation_xyz
x,y,z
-x,y,1/2-z
-x,-y,-z
x,-y,1/2+z
1/2+x,1/2+y,z
1/2-x,1/2+y,1/2-z
1/2-x,1/2-y,-z
1/2+x,1/2-y,1/2+z
loop_
_atom_site_type_symbol
_atom_site_label
_atom_site_fract_x
_atom_site_fract_y
_atom_site_fract_z
Si Si1 0.130704 0.468415 0.405990
Si Si2 0.620241 0.326470 0.765426
Si Si3 0.713046 0.572645 0.679357
Si Si4 0.686169 0.098944 0.027349
Si Si5 0.965960 0.749894 0.392532
Si Si6 0.379271 0.560558 0.112015
O O1 0.239990 0.496499 0.377908
O O2 0.147547 0.527312 0.473265
O O3 0.042958 0.597186 0.373570
O O4 0.091435 0.264948 0.399456
O O5 0.500000 0.263815 0.750000
O O6 0.658630 0.416489 0.710037
O O7 0.691248 0.153741 0.778546
O O8 0.630429 0.459447 0.820031
O O9 0.625079 0.720909 0.660125
O O10 0.584741 0.183394 0.051737
O O11 0.766223 0.005217 0.076883
O O12 0.750000 0.250000 0.000000
O O13 0.029738 0.932669 0.406613
#
# Coordination Sequence:
#
# PCOD8140833 Si02
#       6
#     8   8   8   8   8   8
#     4  10  24  44  65 100 132 170 217 264 329 388
#     4  11  23  42  64  91 128 167 217 269 321 378
#     4  11  25  43  64  96 129 167 220 275 314 392
#     4  10  20  44  66  96 140 163 215 276 313 392
#     4  12  22  43  69  95 131 173 213 263 333 386
#     4  10  23  43  66  98 132 168 219 269 318 388
#
# _framework density 21.371303000000001
#
# number of rings (size 3 to 8) (size 9 to 14) (size 15 to 20)
#    0.000    1.333    6.667    0.500    2.333    6.000 
#    3.000    0.000    0.000    0.000    0.000    0.000 
#    0.000    0.000    0.000    0.000    0.000    0.000 
#
# Total GULP energy -297537.201114 kJ/mol
# GULP energy per Si atom -12397.383380 kJ/mol
# Density = 2.132266 g / cm^3
# Si number density = 21.371303 Si / 1000 Ang^3
#
#
#
# Elastic Constant Matrix: (Units=GPa)
#
#
# Indices 1 2 3 4 5 6 
#
# 1 135.6640 49.9264 29.5592 0.0000 11.5422 0.0000
# 2 49.9264 68.0850 19.2917 0.0000 5.9072 0.0000
# 3 29.5592 19.2917 86.9400 0.0000 5.6623 0.0000
# 4 0.0000 0.0000 0.0000 21.0859 0.0000 4.4037
# 5 11.5422 5.9072 5.6623 0.0000 31.2740 0.0000
# 6 0.0000 0.0000 0.0000 4.4037 0.0000 26.6082
#
#
#
# Elastic Compliance Matrix: (Units=1/GPa)
#
#
# Indices 1 2 3 4 5 6 
#
# 1 0.010551 -0.007009 -0.001887 0.000000 -0.002229 0.000000
# 2 -0.007009 0.020503 -0.002108 0.000000 -0.000904 0.000000
# 3 -0.001887 -0.002108 0.012690 0.000000 -0.001203 0.000000
# 4 0.000000 0.000000 0.000000 0.049123 0.000000 -0.008130
# 5 -0.002229 -0.000904 -0.001203 0.000000 0.033187 0.000000
# 6 0.000000 0.000000 0.000000 -0.008130 0.000000 0.038928
#
#
# Mechanical properties :
#
#
# Convention : Reuss Voigt Hill
#
# Bulk Modulus (GPa) = 46.00527 54.24929 50.12728
# Shear Modulus (GPa) = 25.74205 28.58774 27.16490
#
# Velocity S-wave (km/s) = 3.47438 3.66138 3.56911
# Velocity P-wave (km/s) = 6.13746 6.58131 6.36326
#
# Compressibility (1/GPa) = 0.02173664
#
# Stress axis : x y z
#
# Youngs Moduli (GPa) = 94.77396 48.77332 78.80378
#
# Poissons Ratio (x) = 0.34187 0.14870
# Poissons Ratio (y) = 0.66430 0.16608
# Poissons Ratio (z) = 0.17883 0.10279
#
# Static dielectric constant tensor:
#      x y z
#    x 4.173600 0.000000 0.234360 
#    y 0.000000 3.455630 0.000000 
#    z 0.234360 0.000000 4.803340 
# 
# 
# High freq. dielectric constant tensor:
#      x y z
#    x 1.852570 0.000000 0.003790 
#    y 0.000000 1.802160 0.000000 
#    z 0.003790 0.000000 1.847090 
# 
# From -- ./inp_files/267634.got.cif
#   From: 2010.06.25/outbox.cif.g09.slc.cpg/sg15_134_cif.got.tgz:267634.got - 2010.06.28 07:06:18.
