data_PCOD8140164
_publ_section_title
;
Structure prediction by ZEFSAII (Michael W. Deem and Ramdas Pophale) SiO2 
 PCOD8140164
Probable space group: C 2/C
;
_chemical_formula_sum "Si O2"
_cell_formula_units_Z 64
_cell_length_a 14.757606
_cell_length_b 11.529069
_cell_length_c 18.493890
_cell_angle_alpha 90.000000
_cell_angle_beta 66.635852
_cell_angle_gamma 90.000000
_cell_volume 2888.567358
_symmetry_space_group_name_H-M "C 2/C"
_symmetry_group_IT_number 15
_symmetry_cell_setting 'monoclinic'
loop_
_space_group_symop_operation_xyz
x,y,z
-x,y,1/2-z
-x,-y,-z
x,-y,1/2+z
1/2+x,1/2+y,z
1/2-x,1/2+y,1/2-z
1/2-x,1/2-y,-z
1/2+x,1/2-y,1/2+z
loop_
_atom_site_type_symbol
_atom_site_label
_atom_site_fract_x
_atom_site_fract_y
_atom_site_fract_z
Si Si1 0.737549 0.975602 0.098062
Si Si2 0.284770 0.769690 0.607066
Si Si3 0.485109 0.328269 0.069241
Si Si4 0.910198 0.531589 0.730411
Si Si5 0.606888 0.006318 0.430263
Si Si6 0.433390 0.427299 0.591282
Si Si7 0.094816 0.204149 0.260297
Si Si8 0.339841 0.835505 0.979182
O O1 0.746264 0.839083 0.069380
O O2 0.691572 0.980032 0.193305
O O3 0.845415 0.032273 0.065639
O O4 0.667411 0.049718 0.067969
O O5 0.375957 0.716275 0.624545
O O6 0.194066 0.811453 0.683928
O O7 0.330466 0.885206 0.555305
O O8 0.496394 0.459334 0.097000
O O9 0.563185 0.236040 0.075583
O O10 0.499219 0.339414 0.977105
O O11 0.898979 0.475209 0.654423
O O12 0.933453 0.665841 0.709370
O O13 0.000000 0.477363 0.750000
O O14 0.657703 0.884955 0.439075
O O15 0.500000 0.000000 0.500000
O O16 0.385287 0.365114 0.673538
O O17 0.000000 0.148966 0.250000
O O18 0.250000 0.750000 0.000000
#
# Coordination Sequence:
#
# PCOD8140164 Si02
#       8
#     8   8   8   8   8   8   8   8
#     4  10  22  42  66  95 143 184 236 289 361 428
#     4  10  23  43  65 101 134 181 233 288 355 422
#     4  10  21  40  66  99 132 177 236 281 357 414
#     4  10  22  40  64  96 132 186 234 291 359 425
#     4  12  24  41  69  99 143 180 237 298 353 431
#     4  10  20  40  68  90 136 186 222 292 350 422
#     4  10  22  41  66  94 130 177 233 280 348 428
#     4  12  24  41  67 108 140 185 235 296 360 424
#
# _framework density 22.156310999999999
#
# number of rings (size 3 to 8) (size 9 to 14) (size 15 to 20)
#    0.000    1.500    2.500    2.250    0.000    1.500 
#    0.000    0.000    5.500    0.000    0.000    0.000 
#    0.000    0.000    0.000    0.000    0.000    0.000 
#
# Total GULP energy -396488.484261 kJ/mol
# GULP energy per Si atom -12390.265133 kJ/mol
# Density = 2.210588 g / cm^3
# Si number density = 22.156311 Si / 1000 Ang^3
#
#
#
# Elastic Constant Matrix: (Units=GPa)
#
#
# Indices 1 2 3 4 5 6 
#
# 1 109.4237 55.0852 44.8793 0.0000 -17.6063 0.0000
# 2 55.0852 121.3530 39.1039 0.0000 -1.7258 0.0000
# 3 44.8793 39.1039 78.0868 0.0000 -16.8844 0.0000
# 4 0.0000 0.0000 0.0000 32.0953 0.0000 -1.8869
# 5 -17.6063 -1.7258 -16.8844 0.0000 37.7159 0.0000
# 6 0.0000 0.0000 0.0000 -1.8869 0.0000 48.2191
#
#
#
# Elastic Compliance Matrix: (Units=1/GPa)
#
#
# Indices 1 2 3 4 5 6 
#
# 1 0.014251 -0.004848 -0.004841 0.000000 0.004264 0.000000
# 2 -0.004848 0.011606 -0.003764 0.000000 -0.003417 0.000000
# 3 -0.004841 -0.003764 0.018764 0.000000 0.005968 0.000000
# 4 0.000000 0.000000 0.000000 0.031229 0.000000 0.001222
# 5 0.004264 -0.003417 0.005968 0.000000 0.031020 0.000000
# 6 0.000000 0.000000 0.000000 0.001222 0.000000 0.020786
#
#
# Mechanical properties :
#
#
# Convention : Reuss Voigt Hill
#
# Bulk Modulus (GPa) = 56.45284 65.22226 60.83755
# Shear Modulus (GPa) = 31.15915 34.92574 33.04244
#
# Velocity S-wave (km/s) = 3.75418 3.97461 3.86597
# Velocity P-wave (km/s) = 6.65781 7.11088 6.88807
#
# Compressibility (1/GPa) = 0.01771390
#
# Stress axis : x y z
#
# Youngs Moduli (GPa) = 70.17107 86.16554 53.29407
#
# Poissons Ratio (x) = 0.41776 0.25798
# Poissons Ratio (y) = 0.34022 0.20061
# Poissons Ratio (z) = 0.33967 0.32434
#
# Static dielectric constant tensor:
#      x y z
#    x 4.092390 0.000000 -0.095680 
#    y 0.000000 4.350480 0.000000 
#    z -0.095680 0.000000 3.731230 
# 
# 
# High freq. dielectric constant tensor:
#      x y z
#    x 1.868890 0.000000 -0.027770 
#    y 0.000000 1.887810 0.000000 
#    z -0.027770 0.000000 1.845530 
# 
# From -- ./inp_files/248374.got.cif
#   From: 2010.06.25/outbox.cif.g09.slc.cpg/sg15_125_cif.got.tgz:248374.got - 2010.06.28 07:06:18.
