data_PCOD8140679
_publ_section_title
;
Structure prediction by ZEFSAII (Michael W. Deem and Ramdas Pophale) SiO2 
 PCOD8140679
Probable space group: C 2/C
;
_chemical_formula_sum "Si O2"
_cell_formula_units_Z 36
_cell_length_a 24.721423
_cell_length_b 7.447142
_cell_length_c 8.644091
_cell_angle_alpha 90.000000
_cell_angle_beta 101.034257
_cell_angle_gamma 90.000000
_cell_volume 1561.990734
_symmetry_space_group_name_H-M "C 2/C"
_symmetry_group_IT_number 15
_symmetry_cell_setting 'monoclinic'
loop_
_space_group_symop_operation_xyz
x,y,z
-x,y,1/2-z
-x,-y,-z
x,-y,1/2+z
1/2+x,1/2+y,z
1/2-x,1/2+y,1/2-z
1/2-x,1/2-y,-z
1/2+x,1/2-y,1/2+z
loop_
_atom_site_type_symbol
_atom_site_label
_atom_site_fract_x
_atom_site_fract_y
_atom_site_fract_z
Si Si1 0.000000 0.451261 0.250000
Si Si2 0.161797 0.128547 0.953459
Si Si3 0.210954 0.181014 0.299215
Si Si4 0.575389 0.143977 0.528804
Si Si5 0.322765 0.939904 0.784395
O O1 0.041861 0.578654 0.363034
O O2 0.965169 0.327207 0.347881
O O3 0.102642 0.161732 0.005542
O O4 0.165307 0.283172 0.828363
O O5 0.167312 0.936535 0.873814
O O6 0.207575 0.144837 0.112153
O O7 0.198342 0.388034 0.324145
O O8 0.274350 0.130003 0.375432
O O9 0.622931 0.995016 0.589407
#
# Coordination Sequence:
#
# PCOD8140679 Si02
#       5
#     4   8   8   8   8
#     4  10  20  42  70 102 116 176 226 286 332 390
#     4  11  24  44  60 103 134 182 218 266 324 400
#     4  11  25  39  67  96 147 175 219 258 328 402
#     4  10  22  39  69 100 129 165 234 269 334 390
#     4  11  22  41  67 100 135 182 215 267 324 400
#
# _framework density 23.047509000000002
#
# number of rings (size 3 to 8) (size 9 to 14) (size 15 to 20)
#    0.000    1.333    4.444    0.667    3.111    4.444 
#    0.000    0.000    0.000   16.000    0.000    0.000 
#    0.000    0.000    0.000    0.000    0.000    0.000 
#
# Total GULP energy -223115.453142 kJ/mol
# GULP energy per Si atom -12395.302952 kJ/mol
# Density = 2.299505 g / cm^3
# Si number density = 23.047509 Si / 1000 Ang^3
#
#
#
# Elastic Constant Matrix: (Units=GPa)
#
#
# Indices 1 2 3 4 5 6 
#
# 1 125.1599 14.3150 23.5264 0.0000 9.4319 0.0000
# 2 14.3150 48.7778 -28.0458 0.0000 6.0230 0.0000
# 3 23.5264 -28.0458 69.2436 0.0000 19.3666 0.0000
# 4 0.0000 0.0000 0.0000 -11.5584 0.0000 7.9465
# 5 9.4319 6.0230 19.3666 0.0000 41.0374 0.0000
# 6 0.0000 0.0000 0.0000 7.9465 0.0000 26.3542
#
#
#
# Elastic Compliance Matrix: (Units=1/GPa)
#
#
# Indices 1 2 3 4 5 6 
#
# 1 0.009921 -0.007044 -0.006768 0.000000 0.001948 0.000000
# 2 -0.007044 0.036231 0.020855 0.000000 -0.013541 0.000000
# 3 -0.006768 0.020855 0.029504 0.000000 -0.015429 0.000000
# 4 0.000000 0.000000 0.000000 -0.071661 0.000000 0.021608
# 5 0.001948 -0.013541 -0.015429 0.000000 0.033189 0.000000
# 6 0.000000 0.000000 0.000000 0.021608 0.000000 0.031429
#
#
# Mechanical properties :
#
#
# Convention : Reuss Voigt Hill
#
# Bulk Modulus (GPa) = 11.14299 29.19694 20.16996
# Shear Modulus (GPa) = 59.21313 26.72568 42.96941
#
# Velocity S-wave (km/s) = 5.07420 3.40897 4.32254
# Velocity P-wave (km/s) = 6.25902 5.30947 5.80370
#
# Compressibility (1/GPa) = 0.08974249
#
# Stress axis : x y z
#
# Youngs Moduli (GPa) = 100.79758 27.60031 33.89397
#
# Poissons Ratio (x) = 0.19441 0.22941
# Poissons Ratio (y) = 0.70999 -0.70687
# Poissons Ratio (z) = 0.68224 -0.57561
#
# Static dielectric constant tensor:
#      x y z
#    x 4.592200 0.000000 -0.158940 
#    y 0.000000 3.990140 0.000000 
#    z -0.158940 0.000000 4.349540 
# 
# 
# High freq. dielectric constant tensor:
#      x y z
#    x 1.910850 0.000000 -0.005220 
#    y 0.000000 1.882010 0.000000 
#    z -0.005220 0.000000 1.933580 
# 
# From -- ./inp_files/64428.got.cif
#   From: 2010.06.25/outbox.cif.g09.slc.cpg/sg15_33_cif.got.tgz:64428.got - 2010.06.28 07:06:18.
