data_PCOD8140220
_publ_section_title
;
Structure prediction by ZEFSAII (Michael W. Deem and Ramdas Pophale) SiO2 
 PCOD8140220
Probable space group: C 2/C
;
_chemical_formula_sum "Si O2"
_cell_formula_units_Z 44
_cell_length_a 16.889306
_cell_length_b 7.736370
_cell_length_c 19.333974
_cell_angle_alpha 90.000000
_cell_angle_beta 48.404119
_cell_angle_gamma 90.000000
_cell_volume 1889.218702
_symmetry_space_group_name_H-M "C 2/C"
_symmetry_group_IT_number 15
_symmetry_cell_setting 'monoclinic'
loop_
_space_group_symop_operation_xyz
x,y,z
-x,y,1/2-z
-x,-y,-z
x,-y,1/2+z
1/2+x,1/2+y,z
1/2-x,1/2+y,1/2-z
1/2-x,1/2-y,-z
1/2+x,1/2-y,1/2+z
loop_
_atom_site_type_symbol
_atom_site_label
_atom_site_fract_x
_atom_site_fract_y
_atom_site_fract_z
Si Si1 0.299904 0.997296 0.442148
Si Si2 0.375535 0.260547 0.502911
Si Si3 0.000000 0.892746 0.250000
Si Si4 0.782337 0.534495 0.680518
Si Si5 0.329797 0.655562 0.367355
Si Si6 0.403715 0.748870 0.673444
O O1 0.361428 0.859546 0.356756
O O2 0.268729 0.884587 0.526508
O O3 0.370214 0.154023 0.432255
O O4 0.199636 0.072822 0.458235
O O5 0.340108 0.156088 0.590907
O O6 0.500217 0.311838 0.433113
O O7 0.066059 0.770492 0.263119
O O8 0.076916 0.023914 0.163760
O O9 0.709432 0.386510 0.687212
O O10 0.702576 0.637063 0.777418
O O11 0.874050 0.447323 0.673597
#
# Coordination Sequence:
#
# PCOD8140220 Si02
#       6
#     8   8   4   8   8   8
#     4   9  18  35  65  99 125 160 223 267 320 389
#     4  10  20  41  68  95 130 177 217 273 324 394
#     4  10  20  40  70  92 130 170 228 268 330 384
#     4  10  24  42  64  93 138 167 224 272 334 387
#     4   9  18  38  61  93 128 164 208 276 315 392
#     4  11  23  45  64  96 131 177 216 280 324 401
#
# _framework density 23.290050999999998
#
# number of rings (size 3 to 8) (size 9 to 14) (size 15 to 20)
#    0.000    2.182    1.818    0.545    2.545    1.455 
#    9.818    3.636    0.000    0.000    0.000    0.000 
#    0.000    0.000    0.000    0.000    0.000    0.000 
#
# Total GULP energy -272615.303517 kJ/mol
# GULP energy per Si atom -12391.604705 kJ/mol
# Density = 2.323704 g / cm^3
# Si number density = 23.290051 Si / 1000 Ang^3
#
#
#
# Elastic Constant Matrix: (Units=GPa)
#
#
# Indices 1 2 3 4 5 6 
#
# 1 82.1547 45.6097 35.2339 0.0000 -7.9090 0.0003
# 2 45.6097 105.4603 39.6711 0.0000 7.7924 0.0004
# 3 35.2339 39.6711 91.8413 0.0000 -22.1491 0.0000
# 4 0.0000 0.0000 0.0000 32.0551 0.0000 -0.6441
# 5 -7.9090 7.7924 -22.1491 0.0000 25.8371 0.0000
# 6 0.0003 0.0004 0.0000 -0.6441 0.0000 37.7181
#
#
#
# Elastic Compliance Matrix: (Units=1/GPa)
#
#
# Indices 1 2 3 4 5 6 
#
# 1 0.017704 -0.007188 -0.002341 0.000000 0.005580 0.000000
# 2 -0.007188 0.016502 -0.007691 0.000000 -0.013771 0.000000
# 3 -0.002341 -0.007691 0.019534 0.000000 0.018349 0.000000
# 4 0.000000 0.000000 0.000000 0.031207 0.000000 0.000533
# 5 0.005580 -0.013771 0.018349 0.000000 0.060295 0.000000
# 6 0.000000 0.000000 0.000000 0.000533 0.000000 0.026522
#
#
# Mechanical properties :
#
#
# Convention : Reuss Voigt Hill
#
# Bulk Modulus (GPa) = 51.81840 57.83175 54.82508
# Shear Modulus (GPa) = 23.51409 29.71815 26.61612
#
# Velocity S-wave (km/s) = 3.18090 3.57599 3.38422
# Velocity P-wave (km/s) = 5.98233 6.47575 6.23392
#
# Compressibility (1/GPa) = 0.01929816
#
# Stress axis : x y z
#
# Youngs Moduli (GPa) = 56.48372 60.59910 51.19294
#
# Poissons Ratio (x) = 0.43561 0.11985
# Poissons Ratio (y) = 0.40603 0.39374
# Poissons Ratio (z) = 0.13224 0.46609
#
# Static dielectric constant tensor:
#      x y z
#    x 4.041270 0.000000 -0.145060 
#    y 0.000000 4.425350 0.000000 
#    z -0.145060 0.000000 4.082570 
# 
# 
# High freq. dielectric constant tensor:
#      x y z
#    x 1.898600 0.000000 -0.008460 
#    y 0.000000 1.918110 0.000000 
#    z -0.008460 0.000000 1.912220 
# 
# From -- ./inp_files/246799.got.cif
#   From: 2010.06.25/outbox.cif.g09.slc.cpg/sg15_124_cif.got.tgz:246799.got - 2010.06.28 07:06:18.
