data_PCOD8140632
_publ_section_title
;
Structure prediction by ZEFSAII (Michael W. Deem and Ramdas Pophale) SiO2 
 PCOD8140632
Probable space group: C 2/C
;
_chemical_formula_sum "Si O2"
_cell_formula_units_Z 56
_cell_length_a 17.814772
_cell_length_b 26.981840
_cell_length_c 9.961072
_cell_angle_alpha 90.000000
_cell_angle_beta 143.138566
_cell_angle_gamma 90.000000
_cell_volume 2872.259072
_symmetry_space_group_name_H-M "C 2/C"
_symmetry_group_IT_number 15
_symmetry_cell_setting 'monoclinic'
loop_
_space_group_symop_operation_xyz
x,y,z
-x,y,1/2-z
-x,-y,-z
x,-y,1/2+z
1/2+x,1/2+y,z
1/2-x,1/2+y,1/2-z
1/2-x,1/2-y,-z
1/2+x,1/2-y,1/2+z
loop_
_atom_site_type_symbol
_atom_site_label
_atom_site_fract_x
_atom_site_fract_y
_atom_site_fract_z
Si Si1 0.091505 0.822814 0.999438
Si Si2 0.522866 0.837291 0.427644
Si Si3 0.285314 0.081583 0.379034
Si Si4 0.420332 0.345233 0.006653
Si Si5 0.295749 0.106395 0.696284
Si Si6 0.587178 0.015129 0.503510
Si Si7 0.777713 0.733469 0.190127
O O1 0.165093 0.872075 0.061730
O O2 0.193676 0.780521 0.175836
O O3 0.000000 0.805227 0.750000
O O4 0.011976 0.834088 0.016655
O O5 0.592775 0.888838 0.496043
O O6 0.394192 0.848718 0.319780
O O7 0.601005 0.801998 0.637598
O O8 0.500000 0.810760 0.250000
O O9 0.162472 0.106382 0.140555
O O10 0.273077 0.080347 0.521685
O O11 0.302341 0.025239 0.355658
O O12 0.338198 0.295943 0.911867
O O13 0.500000 0.358629 0.250000
O O14 0.345721 0.067420 0.876338
O O15 0.500000 0.000000 0.500000
O O16 0.500000 0.019596 0.250000
O O17 0.750000 0.750000 0.000000
#
# Coordination Sequence:
#
# PCOD8140632 Si02
#       7
#     8   8   8   8   8   8   8
#     4  12  26  43  66  94 133 178 223 262 322 399
#     4   9  19  38  63  93 124 168 214 263 331 380
#     4  10  20  42  67  92 134 169 208 273 331 385
#     4  11  24  45  67  92 135 177 213 268 332 388
#     4  11  23  40  66  99 132 166 219 274 324 390
#     4  12  22  39  69 102 131 162 217 279 332 381
#     4  11  24  40  65  93 129 169 218 276 326 381
#
# _framework density 19.496846999999999
#
# number of rings (size 3 to 8) (size 9 to 14) (size 15 to 20)
#    0.000    1.143    5.714    0.857    2.000    2.857 
#    0.000    1.429    0.000    0.000    0.000    0.000 
#    0.000    0.000    0.000    0.000    0.000    0.000 
#
# Total GULP energy -347298.401215 kJ/mol
# GULP energy per Si atom -12403.514329 kJ/mol
# Density = 1.945247 g / cm^3
# Si number density = 19.496847 Si / 1000 Ang^3
#
#
#
# Elastic Constant Matrix: (Units=GPa)
#
#
# Indices 1 2 3 4 5 6 
#
# 1 124.5252 48.6750 50.5151 0.0000 -2.6907 0.0000
# 2 48.6750 105.8454 60.0708 0.0000 -3.6300 0.0000
# 3 50.5151 60.0708 153.0053 0.0000 -13.5285 0.0000
# 4 0.0000 0.0000 0.0000 40.6993 0.0000 1.0519
# 5 -2.6907 -3.6300 -13.5285 0.0000 32.7816 0.0000
# 6 0.0000 0.0000 0.0000 1.0519 0.0000 21.8990
#
#
#
# Elastic Compliance Matrix: (Units=1/GPa)
#
#
# Indices 1 2 3 4 5 6 
#
# 1 0.010236 -0.003581 -0.002008 0.000000 -0.000385 0.000000
# 2 -0.003581 0.013423 -0.004133 0.000000 -0.000513 0.000000
# 3 -0.002008 -0.004133 0.009098 0.000000 0.003132 0.000000
# 4 0.000000 0.000000 0.000000 0.024601 0.000000 -0.001182
# 5 -0.000385 -0.000513 0.003132 0.000000 0.031709 0.000000
# 6 0.000000 0.000000 0.000000 -0.001182 0.000000 0.045721
#
#
# Mechanical properties :
#
#
# Convention : Reuss Voigt Hill
#
# Bulk Modulus (GPa) = 75.11023 77.98863 76.54943
# Shear Modulus (GPa) = 31.51211 34.01699 32.76455
#
# Velocity S-wave (km/s) = 4.02464 4.18154 4.10384
# Velocity P-wave (km/s) = 7.75918 7.96249 7.86149
#
# Compressibility (1/GPa) = 0.01331377
#
# Stress axis : x y z
#
# Youngs Moduli (GPa) = 97.69009 74.50154 109.91381
#
# Poissons Ratio (x) = 0.26681 0.22066
# Poissons Ratio (y) = 0.34985 0.45425
# Poissons Ratio (z) = 0.19612 0.30790
#
# Static dielectric constant tensor:
#      x y z
#    x 3.478230 0.000000 0.005880 
#    y 0.000000 3.549700 0.000000 
#    z 0.005880 0.000000 3.719890 
# 
# 
# High freq. dielectric constant tensor:
#      x y z
#    x 1.758520 0.000000 -0.002910 
#    y 0.000000 1.752270 0.000000 
#    z -0.002910 0.000000 1.771840 
# 
# From -- ./inp_files/52343.got.cif
#   From: 2010.06.25/outbox.cif.g09.slc.cpg/sg15_27_cif.got.tgz:52343.got - 2010.06.28 07:06:18.
