data_PCOD8140130
_publ_section_title
;
Structure prediction by ZEFSAII (Michael W. Deem and Ramdas Pophale) SiO2 
 PCOD8140130
Probable space group: C 2/C
;
_chemical_formula_sum "Si O2"
_cell_formula_units_Z 64
_cell_length_a 19.661281
_cell_length_b 11.708085
_cell_length_c 26.648948
_cell_angle_alpha 90.000000
_cell_angle_beta 29.204093
_cell_angle_gamma 90.000000
_cell_volume 2993.147791
_symmetry_space_group_name_H-M "C 2/C"
_symmetry_group_IT_number 15
_symmetry_cell_setting 'monoclinic'
loop_
_space_group_symop_operation_xyz
x,y,z
-x,y,1/2-z
-x,-y,-z
x,-y,1/2+z
1/2+x,1/2+y,z
1/2-x,1/2+y,1/2-z
1/2-x,1/2-y,-z
1/2+x,1/2-y,1/2+z
loop_
_atom_site_type_symbol
_atom_site_label
_atom_site_fract_x
_atom_site_fract_y
_atom_site_fract_z
Si Si1 0.128707 0.218094 0.317263
Si Si2 0.088764 0.479099 0.513628
Si Si3 0.717391 0.423667 0.026114
Si Si4 0.467882 0.777066 0.828313
Si Si5 0.232784 0.150018 0.859132
Si Si6 0.004434 0.683649 0.985523
Si Si7 0.311640 0.664481 0.501872
Si Si8 0.168126 0.432529 0.757685
O O1 0.168639 0.275782 0.239690
O O2 0.227617 0.109912 0.265426
O O3 0.134555 0.297509 0.363631
O O4 0.966597 0.194449 0.416965
O O5 0.231856 0.459264 0.450951
O O6 0.102969 0.589192 0.468534
O O7 0.064464 0.362220 0.498920
O O8 0.959490 0.500965 0.634685
O O9 0.580718 0.343744 0.116799
O O10 0.676496 0.536947 0.024343
O O11 0.840863 0.365009 0.915552
O O12 0.500000 0.758779 0.750000
O O13 0.605210 0.824569 0.767815
O O14 0.247401 0.017134 0.833929
O O15 0.075615 0.197172 0.951790
O O16 0.277906 0.167096 0.888506
O O17 0.250000 0.750000 0.500000
#
# Coordination Sequence:
#
# PCOD8140130 Si02
#       8
#     8   8   8   8   8   8   8   8
#     4  11  24  42  65 101 130 172 223 280 333 399
#     4  10  20  40  67  91 129 178 215 269 336 398
#     4  10  22  44  63  94 133 173 224 272 327 408
#     4  10  23  42  66  95 131 180 219 269 340 398
#     4  11  23  43  69  97 133 176 225 280 342 399
#     4  10  21  39  65  94 132 171 213 272 337 398
#     4  11  26  46  67  97 138 179 226 277 340 404
#     4  11  23  41  68 101 131 174 229 281 339 401
#
# _framework density 21.382172000000001
#
# number of rings (size 3 to 8) (size 9 to 14) (size 15 to 20)
#    0.000    1.500    2.500    2.250    3.500    3.500 
#    9.000    0.000    0.000    0.000    0.000    0.000 
#    0.000    0.000    0.000    0.000    0.000    0.000 
#
# Total GULP energy -396685.466358 kJ/mol
# GULP energy per Si atom -12396.420824 kJ/mol
# Density = 2.133351 g / cm^3
# Si number density = 21.382172 Si / 1000 Ang^3
#
#
#
# Elastic Constant Matrix: (Units=GPa)
#
#
# Indices 1 2 3 4 5 6 
#
# 1 94.8044 38.1066 48.3764 0.0000 13.3556 0.0001
# 2 38.1066 108.3504 43.4746 -0.0004 8.1837 -0.0004
# 3 48.3764 43.4746 89.0250 -0.0028 19.5010 -0.0001
# 4 0.0000 -0.0004 -0.0028 35.0479 0.0002 3.7223
# 5 13.3556 8.1837 19.5010 0.0002 36.8732 -0.0001
# 6 0.0001 -0.0004 -0.0001 3.7223 -0.0001 24.0057
#
#
#
# Elastic Compliance Matrix: (Units=1/GPa)
#
#
# Indices 1 2 3 4 5 6 
#
# 1 0.015189 -0.002546 -0.006706 -0.000001 -0.001390 0.000000
# 2 -0.002546 0.011913 -0.004588 0.000000 0.000705 0.000000
# 3 -0.006706 -0.004588 0.018506 0.000001 -0.006340 0.000000
# 4 -0.000001 0.000000 0.000001 0.029010 -0.000001 -0.004498
# 5 -0.001390 0.000705 -0.006340 -0.000001 0.030820 0.000000
# 6 0.000000 0.000000 0.000000 -0.004498 0.000000 0.042354
#
#
# Mechanical properties :
#
#
# Convention : Reuss Voigt Hill
#
# Bulk Modulus (GPa) = 55.78114 61.34389 58.56252
# Shear Modulus (GPa) = 27.55597 30.00016 28.77807
#
# Velocity S-wave (km/s) = 3.59379 3.74979 3.67262
# Velocity P-wave (km/s) = 6.58519 6.89198 6.74033
#
# Compressibility (1/GPa) = 0.01792720
#
# Stress axis : x y z
#
# Youngs Moduli (GPa) = 65.83621 83.94501 54.03602
#
# Poissons Ratio (x) = 0.21375 0.36236
# Poissons Ratio (y) = 0.16764 0.24792
# Poissons Ratio (z) = 0.44149 0.38515
#
# Static dielectric constant tensor:
#      x y z
#    x 3.951870 0.000000 0.342600 
#    y 0.000000 3.959090 0.000000 
#    z 0.342600 0.000000 4.018300 
# 
# 
# High freq. dielectric constant tensor:
#      x y z
#    x 1.836380 0.000000 0.020160 
#    y 0.000000 1.842740 0.000000 
#    z 0.020160 0.000000 1.834620 
# 
# From -- ./inp_files/300829.got.cif
#   From: 2010.06.25/outbox.cif.g09.slc.cpg/sg15_151_cif.got.tgz:300829.got - 2010.06.28 07:06:18.
