data_PCOD8140728
_publ_section_title
;
Structure prediction by ZEFSAII (Michael W. Deem and Ramdas Pophale) SiO2 
 PCOD8140728
Probable space group: C 2/C
;
_chemical_formula_sum "Si O2"
_cell_formula_units_Z 60
_cell_length_a 8.955521
_cell_length_b 19.058559
_cell_length_c 19.781926
_cell_angle_alpha 90.000000
_cell_angle_beta 54.849416
_cell_angle_gamma 90.000000
_cell_volume 2760.657632
_symmetry_space_group_name_H-M "C 2/C"
_symmetry_group_IT_number 15
_symmetry_cell_setting 'monoclinic'
loop_
_space_group_symop_operation_xyz
x,y,z
-x,y,1/2-z
-x,-y,-z
x,-y,1/2+z
1/2+x,1/2+y,z
1/2-x,1/2+y,1/2-z
1/2-x,1/2-y,-z
1/2+x,1/2-y,1/2+z
loop_
_atom_site_type_symbol
_atom_site_label
_atom_site_fract_x
_atom_site_fract_y
_atom_site_fract_z
Si Si1 0.500000 0.083741 0.250000
Si Si2 0.547442 0.809415 0.429289
Si Si3 0.226145 0.816776 0.612491
Si Si4 0.416867 0.049619 0.122932
Si Si5 0.774673 0.440422 0.064664
Si Si6 0.129352 0.158891 0.379312
Si Si7 0.985751 0.074159 0.538760
Si Si8 0.130735 0.338795 0.158276
O O1 0.473492 0.038982 0.187136
O O2 0.316887 0.129697 0.300519
O O3 0.360551 0.794205 0.517638
O O4 0.680837 0.860166 0.433290
O O5 0.662240 0.740193 0.384858
O O6 0.491147 0.846061 0.375531
O O7 0.322357 0.873740 0.636521
O O8 0.188386 0.742549 0.659925
O O9 0.040791 0.850600 0.628824
O O10 0.279345 0.989995 0.130033
O O11 0.595366 0.035059 0.030882
O O12 0.570318 0.437880 0.090651
O O13 0.093542 0.126495 0.461912
O O14 0.789463 0.105133 0.606288
O O15 0.000000 0.000000 0.500000
O O16 0.000000 0.367793 0.250000
#
# Coordination Sequence:
#
# PCOD8140728 Si02
#       8
#     4   8   8   8   8   8   8   8
#     4  12  26  40  66 104 144 170 224 306 334 402
#     4  10  21  43  71  94 137 180 229 279 336 421
#     4  10  20  42  74  96 130 185 230 270 340 428
#     4  10  23  41  69 102 136 177 227 285 342 403
#     4  10  23  44  67  98 133 184 229 272 344 414
#     4  11  22  42  66 103 133 179 230 273 349 405
#     4  12  24  44  71  97 131 183 232 275 343 421
#     4  11  24  42  69 104 134 177 228 291 339 402
#
# _framework density 21.733951000000001
#
# number of rings (size 3 to 8) (size 9 to 14) (size 15 to 20)
#    0.000    1.333    4.000    1.600    7.467    1.600 
#    4.800    0.000    0.000    0.000    0.000    0.000 
#    0.000    0.000    0.000    0.000    0.000    0.000 
#
# Total GULP energy -371785.309467 kJ/mol
# GULP energy per Si atom -12392.843649 kJ/mol
# Density = 2.168448 g / cm^3
# Si number density = 21.733951 Si / 1000 Ang^3
#
#
#
# Elastic Constant Matrix: (Units=GPa)
#
#
# Indices 1 2 3 4 5 6 
#
# 1 119.7756 63.6434 44.4268 0.0000 21.0984 0.0000
# 2 63.6434 89.6285 35.7317 0.0000 0.0315 0.0000
# 3 44.4268 35.7317 115.6480 0.0000 4.6452 0.0000
# 4 0.0000 0.0000 0.0000 20.4677 0.0000 -1.8804
# 5 21.0984 0.0315 4.6452 0.0000 35.1496 0.0000
# 6 0.0000 0.0000 0.0000 -1.8804 0.0000 35.8147
#
#
#
# Elastic Compliance Matrix: (Units=1/GPa)
#
#
# Indices 1 2 3 4 5 6 
#
# 1 0.016858 -0.010882 -0.002722 0.000000 -0.009750 0.000000
# 2 -0.010882 0.019758 -0.002198 0.000000 0.006805 0.000000
# 3 -0.002722 -0.002198 0.010361 0.000000 0.000267 0.000000
# 4 0.000000 0.000000 0.000000 0.049094 0.000000 0.002578
# 5 -0.009750 0.006805 0.000267 0.000000 0.034261 0.000000
# 6 0.000000 0.000000 0.000000 0.002578 0.000000 0.028057
#
#
# Mechanical properties :
#
#
# Convention : Reuss Voigt Hill
#
# Bulk Modulus (GPa) = 65.04746 68.07289 66.56018
# Shear Modulus (GPa) = 25.62557 30.36973 27.99765
#
# Velocity S-wave (km/s) = 3.43747 3.74216 3.59304
# Velocity P-wave (km/s) = 6.76379 7.07535 6.92132
#
# Compressibility (1/GPa) = 0.01537339
#
# Stress axis : x y z
#
# Youngs Moduli (GPa) = 59.31776 50.61247 96.51575
#
# Poissons Ratio (x) = 0.55077 0.26275
# Poissons Ratio (y) = 0.64550 0.21210
# Poissons Ratio (z) = 0.16149 0.11122
#
# Static dielectric constant tensor:
#      x y z
#    x 3.760880 0.000000 0.061030 
#    y 0.000000 3.789780 0.000000 
#    z 0.061030 0.000000 3.852480 
# 
# 
# High freq. dielectric constant tensor:
#      x y z
#    x 1.858340 0.000000 0.004880 
#    y 0.000000 1.859050 0.000000 
#    z 0.004880 0.000000 1.841050 
# 
# From -- ./inp_files/234066.got.cif
#   From: 2010.06.25/outbox.cif.g09.slc.cpg/sg15_118_cif.got.tgz:234066.got - 2010.06.28 07:06:18.
