data_PCOD8140178
_publ_section_title
;
Structure prediction by ZEFSAII (Michael W. Deem and Ramdas Pophale) SiO2 
 PCOD8140178
Probable space group: C 2/C
;
_chemical_formula_sum "Si O2"
_cell_formula_units_Z 64
_cell_length_a 13.851025
_cell_length_b 12.896480
_cell_length_c 25.651517
_cell_angle_alpha 90.000000
_cell_angle_beta 38.934745
_cell_angle_gamma 90.000000
_cell_volume 2879.562026
_symmetry_space_group_name_H-M "C 2/C"
_symmetry_group_IT_number 15
_symmetry_cell_setting 'monoclinic'
loop_
_space_group_symop_operation_xyz
x,y,z
-x,y,1/2-z
-x,-y,-z
x,-y,1/2+z
1/2+x,1/2+y,z
1/2-x,1/2+y,1/2-z
1/2-x,1/2-y,-z
1/2+x,1/2-y,1/2+z
loop_
_atom_site_type_symbol
_atom_site_label
_atom_site_fract_x
_atom_site_fract_y
_atom_site_fract_z
Si Si1 0.674684 0.415426 0.186993
Si Si2 0.545676 0.356177 0.943945
Si Si3 0.777964 0.979188 0.550659
Si Si4 0.662647 0.104217 0.348060
Si Si5 0.042363 0.348939 0.171800
Si Si6 0.303180 0.807917 0.560962
Si Si7 0.287991 0.253293 0.712041
Si Si8 0.323956 0.034571 0.515678
O O1 0.500000 0.442279 0.250000
O O2 0.741982 0.498507 0.200122
O O3 0.692541 0.304436 0.207000
O O4 0.760498 0.416822 0.095390
O O5 0.686498 0.386578 0.923527
O O6 0.607115 0.339839 0.859685
O O7 0.419012 0.443870 0.995838
O O8 0.467364 0.249288 0.995214
O O9 0.773162 0.931196 0.494378
O O10 0.614608 0.036265 0.631736
O O11 0.748059 0.161246 0.359647
O O12 0.667162 0.181776 0.297405
O O13 0.493618 0.076892 0.437566
O O14 0.166519 0.265721 0.098150
O O15 0.000000 0.337409 0.250000
O O16 0.888260 0.329110 0.203215
O O17 0.322329 0.908833 0.516525
#
# Coordination Sequence:
#
# PCOD8140178 Si02
#       8
#     8   8   8   8   8   8   8   8
#     4  11  27  45  69 102 140 177 232 285 343 414
#     4  10  22  40  63  98 135 175 225 283 340 411
#     4  10  23  39  64  97 134 181 225 282 346 401
#     4  11  24  41  70  99 134 183 227 281 345 404
#     4  11  22  40  67 101 136 177 234 288 339 405
#     4  10  20  40  68  95 130 173 232 283 340 403
#     4  12  25  43  68  98 138 178 228 282 345 401
#     4  11  23  44  69  96 135 182 232 281 345 409
#
# _framework density 22.225603
#
# number of rings (size 3 to 8) (size 9 to 14) (size 15 to 20)
#    0.000    1.250    1.250    5.250    5.250    6.000 
#    0.000    1.875    0.000    0.000    0.000    0.000 
#    0.000    0.000    0.000    0.000    0.000    0.000 
#
# Total GULP energy -396781.223864 kJ/mol
# GULP energy per Si atom -12399.413246 kJ/mol
# Density = 2.217502 g / cm^3
# Si number density = 22.225603 Si / 1000 Ang^3
#
#
#
# Elastic Constant Matrix: (Units=GPa)
#
#
# Indices 1 2 3 4 5 6 
#
# 1 111.4302 33.1150 44.2199 0.0000 13.0044 0.0000
# 2 33.1150 56.3304 49.8404 0.0000 -0.7116 0.0001
# 3 44.2199 49.8404 119.2092 -0.0004 -4.8983 0.0002
# 4 0.0000 0.0000 -0.0004 22.9789 0.0001 2.5520
# 5 13.0044 -0.7116 -4.8983 0.0001 26.8756 -0.0001
# 6 0.0000 0.0001 0.0002 2.5520 -0.0001 31.6149
#
#
#
# Elastic Compliance Matrix: (Units=1/GPa)
#
#
# Indices 1 2 3 4 5 6 
#
# 1 0.012293 -0.004818 -0.002816 0.000000 -0.006589 0.000000
# 2 -0.004818 0.030116 -0.010756 0.000000 0.001168 0.000000
# 3 -0.002816 -0.010756 0.014080 0.000000 0.003644 0.000000
# 4 0.000000 0.000000 0.000000 0.043912 0.000000 -0.003545
# 5 -0.006589 0.001168 0.003644 0.000000 0.041092 0.000000
# 6 0.000000 0.000000 0.000000 -0.003545 0.000000 0.031917
#
#
# Mechanical properties :
#
#
# Convention : Reuss Voigt Hill
#
# Bulk Modulus (GPa) = 50.73998 60.14670 55.44334
# Shear Modulus (GPa) = 23.06701 26.94686 25.00694
#
# Velocity S-wave (km/s) = 3.22507 3.48577 3.35795
# Velocity P-wave (km/s) = 6.06195 6.58190 6.32727
#
# Compressibility (1/GPa) = 0.01970833
#
# Stress axis : x y z
#
# Youngs Moduli (GPa) = 81.34991 33.20444 71.02206
#
# Poissons Ratio (x) = 0.15997 0.20002
# Poissons Ratio (y) = 0.39193 0.76393
# Poissons Ratio (z) = 0.22910 0.35716
#
# Static dielectric constant tensor:
#      x y z
#    x 4.139450 0.000000 0.096000 
#    y 0.000000 4.050430 0.000000 
#    z 0.096000 0.000000 3.971470 
# 
# 
# High freq. dielectric constant tensor:
#      x y z
#    x 1.878260 0.000000 0.006600 
#    y 0.000000 1.868730 0.000000 
#    z 0.006600 0.000000 1.873440 
# 
# From -- ./inp_files/296107.got.cif
#   From: 2010.06.25/outbox.cif.g09.slc.cpg/sg15_149_cif.got.tgz:296107.got - 2010.06.28 07:06:18.
