data_PCOD8140027
_publ_section_title
;
Structure prediction by ZEFSAII (Michael W. Deem and Ramdas Pophale) SiO2 
 PCOD8140027
Probable space group: C 2/C
;
_chemical_formula_sum "Si O2"
_cell_formula_units_Z 44
_cell_length_a 26.357198
_cell_length_b 7.156109
_cell_length_c 15.033250
_cell_angle_alpha 90.000000
_cell_angle_beta 138.023309
_cell_angle_gamma 90.000000
_cell_volume 1896.459876
_symmetry_space_group_name_H-M "C 2/C"
_symmetry_group_IT_number 15
_symmetry_cell_setting 'monoclinic'
loop_
_space_group_symop_operation_xyz
x,y,z
-x,y,1/2-z
-x,-y,-z
x,-y,1/2+z
1/2+x,1/2+y,z
1/2-x,1/2+y,1/2-z
1/2-x,1/2-y,-z
1/2+x,1/2-y,1/2+z
loop_
_atom_site_type_symbol
_atom_site_label
_atom_site_fract_x
_atom_site_fract_y
_atom_site_fract_z
Si Si1 0.171300 0.907582 0.497034
Si Si2 0.500000 0.982652 0.750000
Si Si3 0.090206 0.875416 0.678983
Si Si4 0.477665 0.682756 0.590264
Si Si5 0.720953 0.392481 0.368843
Si Si6 0.148410 0.685550 0.925122
O O1 0.091966 0.846068 0.433689
O O2 0.242234 0.789168 0.632495
O O3 0.174128 0.840773 0.397451
O O4 0.179122 0.130557 0.516595
O O5 0.521198 0.859205 0.689929
O O6 0.571580 0.110524 0.869985
O O7 0.050513 0.767746 0.546044
O O8 0.129684 0.730939 0.797486
O O9 0.156966 0.009014 0.723468
O O10 0.029042 0.997422 0.654412
O O11 0.786525 0.534110 0.484222
#
# Coordination Sequence:
#
# PCOD8140027 Si02
#       6
#     8   4   8   8   8   8
#     4  10  20  40  65  89 127 164 219 257 325 380
#     4  12  22  38  72  96 130 176 234 254 330 404
#     4  10  23  42  65  93 136 165 220 272 334 377
#     4  11  23  42  65  94 127 179 214 271 320 395
#     4  10  21  41  65  96 121 170 211 272 329 387
#     4  11  22  40  66  96 125 172 214 272 321 398
#
# _framework density 23.201124
#
# number of rings (size 3 to 8) (size 9 to 14) (size 15 to 20)
#    0.000    1.455    1.818    5.455    2.545    0.727 
#    6.545    0.000    0.000    0.000    0.000    0.000 
#    0.000    0.000    0.000    0.000    0.000    0.000 
#
# Total GULP energy -272631.947367 kJ/mol
# GULP energy per Si atom -12392.361244 kJ/mol
# Density = 2.314832 g / cm^3
# Si number density = 23.201124 Si / 1000 Ang^3
#
#
#
# Elastic Constant Matrix: (Units=GPa)
#
#
# Indices 1 2 3 4 5 6 
#
# 1 111.6383 46.0864 22.7725 0.0000 29.2341 0.0000
# 2 46.0864 117.0062 34.7517 0.0000 -4.0798 0.0000
# 3 22.7725 34.7517 73.8551 0.0000 6.7905 0.0000
# 4 0.0000 0.0000 0.0000 17.0187 0.0000 4.2448
# 5 29.2341 -4.0798 6.7905 0.0000 23.7986 0.0000
# 6 0.0000 0.0000 0.0000 4.2448 0.0000 30.2019
#
#
#
# Elastic Compliance Matrix: (Units=1/GPa)
#
#
# Indices 1 2 3 4 5 6 
#
# 1 0.018780 -0.008379 0.000416 0.000000 -0.024625 0.000000
# 2 -0.008379 0.013904 -0.005262 0.000000 0.014178 0.000000
# 3 0.000416 -0.005262 0.016449 0.000000 -0.006107 0.000000
# 4 0.000000 0.000000 0.000000 0.060894 0.000000 -0.008558
# 5 -0.024625 0.014178 -0.006107 0.000000 0.076441 0.000000
# 6 0.000000 0.000000 0.000000 -0.008558 0.000000 0.034313
#
#
# Mechanical properties :
#
#
# Convention : Reuss Voigt Hill
#
# Bulk Modulus (GPa) = 44.08653 56.63566 50.36109
# Shear Modulus (GPa) = 19.62370 27.46310 23.54340
#
# Velocity S-wave (km/s) = 2.91143 3.44422 3.18897
# Velocity P-wave (km/s) = 5.50864 6.34670 5.94246
#
# Compressibility (1/GPa) = 0.02268267
#
# Stress axis : x y z
#
# Youngs Moduli (GPa) = 53.24796 71.91988 60.79259
#
# Poissons Ratio (x) = 0.60264 -0.02530
# Poissons Ratio (y) = 0.44618 0.31992
# Poissons Ratio (z) = -0.02216 0.37848
#
# Static dielectric constant tensor:
#      x y z
#    x 4.253070 0.000000 0.439760 
#    y 0.000000 4.535430 0.000000 
#    z 0.439760 0.000000 4.238180 
# 
# 
# High freq. dielectric constant tensor:
#      x y z
#    x 1.916640 0.000000 0.034620 
#    y 0.000000 1.917690 0.000000 
#    z 0.034620 0.000000 1.896100 
# 
# From -- ./inp_files/176295.got.cif
#   From: 2010.06.25/outbox.cif.g09.slc.cpg/sg15_89_cif.got.tgz:176295.got - 2010.06.28 07:06:18.
