data_PCOD8140373
_publ_section_title
;
Structure prediction by ZEFSAII (Michael W. Deem and Ramdas Pophale) SiO2 
 PCOD8140373
Probable space group: C 2/C
;
_chemical_formula_sum "Si O2"
_cell_formula_units_Z 48
_cell_length_a 9.389589
_cell_length_b 18.061556
_cell_length_c 13.839063
_cell_angle_alpha 90.000000
_cell_angle_beta 99.302171
_cell_angle_gamma 90.000000
_cell_volume 2316.111149
_symmetry_space_group_name_H-M "C 2/C"
_symmetry_group_IT_number 15
_symmetry_cell_setting 'monoclinic'
loop_
_space_group_symop_operation_xyz
x,y,z
-x,y,1/2-z
-x,-y,-z
x,-y,1/2+z
1/2+x,1/2+y,z
1/2-x,1/2+y,1/2-z
1/2-x,1/2-y,-z
1/2+x,1/2-y,1/2+z
loop_
_atom_site_type_symbol
_atom_site_label
_atom_site_fract_x
_atom_site_fract_y
_atom_site_fract_z
Si Si1 0.775625 0.066988 0.737077
Si Si2 0.000000 0.194121 0.750000
Si Si3 0.892568 0.408101 0.475973
Si Si4 0.546190 0.226309 0.058597
Si Si5 0.500000 0.438355 0.750000
Si Si6 0.153056 0.852794 0.935425
Si Si7 0.316032 0.961114 0.072708
O O1 0.862041 0.142924 0.751771
O O2 0.694277 0.068716 0.628069
O O3 0.663268 0.063157 0.813865
O O4 0.869347 0.992889 0.763861
O O5 0.011354 0.244998 0.845277
O O6 0.812382 0.449784 0.556723
O O7 0.910735 0.321980 0.503450
O O8 0.055023 0.434269 0.480058
O O9 0.696935 0.181510 0.089270
O O10 0.564609 0.290487 0.982344
O O11 0.550627 0.383881 0.840348
O O12 0.175979 0.920262 0.013352
#
# Coordination Sequence:
#
# PCOD8140373 Si02
#       7
#     8   4   8   8   4   8   8
#     4  11  23  39  64  94 130 165 213 265 324 380
#     4  11  24  40  62  94 131 170 204 266 329 386
#     4  10  22  40  65  95 123 168 219 261 318 379
#     4  10  23  42  64  92 131 169 210 267 322 389
#     4  11  24  38  66  96 121 172 216 258 323 394
#     4  10  21  43  63  90 128 171 212 258 327 388
#     4  10  20  41  66  89 126 167 213 268 312 381
#
# _framework density 20.724394
#
# number of rings (size 3 to 8) (size 9 to 14) (size 15 to 20)
#    0.000    1.667    3.333    0.500    0.000    5.333 
#    0.000    0.000    0.000    0.000    0.000    0.000 
#    0.000    0.000    0.000    0.000    0.000    0.000 
#
# Total GULP energy -297423.736822 kJ/mol
# GULP energy per Si atom -12392.655701 kJ/mol
# Density = 2.067722 g / cm^3
# Si number density = 20.724394 Si / 1000 Ang^3
#
#
#
# Elastic Constant Matrix: (Units=GPa)
#
#
# Indices 1 2 3 4 5 6 
#
# 1 47.9168 51.3321 45.1757 0.0000 2.5492 0.0000
# 2 51.3321 145.4930 63.4200 0.0000 -1.7010 0.0000
# 3 45.1757 63.4200 130.9964 0.0000 -3.8490 0.0000
# 4 0.0000 0.0000 0.0000 42.5759 0.0000 10.9884
# 5 2.5492 -1.7010 -3.8490 0.0000 39.7125 0.0000
# 6 0.0000 0.0000 0.0000 10.9884 0.0000 30.4306
#
#
#
# Elastic Compliance Matrix: (Units=1/GPa)
#
#
# Indices 1 2 3 4 5 6 
#
# 1 0.040976 -0.010511 -0.009159 0.000000 -0.003968 0.000000
# 2 -0.010511 0.011408 -0.001869 0.000000 0.000982 0.000000
# 3 -0.009159 -0.001869 0.011746 0.000000 0.001646 0.000000
# 4 0.000000 0.000000 0.000000 0.025901 0.000000 -0.009353
# 5 -0.003968 0.000982 0.001646 0.000000 0.025637 0.000000
# 6 0.000000 0.000000 0.000000 -0.009353 0.000000 0.036239
#
#
# Mechanical properties :
#
#
# Convention : Reuss Voigt Hill
#
# Bulk Modulus (GPa) = 47.50341 71.58465 59.54403
# Shear Modulus (GPa) = 24.75224 33.50903 29.13064
#
# Velocity S-wave (km/s) = 3.45969 4.02542 3.75323
# Velocity P-wave (km/s) = 6.23943 7.49810 6.89754
#
# Compressibility (1/GPa) = 0.02105112
#
# Stress axis : x y z
#
# Youngs Moduli (GPa) = 24.40478 87.65862 85.13754
#
# Poissons Ratio (x) = 0.92137 0.77976
# Poissons Ratio (y) = 0.25652 0.15915
# Poissons Ratio (z) = 0.22352 0.16386
#
# Static dielectric constant tensor:
#      x y z
#    x 3.767490 0.000000 -0.015110 
#    y 0.000000 4.222220 0.000000 
#    z -0.015110 0.000000 3.607520 
# 
# 
# High freq. dielectric constant tensor:
#      x y z
#    x 1.796300 0.000000 -0.001300 
#    y 0.000000 1.824930 0.000000 
#    z -0.001300 0.000000 1.812470 
# 
# From -- ./inp_files/87504.got.cif
#   From: 2010.06.25/outbox.cif.g09.slc.cpg/sg15_44_cif.got.tgz:87504.got - 2010.06.28 07:06:18.
