data_PCOD8140492
_publ_section_title
;
Structure prediction by ZEFSAII (Michael W. Deem and Ramdas Pophale) SiO2 
 PCOD8140492
Probable space group: C 2/C
;
_chemical_formula_sum "Si O2"
_cell_formula_units_Z 36
_cell_length_a 11.273190
_cell_length_b 9.708815
_cell_length_c 23.118328
_cell_angle_alpha 90.000000
_cell_angle_beta 38.020653
_cell_angle_gamma 90.000000
_cell_volume 1558.517736
_symmetry_space_group_name_H-M "C 2/C"
_symmetry_group_IT_number 15
_symmetry_cell_setting 'monoclinic'
loop_
_space_group_symop_operation_xyz
x,y,z
-x,y,1/2-z
-x,-y,-z
x,-y,1/2+z
1/2+x,1/2+y,z
1/2-x,1/2+y,1/2-z
1/2-x,1/2-y,-z
1/2+x,1/2-y,1/2+z
loop_
_atom_site_type_symbol
_atom_site_label
_atom_site_fract_x
_atom_site_fract_y
_atom_site_fract_z
Si Si1 0.684977 0.221387 0.938874
Si Si2 0.299817 0.470173 0.492576
Si Si3 0.820035 0.089150 0.206948
Si Si4 0.000000 0.336949 0.750000
Si Si5 0.427234 0.121678 0.639649
O O1 0.669123 0.114263 0.996931
O O2 0.558814 0.174011 0.932374
O O3 0.908631 0.237698 0.834007
O O4 0.617437 0.371943 0.988430
O O5 0.472588 0.539584 0.392750
O O6 0.142270 0.579038 0.577755
O O7 0.667106 0.069142 0.213354
O O8 0.847836 0.252160 0.210104
O O9 0.729537 0.003177 0.295070
#
# Coordination Sequence:
#
# PCOD8140492 Si02
#       5
#     8   8   8   4   8
#     4  10  22  40  72  92 140 174 229 283 350 399
#     4  11  22  42  68 102 131 180 229 284 343 410
#     4  11  24  42  68  94 141 173 231 283 335 414
#     4  10  20  42  60  94 130 190 208 278 356 394
#     4  11  24  44  68 102 134 182 228 280 348 412
#
# _framework density 23.098870999999999
#
# number of rings (size 3 to 8) (size 9 to 14) (size 15 to 20)
#    0.000    1.333    2.222    4.000    3.111    3.556 
#    4.000    0.000    0.000    0.000    0.000    0.000 
#    0.000    0.000    0.000    0.000    0.000    0.000 
#
# Total GULP energy -223084.246833 kJ/mol
# GULP energy per Si atom -12393.569269 kJ/mol
# Density = 2.304630 g / cm^3
# Si number density = 23.098871 Si / 1000 Ang^3
#
#
#
# Elastic Constant Matrix: (Units=GPa)
#
#
# Indices 1 2 3 4 5 6 
#
# 1 66.4371 40.6328 11.0174 0.0000 -8.8716 0.0000
# 2 40.6328 113.5014 29.0551 0.0002 -1.3063 -0.0001
# 3 11.0174 29.0551 97.9955 0.0005 -15.0104 -0.0003
# 4 0.0000 0.0002 0.0005 39.5380 -0.0002 6.0107
# 5 -8.8716 -1.3063 -15.0104 -0.0002 41.4107 0.0001
# 6 0.0000 -0.0001 -0.0003 6.0107 0.0001 28.1536
#
#
#
# Elastic Compliance Matrix: (Units=1/GPa)
#
#
# Indices 1 2 3 4 5 6 
#
# 1 0.019952 -0.007235 0.000553 0.000000 0.004247 0.000000
# 2 -0.007235 0.012181 -0.003152 0.000000 -0.002308 0.000000
# 3 0.000553 -0.003152 0.011731 0.000000 0.004271 0.000000
# 4 0.000000 0.000000 0.000000 0.026141 0.000000 -0.005581
# 5 0.004247 -0.002308 0.004271 0.000000 0.026534 0.000000
# 6 0.000000 0.000000 0.000000 -0.005581 0.000000 0.036711
#
#
# Mechanical properties :
#
#
# Convention : Reuss Voigt Hill
#
# Bulk Modulus (GPa) = 41.33028 48.81608 45.07318
# Shear Modulus (GPa) = 31.05904 34.96903 33.01403
#
# Velocity S-wave (km/s) = 3.67087 3.89509 3.78464
# Velocity P-wave (km/s) = 5.99155 6.43493 6.21720
#
# Compressibility (1/GPa) = 0.02419533
#
# Stress axis : x y z
#
# Youngs Moduli (GPa) = 50.11922 82.09559 85.24327
#
# Poissons Ratio (x) = 0.59400 -0.04710
# Poissons Ratio (y) = 0.36263 0.26866
# Poissons Ratio (z) = -0.02769 0.25874
#
# Static dielectric constant tensor:
#      x y z
#    x 3.808000 0.000000 0.081120 
#    y 0.000000 4.441380 0.000000 
#    z 0.081120 0.000000 4.192620 
# 
# 
# High freq. dielectric constant tensor:
#      x y z
#    x 1.880210 0.000000 -0.007440 
#    y 0.000000 1.915900 0.000000 
#    z -0.007440 0.000000 1.920940 
# 
# From -- ./inp_files/141620.got.cif
#   From: 2010.06.25/outbox.cif.g09.slc.cpg/sg15_71_cif.got.tgz:141620.got - 2010.06.28 07:06:18.
