data_PCOD8140248
_publ_section_title
;
Structure prediction by ZEFSAII (Michael W. Deem and Ramdas Pophale) SiO2 
 PCOD8140248
Probable space group: C 2/C
;
_chemical_formula_sum "Si O2"
_cell_formula_units_Z 56
_cell_length_a 15.820431
_cell_length_b 18.602265
_cell_length_c 9.159244
_cell_angle_alpha 90.000000
_cell_angle_beta 110.609497
_cell_angle_gamma 90.000000
_cell_volume 2523.016982
_symmetry_space_group_name_H-M "C 2/C"
_symmetry_group_IT_number 15
_symmetry_cell_setting 'monoclinic'
loop_
_space_group_symop_operation_xyz
x,y,z
-x,y,1/2-z
-x,-y,-z
x,-y,1/2+z
1/2+x,1/2+y,z
1/2-x,1/2+y,1/2-z
1/2-x,1/2-y,-z
1/2+x,1/2-y,1/2+z
loop_
_atom_site_type_symbol
_atom_site_label
_atom_site_fract_x
_atom_site_fract_y
_atom_site_fract_z
Si Si1 0.587147 0.046320 0.007187
Si Si2 0.689940 0.619820 0.717376
Si Si3 0.611707 0.203508 0.953039
Si Si4 0.641712 0.383389 0.509247
Si Si5 0.281031 0.264246 0.739010
Si Si6 0.529677 0.653617 0.432853
Si Si7 0.293340 0.010188 0.173929
O O1 0.644152 0.060143 0.187546
O O2 0.564246 0.124626 0.921770
O O3 0.500000 0.000000 0.000000
O O4 0.649579 0.000579 0.937406
O O5 0.736121 0.695064 0.779955
O O6 0.627320 0.619576 0.533731
O O7 0.771447 0.564751 0.740397
O O8 0.633329 0.609441 0.830153
O O9 0.633261 0.239278 0.807561
O O10 0.539902 0.260665 0.976161
O O11 0.706756 0.194198 0.095288
O O12 0.686975 0.312291 0.606007
O O13 0.540256 0.386307 0.505066
O O14 0.697640 0.452521 0.592509
O O15 0.500000 0.636246 0.250000
#
# Coordination Sequence:
#
# PCOD8140248 Si02
#       7
#     8   8   8   8   8   8   8
#     4  12  26  47  72 105 148 186 239 298 363 434
#     4  11  25  44  69 104 147 185 236 303 357 428
#     4  10  21  42  71 104 135 181 239 294 351 419
#     4  12  24  44  70 102 145 185 241 292 369 424
#     4  10  20  40  73  97 132 185 240 291 349 427
#     4  11  25  42  71 109 138 186 241 298 355 423
#     4  12  26  46  71 103 142 194 239 290 367 436
#
# _framework density 22.195650000000001
#
# number of rings (size 3 to 8) (size 9 to 14) (size 15 to 20)
#    0.000    0.857    5.714    1.286    2.000    2.857 
#    2.571    1.429    0.000    0.000    0.000    0.000 
#    0.000    0.000    0.000    0.000    0.000    0.000 
#
# Total GULP energy -347046.814752 kJ/mol
# GULP energy per Si atom -12394.529098 kJ/mol
# Density = 2.214513 g / cm^3
# Si number density = 22.195650 Si / 1000 Ang^3
#
#
#
# Elastic Constant Matrix: (Units=GPa)
#
#
# Indices 1 2 3 4 5 6 
#
# 1 115.4319 45.4422 14.2781 0.0000 -18.3025 0.0000
# 2 45.4422 83.0581 22.9537 0.0000 -1.0367 0.0000
# 3 14.2781 22.9537 96.8521 0.0000 3.3409 0.0000
# 4 0.0000 0.0000 0.0000 25.5884 0.0000 -3.4279
# 5 -18.3025 -1.0367 3.3409 0.0000 26.7420 0.0000
# 6 0.0000 0.0000 0.0000 -3.4279 0.0000 40.6194
#
#
#
# Elastic Compliance Matrix: (Units=1/GPa)
#
#
# Indices 1 2 3 4 5 6 
#
# 1 0.012721 -0.006692 -0.000583 0.000000 0.008520 0.000000
# 2 -0.006692 0.016425 -0.002782 0.000000 -0.003596 0.000000
# 3 -0.000583 -0.002782 0.011136 0.000000 -0.001898 0.000000
# 4 0.000000 0.000000 0.000000 0.039527 0.000000 0.003336
# 5 0.008520 -0.003596 -0.001898 0.000000 0.043323 0.000000
# 6 0.000000 0.000000 0.000000 0.003336 0.000000 0.024900
#
#
# Mechanical properties :
#
#
# Convention : Reuss Voigt Hill
#
# Bulk Modulus (GPa) = 49.58657 51.18778 50.38718
# Shear Modulus (GPa) = 28.59288 32.76783 30.68036
#
# Velocity S-wave (km/s) = 3.59307 3.84646 3.72192
# Velocity P-wave (km/s) = 6.29307 6.54516 6.42035
#
# Compressibility (1/GPa) = 0.02016675
#
# Stress axis : x y z
#
# Youngs Moduli (GPa) = 78.61292 60.88258 89.80030
#
# Poissons Ratio (x) = 0.40743 0.05237
# Poissons Ratio (y) = 0.52608 0.24983
# Poissons Ratio (z) = 0.04584 0.16938
#
# Static dielectric constant tensor:
#      x y z
#    x 3.922090 0.000000 -0.041960 
#    y 0.000000 3.931450 0.000000 
#    z -0.041960 0.000000 3.873160 
# 
# 
# High freq. dielectric constant tensor:
#      x y z
#    x 1.873760 0.000000 0.005170 
#    y 0.000000 1.870520 0.000000 
#    z 0.005170 0.000000 1.874630 
# 
# From -- ./inp_files/49139.got.cif
#   From: 2010.06.25/outbox.cif.g09.slc.cpg/sg15_25_cif.got.tgz:49139.got - 2010.06.28 07:06:18.
