data_PCOD8140278
_publ_section_title
;
Structure prediction by ZEFSAII (Michael W. Deem and Ramdas Pophale) SiO2 
 PCOD8140278
Probable space group: C 2/C
;
_chemical_formula_sum "Si O2"
_cell_formula_units_Z 40
_cell_length_a 10.401279
_cell_length_b 9.266913
_cell_length_c 26.478816
_cell_angle_alpha 90.000000
_cell_angle_beta 48.097070
_cell_angle_gamma 90.000000
_cell_volume 1899.569647
_symmetry_space_group_name_H-M "C 2/C"
_symmetry_group_IT_number 15
_symmetry_cell_setting 'monoclinic'
loop_
_space_group_symop_operation_xyz
x,y,z
-x,y,1/2-z
-x,-y,-z
x,-y,1/2+z
1/2+x,1/2+y,z
1/2-x,1/2+y,1/2-z
1/2-x,1/2-y,-z
1/2+x,1/2-y,1/2+z
loop_
_atom_site_type_symbol
_atom_site_label
_atom_site_fract_x
_atom_site_fract_y
_atom_site_fract_z
Si Si1 0.372871 0.208868 0.241623
Si Si2 0.965730 0.163999 0.994956
Si Si3 0.163593 0.577637 0.432736
Si Si4 0.700132 0.512410 0.208968
Si Si5 0.868956 0.824925 0.406200
O O1 0.500000 0.135710 0.250000
O O2 0.266518 0.339709 0.295805
O O3 0.251005 0.088654 0.248643
O O4 0.478126 0.289761 0.170923
O O5 0.927990 0.199242 0.946995
O O6 0.142355 0.256425 0.957865
O O7 0.796045 0.226150 0.067656
O O8 0.000000 0.000000 0.000000
O O9 0.174664 0.569075 0.368584
O O10 0.330992 0.496760 0.410743
O O11 0.000000 0.500000 0.500000
O O12 0.500000 0.547799 0.250000
#
# Coordination Sequence:
#
# PCOD8140278 Si02
#       5
#     8   8   8   8   8
#     4  11  23  42  66  91 128 173 215 261 320 382
#     4  10  22  38  64  95 124 158 214 264 315 375
#     4  10  20  41  67  87 127 172 207 260 323 379
#     4  11  23  44  64  95 131 170 215 267 322 383
#     4  10  20  41  62  87 128 167 204 261 317 379
#
# _framework density 21.057402
#
# number of rings (size 3 to 8) (size 9 to 14) (size 15 to 20)
#    0.000    1.600    6.000    0.000    0.000    3.200 
#    3.600    0.000    0.000    0.000    0.000    0.000 
#    0.000    0.000    0.000    0.000    0.000    0.000 
#
# Total GULP energy -247772.988840 kJ/mol
# GULP energy per Si atom -12388.649442 kJ/mol
# Density = 2.100947 g / cm^3
# Si number density = 21.057402 Si / 1000 Ang^3
#
#
#
# Elastic Constant Matrix: (Units=GPa)
#
#
# Indices 1 2 3 4 5 6 
#
# 1 92.4934 39.0680 8.8631 0.0000 0.5499 0.0000
# 2 39.0680 120.2301 10.7085 0.0000 -2.8154 0.0000
# 3 8.8631 10.7085 77.4752 0.0000 5.7490 0.0000
# 4 0.0000 0.0000 0.0000 22.3812 0.0000 9.6867
# 5 0.5499 -2.8154 5.7490 0.0000 12.9048 0.0000
# 6 0.0000 0.0000 0.0000 9.6867 0.0000 34.0920
#
#
#
# Elastic Compliance Matrix: (Units=1/GPa)
#
#
# Indices 1 2 3 4 5 6 
#
# 1 0.012605 -0.004049 -0.000803 0.000000 -0.001063 0.000000
# 2 -0.004049 0.009797 -0.001099 0.000000 0.002799 0.000000
# 3 -0.000803 -0.001099 0.013616 0.000000 -0.006272 0.000000
# 4 0.000000 0.000000 0.000000 0.050945 0.000000 -0.014475
# 5 -0.001063 0.002799 -0.006272 0.000000 0.080941 0.000000
# 6 0.000000 0.000000 0.000000 -0.014475 0.000000 0.033445
#
#
# Mechanical properties :
#
#
# Convention : Reuss Voigt Hill
#
# Bulk Modulus (GPa) = 41.46688 45.27532 43.37110
# Shear Modulus (GPa) = 22.59468 29.31286 25.95377
#
# Velocity S-wave (km/s) = 3.27923 3.73506 3.51454
# Velocity P-wave (km/s) = 5.83719 6.33628 6.09185
#
# Compressibility (1/GPa) = 0.02411563
#
# Stress axis : x y z
#
# Youngs Moduli (GPa) = 79.33184 102.07641 73.44033
#
# Poissons Ratio (x) = 0.41334 0.05901
# Poissons Ratio (y) = 0.32124 0.08068
# Poissons Ratio (z) = 0.06374 0.11214
#
# Static dielectric constant tensor:
#      x y z
#    x 3.941960 0.000000 0.078390 
#    y 0.000000 4.238800 0.000000 
#    z 0.078390 0.000000 4.106620 
# 
# 
# High freq. dielectric constant tensor:
#      x y z
#    x 1.801390 0.000000 0.007920 
#    y 0.000000 1.820670 0.000000 
#    z 0.007920 0.000000 1.840960 
# 
# From -- ./inp_files/235714.got.cif
#   From: 2010.06.25/outbox.cif.g09.slc.cpg/sg15_118_cif.got.tgz:235714.got - 2010.06.28 07:06:18.
