data_PCOD8140264
_publ_section_title
;
Structure prediction by ZEFSAII (Michael W. Deem and Ramdas Pophale) SiO2 
 PCOD8140264
Probable space group: C 2/C
;
_chemical_formula_sum "Si O2"
_cell_formula_units_Z 64
_cell_length_a 13.225110
_cell_length_b 16.911339
_cell_length_c 30.006260
_cell_angle_alpha 90.000000
_cell_angle_beta 28.269543
_cell_angle_gamma 90.000000
_cell_volume 3178.478541
_symmetry_space_group_name_H-M "C 2/C"
_symmetry_group_IT_number 15
_symmetry_cell_setting 'monoclinic'
loop_
_space_group_symop_operation_xyz
x,y,z
-x,y,1/2-z
-x,-y,-z
x,-y,1/2+z
1/2+x,1/2+y,z
1/2-x,1/2+y,1/2-z
1/2-x,1/2-y,-z
1/2+x,1/2-y,1/2+z
loop_
_atom_site_type_symbol
_atom_site_label
_atom_site_fract_x
_atom_site_fract_y
_atom_site_fract_z
Si Si1 0.709725 0.144162 0.486667
Si Si2 0.096258 0.612439 0.257783
Si Si3 0.509474 0.019074 0.069904
Si Si4 0.548118 0.292019 0.917502
Si Si5 0.177068 0.011449 0.772246
Si Si6 0.224335 0.796419 0.943973
Si Si7 0.358724 0.592409 0.344004
Si Si8 0.382417 0.358727 0.423889
O O1 0.635751 0.056342 0.503236
O O2 0.513411 0.202672 0.571340
O O3 0.824877 0.162160 0.394088
O O4 0.867751 0.148894 0.467607
O O5 0.225473 0.691202 0.193246
O O6 0.264707 0.549614 0.211253
O O7 0.000000 0.574303 0.250000
O O8 0.917110 0.640232 0.362470
O O9 0.390364 0.983687 0.159692
O O10 0.356269 0.055152 0.092222
O O11 0.684059 0.085015 0.012188
O O12 0.564549 0.301605 0.964195
O O13 0.095292 0.094545 0.825047
O O14 0.987210 0.980681 0.815205
O O15 0.321849 0.707949 0.910892
O O16 0.078450 0.816247 0.043603
O O17 0.500000 0.631899 0.250000
#
# Coordination Sequence:
#
# PCOD8140264 Si02
#       8
#     8   8   8   8   8   8   8   8
#     4  11  21  38  61  87 122 160 198 257 299 362
#     4  10  20  41  60  86 120 160 202 251 296 365
#     4  11  22  37  61  92 122 155 204 252 304 354
#     4  10  22  38  61  86 121 161 204 241 308 364
#     4  11  22  39  59  93 119 156 206 245 306 355
#     4  10  23  40  62  90 122 163 201 246 309 362
#     4  10  21  35  58  89 121 151 196 250 306 360
#     4  11  22  40  65  88 125 161 199 256 299 372
#
# _framework density 20.13542
#
# number of rings (size 3 to 8) (size 9 to 14) (size 15 to 20)
#    0.000    1.500    3.750    1.125    3.500    0.000 
#    2.250    1.875    0.000    0.000    0.000    0.000 
#    0.000    0.000    0.000    0.000    0.000    0.000 
#
# Total GULP energy -396602.463707 kJ/mol
# GULP energy per Si atom -12393.826991 kJ/mol
# Density = 2.008959 g / cm^3
# Si number density = 20.135420 Si / 1000 Ang^3
#
#
#
# Elastic Constant Matrix: (Units=GPa)
#
#
# Indices 1 2 3 4 5 6 
#
# 1 130.1352 37.7684 40.7909 0.0012 3.2756 -0.0076
# 2 37.7684 78.5968 27.2253 -0.0553 1.3763 0.0105
# 3 40.7909 27.2253 69.3729 -0.0347 7.3924 0.0099
# 4 0.0012 -0.0553 -0.0347 41.5149 0.0074 10.6128
# 5 3.2756 1.3763 7.3924 0.0074 31.8200 0.0075
# 6 -0.0076 0.0105 0.0099 10.6128 0.0075 34.7355
#
#
#
# Elastic Compliance Matrix: (Units=1/GPa)
#
#
# Indices 1 2 3 4 5 6 
#
# 1 0.010084 -0.003227 -0.004683 -0.000010 0.000189 0.000008
# 2 -0.003227 0.015774 -0.004364 0.000020 0.000664 -0.000010
# 3 -0.004683 -0.004364 0.019287 0.000013 -0.003810 -0.000008
# 4 -0.000010 0.000020 0.000013 0.026129 -0.000007 -0.007983
# 5 0.000189 0.000664 -0.003810 -0.000007 0.032264 -0.000004
# 6 0.000008 -0.000010 -0.000008 -0.007983 -0.000004 0.031228
#
#
# Mechanical properties :
#
#
# Convention : Reuss Voigt Hill
#
# Bulk Modulus (GPa) = 48.54998 54.40824 51.47911
# Shear Modulus (GPa) = 30.08815 33.10210 31.59513
#
# Velocity S-wave (km/s) = 3.86980 4.05899 3.96552
# Velocity P-wave (km/s) = 6.64313 7.00336 6.82562
#
# Compressibility (1/GPa) = 0.02059733
#
# Stress axis : x y z
#
# Youngs Moduli (GPa) = 99.16710 63.39662 51.84824
#
# Poissons Ratio (x) = 0.20457 0.24281
# Poissons Ratio (y) = 0.31999 0.22625
# Poissons Ratio (z) = 0.46442 0.27665
#
# Static dielectric constant tensor:
#      x y z
#    x 3.785700 -0.000010 0.160400 
#    y -0.000010 3.406790 0.000050 
#    z 0.160400 0.000050 3.797140 
# 
# 
# High freq. dielectric constant tensor:
#      x y z
#    x 1.797320 0.000000 0.007520 
#    y 0.000000 1.761720 0.000000 
#    z 0.007520 0.000000 1.789480 
# 
# From -- ./inp_files/311626.got.cif
#   From: 2010.06.25/outbox.cif.g09.slc.cpg/sg15_156_cif.got.tgz:311626.got - 2010.06.28 07:06:18.
