data_PCOD8140859
_publ_section_title
;
Structure prediction by ZEFSAII (Michael W. Deem and Ramdas Pophale) SiO2 
 PCOD8140859
Probable space group: C 2/C
;
_chemical_formula_sum "Si O2"
_cell_formula_units_Z 36
_cell_length_a 19.847588
_cell_length_b 8.190291
_cell_length_c 12.388548
_cell_angle_alpha 90.000000
_cell_angle_beta 54.981150
_cell_angle_gamma 90.000000
_cell_volume 1649.270591
_symmetry_space_group_name_H-M "C 2/C"
_symmetry_group_IT_number 15
_symmetry_cell_setting 'monoclinic'
loop_
_space_group_symop_operation_xyz
x,y,z
-x,y,1/2-z
-x,-y,-z
x,-y,1/2+z
1/2+x,1/2+y,z
1/2-x,1/2+y,1/2-z
1/2-x,1/2-y,-z
1/2+x,1/2-y,1/2+z
loop_
_atom_site_type_symbol
_atom_site_label
_atom_site_fract_x
_atom_site_fract_y
_atom_site_fract_z
Si Si1 0.604817 0.307414 0.889163
Si Si2 0.938128 0.121409 0.477213
Si Si3 0.839148 0.311633 0.394153
Si Si4 0.500000 0.615343 0.750000
Si Si5 0.159505 0.316129 0.557024
O O1 0.505029 0.280403 0.988021
O O2 0.636663 0.261072 0.742756
O O3 0.624288 0.500530 0.899863
O O4 0.647431 0.189766 0.938318
O O5 0.894390 0.247602 0.440493
O O6 0.997607 0.998577 0.356513
O O7 0.750000 0.250000 0.500000
O O8 0.846262 0.504838 0.388095
O O9 0.585156 0.716891 0.681180
O O10 0.250000 0.250000 0.500000
#
# Coordination Sequence:
#
# PCOD8140859 Si02
#       5
#     8   8   8   4   8
#     4  10  23  45  69 102 134 187 225 286 362 406
#     4  10  21  44  74  99 138 178 240 277 354 427
#     4  12  25  44  72 102 142 182 235 297 349 425
#     4  10  20  44  72  94 144 178 220 304 340 414
#     4  11  27  46  66 106 144 182 238 290 350 425
#
# _framework density 21.827831
#
# number of rings (size 3 to 8) (size 9 to 14) (size 15 to 20)
#    0.000    1.333    2.222    2.667    3.111    4.444 
#   16.000    0.000    0.000    0.000    0.000    0.000 
#    0.000    0.000    0.000    0.000    0.000    0.000 
#
# Total GULP energy -223024.610845 kJ/mol
# GULP energy per Si atom -12390.256158 kJ/mol
# Density = 2.177815 g / cm^3
# Si number density = 21.827831 Si / 1000 Ang^3
#
#
#
# Elastic Constant Matrix: (Units=GPa)
#
#
# Indices 1 2 3 4 5 6 
#
# 1 148.2966 45.0871 47.2464 0.0000 -7.8740 0.0000
# 2 45.0871 117.4599 45.9438 0.0000 -7.7586 0.0000
# 3 47.2464 45.9438 58.8821 0.0000 -23.7188 0.0000
# 4 0.0000 0.0000 0.0000 30.1537 0.0000 1.6303
# 5 -7.8740 -7.7586 -23.7188 0.0000 36.7384 0.0000
# 6 0.0000 0.0000 0.0000 1.6303 0.0000 46.7942
#
#
#
# Elastic Compliance Matrix: (Units=1/GPa)
#
#
# Indices 1 2 3 4 5 6 
#
# 1 0.009468 -0.000466 -0.008724 0.000000 -0.003702 0.000000
# 2 -0.000466 0.012949 -0.011715 0.000000 -0.004929 0.000000
# 3 -0.008724 -0.011715 0.042402 0.000000 0.023031 0.000000
# 4 0.000000 0.000000 0.000000 0.033226 0.000000 -0.001158
# 5 -0.003702 -0.004929 0.023031 0.000000 0.040254 0.000000
# 6 0.000000 0.000000 0.000000 -0.001158 0.000000 0.021410
#
#
# Mechanical properties :
#
#
# Convention : Reuss Voigt Hill
#
# Bulk Modulus (GPa) = 43.46402 66.79922 55.13162
# Shear Modulus (GPa) = 23.90165 35.16135 29.53150
#
# Velocity S-wave (km/s) = 3.31268 4.01789 3.68221
# Velocity P-wave (km/s) = 5.88109 7.22453 6.58715
#
# Compressibility (1/GPa) = 0.02300754
#
# Stress axis : x y z
#
# Youngs Moduli (GPa) = 105.61920 77.22428 23.58397
#
# Poissons Ratio (x) = 0.03601 0.20575
# Poissons Ratio (y) = 0.04926 0.27629
# Poissons Ratio (z) = 0.92145 0.90469
#
# Static dielectric constant tensor:
#      x y z
#    x 4.203480 0.000000 0.026080 
#    y 0.000000 3.929610 0.000000 
#    z 0.026080 0.000000 3.922400 
# 
# 
# High freq. dielectric constant tensor:
#      x y z
#    x 1.884410 0.000000 0.008740 
#    y 0.000000 1.851420 0.000000 
#    z 0.008740 0.000000 1.852560 
# 
# From -- ./inp_files/159045.got.cif
#   From: 2010.06.25/outbox.cif.g09.slc.cpg/sg15_80_cif.got.tgz:159045.got - 2010.06.28 07:06:18.
