data_PCOD8140967
_publ_section_title
;
Structure prediction by ZEFSAII (Michael W. Deem and Ramdas Pophale) SiO2 
 PCOD8140967
Probable space group: C 2/C
;
_chemical_formula_sum "Si O2"
_cell_formula_units_Z 56
_cell_length_a 8.769304
_cell_length_b 23.773185
_cell_length_c 14.837312
_cell_angle_alpha 90.000000
_cell_angle_beta 123.124304
_cell_angle_gamma 90.000000
_cell_volume 2590.513117
_symmetry_space_group_name_H-M "C 2/C"
_symmetry_group_IT_number 15
_symmetry_cell_setting 'monoclinic'
loop_
_space_group_symop_operation_xyz
x,y,z
-x,y,1/2-z
-x,-y,-z
x,-y,1/2+z
1/2+x,1/2+y,z
1/2-x,1/2+y,1/2-z
1/2-x,1/2-y,-z
1/2+x,1/2-y,1/2+z
loop_
_atom_site_type_symbol
_atom_site_label
_atom_site_fract_x
_atom_site_fract_y
_atom_site_fract_z
Si Si1 0.260060 0.843593 0.002805
Si Si2 0.727868 0.628364 0.691295
Si Si3 0.377044 0.789255 0.377626
Si Si4 0.716758 0.589664 0.318315
Si Si5 0.695915 0.372728 0.451210
Si Si6 0.834503 0.836208 0.862965
Si Si7 0.285236 0.535204 0.678298
O O1 0.284118 0.876462 0.105260
O O2 0.400205 0.790603 0.043902
O O3 0.309859 0.885917 0.938004
O O4 0.051031 0.827453 0.921643
O O5 0.825471 0.681971 0.766611
O O6 0.514762 0.637141 0.638211
O O7 0.789887 0.571601 0.762075
O O8 0.303202 0.822192 0.440008
O O9 0.276993 0.728876 0.347123
O O10 0.500000 0.586566 0.250000
O O11 0.764832 0.630227 0.249615
O O12 0.801410 0.526881 0.339495
O O13 0.726001 0.370655 0.568121
O O14 0.763147 0.432638 0.431560
O O15 0.500000 0.528102 0.750000
#
# Coordination Sequence:
#
# PCOD8140967 Si02
#       7
#     8   8   8   8   8   8   8
#     4  10  21  34  51  78 108 141 175 210 262 312
#     4   9  19  35  56  79 101 137 179 214 258 313
#     4  11  20  34  54  78 108 140 173 217 260 308
#     4   9  19  34  52  78 107 137 174 219 261 306
#     4   9  19  36  56  78 102 138 177 214 260 311
#     4  10  21  35  53  79 108 138 176 214 258 310
#     4   8  15  32  56  78 102 131 175 222 258 304
#
# _framework density 21.617339000000001
#
# number of rings (size 3 to 8) (size 9 to 14) (size 15 to 20)
#    0.000    2.571    0.000    2.571    0.000    6.857 
#    0.000   10.714    0.000    3.429    0.000    0.000 
#    0.000    0.000    0.000    0.000    0.000    0.000 
#
# Total GULP energy -346963.552552 kJ/mol
# GULP energy per Si atom -12391.555448 kJ/mol
# Density = 2.156814 g / cm^3
# Si number density = 21.617339 Si / 1000 Ang^3
#
#
#
# Elastic Constant Matrix: (Units=GPa)
#
#
# Indices 1 2 3 4 5 6 
#
# 1 60.1961 19.7717 35.1714 0.0000 -18.0849 0.0000
# 2 19.7717 144.0040 48.4565 0.0000 -20.8863 0.0000
# 3 35.1714 48.4565 112.6935 0.0000 -37.1512 0.0000
# 4 0.0000 0.0000 0.0000 20.8551 0.0000 -0.1578
# 5 -18.0849 -20.8863 -37.1512 0.0000 31.9606 0.0000
# 6 0.0000 0.0000 0.0000 -0.1578 0.0000 16.2753
#
#
#
# Elastic Compliance Matrix: (Units=1/GPa)
#
#
# Indices 1 2 3 4 5 6 
#
# 1 0.021273 -0.000529 -0.004147 0.000000 0.006872 0.000000
# 2 -0.000529 0.008214 -0.002749 0.000000 0.001872 0.000000
# 3 -0.004147 -0.002749 0.016187 0.000000 0.014673 0.000000
# 4 0.000000 0.000000 0.000000 0.047953 0.000000 0.000465
# 5 0.006872 0.001872 0.014673 0.000000 0.053457 0.000000
# 6 0.000000 0.000000 0.000000 0.000465 0.000000 0.061447
#
#
# Mechanical properties :
#
#
# Convention : Reuss Voigt Hill
#
# Bulk Modulus (GPa) = 32.44162 58.18810 45.31486
# Shear Modulus (GPa) = 21.39899 28.05113 24.72506
#
# Velocity S-wave (km/s) = 3.14968 3.60616 3.38562
# Velocity P-wave (km/s) = 5.31668 6.65695 6.02420
#
# Compressibility (1/GPa) = 0.03082460
#
# Stress axis : x y z
#
# Youngs Moduli (GPa) = 47.00706 121.74937 61.77755
#
# Poissons Ratio (x) = 0.06439 0.25616
# Poissons Ratio (y) = 0.02486 0.16985
# Poissons Ratio (z) = 0.19492 0.33474
#
# Static dielectric constant tensor:
#      x y z
#    x 3.796330 0.000000 -0.158450 
#    y 0.000000 4.026230 0.000000 
#    z -0.158450 0.000000 3.920830 
# 
# 
# High freq. dielectric constant tensor:
#      x y z
#    x 1.837470 0.000000 -0.009720 
#    y 0.000000 1.838000 0.000000 
#    z -0.009720 0.000000 1.846110 
# 
# From -- ./inp_files/137927.got.cif
#   From: 2010.06.25/outbox.cif.g09.slc.cpg/sg15_69_cif.got.tgz:137927.got - 2010.06.28 07:06:18.
