data_PCOD8140065
_publ_section_title
;
Structure prediction by ZEFSAII (Michael W. Deem and Ramdas Pophale) SiO2 
 PCOD8140065
Probable space group: C 2/C
;
_chemical_formula_sum "Si O2"
_cell_formula_units_Z 48
_cell_length_a 19.713386
_cell_length_b 7.678313
_cell_length_c 16.812772
_cell_angle_alpha 90.000000
_cell_angle_beta 65.758225
_cell_angle_gamma 90.000000
_cell_volume 2320.469949
_symmetry_space_group_name_H-M "C 2/C"
_symmetry_group_IT_number 15
_symmetry_cell_setting 'monoclinic'
loop_
_space_group_symop_operation_xyz
x,y,z
-x,y,1/2-z
-x,-y,-z
x,-y,1/2+z
1/2+x,1/2+y,z
1/2-x,1/2+y,1/2-z
1/2-x,1/2-y,-z
1/2+x,1/2-y,1/2+z
loop_
_atom_site_type_symbol
_atom_site_label
_atom_site_fract_x
_atom_site_fract_y
_atom_site_fract_z
Si Si1 0.500000 0.108938 0.750000
Si Si2 0.089034 0.370726 0.612436
Si Si3 0.351286 0.788263 0.078905
Si Si4 0.255856 0.402244 0.882587
Si Si5 0.748884 0.483040 0.437700
Si Si6 0.100945 0.859220 0.780884
Si Si7 0.000000 0.889049 0.250000
O O1 0.575402 0.211764 0.731531
O O2 0.519470 0.999464 0.661184
O O3 0.089705 0.311913 0.520638
O O4 0.164884 0.466119 0.600769
O O5 0.071023 0.210406 0.679407
O O6 0.291450 0.642167 0.085173
O O7 0.396286 0.720142 0.132693
O O8 0.311954 0.975155 0.114274
O O9 0.233666 0.196927 0.897108
O O10 0.319720 0.430062 0.786549
O O11 0.282517 0.463266 0.957371
O O12 0.035952 0.003552 0.806229
#
# Coordination Sequence:
#
# PCOD8140065 Si02
#       7
#     4   8   8   8   8   8   4
#     4  10  22  40  62  78 124 170 202 240 294 378
#     4  10  20  42  62  88 116 167 210 239 304 365
#     4  11  24  38  62  96 122 151 202 265 300 357
#     4  10  21  39  63  90 119 159 196 249 316 361
#     4  10  20  40  66  88 118 157 198 255 307 366
#     4  11  23  39  58  93 123 158 204 252 306 360
#     4  10  22  40  66  82 124 176 202 246 294 376
#
# _framework density 20.685466000000002
#
# number of rings (size 3 to 8) (size 9 to 14) (size 15 to 20)
#    0.000    1.667    1.667    4.000    2.333    1.333 
#    6.000    0.000    0.000    0.000    0.000    0.000 
#    0.000    0.000    0.000    0.000    0.000    0.000 
#
# Total GULP energy -297443.174995 kJ/mol
# GULP energy per Si atom -12393.465625 kJ/mol
# Density = 2.063838 g / cm^3
# Si number density = 20.685466 Si / 1000 Ang^3
#
#
#
# Elastic Constant Matrix: (Units=GPa)
#
#
# Indices 1 2 3 4 5 6 
#
# 1 59.5904 38.2136 48.9559 0.0000 7.3818 -0.0001
# 2 38.2136 124.4508 50.1781 0.0000 0.7696 0.0002
# 3 48.9559 50.1781 129.1226 0.0000 -4.0356 0.0000
# 4 0.0000 0.0000 0.0000 27.1503 0.0000 3.5453
# 5 7.3818 0.7696 -4.0356 0.0000 26.2551 -0.0001
# 6 -0.0001 0.0002 0.0000 3.5453 -0.0001 -2.0590
#
#
#
# Elastic Compliance Matrix: (Units=1/GPa)
#
#
# Indices 1 2 3 4 5 6 
#
# 1 0.028769 -0.005051 -0.009237 0.000000 -0.009360 -0.000001
# 2 -0.005051 0.010434 -0.002115 0.000000 0.000789 0.000001
# 3 -0.009237 -0.002115 0.012210 0.000000 0.004536 0.000000
# 4 0.000000 0.000000 0.000000 0.030071 0.000000 0.051778
# 5 -0.009360 0.000789 0.004536 0.000000 0.041393 -0.000001
# 6 -0.000001 0.000001 0.000000 0.051778 -0.000001 -0.396518
#
#
# Mechanical properties :
#
#
# Convention : Reuss Voigt Hill
#
# Bulk Modulus (GPa) = 53.74456 65.31767 59.53111
# Shear Modulus (GPa) = -21.30994 21.99037 0.34021
#
# Velocity S-wave (km/s) = -3.21314 3.26403 0.40599
# Velocity P-wave (km/s) = 3.50322 6.77129 5.39087
#
# Compressibility (1/GPa) = 0.01860654
#
# Stress axis : x y z
#
# Youngs Moduli (GPa) = 34.76019 95.83823 81.89790
#
# Poissons Ratio (x) = 0.48412 0.75648
# Poissons Ratio (y) = 0.17559 0.17321
# Poissons Ratio (z) = 0.32108 0.20269
#
# Static dielectric constant tensor:
#      x y z
#    x 3.361810 0.000000 -0.032290 
#    y 0.000000 4.134280 0.000000 
#    z -0.032290 0.000000 3.687310 
# 
# 
# High freq. dielectric constant tensor:
#      x y z
#    x 1.776190 0.000000 -0.012470 
#    y 0.000000 1.830370 0.000000 
#    z -0.012470 0.000000 1.811140 
# 
# From -- ./inp_files/208999.got.cif
#   From: 2010.06.25/outbox.cif.g09.slc.cpg/sg15_105_cif.got.tgz:208999.got - 2010.06.28 07:06:18.
