data_PCOD8140355
_publ_section_title
;
Structure prediction by ZEFSAII (Michael W. Deem and Ramdas Pophale) SiO2 
 PCOD8140355
Probable space group: C 2/C
;
_chemical_formula_sum "Si O2"
_cell_formula_units_Z 56
_cell_length_a 30.047302
_cell_length_b 8.325840
_cell_length_c 14.629444
_cell_angle_alpha 90.000000
_cell_angle_beta 44.635905
_cell_angle_gamma 90.000000
_cell_volume 2571.395983
_symmetry_space_group_name_H-M "C 2/C"
_symmetry_group_IT_number 15
_symmetry_cell_setting 'monoclinic'
loop_
_space_group_symop_operation_xyz
x,y,z
-x,y,1/2-z
-x,-y,-z
x,-y,1/2+z
1/2+x,1/2+y,z
1/2-x,1/2+y,1/2-z
1/2-x,1/2-y,-z
1/2+x,1/2-y,1/2+z
loop_
_atom_site_type_symbol
_atom_site_label
_atom_site_fract_x
_atom_site_fract_y
_atom_site_fract_z
Si Si1 0.335290 0.861143 0.168967
Si Si2 0.637043 0.360787 0.335871
Si Si3 0.134474 0.011950 0.040427
Si Si4 0.513131 0.188711 0.486075
Si Si5 0.896779 0.829569 0.730597
Si Si6 0.452622 0.235506 0.391633
Si Si7 0.750721 0.658926 0.324460
O O1 0.357917 0.814856 0.238366
O O2 0.288869 0.718666 0.205256
O O3 0.299878 0.027884 0.216755
O O4 0.394301 0.874828 0.011196
O O5 0.646933 0.396035 0.428104
O O6 0.586567 0.216429 0.399845
O O7 0.611981 0.512049 0.317329
O O8 0.705282 0.300125 0.197022
O O9 0.124862 0.141515 0.134359
O O10 0.073694 0.896201 0.119159
O O11 0.198887 0.911727 0.971336
O O12 0.470124 0.273919 0.626669
O O13 0.494639 0.278037 0.418558
O O14 0.500000 0.000000 0.500000
O O15 0.500000 0.147868 0.250000
#
# Coordination Sequence:
#
# PCOD8140355 Si02
#       7
#     8   8   8   8   8   8   8
#     4  10  20  41  65  91 132 172 214 274 326 393
#     4  12  22  41  69  92 131 182 217 283 336 394
#     4  11  24  39  69 100 124 178 224 275 328 401
#     4  11  24  44  64  95 139 177 217 278 342 399
#     4  11  23  42  66  99 129 173 228 271 339 400
#     4  10  21  41  65  93 128 167 217 275 328 392
#     4  11  21  43  65  94 133 177 224 269 341 391
#
# _framework density 21.778054000000001
#
# number of rings (size 3 to 8) (size 9 to 14) (size 15 to 20)
#    0.000    1.143    5.714    3.000    2.000    1.143 
#    5.143    1.429    0.000    0.000    0.000    0.000 
#    0.000    0.000    0.000    0.000    0.000    0.000 
#
# Total GULP energy -347075.150100 kJ/mol
# GULP energy per Si atom -12395.541075 kJ/mol
# Density = 2.172849 g / cm^3
# Si number density = 21.778054 Si / 1000 Ang^3
#
#
#
# Elastic Constant Matrix: (Units=GPa)
#
#
# Indices 1 2 3 4 5 6 
#
# 1 89.3479 23.0909 49.0804 0.0000 -22.9700 -0.0001
# 2 23.0909 67.7789 39.1160 0.0025 -3.2422 -0.0011
# 3 49.0804 39.1160 113.4744 0.0005 -8.3088 0.0000
# 4 0.0000 0.0025 0.0005 31.4192 -0.0001 -15.7784
# 5 -22.9700 -3.2422 -8.3088 -0.0001 32.0386 0.0000
# 6 -0.0001 -0.0011 0.0000 -15.7784 0.0000 31.5485
#
#
#
# Elastic Compliance Matrix: (Units=1/GPa)
#
#
# Indices 1 2 3 4 5 6 
#
# 1 0.018010 -0.001970 -0.006299 0.000000 0.011079 0.000000
# 2 -0.001970 0.018635 -0.005644 -0.000001 -0.000990 0.000000
# 3 -0.006299 -0.005644 0.013364 0.000000 -0.001622 0.000000
# 4 0.000000 -0.000001 0.000000 0.042503 0.000000 0.021257
# 5 0.011079 -0.000990 -0.001622 0.000000 0.038635 0.000000
# 6 0.000000 0.000000 0.000000 0.021257 0.000000 0.042329
#
#
# Mechanical properties :
#
#
# Convention : Reuss Voigt Hill
#
# Bulk Modulus (GPa) = 45.08223 54.79730 49.93977
# Shear Modulus (GPa) = 23.95828 29.62220 26.79024
#
# Velocity S-wave (km/s) = 3.32039 3.69207 3.51115
# Velocity P-wave (km/s) = 5.95363 6.58722 6.27842
#
# Compressibility (1/GPa) = 0.02218169
#
# Stress axis : x y z
#
# Youngs Moduli (GPa) = 55.52459 53.66262 74.82784
#
# Poissons Ratio (x) = 0.10573 0.47137
# Poissons Ratio (y) = 0.10940 0.42233
# Poissons Ratio (z) = 0.34977 0.30287
#
# Static dielectric constant tensor:
#      x y z
#    x 4.279690 0.000000 -0.370610 
#    y 0.000000 3.817280 0.000000 
#    z -0.370610 0.000000 3.949540 
# 
# 
# High freq. dielectric constant tensor:
#      x y z
#    x 1.864070 0.000000 -0.028060 
#    y 0.000000 1.847580 0.000000 
#    z -0.028060 0.000000 1.842910 
# 
# From -- ./inp_files/180753.got.cif
#   From: 2010.06.25/outbox.cif.g09.slc.cpg/sg15_91_cif.got.tgz:180753.got - 2010.06.28 07:06:18.
