data_PCOD8140991
_publ_section_title
;
Structure prediction by ZEFSAII (Michael W. Deem and Ramdas Pophale) SiO2 
 PCOD8140991
Probable space group: C 2/C
;
_chemical_formula_sum "Si O2"
_cell_formula_units_Z 60
_cell_length_a 8.413667
_cell_length_b 25.327109
_cell_length_c 23.280548
_cell_angle_alpha 90.000000
_cell_angle_beta 139.405709
_cell_angle_gamma 90.000000
_cell_volume 3228.077725
_symmetry_space_group_name_H-M "C 2/C"
_symmetry_group_IT_number 15
_symmetry_cell_setting 'monoclinic'
loop_
_space_group_symop_operation_xyz
x,y,z
-x,y,1/2-z
-x,-y,-z
x,-y,1/2+z
1/2+x,1/2+y,z
1/2-x,1/2+y,1/2-z
1/2-x,1/2-y,-z
1/2+x,1/2-y,1/2+z
loop_
_atom_site_type_symbol
_atom_site_label
_atom_site_fract_x
_atom_site_fract_y
_atom_site_fract_z
Si Si1 0.092084 0.217640 0.068519
Si Si2 0.500000 0.260113 0.250000
Si Si3 0.773387 0.322205 0.224688
Si Si4 0.131206 0.672174 0.996618
Si Si5 0.047963 0.600771 0.869056
Si Si6 0.544011 0.077772 0.482684
Si Si7 0.235507 0.481610 0.144452
Si Si8 0.538589 0.364874 0.457995
O O1 0.348766 0.220143 0.169969
O O2 0.905542 0.192091 0.062762
O O3 0.122357 0.181430 0.022215
O O4 0.024846 0.276662 0.029201
O O5 0.679811 0.292554 0.256365
O O6 0.540971 0.334016 0.121353
O O7 0.000000 0.294361 0.250000
O O8 0.876296 0.379625 0.270656
O O9 0.119069 0.627446 0.042076
O O10 0.020280 0.646624 0.908904
O O11 0.328098 0.597728 0.926212
O O12 0.961276 0.543194 0.865561
O O13 0.713223 0.053207 0.580121
O O14 0.734505 0.096723 0.487754
O O15 0.351352 0.039506 0.398254
O O16 0.500000 0.481823 0.250000
#
# Coordination Sequence:
#
# PCOD8140991 Si02
#       8
#     8   4   8   8   8   8   8   8
#     4  10  21  36  57  82 115 159 196 227 291 351
#     4  12  22  36  56  86 118 164 198 240 294 354
#     4  10  21  34  55  90 119 144 199 256 291 337
#     4   9  18  36  58  77 112 154 187 229 282 345
#     4   9  18  35  58  83 109 144 186 251 291 332
#     4  10  21  37  58  87 112 149 193 245 292 344
#     4  10  21  37  60  83 111 150 196 234 298 364
#     4  10  21  36  56  87 120 142 195 245 288 348
#
# _framework density 18.586912999999999
#
# number of rings (size 3 to 8) (size 9 to 14) (size 15 to 20)
#    0.000    2.133    1.333    1.600    4.667    2.667 
#    2.400    0.000    0.000    0.000    0.000    0.000 
#    0.000    0.000    0.000    0.000    0.000    0.000 
#
# Total GULP energy -371702.844288 kJ/mol
# GULP energy per Si atom -12390.094810 kJ/mol
# Density = 1.854461 g / cm^3
# Si number density = 18.586913 Si / 1000 Ang^3
#
#
#
# Elastic Constant Matrix: (Units=GPa)
#
#
# Indices 1 2 3 4 5 6 
#
# 1 108.8712 56.6522 28.9356 0.0000 -2.0578 0.0000
# 2 56.6522 113.9145 48.3218 0.0000 7.5301 0.0000
# 3 28.9356 48.3218 83.9360 0.0000 2.9370 0.0000
# 4 0.0000 0.0000 0.0000 22.1524 0.0000 1.6686
# 5 -2.0578 7.5301 2.9370 0.0000 20.0927 0.0000
# 6 0.0000 0.0000 0.0000 1.6686 0.0000 22.0648
#
#
#
# Elastic Compliance Matrix: (Units=1/GPa)
#
#
# Indices 1 2 3 4 5 6 
#
# 1 0.012721 -0.006164 -0.000968 0.000000 0.003754 0.000000
# 2 -0.006164 0.014836 -0.006232 0.000000 -0.005281 0.000000
# 3 -0.000968 -0.006232 0.015838 0.000000 -0.000079 0.000000
# 4 0.000000 0.000000 0.000000 0.045400 0.000000 -0.003433
# 5 0.003754 -0.005281 -0.000079 0.000000 0.052144 0.000000
# 6 0.000000 0.000000 0.000000 -0.003433 0.000000 0.045581
#
#
# Mechanical properties :
#
#
# Convention : Reuss Voigt Hill
#
# Bulk Modulus (GPa) = 59.99564 63.83786 61.91675
# Shear Modulus (GPa) = 22.85153 24.38280 23.61716
#
# Velocity S-wave (km/s) = 3.51014 3.62584 3.56846
# Velocity P-wave (km/s) = 6.98403 7.20758 7.09668
#
# Compressibility (1/GPa) = 0.01666788
#
# Stress axis : x y z
#
# Youngs Moduli (GPa) = 78.61101 67.40170 63.13969
#
# Poissons Ratio (x) = 0.41545 0.06113
# Poissons Ratio (y) = 0.48455 0.39346
# Poissons Ratio (z) = 0.07611 0.42002
#
# Static dielectric constant tensor:
#      x y z
#    x 3.573230 0.000000 -0.041240 
#    y 0.000000 3.295240 0.000000 
#    z -0.041240 0.000000 3.380800 
# 
# 
# High freq. dielectric constant tensor:
#      x y z
#    x 1.729230 0.000000 -0.000630 
#    y 0.000000 1.702350 0.000000 
#    z -0.000630 0.000000 1.715350 
# 
# From -- ./inp_files/138237.got.cif
#   From: 2010.06.25/outbox.cif.g09.slc.cpg/sg15_70_cif.got.tgz:138237.got - 2010.06.28 07:06:18.
