data_PCOD8140484
_publ_section_title
;
Structure prediction by ZEFSAII (Michael W. Deem and Ramdas Pophale) SiO2 
 PCOD8140484
Probable space group: C 2/C
;
_chemical_formula_sum "Si O2"
_cell_formula_units_Z 60
_cell_length_a 20.197652
_cell_length_b 12.590104
_cell_length_c 24.957123
_cell_angle_alpha 90.000000
_cell_angle_beta 150.797515
_cell_angle_gamma 90.000000
_cell_volume 3096.373425
_symmetry_space_group_name_H-M "C 2/C"
_symmetry_group_IT_number 15
_symmetry_cell_setting 'monoclinic'
loop_
_space_group_symop_operation_xyz
x,y,z
-x,y,1/2-z
-x,-y,-z
x,-y,1/2+z
1/2+x,1/2+y,z
1/2-x,1/2+y,1/2-z
1/2-x,1/2-y,-z
1/2+x,1/2-y,1/2+z
loop_
_atom_site_type_symbol
_atom_site_label
_atom_site_fract_x
_atom_site_fract_y
_atom_site_fract_z
Si Si1 0.157757 0.672316 0.868224
Si Si2 0.647186 0.400671 0.257698
Si Si3 0.500000 0.477330 0.250000
Si Si4 0.859947 0.280027 0.829931
Si Si5 0.574897 0.951581 0.002379
Si Si6 0.125478 0.934885 0.654129
Si Si7 0.840612 0.885532 0.406205
Si Si8 0.269775 0.101653 0.467054
O O1 0.208549 0.612336 0.850773
O O2 0.253513 0.775883 0.939067
O O3 0.000000 0.701600 0.750000
O O4 0.179497 0.597434 0.935543
O O5 0.540539 0.400130 0.230427
O O6 0.603223 0.307311 0.187800
O O7 0.797175 0.384002 0.386943
O O8 0.640377 0.514870 0.223546
O O9 0.624132 0.548349 0.357603
O O10 0.712614 0.327941 0.713733
O O11 0.857880 0.225809 0.886966
O O12 0.972880 0.370082 0.902457
O O13 0.618912 0.043768 0.991833
O O14 0.500000 0.000000 0.000000
O O15 0.971021 0.903680 0.535260
O O16 0.181188 0.017951 0.650020
#
# Coordination Sequence:
#
# PCOD8140484 Si02
#       8
#     8   8   4   8   8   8   8   8
#     4  11  23  37  58  91 124 160 202 245 305 367
#     4  10  22  38  62  86 116 162 198 246 297 365
#     4  10  20  42  60  80 120 164 202 232 304 364
#     4  11  22  37  62  90 118 152 202 257 298 354
#     4  11  21  38  61  91 116 154 203 249 304 350
#     4  10  21  40  61  85 122 156 199 252 306 353
#     4  10  23  38  59  90 119 161 199 246 306 364
#     4  10  23  38  59  87 122 160 199 251 296 369
#
# _framework density 19.377507000000001
#
# number of rings (size 3 to 8) (size 9 to 14) (size 15 to 20)
#    0.000    1.600    2.000    2.400    3.733    2.133 
#    0.000    4.000    0.000    0.000    0.000    0.000 
#    0.000    0.000    0.000    0.000    0.000    0.000 
#
# Total GULP energy -372109.140318 kJ/mol
# GULP energy per Si atom -12403.638011 kJ/mol
# Density = 1.933340 g / cm^3
# Si number density = 19.377507 Si / 1000 Ang^3
#
#
#
# Elastic Constant Matrix: (Units=GPa)
#
#
# Indices 1 2 3 4 5 6 
#
# 1 156.2802 46.6159 38.3818 0.0008 -0.9538 0.0006
# 2 46.6159 77.9927 23.0373 -0.0045 -0.9722 -0.0012
# 3 38.3818 23.0373 65.3393 -0.0029 -6.1858 -0.0011
# 4 0.0008 -0.0045 -0.0029 33.6850 -0.0014 -0.1015
# 5 -0.9538 -0.9722 -6.1858 -0.0014 26.5213 -0.0004
# 6 0.0006 -0.0012 -0.0011 -0.1015 -0.0004 22.7922
#
#
#
# Elastic Compliance Matrix: (Units=1/GPa)
#
#
# Indices 1 2 3 4 5 6 
#
# 1 0.008482 -0.004004 -0.003636 -0.000001 -0.000690 -0.000001
# 2 -0.004004 0.016214 -0.003397 0.000002 -0.000342 0.000001
# 3 -0.003636 -0.003397 0.019034 0.000001 0.004184 0.000001
# 4 -0.000001 0.000002 0.000001 0.029687 0.000002 0.000132
# 5 -0.000690 -0.000342 0.004184 0.000002 0.038644 0.000001
# 6 -0.000001 0.000001 0.000001 0.000132 0.000001 0.043875
#
#
# Mechanical properties :
#
#
# Convention : Reuss Voigt Hill
#
# Bulk Modulus (GPa) = 46.17629 57.29804 51.73716
# Shear Modulus (GPa) = 26.99344 29.37150 28.18247
#
# Velocity S-wave (km/s) = 3.73638 3.89749 3.81779
# Velocity P-wave (km/s) = 6.51887 7.06311 6.79644
#
# Compressibility (1/GPa) = 0.02165614
#
# Stress axis : x y z
#
# Youngs Moduli (GPa) = 117.89762 61.67450 52.53634
#
# Poissons Ratio (x) = 0.24696 0.19102
# Poissons Ratio (y) = 0.47209 0.17847
# Poissons Ratio (z) = 0.42867 0.20951
#
# Static dielectric constant tensor:
#      x y z
#    x 3.582730 0.000010 -0.114410 
#    y 0.000010 3.999780 0.000010 
#    z -0.114410 0.000010 3.495320 
# 
# 
# High freq. dielectric constant tensor:
#      x y z
#    x 1.759990 0.000000 -0.003620 
#    y 0.000000 1.744330 0.000000 
#    z -0.003620 0.000000 1.765370 
# 
# From -- ./inp_files/111646.got.cif
#   From: 2010.06.25/outbox.cif.g09.slc.cpg/sg15_56_cif.got.tgz:111646.got - 2010.06.28 07:06:18.
