data_PCOD8140883
_publ_section_title
;
Structure prediction by ZEFSAII (Michael W. Deem and Ramdas Pophale) SiO2 
 PCOD8140883
Probable space group: C 2/C
;
_chemical_formula_sum "Si O2"
_cell_formula_units_Z 36
_cell_length_a 11.763261
_cell_length_b 12.921895
_cell_length_c 10.842322
_cell_angle_alpha 90.000000
_cell_angle_beta 107.083219
_cell_angle_gamma 90.000000
_cell_volume 1575.357790
_symmetry_space_group_name_H-M "C 2/C"
_symmetry_group_IT_number 15
_symmetry_cell_setting 'monoclinic'
loop_
_space_group_symop_operation_xyz
x,y,z
-x,y,1/2-z
-x,-y,-z
x,-y,1/2+z
1/2+x,1/2+y,z
1/2-x,1/2+y,1/2-z
1/2-x,1/2-y,-z
1/2+x,1/2-y,1/2+z
loop_
_atom_site_type_symbol
_atom_site_label
_atom_site_fract_x
_atom_site_fract_y
_atom_site_fract_z
Si Si1 0.600765 0.962172 0.884825
Si Si2 0.955824 0.143934 0.873319
Si Si3 0.939621 0.663156 0.502473
Si Si4 0.148708 0.072331 0.128985
Si Si5 0.000000 0.198975 0.250000
O O1 0.500000 0.987056 0.750000
O O2 0.712471 0.909980 0.853004
O O3 0.639121 0.066064 0.974621
O O4 0.556877 0.881138 0.972948
O O5 0.000000 0.159179 0.750000
O O6 0.070979 0.120332 0.994193
O O7 0.864493 0.050678 0.859453
O O8 0.886269 0.250400 0.891230
O O9 0.969436 0.728060 0.630195
O O10 0.110911 0.125361 0.246356
#
# Coordination Sequence:
#
# PCOD8140883 Si02
#       5
#     8   8   8   8   4
#     4  11  24  46  65  97 136 180 212 268 322 399
#     4  10  21  42  67 100 125 170 217 275 320 386
#     4  10  23  43  64  96 135 170 227 256 334 384
#     4  10  23  42  71  95 134 166 221 270 329 381
#     4  10  20  46  64 100 128 174 212 284 318 386
#
# _framework density 22.851952000000001
#
# number of rings (size 3 to 8) (size 9 to 14) (size 15 to 20)
#    0.000    1.778    2.222    0.667    0.000    8.000 
#    8.000    0.000    0.000    0.000    0.000    0.000 
#    0.000    0.000    0.000    0.000    0.000    0.000 
#
# Total GULP energy -223010.977746 kJ/mol
# GULP energy per Si atom -12389.498764 kJ/mol
# Density = 2.279994 g / cm^3
# Si number density = 22.851952 Si / 1000 Ang^3
#
#
#
# Elastic Constant Matrix: (Units=GPa)
#
#
# Indices 1 2 3 4 5 6 
#
# 1 110.1170 28.9692 29.8325 0.0000 -34.4848 0.0000
# 2 28.9692 152.3947 46.8788 0.0000 -31.1993 0.0000
# 3 29.8325 46.8788 111.6178 0.0000 -37.5581 0.0000
# 4 0.0000 0.0000 0.0000 36.0324 0.0000 -7.1441
# 5 -34.4848 -31.1993 -37.5581 0.0000 37.5974 0.0000
# 6 0.0000 0.0000 0.0000 -7.1441 0.0000 11.8837
#
#
#
# Elastic Compliance Matrix: (Units=1/GPa)
#
#
# Indices 1 2 3 4 5 6 
#
# 1 0.012790 -0.000138 0.000826 0.000000 0.012442 0.000000
# 2 -0.000138 0.008120 -0.001730 0.000000 0.004883 0.000000
# 3 0.000826 -0.001730 0.013914 0.000000 0.013221 0.000000
# 4 0.000000 0.000000 0.000000 0.031508 0.000000 0.018942
# 5 0.012442 0.004883 0.013221 0.000000 0.055269 0.000000
# 6 0.000000 0.000000 0.000000 0.018942 0.000000 0.095536
#
#
# Mechanical properties :
#
#
# Convention : Reuss Voigt Hill
#
# Bulk Modulus (GPa) = 30.54457 65.05449 47.79953
# Shear Modulus (GPa) = 21.72637 34.99930 28.36284
#
# Velocity S-wave (km/s) = 3.08676 3.91777 3.52683
# Velocity P-wave (km/s) = 5.10876 6.99963 6.12757
#
# Compressibility (1/GPa) = 0.03273905
#
# Stress axis : x y z
#
# Youngs Moduli (GPa) = 78.18507 123.15038 71.87077
#
# Poissons Ratio (x) = 0.01703 -0.05938
# Poissons Ratio (y) = 0.01081 0.12437
# Poissons Ratio (z) = -0.06459 0.21310
#
# Static dielectric constant tensor:
#      x y z
#    x 3.814880 0.000000 -0.594530 
#    y 0.000000 4.869830 0.000000 
#    z -0.594530 0.000000 4.024370 
# 
# 
# High freq. dielectric constant tensor:
#      x y z
#    x 1.865670 0.000000 -0.043580 
#    y 0.000000 1.931960 0.000000 
#    z -0.043580 0.000000 1.908990 
# 
# From -- ./inp_files/84333.got.cif
#   From: 2010.06.25/outbox.cif.g09.slc.cpg/sg15_43_cif.got.tgz:84333.got - 2010.06.28 07:06:18.
