data_PCOD8140576
_publ_section_title
;
Structure prediction by ZEFSAII (Michael W. Deem and Ramdas Pophale) SiO2 
 PCOD8140576
Probable space group: C 2/C
;
_chemical_formula_sum "Si O2"
_cell_formula_units_Z 52
_cell_length_a 29.790093
_cell_length_b 18.389247
_cell_length_c 14.436415
_cell_angle_alpha 90.000000
_cell_angle_beta 161.218385
_cell_angle_gamma 90.000000
_cell_volume 2546.241959
_symmetry_space_group_name_H-M "C 2/C"
_symmetry_group_IT_number 15
_symmetry_cell_setting 'monoclinic'
loop_
_space_group_symop_operation_xyz
x,y,z
-x,y,1/2-z
-x,-y,-z
x,-y,1/2+z
1/2+x,1/2+y,z
1/2-x,1/2+y,1/2-z
1/2-x,1/2-y,-z
1/2+x,1/2-y,1/2+z
loop_
_atom_site_type_symbol
_atom_site_label
_atom_site_fract_x
_atom_site_fract_y
_atom_site_fract_z
Si Si1 0.641903 0.534921 0.803096
Si Si2 0.094737 0.830684 0.346260
Si Si3 0.397938 0.766181 0.967817
Si Si4 0.599358 0.047262 0.630686
Si Si5 0.967961 0.701097 0.402561
Si Si6 0.748998 0.632803 0.865158
Si Si7 0.000000 0.428469 0.750000
O O1 0.500000 0.500000 0.500000
O O2 0.619796 0.597941 0.834304
O O3 0.697621 0.558663 0.810572
O O4 0.741369 0.472276 0.038562
O O5 0.246626 0.804116 0.678350
O O6 0.007070 0.771771 0.113568
O O7 0.000000 0.849920 0.250000
O O8 0.481926 0.783255 0.038154
O O9 0.373327 0.678756 0.922649
O O10 0.500000 0.790331 0.250000
O O11 0.574292 0.134311 0.588404
O O12 0.559557 0.021723 0.448793
O O13 0.500000 0.000000 0.500000
O O14 0.808225 0.677848 0.069663
O O15 0.874384 0.622997 0.038188
#
# Coordination Sequence:
#
# PCOD8140576 Si02
#       7
#     8   8   8   8   8   8   4
#     4  12  25  45  67  97 147 186 219 294 364 410
#     4  11  24  46  70  99 139 188 229 283 362 417
#     4  11  22  39  70 100 130 169 228 295 348 405
#     4  11  22  43  69 101 132 181 239 280 342 425
#     4  10  20  43  73  93 128 179 233 287 335 410
#     4  10  20  42  65  95 129 181 221 276 347 408
#     4  10  22  38  74  94 130 180 242 278 328 424
#
# _framework density 20.422253999999999
#
# number of rings (size 3 to 8) (size 9 to 14) (size 15 to 20)
#    0.000    1.231    6.154    0.923    9.692    3.692 
#    5.538    1.538    0.000    0.000    0.000    0.000 
#    0.000    0.000    0.000    0.000    0.000    0.000 
#
# Total GULP energy -322218.415918 kJ/mol
# GULP energy per Si atom -12393.015997 kJ/mol
# Density = 2.037577 g / cm^3
# Si number density = 20.422254 Si / 1000 Ang^3
#
#
#
# Elastic Constant Matrix: (Units=GPa)
#
#
# Indices 1 2 3 4 5 6 
#
# 1 146.9997 40.2202 64.3057 0.0000 -4.3132 0.0000
# 2 40.2202 95.8211 62.3692 0.0000 0.8151 0.0000
# 3 64.3057 62.3692 138.4481 0.0000 -15.1888 0.0000
# 4 0.0000 0.0000 0.0000 35.8606 0.0000 2.2584
# 5 -4.3132 0.8151 -15.1888 0.0000 32.0089 0.0000
# 6 0.0000 0.0000 0.0000 2.2584 0.0000 24.2181
#
#
#
# Elastic Compliance Matrix: (Units=1/GPa)
#
#
# Indices 1 2 3 4 5 6 
#
# 1 0.008681 -0.001393 -0.003452 0.000000 -0.000433 0.000000
# 2 -0.001393 0.015423 -0.006714 0.000000 -0.003766 0.000000
# 3 -0.003452 -0.006714 0.012468 0.000000 0.005622 0.000000
# 4 0.000000 0.000000 0.000000 0.028051 0.000000 -0.002616
# 5 -0.000433 -0.003766 0.005622 0.000000 0.033947 0.000000
# 6 0.000000 0.000000 0.000000 -0.002616 0.000000 0.041535
#
#
# Mechanical properties :
#
#
# Convention : Reuss Voigt Hill
#
# Bulk Modulus (GPa) = 74.33077 79.45101 76.89089
# Shear Modulus (GPa) = 29.81376 32.70910 31.26143
#
# Velocity S-wave (km/s) = 3.82497 4.00639 3.91673
# Velocity P-wave (km/s) = 7.48219 7.77111 7.62802
#
# Compressibility (1/GPa) = 0.01345338
#
# Stress axis : x y z
#
# Youngs Moduli (GPa) = 115.18880 64.83811 80.20754
#
# Poissons Ratio (x) = 0.09034 0.27688
# Poissons Ratio (y) = 0.16050 0.53851
# Poissons Ratio (z) = 0.39764 0.43532
#
# Static dielectric constant tensor:
#      x y z
#    x 3.751170 0.000000 -0.274100 
#    y 0.000000 4.314850 0.000000 
#    z -0.274100 0.000000 3.639450 
# 
# 
# High freq. dielectric constant tensor:
#      x y z
#    x 1.811110 0.000000 -0.000580 
#    y 0.000000 1.789840 0.000000 
#    z -0.000580 0.000000 1.783980 
# 
# From -- ./inp_files/182914.got.cif
#   From: 2010.06.25/outbox.cif.g09.slc.cpg/sg15_92_cif.got.tgz:182914.got - 2010.06.28 07:06:18.
