data_PCOD8140185
_publ_section_title
;
Structure prediction by ZEFSAII (Michael W. Deem and Ramdas Pophale) SiO2 
 PCOD8140185
Probable space group: C 2/C
;
_chemical_formula_sum "Si O2"
_cell_formula_units_Z 60
_cell_length_a 13.977208
_cell_length_b 14.639249
_cell_length_c 14.773191
_cell_angle_alpha 90.000000
_cell_angle_beta 88.411483
_cell_angle_gamma 90.000000
_cell_volume 3021.667012
_symmetry_space_group_name_H-M "C 2/C"
_symmetry_group_IT_number 15
_symmetry_cell_setting 'monoclinic'
loop_
_space_group_symop_operation_xyz
x,y,z
-x,y,1/2-z
-x,-y,-z
x,-y,1/2+z
1/2+x,1/2+y,z
1/2-x,1/2+y,1/2-z
1/2-x,1/2-y,-z
1/2+x,1/2-y,1/2+z
loop_
_atom_site_type_symbol
_atom_site_label
_atom_site_fract_x
_atom_site_fract_y
_atom_site_fract_z
Si Si1 0.225312 0.921878 0.161782
Si Si2 0.500000 0.841543 0.250000
Si Si3 0.418707 0.990141 0.377895
Si Si4 0.880999 0.544815 0.085231
Si Si5 0.612762 0.490125 0.512743
Si Si6 0.818355 0.246425 0.225545
Si Si7 0.278469 0.682509 0.420041
Si Si8 0.218567 0.045044 0.329890
O O1 0.236580 0.816458 0.191704
O O2 0.330273 0.953970 0.125093
O O3 0.148220 0.932220 0.082690
O O4 0.186926 0.985006 0.244676
O O5 0.437083 0.899249 0.321362
O O6 0.424443 0.780364 0.196509
O O7 0.387407 0.960330 0.477747
O O8 0.513493 0.053611 0.374711
O O9 0.333494 0.045125 0.333592
O O10 0.816792 0.631306 0.113375
O O11 0.500000 0.500000 0.500000
O O12 0.640949 0.390126 0.550329
O O13 0.667757 0.501891 0.417537
O O14 0.815436 0.240427 0.334531
O O15 0.809555 0.149732 0.177889
O O16 0.250000 0.750000 0.500000
#
# Coordination Sequence:
#
# PCOD8140185 Si02
#       8
#     8   4   8   8   8   8   8   8
#     4  11  22  47  66 101 139 175 233 290 342 415
#     4  12  24  38  68 106 130 180 238 280 338 406
#     4  11  20  40  70  96 133 178 221 284 350 398
#     4  10  20  40  68  97 131 176 222 277 341 408
#     4  11  26  47  67  93 138 190 229 279 351 426
#     4  12  25  38  71 103 134 177 231 289 340 415
#     4  11  22  45  67  96 135 179 233 275 340 415
#     4  12  23  43  71  95 138 185 221 290 356 400
#
# _framework density 19.856589
#
# number of rings (size 3 to 8) (size 9 to 14) (size 15 to 20)
#    0.000    0.800    8.000    1.600    1.867    1.067 
#    2.400    0.000    0.000    0.000    0.000    0.000 
#    0.000    0.000    0.000    0.000    0.000    0.000 
#
# Total GULP energy -372036.595557 kJ/mol
# GULP energy per Si atom -12401.219852 kJ/mol
# Density = 1.981139 g / cm^3
# Si number density = 19.856589 Si / 1000 Ang^3
#
#
#
# Elastic Constant Matrix: (Units=GPa)
#
#
# Indices 1 2 3 4 5 6 
#
# 1 130.5084 34.8534 35.3230 0.0000 10.3129 0.0000
# 2 34.8534 98.4392 23.5900 0.0000 0.5551 0.0000
# 3 35.3230 23.5900 104.5476 0.0000 -3.7293 0.0000
# 4 0.0000 0.0000 0.0000 35.9922 0.0000 11.6979
# 5 10.3129 0.5551 -3.7293 0.0000 25.6279 0.0000
# 6 0.0000 0.0000 0.0000 11.6979 0.0000 12.0098
#
#
#
# Elastic Compliance Matrix: (Units=1/GPa)
#
#
# Indices 1 2 3 4 5 6 
#
# 1 0.009442 -0.002664 -0.002737 0.000000 -0.004140 0.000000
# 2 -0.002664 0.011500 -0.001674 0.000000 0.000579 0.000000
# 3 -0.002737 -0.001674 0.010965 0.000000 0.002733 0.000000
# 4 0.000000 0.000000 0.000000 0.040653 0.000000 -0.039598
# 5 -0.004140 0.000579 0.002733 0.000000 0.041071 0.000000
# 6 0.000000 0.000000 0.000000 -0.039598 0.000000 0.121834
#
#
# Mechanical properties :
#
#
# Convention : Reuss Voigt Hill
#
# Bulk Modulus (GPa) = 56.31549 57.89200 57.10374
# Shear Modulus (GPa) = 19.56696 30.70789 25.13742
#
# Velocity S-wave (km/s) = 3.14254 3.93680 3.56188
# Velocity P-wave (km/s) = 6.44903 7.06278 6.76287
#
# Compressibility (1/GPa) = 0.01775711
#
# Stress axis : x y z
#
# Youngs Moduli (GPa) = 105.91507 86.95959 91.20047
#
# Poissons Ratio (x) = 0.23164 0.24958
# Poissons Ratio (y) = 0.28213 0.15268
# Poissons Ratio (z) = 0.28985 0.14558
#
# Static dielectric constant tensor:
#      x y z
#    x 3.861110 0.000000 0.084590 
#    y 0.000000 3.575310 0.000000 
#    z 0.084590 0.000000 3.856640 
# 
# 
# High freq. dielectric constant tensor:
#      x y z
#    x 1.774440 0.000000 -0.002590 
#    y 0.000000 1.763450 0.000000 
#    z -0.002590 0.000000 1.791790 
# 
# From -- ./inp_files/153974.got.cif
#   From: 2010.06.25/outbox.cif.g09.slc.cpg/sg15_77_cif.got.tgz:153974.got - 2010.06.28 07:06:18.
