data_PCOD8140190
_publ_section_title
;
Structure prediction by ZEFSAII (Michael W. Deem and Ramdas Pophale) SiO2 
 PCOD8140190
Probable space group: C 2/C
;
_chemical_formula_sum "Si O2"
_cell_formula_units_Z 36
_cell_length_a 5.803822
_cell_length_b 19.966713
_cell_length_c 12.193857
_cell_angle_alpha 90.000000
_cell_angle_beta 83.638890
_cell_angle_gamma 90.000000
_cell_volume 1404.364019
_symmetry_space_group_name_H-M "C 2/C"
_symmetry_group_IT_number 15
_symmetry_cell_setting 'monoclinic'
loop_
_space_group_symop_operation_xyz
x,y,z
-x,y,1/2-z
-x,-y,-z
x,-y,1/2+z
1/2+x,1/2+y,z
1/2-x,1/2+y,1/2-z
1/2-x,1/2-y,-z
1/2+x,1/2-y,1/2+z
loop_
_atom_site_type_symbol
_atom_site_label
_atom_site_fract_x
_atom_site_fract_y
_atom_site_fract_z
Si Si1 0.490677 0.670174 0.531662
Si Si2 0.000000 0.350075 0.750000
Si Si3 0.310217 0.936211 0.937812
Si Si4 0.111424 0.575411 0.627446
Si Si5 0.350177 0.757861 0.161401
O O1 0.579849 0.607921 0.455148
O O2 0.244092 0.645242 0.592089
O O3 0.483142 0.733475 0.448461
O O4 0.663144 0.689315 0.623512
O O5 0.008374 0.398082 0.855870
O O6 0.773319 0.303773 0.769812
O O7 0.233377 0.007555 0.888254
O O8 0.404058 0.941410 0.055696
O O9 0.000000 0.584861 0.750000
O O10 0.500000 0.792957 0.250000
#
# Coordination Sequence:
#
# PCOD8140190 Si02
#       5
#     8   4   8   8   8
#     4  10  23  42  65 100 138 175 231 283 339 411
#     4  10  20  40  68  98 138 178 224 270 342 412
#     4  10  22  41  65  97 136 180 224 276 342 411
#     4  11  23  41  66  97 137 180 224 282 341 408
#     4  10  22  41  68 100 135 181 227 282 342 408
#
# _framework density 25.634378000000002
#
# number of rings (size 3 to 8) (size 9 to 14) (size 15 to 20)
#    0.000    1.778    1.111    2.000    0.000    5.333 
#    0.000    6.667    0.000    4.000    0.000    0.000 
#    0.000    0.000    0.000    0.000    0.000    0.000 
#
# Total GULP energy -223086.958025 kJ/mol
# GULP energy per Si atom -12393.719890 kJ/mol
# Density = 2.557603 g / cm^3
# Si number density = 25.634378 Si / 1000 Ang^3
#
#
#
# Elastic Constant Matrix: (Units=GPa)
#
#
# Indices 1 2 3 4 5 6 
#
# 1 51.4490 17.3219 49.1537 0.0000 4.9733 0.0000
# 2 17.3219 139.9418 44.7286 0.0000 -5.7171 0.0000
# 3 49.1537 44.7286 165.6523 0.0000 -8.3405 0.0000
# 4 0.0000 0.0000 0.0000 31.1079 0.0000 -9.6613
# 5 4.9733 -5.7171 -8.3405 0.0000 40.6287 0.0000
# 6 0.0000 0.0000 0.0000 -9.6613 0.0000 36.0486
#
#
#
# Elastic Compliance Matrix: (Units=1/GPa)
#
#
# Indices 1 2 3 4 5 6 
#
# 1 0.028319 -0.001042 -0.008391 0.000000 -0.005336 0.000000
# 2 -0.001042 0.007877 -0.001774 0.000000 0.000872 0.000000
# 3 -0.008391 -0.001774 0.009139 0.000000 0.002654 0.000000
# 4 0.000000 0.000000 0.000000 0.035065 0.000000 0.009398
# 5 -0.005336 0.000872 0.002654 0.000000 0.025934 0.000000
# 6 0.000000 0.000000 0.000000 0.009398 0.000000 0.030259
#
#
# Mechanical properties :
#
#
# Convention : Reuss Voigt Hill
#
# Bulk Modulus (GPa) = 43.62329 64.38351 54.00340
# Shear Modulus (GPa) = 30.00356 37.94629 33.97492
#
# Velocity S-wave (km/s) = 3.42488 3.85163 3.64451
# Velocity P-wave (km/s) = 5.71789 6.70452 6.23076
#
# Compressibility (1/GPa) = 0.02292354
#
# Stress axis : x y z
#
# Youngs Moduli (GPa) = 35.31150 126.94545 109.42005
#
# Poissons Ratio (x) = 0.13222 0.91810
# Poissons Ratio (y) = 0.03678 0.19412
# Poissons Ratio (z) = 0.29628 0.22521
#
# Static dielectric constant tensor:
#      x y z
#    x 4.048540 0.000000 -0.265050 
#    y 0.000000 5.306660 0.000000 
#    z -0.265050 0.000000 4.852640 
# 
# 
# High freq. dielectric constant tensor:
#      x y z
#    x 1.980380 0.000000 -0.018730 
#    y 0.000000 2.049760 0.000000 
#    z -0.018730 0.000000 2.041470 
# 
# From -- ./inp_files/72437.got.cif
#   From: 2010.06.25/outbox.cif.g09.slc.cpg/sg15_37_cif.got.tgz:72437.got - 2010.06.28 07:06:18.
