data_PCOD8140170
_publ_section_title
;
Structure prediction by ZEFSAII (Michael W. Deem and Ramdas Pophale) SiO2 
 PCOD8140170
Probable space group: C 2/C
;
_chemical_formula_sum "Si O2"
_cell_formula_units_Z 64
_cell_length_a 20.726095
_cell_length_b 25.098472
_cell_length_c 17.687474
_cell_angle_alpha 90.000000
_cell_angle_beta 160.550142
_cell_angle_gamma 90.000000
_cell_volume 3063.734019
_symmetry_space_group_name_H-M "C 2/C"
_symmetry_group_IT_number 15
_symmetry_cell_setting 'monoclinic'
loop_
_space_group_symop_operation_xyz
x,y,z
-x,y,1/2-z
-x,-y,-z
x,-y,1/2+z
1/2+x,1/2+y,z
1/2-x,1/2+y,1/2-z
1/2-x,1/2-y,-z
1/2+x,1/2-y,1/2+z
loop_
_atom_site_type_symbol
_atom_site_label
_atom_site_fract_x
_atom_site_fract_y
_atom_site_fract_z
Si Si1 0.421706 0.807635 0.582791
Si Si2 0.607809 0.345372 0.655752
Si Si3 0.071984 0.946967 0.117898
Si Si4 0.879038 0.096204 0.544881
Si Si5 0.227095 0.200649 0.131256
Si Si6 0.949395 0.424027 0.612435
Si Si7 0.969715 0.674544 0.634223
Si Si8 0.614408 0.295902 0.951142
O O1 0.500000 0.786646 0.750000
O O2 0.561932 0.815442 0.665507
O O3 0.272097 0.762709 0.391675
O O4 0.337176 0.866995 0.504446
O O5 0.475711 0.395515 0.486652
O O6 0.677076 0.306403 0.664080
O O7 0.485459 0.312430 0.581267
O O8 0.815056 0.363362 0.920268
O O9 0.299856 0.954703 0.392255
O O10 0.950387 0.942324 0.058924
O O11 0.000000 0.000000 0.000000
O O12 0.917268 0.159397 0.571465
O O13 0.652121 0.083933 0.295861
O O14 0.000000 0.077990 0.750000
O O15 0.000000 0.450998 0.750000
O O16 0.867000 0.732172 0.531931
O O17 0.000000 0.648796 0.750000
O O18 0.171014 0.678836 0.811773
O O19 0.500000 0.316451 0.750000
#
# Coordination Sequence:
#
# PCOD8140170 Si02
#       8
#     8   8   8   8   8   8   8   8
#     4  10  21  34  55  89 131 172 205 242 295 369
#     4  11  25  39  60  94 127 163 209 267 316 369
#     4  11  26  46  66  92 124 154 207 274 327 356
#     4  10  20  40  68  93 122 167 210 245 302 379
#     4  10  23  32  53  92 135 164 205 249 302 349
#     4  10  21  40  69  94 121 168 211 247 301 380
#     4  11  20  37  63  91 130 173 211 249 307 384
#     4  11  20  37  64  90 127 177 210 248 309 384
#
# _framework density 20.889543
#
# number of rings (size 3 to 8) (size 9 to 14) (size 15 to 20)
#    0.000    1.500    3.750    1.500    5.250    3.500 
#    0.000    1.250    0.000    0.000    0.000    0.000 
#    0.000    0.000    0.000    0.000    0.000    0.000 
#
# Total GULP energy -396423.342065 kJ/mol
# GULP energy per Si atom -12388.229440 kJ/mol
# Density = 2.084200 g / cm^3
# Si number density = 20.889543 Si / 1000 Ang^3
#
#
#
# Elastic Constant Matrix: (Units=GPa)
#
#
# Indices 1 2 3 4 5 6 
#
# 1 119.1100 12.5051 31.3968 0.0002 -9.8373 0.0001
# 2 12.5051 55.8710 24.6544 0.0007 -16.9517 0.0003
# 3 31.3968 24.6544 141.6844 -0.0019 -12.6264 0.0008
# 4 0.0002 0.0007 -0.0019 31.2085 -0.0007 -1.5661
# 5 -9.8373 -16.9517 -12.6264 -0.0007 36.7928 0.0001
# 6 0.0001 0.0003 0.0008 -1.5661 0.0001 17.9779
#
#
#
# Elastic Compliance Matrix: (Units=1/GPa)
#
#
# Indices 1 2 3 4 5 6 
#
# 1 0.009059 -0.000823 -0.001735 0.000000 0.001448 0.000000
# 2 -0.000823 0.022064 -0.002858 -0.000001 0.008965 0.000000
# 3 -0.001735 -0.002858 0.008027 0.000001 0.000974 0.000000
# 4 0.000000 -0.000001 0.000001 0.032183 0.000000 0.002804
# 5 0.001448 0.008965 0.000974 0.000000 0.032031 0.000000
# 6 0.000000 0.000000 0.000000 0.002804 0.000000 0.055868
#
#
# Mechanical properties :
#
#
# Convention : Reuss Voigt Hill
#
# Bulk Modulus (GPa) = 35.31427 50.41978 42.86703
# Shear Modulus (GPa) = 27.85479 33.73644 30.79561
#
# Velocity S-wave (km/s) = 3.65558 4.02306 3.84371
# Velocity P-wave (km/s) = 5.89573 6.76526 6.34541
#
# Compressibility (1/GPa) = 0.02831716
#
# Stress axis : x y z
#
# Youngs Moduli (GPa) = 110.38825 45.32337 124.58597
#
# Poissons Ratio (x) = 0.03729 0.21619
# Poissons Ratio (y) = 0.09081 0.35608
# Poissons Ratio (z) = 0.19155 0.12954
#
# Static dielectric constant tensor:
#      x y z
#    x 3.942580 0.000000 -0.094890 
#    y 0.000000 3.386910 0.000000 
#    z -0.094890 0.000000 3.977230 
# 
# 
# High freq. dielectric constant tensor:
#      x y z
#    x 1.836010 0.000000 0.002960 
#    y 0.000000 1.759740 0.000000 
#    z 0.002960 0.000000 1.826540 
# 
# From -- ./inp_files/217131.got.cif
#   From: 2010.06.25/outbox.cif.g09.slc.cpg/sg15_109_cif.got.tgz:217131.got - 2010.06.28 07:06:18.
