data_PCOD8140229
_publ_section_title
;
Structure prediction by ZEFSAII (Michael W. Deem and Ramdas Pophale) SiO2 
 PCOD8140229
Probable space group: C 2/C
;
_chemical_formula_sum "Si O2"
_cell_formula_units_Z 56
_cell_length_a 5.739581
_cell_length_b 17.116232
_cell_length_c 29.014838
_cell_angle_alpha 90.000000
_cell_angle_beta 67.122094
_cell_angle_gamma 90.000000
_cell_volume 2626.190684
_symmetry_space_group_name_H-M "C 2/C"
_symmetry_group_IT_number 15
_symmetry_cell_setting 'monoclinic'
loop_
_space_group_symop_operation_xyz
x,y,z
-x,y,1/2-z
-x,-y,-z
x,-y,1/2+z
1/2+x,1/2+y,z
1/2-x,1/2+y,1/2-z
1/2-x,1/2-y,-z
1/2+x,1/2-y,1/2+z
loop_
_atom_site_type_symbol
_atom_site_label
_atom_site_fract_x
_atom_site_fract_y
_atom_site_fract_z
Si Si1 0.460350 0.241435 0.179139
Si Si2 0.596314 0.833976 0.394948
Si Si3 0.500000 0.170514 0.750000
Si Si4 0.785856 0.817651 0.892205
Si Si5 0.999910 0.705328 0.499592
Si Si6 0.953458 0.452078 0.174226
Si Si7 0.500000 0.530868 0.250000
Si Si8 0.232198 0.901256 0.818821
O O1 0.628383 0.312389 0.146370
O O2 0.357199 0.190996 0.144666
O O3 0.617225 0.179296 0.196353
O O4 0.246593 0.274853 0.229635
O O5 0.404834 0.765506 0.396012
O O6 0.601984 0.846368 0.449817
O O7 0.511617 0.916819 0.379576
O O8 0.485457 0.118202 0.796181
O O9 0.986439 0.886892 0.869440
O O10 0.597447 0.844257 0.947970
O O11 0.750000 0.750000 0.500000
O O12 0.250000 0.750000 0.500000
O O13 0.664294 0.477054 0.203704
O O14 0.132286 0.525877 0.167749
O O15 0.321343 0.582421 0.231022
#
# Coordination Sequence:
#
# PCOD8140229 Si02
#       8
#     8   8   4   8   8   8   4   8
#     4  11  23  43  64  97 129 168 227 285 332 409
#     4  10  22  40  68 101 131 172 226 287 342 404
#     4  12  24  43  66  97 132 170 230 278 343 398
#     4  10  21  41  65 100 130 173 224 284 344 413
#     4  10  20  40  71 104 140 178 228 292 360 417
#     4  12  24  44  63  93 132 181 222 278 342 415
#     4  12  24  45  64  87 132 190 226 260 345 420
#     4  11  26  43  64  90 135 179 226 273 346 419
#
# _framework density 21.323658999999999
#
# number of rings (size 3 to 8) (size 9 to 14) (size 15 to 20)
#    0.000    1.143    4.286    1.714    0.000    3.429 
#    2.571    0.714    0.000    3.429    0.000    0.000 
#    0.000    0.000    0.000    0.000    0.000    0.000 
#
# Total GULP energy -347072.716624 kJ/mol
# GULP energy per Si atom -12395.454165 kJ/mol
# Density = 2.127513 g / cm^3
# Si number density = 21.323659 Si / 1000 Ang^3
#
#
#
# Elastic Constant Matrix: (Units=GPa)
#
#
# Indices 1 2 3 4 5 6 
#
# 1 84.7937 22.8223 14.0196 0.0000 -10.5241 0.0000
# 2 22.8223 86.9680 43.0807 0.0000 -6.3829 0.0000
# 3 14.0196 43.0807 108.1906 0.0000 -13.3802 0.0000
# 4 0.0000 0.0000 0.0000 13.0580 0.0000 5.1673
# 5 -10.5241 -6.3829 -13.3802 0.0000 28.5234 0.0000
# 6 0.0000 0.0000 0.0000 5.1673 0.0000 23.5283
#
#
#
# Elastic Compliance Matrix: (Units=1/GPa)
#
#
# Indices 1 2 3 4 5 6 
#
# 1 0.013156 -0.003186 0.000081 0.000000 0.004179 0.000000
# 2 -0.003186 0.015104 -0.005657 0.000000 -0.000449 0.000000
# 3 0.000081 -0.005657 0.012030 0.000000 0.004407 0.000000
# 4 0.000000 0.000000 0.000000 0.083870 0.000000 -0.018419
# 5 0.004179 -0.000449 0.004407 0.000000 0.038568 0.000000
# 6 0.000000 0.000000 0.000000 -0.018419 0.000000 0.046547
#
#
# Mechanical properties :
#
#
# Convention : Reuss Voigt Hill
#
# Bulk Modulus (GPa) = 43.92544 48.86638 46.39591
# Shear Modulus (GPa) = 21.33217 26.35726 23.84472
#
# Velocity S-wave (km/s) = 3.16634 3.51957 3.34762
# Velocity P-wave (km/s) = 5.83196 6.28353 6.06195
#
# Compressibility (1/GPa) = 0.02276585
#
# Stress axis : x y z
#
# Youngs Moduli (GPa) = 76.01037 66.20882 83.12480
#
# Poissons Ratio (x) = 0.21092 -0.00669
# Poissons Ratio (y) = 0.24214 0.47023
# Poissons Ratio (z) = -0.00612 0.37454
#
# Static dielectric constant tensor:
#      x y z
#    x 4.306310 0.000000 0.044440 
#    y 0.000000 3.633360 0.000000 
#    z 0.044440 0.000000 4.394120 
# 
# 
# High freq. dielectric constant tensor:
#      x y z
#    x 1.854440 0.000000 -0.002110 
#    y 0.000000 1.807180 0.000000 
#    z -0.002110 0.000000 1.844370 
# 
# From -- ./inp_files/305760.got.cif
#   From: 2010.06.25/outbox.cif.g09.slc.cpg/sg15_153_cif.got.tgz:305760.got - 2010.06.28 07:06:18.
