data_PCOD8140204
_publ_section_title
;
Structure prediction by ZEFSAII (Michael W. Deem and Ramdas Pophale) SiO2 
 PCOD8140204
Probable space group: C 2/C
;
_chemical_formula_sum "Si O2"
_cell_formula_units_Z 56
_cell_length_a 10.836048
_cell_length_b 19.172544
_cell_length_c 14.830574
_cell_angle_alpha 90.000000
_cell_angle_beta 123.486289
_cell_angle_gamma 90.000000
_cell_volume 2569.709226
_symmetry_space_group_name_H-M "C 2/C"
_symmetry_group_IT_number 15
_symmetry_cell_setting 'monoclinic'
loop_
_space_group_symop_operation_xyz
x,y,z
-x,y,1/2-z
-x,-y,-z
x,-y,1/2+z
1/2+x,1/2+y,z
1/2-x,1/2+y,1/2-z
1/2-x,1/2-y,-z
1/2+x,1/2-y,1/2+z
loop_
_atom_site_type_symbol
_atom_site_label
_atom_site_fract_x
_atom_site_fract_y
_atom_site_fract_z
Si Si1 0.656996 0.580098 0.589569
Si Si2 0.166511 0.928388 0.797967
Si Si3 0.166525 0.088483 0.801173
Si Si4 0.861745 0.304398 0.133996
Si Si5 0.860779 0.690850 0.433759
Si Si6 0.172593 0.078927 0.089660
Si Si7 0.674497 0.176020 0.485681
O O1 0.704937 0.593008 0.711877
O O2 0.764386 0.627423 0.574583
O O3 0.489210 0.605274 0.505505
O O4 0.683104 0.501855 0.565381
O O5 0.284697 0.884985 0.902751
O O6 0.200376 0.915223 0.706747
O O7 0.000000 0.902443 0.750000
O O8 0.184082 0.007972 0.838386
O O9 0.273467 0.138553 0.901118
O O10 0.000000 0.114070 0.750000
O O11 0.764838 0.246156 0.147590
O O12 0.000000 0.323615 0.250000
O O13 0.913712 0.283323 0.054367
O O14 0.999416 0.690393 0.421964
O O15 0.293634 0.124913 0.085844
O O16 0.750000 0.250000 0.500000
#
# Coordination Sequence:
#
# PCOD8140204 Si02
#       7
#     8   8   8   8   8   8   8
#     4  10  20  40  69  95 130 174 223 275 317 399
#     4  10  22  42  68  98 132 176 222 272 327 395
#     4  10  21  40  68  99 129 173 219 265 333 400
#     4  11  24  44  67  96 127 177 230 271 329 396
#     4  11  26  43  65  97 134 174 216 281 333 392
#     4  10  22  40  65 100 133 174 222 265 337 399
#     4  12  26  44  64  99 136 178 220 280 348 402
#
# _framework density 21.792349000000002
#
# number of rings (size 3 to 8) (size 9 to 14) (size 15 to 20)
#    0.000    1.429    1.429    3.000    4.000    5.714 
#    5.143    0.000    0.000    0.000    0.000    0.000 
#    0.000    0.000    0.000    0.000    0.000    0.000 
#
# Total GULP energy -347234.283449 kJ/mol
# GULP energy per Si atom -12401.224409 kJ/mol
# Density = 2.174275 g / cm^3
# Si number density = 21.792349 Si / 1000 Ang^3
#
#
#
# Elastic Constant Matrix: (Units=GPa)
#
#
# Indices 1 2 3 4 5 6 
#
# 1 129.8897 53.0503 19.8455 0.0000 2.6339 0.0000
# 2 53.0503 99.4284 29.7422 0.0000 9.3232 0.0000
# 3 19.8455 29.7422 80.5924 0.0000 -2.6851 0.0000
# 4 0.0000 0.0000 0.0000 31.8391 0.0000 -2.5129
# 5 2.6339 9.3232 -2.6851 0.0000 30.7942 0.0000
# 6 0.0000 0.0000 0.0000 -2.5129 0.0000 35.4623
#
#
#
# Elastic Compliance Matrix: (Units=1/GPa)
#
#
# Indices 1 2 3 4 5 6 
#
# 1 0.009879 -0.005187 -0.000496 0.000000 0.000682 0.000000
# 2 -0.005187 0.014490 -0.004214 0.000000 -0.004311 0.000000
# 3 -0.000496 -0.004214 0.014170 0.000000 0.002554 0.000000
# 4 0.000000 0.000000 0.000000 0.031585 0.000000 0.002238
# 5 0.000682 -0.004311 0.002554 0.000000 0.033943 0.000000
# 6 0.000000 0.000000 0.000000 0.002238 0.000000 0.028358
#
#
# Mechanical properties :
#
#
# Convention : Reuss Voigt Hill
#
# Bulk Modulus (GPa) = 53.34316 57.24293 55.29305
# Shear Modulus (GPa) = 31.55263 33.43729 32.49496
#
# Velocity S-wave (km/s) = 3.80923 3.92134 3.86569
# Velocity P-wave (km/s) = 6.62405 6.84303 6.73443
#
# Compressibility (1/GPa) = 0.01874654
#
# Stress axis : x y z
#
# Youngs Moduli (GPa) = 101.22334 69.01547 70.56994
#
# Poissons Ratio (x) = 0.35796 0.03499
# Poissons Ratio (y) = 0.52501 0.29736
# Poissons Ratio (z) = 0.05019 0.29081
#
# Static dielectric constant tensor:
#      x y z
#    x 3.898670 0.000000 -0.054280 
#    y 0.000000 3.961090 0.000000 
#    z -0.054280 0.000000 3.766650 
# 
# 
# High freq. dielectric constant tensor:
#      x y z
#    x 1.853220 0.000000 -0.010470 
#    y 0.000000 1.862130 0.000000 
#    z -0.010470 0.000000 1.853420 
# 
# From -- ./inp_files/146142.got.cif
#   From: 2010.06.25/outbox.cif.g09.slc.cpg/sg15_74_cif.got.tgz:146142.got - 2010.06.28 07:06:18.
