data_PCOD8140091
_publ_section_title
;
Structure prediction by ZEFSAII (Michael W. Deem and Ramdas Pophale) SiO2 
 PCOD8140091
Probable space group: C 2/C
;
_chemical_formula_sum "Si O2"
_cell_formula_units_Z 52
_cell_length_a 11.770407
_cell_length_b 8.773150
_cell_length_c 26.688391
_cell_angle_alpha 90.000000
_cell_angle_beta 58.667115
_cell_angle_gamma 90.000000
_cell_volume 2354.013321
_symmetry_space_group_name_H-M "C 2/C"
_symmetry_group_IT_number 15
_symmetry_cell_setting 'monoclinic'
loop_
_space_group_symop_operation_xyz
x,y,z
-x,y,1/2-z
-x,-y,-z
x,-y,1/2+z
1/2+x,1/2+y,z
1/2-x,1/2+y,1/2-z
1/2-x,1/2-y,-z
1/2+x,1/2-y,1/2+z
loop_
_atom_site_type_symbol
_atom_site_label
_atom_site_fract_x
_atom_site_fract_y
_atom_site_fract_z
Si Si1 0.653031 0.605152 0.267960
Si Si2 0.207590 0.441412 0.436853
Si Si3 0.710707 0.361025 0.325932
Si Si4 0.500000 0.646449 0.750000
Si Si5 0.445103 0.948792 0.434379
Si Si6 0.057970 0.733872 0.130627
Si Si7 0.622328 0.274444 0.629348
O O1 0.728944 0.530297 0.298363
O O2 0.751413 0.725083 0.220842
O O3 0.622022 0.464256 0.237765
O O4 0.518587 0.693549 0.312914
O O5 0.163391 0.486024 0.502663
O O6 0.296248 0.289672 0.419998
O O7 0.294942 0.571475 0.391073
O O8 0.081510 0.411100 0.430943
O O9 0.552467 0.340280 0.371634
O O10 0.796690 0.350183 0.356464
O O11 0.455165 0.753724 0.806203
O O12 0.465480 0.062611 0.382981
O O13 0.393773 0.790614 0.422818
#
# Coordination Sequence:
#
# PCOD8140091 Si02
#       7
#     8   8   8   4   8   8   8
#     4  11  23  41  65  97 134 182 210 273 329 394
#     4  11  23  50  67  95 139 171 222 281 333 380
#     4  11  23  40  67  94 135 174 219 267 334 393
#     4  10  20  40  66  92 132 178 208 266 334 384
#     4  11  27  41  74  99 124 183 227 271 328 397
#     4  11  23  43  69  97 136 174 217 275 332 392
#     4  12  23  44  66  98 132 170 224 273 327 396
#
# _framework density 22.089935000000001
#
# number of rings (size 3 to 8) (size 9 to 14) (size 15 to 20)
#    0.000    0.923    6.154    0.923    2.154    4.923 
#    0.000    0.769    0.000    0.000    0.000    0.000 
#    0.000    0.000    0.000    0.000    0.000    0.000 
#
# Total GULP energy -322471.956251 kJ/mol
# GULP energy per Si atom -12402.767548 kJ/mol
# Density = 2.203966 g / cm^3
# Si number density = 22.089935 Si / 1000 Ang^3
#
#
#
# Elastic Constant Matrix: (Units=GPa)
#
#
# Indices 1 2 3 4 5 6 
#
# 1 95.4145 21.7009 33.4644 0.0000 6.9991 0.0000
# 2 21.7009 26.6020 11.0770 0.0000 7.9012 0.0000
# 3 33.4644 11.0770 76.7460 0.0000 1.8601 0.0000
# 4 0.0000 0.0000 0.0000 31.1485 0.0000 12.0736
# 5 6.9991 7.9012 1.8601 0.0000 36.1497 0.0000
# 6 0.0000 0.0000 0.0000 12.0736 0.0000 38.7547
#
#
#
# Elastic Compliance Matrix: (Units=1/GPa)
#
#
# Indices 1 2 3 4 5 6 
#
# 1 0.014408 -0.009586 -0.004888 0.000000 -0.000443 0.000000
# 2 -0.009586 0.049133 -0.002699 0.000000 -0.008744 0.000000
# 3 -0.004888 -0.002699 0.015533 0.000000 0.000737 0.000000
# 4 0.000000 0.000000 0.000000 0.036514 0.000000 -0.011375
# 5 -0.000443 -0.008744 0.000737 0.000000 0.029622 0.000000
# 6 0.000000 0.000000 0.000000 -0.011375 0.000000 0.029347
#
#
# Mechanical properties :
#
#
# Convention : Reuss Voigt Hill
#
# Bulk Modulus (GPa) = 22.35856 36.80526 29.58191
# Shear Modulus (GPa) = 22.34017 30.04526 26.19272
#
# Velocity S-wave (km/s) = 3.18359 3.69200 3.44718
# Velocity P-wave (km/s) = 4.86387 5.90527 5.40969
#
# Compressibility (1/GPa) = 0.04472560
#
# Stress axis : x y z
#
# Youngs Moduli (GPa) = 69.40716 20.35311 64.37859
#
# Poissons Ratio (x) = 0.19511 0.31468
# Poissons Ratio (y) = 0.66537 0.17379
# Poissons Ratio (z) = 0.33926 0.05494
#
# Static dielectric constant tensor:
#      x y z
#    x 4.211050 0.000000 0.015910 
#    y 0.000000 3.884380 0.000000 
#    z 0.015910 0.000000 3.922110 
# 
# 
# High freq. dielectric constant tensor:
#      x y z
#    x 1.883760 0.000000 0.000070 
#    y 0.000000 1.859820 0.000000 
#    z 0.000070 0.000000 1.861000 
# 
# From -- ./inp_files/291267.got.cif
#   From: 2010.06.25/outbox.cif.g09.slc.cpg/sg15_146_cif.got.tgz:291267.got - 2010.06.28 07:06:18.
