data_PCOD8140532
_publ_section_title
;
Structure prediction by ZEFSAII (Michael W. Deem and Ramdas Pophale) SiO2 
 PCOD8140532
Probable space group: C 2/C
;
_chemical_formula_sum "Si O2"
_cell_formula_units_Z 60
_cell_length_a 12.045517
_cell_length_b 8.545129
_cell_length_c 25.448759
_cell_angle_alpha 90.000000
_cell_angle_beta 96.652950
_cell_angle_gamma 90.000000
_cell_volume 2601.814323
_symmetry_space_group_name_H-M "C 2/C"
_symmetry_group_IT_number 15
_symmetry_cell_setting 'monoclinic'
loop_
_space_group_symop_operation_xyz
x,y,z
-x,y,1/2-z
-x,-y,-z
x,-y,1/2+z
1/2+x,1/2+y,z
1/2-x,1/2+y,1/2-z
1/2-x,1/2-y,-z
1/2+x,1/2-y,1/2+z
loop_
_atom_site_type_symbol
_atom_site_label
_atom_site_fract_x
_atom_site_fract_y
_atom_site_fract_z
Si Si1 0.468435 0.186330 0.914426
Si Si2 0.964142 0.612754 0.690885
Si Si3 0.136569 0.162890 0.004805
Si Si4 0.429579 0.166971 0.440815
Si Si5 0.573190 0.805672 0.677637
Si Si6 0.000000 0.049335 0.750000
Si Si7 0.187635 0.127796 0.325966
Si Si8 0.315347 0.640781 0.055645
O O1 0.454460 0.184027 0.850399
O O2 0.597027 0.217717 0.938122
O O3 0.438639 0.019824 0.938043
O O4 0.387216 0.323049 0.933490
O O5 0.971002 0.423888 0.686914
O O6 0.000000 0.671840 0.750000
O O7 0.840906 0.684432 0.673570
O O8 0.032380 0.259210 0.976397
O O9 0.140834 0.986979 0.984102
O O10 0.250000 0.250000 0.000000
O O11 0.430717 0.244540 0.383223
O O12 0.310571 0.205236 0.463957
O O13 0.567170 0.652529 0.712112
O O14 0.691769 0.893838 0.694787
O O15 0.909295 0.950831 0.713221
O O16 0.190873 0.061320 0.385998
#
# Coordination Sequence:
#
# PCOD8140532 Si02
#       8
#     8   8   8   8   8   4   8   8
#     4  10  22  40  66  92 119 167 212 246 312 372
#     4  10  20  42  64  85 125 164 199 256 305 359
#     4  12  23  40  66  94 128 163 204 262 317 367
#     4  10  22  44  61  87 129 164 203 260 311 371
#     4  10  23  39  61  88 121 164 208 248 310 370
#     4  12  22  34  60  94 116 156 212 250 304 374
#     4  10  23  39  62  88 123 161 201 257 312 358
#     4  10  22  43  63  88 126 164 204 258 310 371
#
# _framework density 23.060832000000001
#
# number of rings (size 3 to 8) (size 9 to 14) (size 15 to 20)
#    0.000    1.600    2.667    1.600    1.867    0.533 
#    2.400    0.000    5.867    0.000    0.000    0.000 
#    0.000    0.000    0.000    0.000    0.000    0.000 
#
# Total GULP energy -371818.705130 kJ/mol
# GULP energy per Si atom -12393.956838 kJ/mol
# Density = 2.300834 g / cm^3
# Si number density = 23.060832 Si / 1000 Ang^3
#
#
#
# Elastic Constant Matrix: (Units=GPa)
#
#
# Indices 1 2 3 4 5 6 
#
# 1 133.3451 33.1975 32.1874 0.0000 -3.5522 0.0000
# 2 33.1975 45.9326 -10.2199 0.0000 -4.2924 0.0000
# 3 32.1874 -10.2199 66.4834 0.0000 -5.8022 0.0000
# 4 0.0000 0.0000 0.0000 9.8490 0.0000 5.3450
# 5 -3.5522 -4.2924 -5.8022 0.0000 32.6829 0.0000
# 6 0.0000 0.0000 0.0000 5.3450 0.0000 30.5989
#
#
#
# Elastic Compliance Matrix: (Units=1/GPa)
#
#
# Indices 1 2 3 4 5 6 
#
# 1 0.011831 -0.010336 -0.007438 0.000000 -0.001392 0.000000
# 2 -0.010336 0.032004 0.010353 0.000000 0.004918 0.000000
# 3 -0.007438 0.010353 0.020601 0.000000 0.004209 0.000000
# 4 0.000000 0.000000 0.000000 0.112166 0.000000 -0.019593
# 5 -0.001392 0.004918 0.004209 0.000000 0.031839 0.000000
# 6 0.000000 0.000000 0.000000 -0.019593 0.000000 0.036103
#
#
# Mechanical properties :
#
#
# Convention : Reuss Voigt Hill
#
# Bulk Modulus (GPa) = 20.16361 39.56569 29.86465
# Shear Modulus (GPa) = 18.12133 27.33258 22.72696
#
# Velocity S-wave (km/s) = 2.80626 3.44646 3.14271
# Velocity P-wave (km/s) = 4.38894 5.74733 5.11344
#
# Compressibility (1/GPa) = 0.04959429
#
# Stress axis : x y z
#
# Youngs Moduli (GPa) = 84.52449 31.24590 48.54079
#
# Poissons Ratio (x) = 0.32295 0.36105
# Poissons Ratio (y) = 0.87363 -0.50254
# Poissons Ratio (z) = 0.62871 -0.32349
#
# Static dielectric constant tensor:
#      x y z
#    x 4.262830 0.000000 -0.187230 
#    y 0.000000 3.979150 0.000000 
#    z -0.187230 0.000000 4.711250 
# 
# 
# High freq. dielectric constant tensor:
#      x y z
#    x 1.909500 0.000000 -0.011560 
#    y 0.000000 1.892570 0.000000 
#    z -0.011560 0.000000 1.935660 
# 
# From -- ./inp_files/291576.got.cif
#   From: 2010.06.25/outbox.cif.g09.slc.cpg/sg15_146_cif.got.tgz:291576.got - 2010.06.28 07:06:18.
