data_PCOD8140811
_publ_section_title
;
Structure prediction by ZEFSAII (Michael W. Deem and Ramdas Pophale) SiO2 
 PCOD8140811
Probable space group: C 2/C
;
_chemical_formula_sum "Si O2"
_cell_formula_units_Z 56
_cell_length_a 8.705098
_cell_length_b 11.312913
_cell_length_c 26.730106
_cell_angle_alpha 90.000000
_cell_angle_beta 116.569091
_cell_angle_gamma 90.000000
_cell_volume 2354.390379
_symmetry_space_group_name_H-M "C 2/C"
_symmetry_group_IT_number 15
_symmetry_cell_setting 'monoclinic'
loop_
_space_group_symop_operation_xyz
x,y,z
-x,y,1/2-z
-x,-y,-z
x,-y,1/2+z
1/2+x,1/2+y,z
1/2-x,1/2+y,1/2-z
1/2-x,1/2-y,-z
1/2+x,1/2-y,1/2+z
loop_
_atom_site_type_symbol
_atom_site_label
_atom_site_fract_x
_atom_site_fract_y
_atom_site_fract_z
Si Si1 0.647940 0.282182 0.173919
Si Si2 0.500000 0.824679 0.250000
Si Si3 0.447446 0.244792 0.472943
Si Si4 0.000000 0.865490 0.250000
Si Si5 0.071262 0.588169 0.410248
Si Si6 0.091111 0.026085 0.585882
Si Si7 0.859410 0.395719 0.330311
Si Si8 0.560090 0.711296 0.415073
O O1 0.600540 0.288044 0.224925
O O2 0.506579 0.196172 0.131980
O O3 0.651183 0.407387 0.145032
O O4 0.848088 0.241091 0.205431
O O5 0.429482 0.910967 0.283877
O O6 0.567816 0.141510 0.466366
O O7 0.498888 0.379630 0.465084
O O8 0.457076 0.225701 0.533255
O O9 0.251950 0.236354 0.422185
O O10 0.156532 0.931606 0.301857
O O11 0.947766 0.477720 0.384492
O O12 0.259171 0.549888 0.419729
O O13 0.951605 0.929816 0.581982
O O14 0.911285 0.263410 0.357192
#
# Coordination Sequence:
#
# PCOD8140811 Si02
#       8
#     8   4   8   4   8   8   8   8
#     4  10  22  41  62  94 127 171 221 270 329 390
#     4  10  20  44  64  86 136 170 220 276 326 388
#     4  10  24  44  66 103 131 176 222 266 336 401
#     4  10  24  40  58  98 128 164 236 264 324 404
#     4  11  22  41  69  93 134 174 216 273 331 395
#     4  11  22  44  66  94 134 173 215 275 325 392
#     4  11  22  42  63  99 132 173 220 273 330 390
#     4  11  23  44  69  95 139 174 218 276 332 393
#
# _framework density 23.785350000000001
#
# number of rings (size 3 to 8) (size 9 to 14) (size 15 to 20)
#    0.000    1.429    2.857    2.143    2.000    2.286 
#   10.286    0.000    0.000    0.000    0.000    0.000 
#    0.000    0.000    0.000    0.000    0.000    0.000 
#
# Total GULP energy -346896.234267 kJ/mol
# GULP energy per Si atom -12389.151224 kJ/mol
# Density = 2.373121 g / cm^3
# Si number density = 23.785350 Si / 1000 Ang^3
#
#
#
# Elastic Constant Matrix: (Units=GPa)
#
#
# Indices 1 2 3 4 5 6 
#
# 1 89.1979 34.5937 20.9870 0.0000 0.8091 0.0000
# 2 34.5937 101.1155 8.7504 0.0000 -5.7043 0.0000
# 3 20.9870 8.7504 74.0658 0.0000 0.1386 0.0000
# 4 0.0000 0.0000 0.0000 0.7815 0.0000 4.1763
# 5 0.8091 -5.7043 0.1386 0.0000 35.1874 0.0000
# 6 0.0000 0.0000 0.0000 4.1763 0.0000 30.1922
#
#
#
# Elastic Compliance Matrix: (Units=1/GPa)
#
#
# Indices 1 2 3 4 5 6 
#
# 1 0.013745 -0.004469 -0.003365 0.000000 -0.001027 0.000000
# 2 -0.004469 0.011539 -0.000101 0.000000 0.001974 0.000000
# 3 -0.003365 -0.000101 0.014467 0.000000 0.000004 0.000000
# 4 0.000000 0.000000 0.000000 4.905374 0.000000 -0.678535
# 5 -0.001027 0.001974 0.000004 0.000000 0.028763 0.000000
# 6 0.000000 0.000000 0.000000 -0.678535 0.000000 0.126979
#
#
# Mechanical properties :
#
#
# Convention : Reuss Voigt Hill
#
# Bulk Modulus (GPa) = 41.87337 43.67125 42.77231
# Shear Modulus (GPa) = 0.97567 26.56876 13.77221
#
# Velocity S-wave (km/s) = 0.64116 3.34581 2.40890
# Velocity P-wave (km/s) = 4.26509 5.77290 5.07530
#
# Compressibility (1/GPa) = 0.02388153
#
# Stress axis : x y z
#
# Youngs Moduli (GPa) = 72.75153 86.66421 69.12356
#
# Poissons Ratio (x) = 0.38733 0.23259
# Poissons Ratio (y) = 0.32515 0.00695
# Poissons Ratio (z) = 0.24480 0.00871
#
# Static dielectric constant tensor:
#      x y z
#    x 5.173190 0.000000 -0.037280 
#    y 0.000000 4.148010 0.000000 
#    z -0.037280 0.000000 4.575920 
# 
# 
# High freq. dielectric constant tensor:
#      x y z
#    x 1.949310 0.000000 -0.003420 
#    y 0.000000 1.911240 0.000000 
#    z -0.003420 0.000000 1.958180 
# 
# From -- ./inp_files/307108.got.cif
#   From: 2010.06.25/outbox.cif.g09.slc.cpg/sg15_154_cif.got.tgz:307108.got - 2010.06.28 07:06:18.
