data_PCOD8140488
_publ_section_title
;
Structure prediction by ZEFSAII (Michael W. Deem and Ramdas Pophale) SiO2 
 PCOD8140488
Probable space group: C 2/C
;
_chemical_formula_sum "Si O2"
_cell_formula_units_Z 60
_cell_length_a 19.672616
_cell_length_b 8.059745
_cell_length_c 18.131759
_cell_angle_alpha 90.000000
_cell_angle_beta 102.927754
_cell_angle_gamma 90.000000
_cell_volume 2802.033676
_symmetry_space_group_name_H-M "C 2/C"
_symmetry_group_IT_number 15
_symmetry_cell_setting 'monoclinic'
loop_
_space_group_symop_operation_xyz
x,y,z
-x,y,1/2-z
-x,-y,-z
x,-y,1/2+z
1/2+x,1/2+y,z
1/2-x,1/2+y,1/2-z
1/2-x,1/2-y,-z
1/2+x,1/2-y,1/2+z
loop_
_atom_site_type_symbol
_atom_site_label
_atom_site_fract_x
_atom_site_fract_y
_atom_site_fract_z
Si Si1 0.000000 0.788382 0.250000
Si Si2 0.875390 0.893843 0.131672
Si Si3 0.298626 0.599491 0.854084
Si Si4 0.860039 0.411329 0.425417
Si Si5 0.056835 0.131787 0.991978
Si Si6 0.209240 0.611350 0.444389
Si Si7 0.759867 0.039667 0.190818
Si Si8 0.562667 0.785496 0.619907
O O1 0.050480 0.903349 0.310079
O O2 0.049738 0.687703 0.204886
O O3 0.886219 0.949114 0.049229
O O4 0.840596 0.707957 0.126278
O O5 0.828697 0.031930 0.158393
O O6 0.261108 0.519077 0.916669
O O7 0.279898 0.484376 0.780504
O O8 0.382902 0.629899 0.884339
O O9 0.271493 0.781176 0.829245
O O10 0.898783 0.230478 0.434729
O O11 0.837237 0.474278 0.502282
O O12 0.794061 0.399995 0.353545
O O13 0.912651 0.542874 0.406232
O O14 0.012861 0.265354 0.934864
O O15 0.000000 0.000000 0.000000
O O16 0.250000 0.750000 0.500000
#
# Coordination Sequence:
#
# PCOD8140488 Si02
#       8
#     4   8   8   8   8   8   8   8
#     4  10  20  42  60  88 122 176 210 256 322 380
#     4  10  21  40  62  88 127 168 212 265 321 388
#     4  11  25  38  68  98 126 175 212 276 329 390
#     4  10  23  40  63  94 125 168 208 278 321 386
#     4  10  23  37  63  89 126 171 215 260 318 381
#     4  11  23  40  65  95 133 167 210 275 335 382
#     4  11  22  41  64  95 131 162 221 271 332 390
#     4  10  22  39  65  88 128 165 219 259 321 393
#
# _framework density 21.413021000000001
#
# number of rings (size 3 to 8) (size 9 to 14) (size 15 to 20)
#    0.000    1.600    2.667    1.200    5.600    3.200 
#    0.000    0.000    0.000    0.800    0.000    0.000 
#    0.000    0.000    0.000    0.000    0.000    0.000 
#
# Total GULP energy -371671.580230 kJ/mol
# GULP energy per Si atom -12389.052674 kJ/mol
# Density = 2.136428 g / cm^3
# Si number density = 21.413021 Si / 1000 Ang^3
#
#
#
# Elastic Constant Matrix: (Units=GPa)
#
#
# Indices 1 2 3 4 5 6 
#
# 1 96.3524 24.5600 24.4722 0.0000 -14.7103 0.0000
# 2 24.5600 60.2200 20.6566 0.0000 -13.6225 0.0000
# 3 24.4722 20.6566 60.3043 0.0000 -14.6496 0.0000
# 4 0.0000 0.0000 0.0000 29.9049 0.0000 -5.9762
# 5 -14.7103 -13.6225 -14.6496 0.0000 58.2051 0.0000
# 6 0.0000 0.0000 0.0000 -5.9762 0.0000 36.5866
#
#
#
# Elastic Compliance Matrix: (Units=1/GPa)
#
#
# Indices 1 2 3 4 5 6 
#
# 1 0.012378 -0.003537 -0.003465 0.000000 0.001429 0.000000
# 2 -0.003537 0.020319 -0.004886 0.000000 0.002632 0.000000
# 3 -0.003465 -0.004886 0.020420 0.000000 0.003120 0.000000
# 4 0.000000 0.000000 0.000000 0.034568 0.000000 0.005646
# 5 0.001429 0.002632 0.003120 0.000000 0.018943 0.000000
# 6 0.000000 0.000000 0.000000 0.005646 0.000000 0.028255
#
#
# Mechanical properties :
#
#
# Convention : Reuss Voigt Hill
#
# Bulk Modulus (GPa) = 34.07869 39.58380 36.83124
# Shear Modulus (GPa) = 29.68447 34.75186 32.21817
#
# Velocity S-wave (km/s) = 3.72732 4.03293 3.88313
# Velocity P-wave (km/s) = 5.87140 6.34130 6.11087
#
# Compressibility (1/GPa) = 0.02934385
#
# Stress axis : x y z
#
# Youngs Moduli (GPa) = 80.78755 49.21401 48.97130
#
# Poissons Ratio (x) = 0.17405 0.16967
# Poissons Ratio (y) = 0.28572 0.23925
# Poissons Ratio (z) = 0.27990 0.24044
#
# Static dielectric constant tensor:
#      x y z
#    x 4.588590 0.000000 0.108630 
#    y 0.000000 3.502160 0.000000 
#    z 0.108630 0.000000 4.421540 
# 
# 
# High freq. dielectric constant tensor:
#      x y z
#    x 1.869910 0.000000 0.001100 
#    y 0.000000 1.800760 0.000000 
#    z 0.001100 0.000000 1.847430 
# 
# From -- ./inp_files/209587.got.cif
#   From: 2010.06.25/outbox.cif.g09.slc.cpg/sg15_105_cif.got.tgz:209587.got - 2010.06.28 07:06:18.
