data_PCOD8140192
_publ_section_title
;
Structure prediction by ZEFSAII (Michael W. Deem and Ramdas Pophale) SiO2 
 PCOD8140192
Probable space group: C 2/C
;
_chemical_formula_sum "Si O2"
_cell_formula_units_Z 60
_cell_length_a 10.912977
_cell_length_b 15.744225
_cell_length_c 17.402700
_cell_angle_alpha 90.000000
_cell_angle_beta 66.278207
_cell_angle_gamma 90.000000
_cell_volume 2737.436690
_symmetry_space_group_name_H-M "C 2/C"
_symmetry_group_IT_number 15
_symmetry_cell_setting 'monoclinic'
loop_
_space_group_symop_operation_xyz
x,y,z
-x,y,1/2-z
-x,-y,-z
x,-y,1/2+z
1/2+x,1/2+y,z
1/2-x,1/2+y,1/2-z
1/2-x,1/2-y,-z
1/2+x,1/2-y,1/2+z
loop_
_atom_site_type_symbol
_atom_site_label
_atom_site_fract_x
_atom_site_fract_y
_atom_site_fract_z
Si Si1 0.187412 0.313378 0.575900
Si Si2 0.000000 0.784854 0.750000
Si Si3 0.108755 0.113510 0.921200
Si Si4 0.651712 0.571794 0.739383
Si Si5 0.826185 0.970723 0.490190
Si Si6 0.352127 0.788884 0.141990
Si Si7 0.205427 0.917566 0.643745
Si Si8 0.055709 0.700156 0.452256
O O1 0.250000 0.250000 0.500000
O O2 0.203590 0.410080 0.543042
O O3 0.257931 0.292118 0.640081
O O4 0.028151 0.296741 0.607386
O O5 0.083903 0.728806 0.790058
O O6 0.097847 0.842513 0.673933
O O7 0.162944 0.100885 0.823290
O O8 0.133763 0.210760 0.939722
O O9 0.955783 0.086587 0.974740
O O10 0.196809 0.054599 0.953633
O O11 0.500000 0.584193 0.750000
O O12 0.753801 0.630850 0.666364
O O13 0.702258 0.472551 0.723454
O O14 0.837197 0.004343 0.400961
O O15 0.466677 0.811139 0.051125
O O16 0.345594 0.879445 0.581348
#
# Coordination Sequence:
#
# PCOD8140192 Si02
#       8
#     8   4   8   8   8   8   8   8
#     4  10  20  40  68  99 130 173 230 280 328 395
#     4  12  26  44  66 102 140 180 218 288 356 398
#     4  11  22  40  65  99 129 179 232 271 334 408
#     4  12  24  42  69  98 138 179 226 281 348 404
#     4  11  22  38  69  94 133 178 229 279 319 406
#     4  11  25  43  70  99 141 178 228 285 343 411
#     4  12  25  43  68 100 137 179 226 282 342 410
#     4  11  24  44  70 101 135 179 233 278 340 409
#
# _framework density 21.918315
#
# number of rings (size 3 to 8) (size 9 to 14) (size 15 to 20)
#    0.000    0.800    4.667    4.000    3.733    5.333 
#    0.000    0.000    0.000    0.000    0.000    0.000 
#    0.000    0.000    0.000    0.000    0.000    0.000 
#
# Total GULP energy -371844.729417 kJ/mol
# GULP energy per Si atom -12394.824314 kJ/mol
# Density = 2.186843 g / cm^3
# Si number density = 21.918315 Si / 1000 Ang^3
#
#
#
# Elastic Constant Matrix: (Units=GPa)
#
#
# Indices 1 2 3 4 5 6 
#
# 1 84.3976 46.5131 30.9032 0.0000 6.2481 0.0000
# 2 46.5131 133.7962 37.8484 0.0000 -13.3288 0.0000
# 3 30.9032 37.8484 87.2081 0.0000 -4.9297 0.0000
# 4 0.0000 0.0000 0.0000 68.4021 0.0000 37.0027
# 5 6.2481 -13.3288 -4.9297 0.0000 31.1789 0.0000
# 6 0.0000 0.0000 0.0000 37.0027 0.0000 105.5004
#
#
#
# Elastic Compliance Matrix: (Units=1/GPa)
#
#
# Indices 1 2 3 4 5 6 
#
# 1 0.016682 -0.005299 -0.003964 0.000000 -0.006235 0.000000
# 2 -0.005299 0.010508 -0.002390 0.000000 0.005176 0.000000
# 3 -0.003964 -0.002390 0.014021 0.000000 0.001990 0.000000
# 4 0.000000 0.000000 0.000000 0.018043 0.000000 -0.006328
# 5 -0.006235 0.005176 0.001990 0.000000 0.035850 0.000000
# 6 0.000000 0.000000 0.000000 -0.006328 0.000000 0.011698
#
#
# Mechanical properties :
#
#
# Convention : Reuss Voigt Hill
#
# Bulk Modulus (GPa) = 55.85101 59.54790 57.69945
# Shear Modulus (GPa) = 36.74374 53.69208 45.21791
#
# Velocity S-wave (km/s) = 4.09882 4.95476 4.54698
# Velocity P-wave (km/s) = 6.92367 7.74338 7.34497
#
# Compressibility (1/GPa) = 0.01790478
#
# Stress axis : x y z
#
# Youngs Moduli (GPa) = 59.94371 95.16532 71.31989
#
# Poissons Ratio (x) = 0.50430 0.28272
# Poissons Ratio (y) = 0.31766 0.17046
# Poissons Ratio (z) = 0.23763 0.22745
#
# Static dielectric constant tensor:
#      x y z
#    x 4.346360 0.000000 0.233170 
#    y 0.000000 4.299720 0.000000 
#    z 0.233170 0.000000 4.077900 
# 
# 
# High freq. dielectric constant tensor:
#      x y z
#    x 1.845720 0.000000 0.002360 
#    y 0.000000 1.872990 0.000000 
#    z 0.002360 0.000000 1.857740 
# 
# From -- ./inp_files/198304.got.cif
#   From: 2010.06.25/outbox.cif.g09.slc.cpg/sg15_100_cif.got.tgz:198304.got - 2010.06.28 07:06:18.
