data_PCOD8140916
_publ_section_title
;
Structure prediction by ZEFSAII (Michael W. Deem and Ramdas Pophale) SiO2 
 PCOD8140916
Probable space group: C 2/C
;
_chemical_formula_sum "Si O2"
_cell_formula_units_Z 56
_cell_length_a 11.107170
_cell_length_b 29.431700
_cell_length_c 8.968908
_cell_angle_alpha 90.000000
_cell_angle_beta 120.454102
_cell_angle_gamma 90.000000
_cell_volume 2527.455200
_symmetry_space_group_name_H-M "C 2/C"
_symmetry_group_IT_number 15
_symmetry_cell_setting 'monoclinic'
loop_
_space_group_symop_operation_xyz
x,y,z
-x,y,1/2-z
-x,-y,-z
x,-y,1/2+z
1/2+x,1/2+y,z
1/2-x,1/2+y,1/2-z
1/2-x,1/2-y,-z
1/2+x,1/2-y,1/2+z
loop_
_atom_site_type_symbol
_atom_site_label
_atom_site_fract_x
_atom_site_fract_y
_atom_site_fract_z
Si Si1 0.704895 0.499604 0.370609
Si Si2 0.880565 0.306511 0.476958
Si Si3 0.893336 0.151702 0.819133
Si Si4 0.663959 0.161869 0.230914
Si Si5 0.435186 0.557628 0.965026
Si Si6 0.236554 0.560705 0.334389
Si Si7 0.067793 0.212927 0.137995
O O1 0.629713 0.536098 0.428529
O O2 0.589867 0.475218 0.192362
O O3 0.813141 0.527210 0.331220
O O4 0.791730 0.462451 0.521811
O O5 0.760189 0.336746 0.331377
O O6 0.855684 0.305872 0.638181
O O7 0.868696 0.256133 0.405356
O O8 0.033783 0.328347 0.538461
O O9 0.866911 0.106514 0.897382
O O10 0.000000 0.142387 0.750000
O O11 0.951192 0.191657 0.958444
O O12 0.661018 0.109111 0.278163
O O13 0.810245 0.176337 0.248187
O O14 0.598493 0.566229 0.085235
O O15 0.000000 0.228459 0.250000
#
# Coordination Sequence:
#
# PCOD8140916 Si02
#       7
#     8   8   8   8   8   8   8
#     4  10  21  32  59  94 132 168 213 278 322 384
#     4  11  25  45  68  97 134 180 221 275 337 404
#     4  12  24  41  71  99 129 174 229 273 323 405
#     4  11  24  42  72  98 137 178 223 272 336 398
#     4  11  19  34  57  94 130 165 219 269 327 379
#     4  11  19  36  59  95 130 169 217 266 327 384
#     4  12  27  46  70 101 134 171 226 284 333 390
#
# _framework density 22.156673999999999
#
# number of rings (size 3 to 8) (size 9 to 14) (size 15 to 20)
#    0.000    0.857    2.857    6.429    4.000    2.286 
#    0.000    0.000    0.000   15.429    0.000    0.000 
#    0.000    0.000    0.000    0.000    0.000    0.000 
#
# Total GULP energy -347196.590515 kJ/mol
# GULP energy per Si atom -12399.878233 kJ/mol
# Density = 2.210624 g / cm^3
# Si number density = 22.156674 Si / 1000 Ang^3
#
#
#
# Elastic Constant Matrix: (Units=GPa)
#
#
# Indices 1 2 3 4 5 6 
#
# 1 60.2722 28.7721 36.7523 0.0000 5.9232 0.0000
# 2 28.7721 108.7611 41.8897 0.0000 9.5878 0.0000
# 3 36.7523 41.8897 91.2542 0.0000 4.2408 0.0000
# 4 0.0000 0.0000 0.0000 23.6534 0.0000 -12.4113
# 5 5.9232 9.5878 4.2408 0.0000 42.6375 0.0000
# 6 0.0000 0.0000 0.0000 -12.4113 0.0000 14.2342
#
#
#
# Elastic Compliance Matrix: (Units=1/GPa)
#
#
# Indices 1 2 3 4 5 6 
#
# 1 0.022913 -0.002896 -0.007817 0.000000 -0.001754 0.000000
# 2 -0.002896 0.011710 -0.004124 0.000000 -0.001821 0.000000
# 3 -0.007817 -0.004124 0.015980 0.000000 0.000424 0.000000
# 4 0.000000 0.000000 0.000000 0.077932 0.000000 0.067952
# 5 -0.001754 -0.001821 0.000424 0.000000 0.024064 0.000000
# 6 0.000000 0.000000 0.000000 0.067952 0.000000 0.129502
#
#
# Mechanical properties :
#
#
# Convention : Reuss Voigt Hill
#
# Bulk Modulus (GPa) = 47.78312 52.79064 50.28688
# Shear Modulus (GPa) = 15.68615 26.29659 20.99137
#
# Velocity S-wave (km/s) = 2.66365 3.44880 3.08134
# Velocity P-wave (km/s) = 5.57430 6.30371 5.95019
#
# Compressibility (1/GPa) = 0.02092789
#
# Stress axis : x y z
#
# Youngs Moduli (GPa) = 43.64335 85.40037 62.57725
#
# Poissons Ratio (x) = 0.24732 0.48918
# Poissons Ratio (y) = 0.12639 0.25808
# Poissons Ratio (z) = 0.34117 0.35221
#
# Static dielectric constant tensor:
#      x y z
#    x 3.806340 0.000000 -0.052890 
#    y 0.000000 4.321460 0.000000 
#    z -0.052890 0.000000 4.313650 
# 
# 
# High freq. dielectric constant tensor:
#      x y z
#    x 1.843710 0.000000 -0.004360 
#    y 0.000000 1.888070 0.000000 
#    z -0.004360 0.000000 1.873850 
# 
# From -- ./inp_files/35774.got.cif
#   From: 2010.06.25/outbox.cif.g09.slc.cpg/sg15_18_cif.got.tgz:35774.got - 2010.06.28 07:06:18.
