data_PCOD8140124
_publ_section_title
;
Structure prediction by ZEFSAII (Michael W. Deem and Ramdas Pophale) SiO2 
 PCOD8140124
Probable space group: C 2/C
;
_chemical_formula_sum "Si O2"
_cell_formula_units_Z 60
_cell_length_a 16.436488
_cell_length_b 11.809632
_cell_length_c 28.704834
_cell_angle_alpha 90.000000
_cell_angle_beta 32.485317
_cell_angle_gamma 90.000000
_cell_volume 2992.555458
_symmetry_space_group_name_H-M "C 2/C"
_symmetry_group_IT_number 15
_symmetry_cell_setting 'monoclinic'
loop_
_space_group_symop_operation_xyz
x,y,z
-x,y,1/2-z
-x,-y,-z
x,-y,1/2+z
1/2+x,1/2+y,z
1/2-x,1/2+y,1/2-z
1/2-x,1/2-y,-z
1/2+x,1/2-y,1/2+z
loop_
_atom_site_type_symbol
_atom_site_label
_atom_site_fract_x
_atom_site_fract_y
_atom_site_fract_z
Si Si1 0.818730 0.186450 0.775712
Si Si2 0.737944 0.882340 0.000173
Si Si3 0.000000 0.655909 0.250000
Si Si4 0.969207 0.532274 0.568570
Si Si5 0.413147 0.408501 0.095965
Si Si6 0.815506 0.320351 0.682824
Si Si7 0.760451 0.019308 0.081160
Si Si8 0.054020 0.975453 0.824971
O O1 0.870164 0.264925 0.792367
O O2 0.660524 0.127308 0.864579
O O3 0.814619 0.272768 0.734969
O O4 0.943014 0.089148 0.707134
O O5 0.611155 0.910010 0.023956
O O6 0.715612 0.933376 0.062089
O O7 0.750000 0.750000 0.000000
O O8 0.885829 0.933037 0.905666
O O9 0.099996 0.581725 0.166206
O O10 0.936277 0.419778 0.614727
O O11 0.000000 0.500000 0.500000
O O12 0.348915 0.282343 0.131979
O O13 0.318324 0.454462 0.098645
O O14 0.379187 0.491370 0.156121
O O15 0.596437 0.400650 0.001633
O O16 0.651507 0.376264 0.753829
#
# Coordination Sequence:
#
# PCOD8140124 Si02
#       8
#     8   8   4   8   8   8   8   8
#     4  10  23  40  63  89 127 168 209 266 329 382
#     4  11  24  41  64  88 132 166 215 266 326 383
#     4  12  24  38  66  92 126 162 220 270 316 388
#     4  11  26  41  65  98 130 174 223 271 332 405
#     4   9  20  39  66  90 131 160 209 259 326 381
#     4  10  20  40  67  90 126 175 210 256 330 396
#     4  10  23  39  61  98 122 166 213 266 315 392
#     4   9  20  39  60  92 121 165 205 263 308 389
#
# _framework density 20.049752999999999
#
# number of rings (size 3 to 8) (size 9 to 14) (size 15 to 20)
#    0.000    1.867    0.000    2.400    5.600    4.267 
#    0.000    4.000    2.933    0.000    0.000    0.000 
#    0.000    0.000    0.000    0.000    0.000    0.000 
#
# Total GULP energy -371824.219917 kJ/mol
# GULP energy per Si atom -12394.140664 kJ/mol
# Density = 2.000412 g / cm^3
# Si number density = 20.049753 Si / 1000 Ang^3
#
#
#
# Elastic Constant Matrix: (Units=GPa)
#
#
# Indices 1 2 3 4 5 6 
#
# 1 109.9973 59.7583 47.4312 0.0000 -2.1580 0.0000
# 2 59.7583 146.7142 79.8676 0.0001 -5.7618 0.0001
# 3 47.4312 79.8676 128.4576 0.0009 -2.2330 0.0002
# 4 0.0000 0.0001 0.0009 34.0414 -0.0001 6.7401
# 5 -2.1580 -5.7618 -2.2330 -0.0001 28.6357 -0.0001
# 6 0.0000 0.0001 0.0002 6.7401 -0.0001 25.1649
#
#
#
# Elastic Compliance Matrix: (Units=1/GPa)
#
#
# Indices 1 2 3 4 5 6 
#
# 1 0.012042 -0.003756 -0.002111 0.000000 -0.000013 0.000000
# 2 -0.003756 0.011546 -0.005764 0.000000 0.001591 0.000000
# 3 -0.002111 -0.005764 0.012142 0.000000 -0.000372 0.000000
# 4 0.000000 0.000000 0.000000 0.031021 0.000000 -0.008309
# 5 -0.000013 0.001591 -0.000372 0.000000 0.035212 0.000000
# 6 0.000000 0.000000 0.000000 -0.008309 0.000000 0.041963
#
#
# Mechanical properties :
#
#
# Convention : Reuss Voigt Hill
#
# Bulk Modulus (GPa) = 80.21392 84.36481 82.28937
# Shear Modulus (GPa) = 29.18107 30.77586 29.97846
#
# Velocity S-wave (km/s) = 3.81915 3.92213 3.87098
# Velocity P-wave (km/s) = 7.71636 7.91706 7.81735
#
# Compressibility (1/GPa) = 0.01246666
#
# Stress axis : x y z
#
# Youngs Moduli (GPa) = 83.04443 86.60845 82.36105
#
# Poissons Ratio (x) = 0.32530 0.17388
# Poissons Ratio (y) = 0.31191 0.47475
# Poissons Ratio (z) = 0.17533 0.49924
#
# Static dielectric constant tensor:
#      x y z
#    x 3.422110 0.000000 0.097050 
#    y 0.000000 3.909800 0.000000 
#    z 0.097050 0.000000 3.891560 
# 
# 
# High freq. dielectric constant tensor:
#      x y z
#    x 1.771210 0.000000 0.004460 
#    y 0.000000 1.798020 0.000000 
#    z 0.004460 0.000000 1.797140 
# 
# From -- ./inp_files/210625.got.cif
#   From: 2010.06.25/outbox.cif.g09.slc.cpg/sg15_106_cif.got.tgz:210625.got - 2010.06.28 07:06:18.
