data_PCOD8140505
_publ_section_title
;
Structure prediction by ZEFSAII (Michael W. Deem and Ramdas Pophale) SiO2 
 PCOD8140505
Probable space group: C 2/C
;
_chemical_formula_sum "Si O2"
_cell_formula_units_Z 56
_cell_length_a 24.993800
_cell_length_b 23.055035
_cell_length_c 15.305023
_cell_angle_alpha 90.000000
_cell_angle_beta 161.176527
_cell_angle_gamma 90.000000
_cell_volume 2845.564494
_symmetry_space_group_name_H-M "C 2/C"
_symmetry_group_IT_number 15
_symmetry_cell_setting 'monoclinic'
loop_
_space_group_symop_operation_xyz
x,y,z
-x,y,1/2-z
-x,-y,-z
x,-y,1/2+z
1/2+x,1/2+y,z
1/2-x,1/2+y,1/2-z
1/2-x,1/2-y,-z
1/2+x,1/2-y,1/2+z
loop_
_atom_site_type_symbol
_atom_site_label
_atom_site_fract_x
_atom_site_fract_y
_atom_site_fract_z
Si Si1 0.379889 0.142132 0.929304
Si Si2 0.723457 0.522089 0.396399
Si Si3 0.574654 0.684994 0.553059
Si Si4 0.500000 0.050220 0.250000
Si Si5 0.176120 0.710561 0.312291
Si Si6 0.010563 0.086714 0.946406
Si Si7 0.352601 0.385707 0.582913
Si Si8 0.500000 0.645720 0.750000
O O1 0.254998 0.185680 0.785484
O O2 0.302968 0.131731 0.715525
O O3 0.393491 0.087620 0.016176
O O4 0.562782 0.165434 0.190689
O O5 0.599560 0.469437 0.215058
O O6 0.717117 0.559971 0.473091
O O7 0.899238 0.493183 0.655223
O O8 0.685077 0.566472 0.257318
O O9 0.559925 0.750722 0.567389
O O10 0.572609 0.639863 0.629904
O O11 0.426246 0.667513 0.256324
O O12 0.250000 0.750000 0.500000
O O13 0.331108 0.682240 0.501182
O O14 0.037001 0.104445 0.888259
O O15 0.500000 0.409124 0.750000
#
# Coordination Sequence:
#
# PCOD8140505 Si02
#       8
#     8   8   8   4   8   8   8   4
#     4  11  23  40  63  89 120 156 202 250 295 359
#     4  10  22  38  61  83 119 166 191 240 307 341
#     4  10  20  42  62  84 122 159 200 242 301 356
#     4  12  22  37  60  92 122 156 199 252 300 356
#     4  12  23  38  63  90 120 158 194 250 304 353
#     4  10  21  39  58  85 119 158 200 239 288 363
#     4   9  22  41  63  88 118 159 205 244 290 368
#     4  12  24  37  58  98 120 154 205 250 296 354
#
# _framework density 19.679751
#
# number of rings (size 3 to 8) (size 9 to 14) (size 15 to 20)
#    0.000    1.429    2.857    2.571    3.000    2.286 
#    0.000    0.000    0.000    0.000    0.000    0.000 
#    0.000    0.000    0.000    0.000    0.000    0.000 
#
# Total GULP energy -346962.819452 kJ/mol
# GULP energy per Si atom -12391.529266 kJ/mol
# Density = 1.963496 g / cm^3
# Si number density = 19.679751 Si / 1000 Ang^3
#
#
#
# Elastic Constant Matrix: (Units=GPa)
#
#
# Indices 1 2 3 4 5 6 
#
# 1 116.5495 42.4165 34.8646 0.0000 -11.7373 0.0000
# 2 42.4165 81.6155 22.9707 0.0000 -1.7034 0.0000
# 3 34.8646 22.9707 76.0937 0.0001 -2.3515 0.0000
# 4 0.0000 0.0000 0.0001 -11.7885 0.0000 19.6286
# 5 -11.7373 -1.7034 -2.3515 0.0000 36.1598 0.0000
# 6 0.0000 0.0000 0.0000 19.6286 0.0000 32.1302
#
#
#
# Elastic Compliance Matrix: (Units=1/GPa)
#
#
# Indices 1 2 3 4 5 6 
#
# 1 0.011897 -0.005036 -0.003827 0.000000 0.003376 0.000000
# 2 -0.005036 0.015527 -0.002413 0.000000 -0.001060 0.000000
# 3 -0.003827 -0.002413 0.015613 0.000000 -0.000340 0.000000
# 4 0.000000 0.000000 0.000000 -0.042053 0.000000 0.025690
# 5 0.003376 -0.001060 -0.000340 0.000000 0.028679 0.000000
# 6 0.000000 0.000000 0.000000 0.025690 0.000000 0.015429
#
#
# Mechanical properties :
#
#
# Convention : Reuss Voigt Hill
#
# Bulk Modulus (GPa) = 48.81187 52.75136 50.78161
# Shear Modulus (GPa) = 67.14046 22.90076 45.02061
#
# Velocity S-wave (km/s) = 5.84727 3.41496 4.78814
# Velocity P-wave (km/s) = 8.39312 6.51248 7.51188
#
# Compressibility (1/GPa) = 0.02048682
#
# Stress axis : x y z
#
# Youngs Moduli (GPa) = 84.05200 64.40560 64.05021
#
# Poissons Ratio (x) = 0.32433 0.24510
# Poissons Ratio (y) = 0.42326 0.15453
# Poissons Ratio (z) = 0.32164 0.15538
#
# Static dielectric constant tensor:
#      x y z
#    x 3.721860 0.000000 -0.199580 
#    y 0.000000 4.026410 0.000000 
#    z -0.199580 0.000000 3.601930 
# 
# 
# High freq. dielectric constant tensor:
#      x y z
#    x 1.781890 0.000000 -0.004920 
#    y 0.000000 1.761420 0.000000 
#    z -0.004920 0.000000 1.760840 
# 
# From -- ./inp_files/174806.got.cif
#   From: 2010.06.25/outbox.cif.g09.slc.cpg/sg15_88_cif.got.tgz:174806.got - 2010.06.28 07:06:18.
