data_PCOD8140343
_publ_section_title
;
Structure prediction by ZEFSAII (Michael W. Deem and Ramdas Pophale) SiO2 
 PCOD8140343
Probable space group: C 2/C
;
_chemical_formula_sum "Si O2"
_cell_formula_units_Z 44
_cell_length_a 28.377546
_cell_length_b 9.013674
_cell_length_c 17.334506
_cell_angle_alpha 90.000000
_cell_angle_beta 26.340058
_cell_angle_gamma 90.000000
_cell_volume 1967.322154
_symmetry_space_group_name_H-M "C 2/C"
_symmetry_group_IT_number 15
_symmetry_cell_setting 'monoclinic'
loop_
_space_group_symop_operation_xyz
x,y,z
-x,y,1/2-z
-x,-y,-z
x,-y,1/2+z
1/2+x,1/2+y,z
1/2-x,1/2+y,1/2-z
1/2-x,1/2-y,-z
1/2+x,1/2-y,1/2+z
loop_
_atom_site_type_symbol
_atom_site_label
_atom_site_fract_x
_atom_site_fract_y
_atom_site_fract_z
Si Si1 0.108787 0.663254 0.455727
Si Si2 0.381874 0.589102 0.764854
Si Si3 0.000000 0.522230 0.750000
Si Si4 0.063570 0.202289 0.390663
Si Si5 0.200731 0.647911 0.810340
Si Si6 0.341673 0.791252 0.959192
O O1 0.070178 0.631862 0.597503
O O2 0.186489 0.527853 0.317782
O O3 0.174578 0.816775 0.360481
O O4 0.007087 0.675909 0.549730
O O5 0.490943 0.635711 0.564600
O O6 0.383428 0.411766 0.749089
O O7 0.374561 0.638866 0.866127
O O8 0.281570 0.668107 0.871571
O O9 0.078685 0.420415 0.687706
O O10 0.162524 0.276166 0.287958
O O11 0.138004 0.712026 0.977844
#
# Coordination Sequence:
#
# PCOD8140343 Si02
#       6
#     8   8   4   8   8   8
#     4  11  24  44  64 100 128 177 221 271 329 393
#     4  10  21  38  66  94 133 166 235 265 321 391
#     4  10  22  42  64  88 140 168 218 270 332 380
#     4  11  22  40  64 101 133 171 212 284 327 383
#     4  11  23  42  70  91 136 175 221 267 332 392
#     4  10  20  41  64  95 124 184 218 268 317 400
#
# _framework density 22.365428000000001
#
# number of rings (size 3 to 8) (size 9 to 14) (size 15 to 20)
#    0.000    1.455    1.818    4.909    2.545    0.000 
#    3.273    1.818    0.000    0.000    0.000    0.000 
#    0.000    0.000    0.000    0.000    0.000    0.000 
#
# Total GULP energy -272621.055723 kJ/mol
# GULP energy per Si atom -12391.866169 kJ/mol
# Density = 2.231452 g / cm^3
# Si number density = 22.365428 Si / 1000 Ang^3
#
#
#
# Elastic Constant Matrix: (Units=GPa)
#
#
# Indices 1 2 3 4 5 6 
#
# 1 98.2672 34.5930 7.3457 0.0000 -1.8785 0.0000
# 2 34.5930 90.2395 23.9065 -0.0005 14.6139 0.0000
# 3 7.3457 23.9065 68.5176 -0.0001 -3.3685 0.0000
# 4 0.0000 -0.0005 -0.0001 29.0787 -0.0002 4.7649
# 5 -1.8785 14.6139 -3.3685 -0.0002 23.7419 0.0001
# 6 0.0000 0.0000 0.0000 4.7649 0.0001 27.1788
#
#
#
# Elastic Compliance Matrix: (Units=1/GPa)
#
#
# Indices 1 2 3 4 5 6 
#
# 1 0.012185 -0.005645 0.000888 0.000000 0.004565 0.000000
# 2 -0.005645 0.016636 -0.005765 0.000000 -0.011505 0.000000
# 3 0.000888 -0.005765 0.016806 0.000000 0.006003 0.000000
# 4 0.000000 0.000000 0.000000 0.035407 0.000000 -0.006207
# 5 0.004565 -0.011505 0.006003 0.000000 0.050414 0.000000
# 6 0.000000 0.000000 0.000000 -0.006207 0.000000 0.037882
#
#
# Mechanical properties :
#
#
# Convention : Reuss Voigt Hill
#
# Bulk Modulus (GPa) = 40.68010 43.19053 41.93532
# Shear Modulus (GPa) = 25.18026 28.74514 26.96270
#
# Velocity S-wave (km/s) = 3.35902 3.58893 3.47587
# Velocity P-wave (km/s) = 5.76822 6.04376 5.90760
#
# Compressibility (1/GPa) = 0.02458204
#
# Stress axis : x y z
#
# Youngs Moduli (GPa) = 82.07088 60.11000 59.50191
#
# Poissons Ratio (x) = 0.33935 -0.05283
# Poissons Ratio (y) = 0.46332 0.34302
# Poissons Ratio (z) = -0.07287 0.34653
#
# Static dielectric constant tensor:
#      x y z
#    x 3.993580 0.000000 -0.025250 
#    y 0.000000 4.066020 0.000000 
#    z -0.025250 0.000000 4.049140 
# 
# 
# High freq. dielectric constant tensor:
#      x y z
#    x 1.878840 0.000000 -0.010550 
#    y 0.000000 1.860810 0.000000 
#    z -0.010550 0.000000 1.884550 
# 
# From -- ./inp_files/224369.got.cif
#   From: 2010.06.25/outbox.cif.g09.slc.cpg/sg15_113_cif.got.tgz:224369.got - 2010.06.28 07:06:18.
