data_PCOD8140786
_publ_section_title
;
Structure prediction by ZEFSAII (Michael W. Deem and Ramdas Pophale) SiO2 
 PCOD8140786
Probable space group: C 2/C
;
_chemical_formula_sum "Si O2"
_cell_formula_units_Z 56
_cell_length_a 27.035257
_cell_length_b 10.983989
_cell_length_c 8.741772
_cell_angle_alpha 90.000000
_cell_angle_beta 65.454850
_cell_angle_gamma 90.000000
_cell_volume 2361.330892
_symmetry_space_group_name_H-M "C 2/C"
_symmetry_group_IT_number 15
_symmetry_cell_setting 'monoclinic'
loop_
_space_group_symop_operation_xyz
x,y,z
-x,y,1/2-z
-x,-y,-z
x,-y,1/2+z
1/2+x,1/2+y,z
1/2-x,1/2+y,1/2-z
1/2-x,1/2-y,-z
1/2+x,1/2-y,1/2+z
loop_
_atom_site_type_symbol
_atom_site_label
_atom_site_fract_x
_atom_site_fract_y
_atom_site_fract_z
Si Si1 0.922529 0.795010 0.601744
Si Si2 0.654460 0.924003 0.277650
Si Si3 0.166701 0.047214 0.146163
Si Si4 0.000000 0.680044 0.750000
Si Si5 0.500000 0.247482 0.250000
Si Si6 0.161117 0.175033 0.836476
Si Si7 0.217525 0.603535 0.390173
Si Si8 0.572783 0.136434 0.400186
O O1 0.881223 0.685503 0.608452
O O2 0.887165 0.910667 0.695138
O O3 0.962725 0.762814 0.688525
O O4 0.958494 0.828996 0.405273
O O5 0.701770 0.974320 0.330302
O O6 0.614709 0.035394 0.293334
O O7 0.680263 0.877186 0.087037
O O8 0.219649 0.111045 0.149819
O O9 0.171662 0.901364 0.166802
O O10 0.163624 0.077603 0.971588
O O11 0.039012 0.595879 0.594919
O O12 0.531960 0.154996 0.315580
O O13 0.206246 0.281201 0.794573
O O14 0.102114 0.236561 0.904931
#
# Coordination Sequence:
#
# PCOD8140786 Si02
#       8
#     8   8   8   4   4   8   8   8
#     4  11  23  41  68  98 140 177 233 279 343 400
#     4  11  22  42  70 105 140 178 216 286 346 418
#     4  12  25  44  72  95 137 188 228 278 338 405
#     4  10  20  43  69  96 138 188 225 283 338 404
#     4  10  24  39  63 102 134 174 231 287 340 404
#     4  11  25  46  66  99 134 181 228 283 330 412
#     4  11  24  44  69 103 142 176 223 279 345 411
#     4  10  22  42  65  99 141 174 228 281 343 403
#
# _framework density 23.715437999999999
#
# number of rings (size 3 to 8) (size 9 to 14) (size 15 to 20)
#    0.000    1.143    2.857    3.000    4.000    3.429 
#    0.000    6.429    0.000    0.000    0.000    0.000 
#    0.000    0.000    0.000    0.000    0.000    0.000 
#
# Total GULP energy -347215.070360 kJ/mol
# GULP energy per Si atom -12400.538227 kJ/mol
# Density = 2.366146 g / cm^3
# Si number density = 23.715438 Si / 1000 Ang^3
#
#
#
# Elastic Constant Matrix: (Units=GPa)
#
#
# Indices 1 2 3 4 5 6 
#
# 1 96.0462 17.4981 20.7785 0.0000 0.0684 0.0000
# 2 17.4981 75.3851 9.5429 0.0000 0.8316 0.0000
# 3 20.7785 9.5429 71.8707 0.0000 -8.0347 0.0000
# 4 0.0000 0.0000 0.0000 28.4416 0.0000 3.9068
# 5 0.0684 0.8316 -8.0347 0.0000 37.7997 0.0000
# 6 0.0000 0.0000 0.0000 3.9068 0.0000 20.7189
#
#
#
# Elastic Compliance Matrix: (Units=1/GPa)
#
#
# Indices 1 2 3 4 5 6 
#
# 1 0.011495 -0.002270 -0.003092 0.000000 -0.000628 0.000000
# 2 -0.002270 0.013958 -0.001261 0.000000 -0.000571 0.000000
# 3 -0.003092 -0.001261 0.015344 0.000000 0.003295 0.000000
# 4 0.000000 0.000000 0.000000 0.036095 0.000000 -0.006806
# 5 -0.000628 -0.000571 0.003295 0.000000 0.027169 0.000000
# 6 0.000000 0.000000 0.000000 -0.006806 0.000000 0.049548
#
#
# Mechanical properties :
#
#
# Convention : Reuss Voigt Hill
#
# Bulk Modulus (GPa) = 36.29675 37.66011 36.97843
# Shear Modulus (GPa) = 28.40304 30.42420 29.41362
#
# Velocity S-wave (km/s) = 3.46448 3.58563 3.52557
# Velocity P-wave (km/s) = 5.59838 5.74950 5.67444
#
# Compressibility (1/GPa) = 0.02755068
#
# Stress axis : x y z
#
# Youngs Moduli (GPa) = 86.99784 71.64355 65.17382
#
# Poissons Ratio (x) = 0.16261 0.20152
# Poissons Ratio (y) = 0.19746 0.08218
# Poissons Ratio (z) = 0.26900 0.09034
#
# Static dielectric constant tensor:
#      x y z
#    x 4.596370 0.000000 -0.044740 
#    y 0.000000 3.988120 0.000000 
#    z -0.044740 0.000000 4.391760 
# 
# 
# High freq. dielectric constant tensor:
#      x y z
#    x 1.961300 0.000000 -0.002660 
#    y 0.000000 1.915410 0.000000 
#    z -0.002660 0.000000 1.937840 
# 
# From -- ./inp_files/65581.got.cif
#   From: 2010.06.25/outbox.cif.g09.slc.cpg/sg15_33_cif.got.tgz:65581.got - 2010.06.28 07:06:18.
