data_PCOD8140262
_publ_section_title
;
Structure prediction by ZEFSAII (Michael W. Deem and Ramdas Pophale) SiO2 
 PCOD8140262
Probable space group: C 2/C
;
_chemical_formula_sum "Si O2"
_cell_formula_units_Z 48
_cell_length_a 14.694455
_cell_length_b 10.004909
_cell_length_c 16.756207
_cell_angle_alpha 90.000000
_cell_angle_beta 99.458636
_cell_angle_gamma 90.000000
_cell_volume 2429.950278
_symmetry_space_group_name_H-M "C 2/C"
_symmetry_group_IT_number 15
_symmetry_cell_setting 'monoclinic'
loop_
_space_group_symop_operation_xyz
x,y,z
-x,y,1/2-z
-x,-y,-z
x,-y,1/2+z
1/2+x,1/2+y,z
1/2-x,1/2+y,1/2-z
1/2-x,1/2-y,-z
1/2+x,1/2-y,1/2+z
loop_
_atom_site_type_symbol
_atom_site_label
_atom_site_fract_x
_atom_site_fract_y
_atom_site_fract_z
Si Si1 0.443859 0.477278 0.664535
Si Si2 0.259952 0.008822 0.318103
Si Si3 0.953581 0.500354 0.907711
Si Si4 0.246385 0.296233 0.825190
Si Si5 0.941806 0.209518 0.417493
Si Si6 0.929365 0.736855 0.102970
O O1 0.500000 0.427403 0.750000
O O2 0.335669 0.443293 0.656325
O O3 0.479755 0.397617 0.592335
O O4 0.463094 0.634180 0.656464
O O5 0.342987 0.027212 0.394175
O O6 0.285580 0.099789 0.246404
O O7 0.251411 0.853941 0.290050
O O8 0.966969 0.650774 0.876032
O O9 0.004087 0.386661 0.862647
O O10 0.000000 0.500000 0.000000
O O11 0.344109 0.345593 0.872814
O O12 0.174710 0.300948 0.888270
O O13 0.935327 0.231486 0.510624
#
# Coordination Sequence:
#
# PCOD8140262 Si02
#       6
#     8   8   8   8   8   8
#     4  11  22  38  58  89 121 153 201 247 298 353
#     4  10  22  37  58  86 122 153 197 248 293 352
#     4   9  21  40  59  84 119 155 197 242 294 355
#     4  10  21  37  59  88 119 155 199 242 298 353
#     4  10  20  41  60  85 121 159 194 244 301 359
#     4  10  22  37  61  86 118 156 201 243 294 353
#
# _framework density 19.753489999999999
#
# number of rings (size 3 to 8) (size 9 to 14) (size 15 to 20)
#    0.000    2.000    1.667    1.000    4.667    2.667 
#    0.000    3.333    0.000    0.000    0.000    0.000 
#    0.000    0.000    0.000    0.000    0.000    0.000 
#
# Total GULP energy -297527.464521 kJ/mol
# GULP energy per Si atom -12396.977688 kJ/mol
# Density = 1.970853 g / cm^3
# Si number density = 19.753490 Si / 1000 Ang^3
#
#
#
# Elastic Constant Matrix: (Units=GPa)
#
#
# Indices 1 2 3 4 5 6 
#
# 1 130.9661 55.9727 39.7007 0.0000 1.5922 0.0000
# 2 55.9727 83.3584 26.7303 0.0000 -14.3983 0.0000
# 3 39.7007 26.7303 77.2764 0.0000 -3.8829 0.0000
# 4 0.0000 0.0000 0.0000 29.1241 0.0000 -5.1039
# 5 1.5922 -14.3983 -3.8829 0.0000 37.8163 0.0000
# 6 0.0000 0.0000 0.0000 -5.1039 0.0000 34.3666
#
#
#
# Elastic Compliance Matrix: (Units=1/GPa)
#
#
# Indices 1 2 3 4 5 6 
#
# 1 0.012041 -0.007525 -0.003772 0.000000 -0.003759 0.000000
# 2 -0.007525 0.019074 -0.002363 0.000000 0.007336 0.000000
# 3 -0.003772 -0.002363 0.015740 0.000000 0.000875 0.000000
# 4 0.000000 0.000000 0.000000 0.035253 0.000000 0.005236
# 5 -0.003759 0.007336 0.000875 0.000000 0.029485 0.000000
# 6 0.000000 0.000000 0.000000 0.005236 0.000000 0.029876
#
#
# Mechanical properties :
#
#
# Convention : Reuss Voigt Hill
#
# Bulk Modulus (GPa) = 51.19135 59.60093 55.39614
# Shear Modulus (GPa) = 28.52254 31.54122 30.03188
#
# Velocity S-wave (km/s) = 3.80402 4.00026 3.90337
# Velocity P-wave (km/s) = 6.72796 7.18150 6.95843
#
# Compressibility (1/GPa) = 0.01953455
#
# Stress axis : x y z
#
# Youngs Moduli (GPa) = 83.05232 52.42718 63.53302
#
# Poissons Ratio (x) = 0.39450 0.23964
# Poissons Ratio (y) = 0.62494 0.15015
# Poissons Ratio (z) = 0.31327 0.12391
#
# Static dielectric constant tensor:
#      x y z
#    x 3.775300 0.000000 0.007170 
#    y 0.000000 4.067490 0.000000 
#    z 0.007170 0.000000 3.319130 
# 
# 
# High freq. dielectric constant tensor:
#      x y z
#    x 1.779350 0.000000 0.006780 
#    y 0.000000 1.779910 0.000000 
#    z 0.006780 0.000000 1.747130 
# 
# From -- ./inp_files/196141.got.cif
#   From: 2010.06.25/outbox.cif.g09.slc.cpg/sg15_99_cif.got.tgz:196141.got - 2010.06.28 07:06:18.
