data_PCOD8140695
_publ_section_title
;
Structure prediction by ZEFSAII (Michael W. Deem and Ramdas Pophale) SiO2 
 PCOD8140695
Probable space group: C 2/C
;
_chemical_formula_sum "Si O2"
_cell_formula_units_Z 52
_cell_length_a 18.698671
_cell_length_b 9.109040
_cell_length_c 15.256438
_cell_angle_alpha 90.000000
_cell_angle_beta 63.034826
_cell_angle_gamma 90.000000
_cell_volume 2316.070547
_symmetry_space_group_name_H-M "C 2/C"
_symmetry_group_IT_number 15
_symmetry_cell_setting 'monoclinic'
loop_
_space_group_symop_operation_xyz
x,y,z
-x,y,1/2-z
-x,-y,-z
x,-y,1/2+z
1/2+x,1/2+y,z
1/2-x,1/2+y,1/2-z
1/2-x,1/2-y,-z
1/2+x,1/2-y,1/2+z
loop_
_atom_site_type_symbol
_atom_site_label
_atom_site_fract_x
_atom_site_fract_y
_atom_site_fract_z
Si Si1 0.343407 0.937264 0.763767
Si Si2 0.867621 0.218440 0.283216
Si Si3 0.549193 0.358519 0.940826
Si Si4 0.702794 0.938259 0.896153
Si Si5 0.709663 0.733550 0.428623
Si Si6 0.934335 0.664715 0.912259
Si Si7 0.500000 0.060481 0.250000
O O1 0.346055 0.886365 0.661963
O O2 0.258107 0.889882 0.849504
O O3 0.417175 0.853126 0.774278
O O4 0.352001 0.111742 0.769040
O O5 0.907919 0.130848 0.179263
O O6 0.786553 0.141691 0.356714
O O7 0.922297 0.215845 0.340738
O O8 0.615817 0.317002 0.977815
O O9 0.481865 0.232459 0.968244
O O10 0.500000 0.500000 0.000000
O O11 0.717787 0.111133 0.876594
O O12 0.651308 0.899853 0.010547
O O13 0.750000 0.750000 0.500000
O O14 0.988607 0.534329 0.844619
#
# Coordination Sequence:
#
# PCOD8140695 Si02
#       7
#     8   8   8   8   8   8   4
#     4  11  22  44  70  96 149 185 231 297 354 427
#     4  11  23  48  70 102 139 193 238 291 351 441
#     4  12  26  44  72 104 144 185 240 302 360 425
#     4  12  24  41  75 103 137 190 240 291 365 425
#     4  12  27  46  66 108 149 183 236 305 367 430
#     4  11  23  43  73 101 136 187 246 292 348 442
#     4  10  20  42  70  96 132 192 236 292 338 430
#
# _framework density 22.451820000000001
#
# number of rings (size 3 to 8) (size 9 to 14) (size 15 to 20)
#    0.000    0.615    6.154    2.308    4.308    4.923 
#    0.000    0.000    0.000    0.000    0.000    0.000 
#    0.000    0.000    0.000    0.000    0.000    0.000 
#
# Total GULP energy -322194.968944 kJ/mol
# GULP energy per Si atom -12392.114190 kJ/mol
# Density = 2.240072 g / cm^3
# Si number density = 22.451820 Si / 1000 Ang^3
#
#
#
# Elastic Constant Matrix: (Units=GPa)
#
#
# Indices 1 2 3 4 5 6 
#
# 1 166.4964 32.8847 31.7965 0.0000 4.1482 0.0000
# 2 32.8847 41.5229 40.0197 0.0000 -11.1607 0.0000
# 3 31.7965 40.0197 115.5388 0.0000 -13.1091 0.0000
# 4 0.0000 0.0000 0.0000 24.0589 0.0000 -7.9920
# 5 4.1482 -11.1607 -13.1091 0.0000 48.9298 0.0000
# 6 0.0000 0.0000 0.0000 -7.9920 0.0000 17.1180
#
#
#
# Elastic Compliance Matrix: (Units=1/GPa)
#
#
# Indices 1 2 3 4 5 6 
#
# 1 0.007311 -0.006277 -0.000073 0.000000 -0.002071 0.000000
# 2 -0.006277 0.042789 -0.012300 0.000000 0.006997 0.000000
# 3 -0.000073 -0.012300 0.013014 0.000000 0.000687 0.000000
# 4 0.000000 0.000000 0.000000 0.049194 0.000000 0.022967
# 5 -0.002071 0.006997 0.000687 0.000000 0.022393 0.000000
# 6 0.000000 0.000000 0.000000 0.022967 0.000000 0.069141
#
#
# Mechanical properties :
#
#
# Convention : Reuss Voigt Hill
#
# Bulk Modulus (GPa) = 38.73713 59.21777 48.97745
# Shear Modulus (GPa) = 20.02030 32.61183 26.31607
#
# Velocity S-wave (km/s) = 2.98938 3.81534 3.42733
# Velocity P-wave (km/s) = 5.40426 6.77066 6.12568
#
# Compressibility (1/GPa) = 0.02581503
#
# Stress axis : x y z
#
# Youngs Moduli (GPa) = 136.77303 23.37034 76.84306
#
# Poissons Ratio (x) = 0.14669 0.00561
# Poissons Ratio (y) = 0.85848 0.94516
# Poissons Ratio (z) = 0.00999 0.28745
#
# Static dielectric constant tensor:
#      x y z
#    x 5.529060 0.000000 0.384480 
#    y 0.000000 3.800400 0.000000 
#    z 0.384480 0.000000 4.354570 
# 
# 
# High freq. dielectric constant tensor:
#      x y z
#    x 1.917390 0.000000 -0.004290 
#    y 0.000000 1.844710 0.000000 
#    z -0.004290 0.000000 1.890750 
# 
# From -- ./inp_files/209463.got.cif
#   From: 2010.06.25/outbox.cif.g09.slc.cpg/sg15_105_cif.got.tgz:209463.got - 2010.06.28 07:06:18.
