data_PCOD8140125
_publ_section_title
;
Structure prediction by ZEFSAII (Michael W. Deem and Ramdas Pophale) SiO2 
 PCOD8140125
Probable space group: C 2/C
;
_chemical_formula_sum "Si O2"
_cell_formula_units_Z 40
_cell_length_a 9.803853
_cell_length_b 14.233685
_cell_length_c 14.199004
_cell_angle_alpha 90.000000
_cell_angle_beta 91.769573
_cell_angle_gamma 90.000000
_cell_volume 1980.454451
_symmetry_space_group_name_H-M "C 2/C"
_symmetry_group_IT_number 15
_symmetry_cell_setting 'monoclinic'
loop_
_space_group_symop_operation_xyz
x,y,z
-x,y,1/2-z
-x,-y,-z
x,-y,1/2+z
1/2+x,1/2+y,z
1/2-x,1/2+y,1/2-z
1/2-x,1/2-y,-z
1/2+x,1/2-y,1/2+z
loop_
_atom_site_type_symbol
_atom_site_label
_atom_site_fract_x
_atom_site_fract_y
_atom_site_fract_z
Si Si1 0.493703 0.068000 0.090860
Si Si2 0.865682 0.147113 0.693567
Si Si3 0.882238 0.787859 0.809364
Si Si4 0.093151 0.768178 0.485212
Si Si5 0.780360 0.459671 0.750271
O O1 0.481299 0.174922 0.055433
O O2 0.631461 0.061710 0.154850
O O3 0.368843 0.037346 0.156064
O O4 0.500000 0.000000 0.000000
O O5 0.756532 0.230097 0.695967
O O6 0.919005 0.142860 0.586162
O O7 0.000000 0.179372 0.750000
O O8 0.796718 0.056513 0.734644
O O9 0.843956 0.888064 0.764985
O O10 0.000000 0.738922 0.750000
O O11 0.957148 0.797115 0.912436
O O12 0.250000 0.750000 0.500000
#
# Coordination Sequence:
#
# PCOD8140125 Si02
#       5
#     8   8   8   8   8
#     4  11  22  40  66 100 132 173 222 265 330 389
#     4  11  23  43  66  93 131 176 213 269 333 381
#     4  11  24  43  66  98 131 168 221 270 328 393
#     4  10  20  40  67  90 129 175 210 271 329 390
#     4  11  24  40  66  96 135 171 217 274 320 390
#
# _framework density 20.197385000000001
#
# number of rings (size 3 to 8) (size 9 to 14) (size 15 to 20)
#    0.000    1.200    4.000    4.200    5.600    0.000 
#    3.600    4.000    0.000    0.000    0.000    0.000 
#    0.000    0.000    0.000    0.000    0.000    0.000 
#
# Total GULP energy -247808.440618 kJ/mol
# GULP energy per Si atom -12390.422031 kJ/mol
# Density = 2.015141 g / cm^3
# Si number density = 20.197385 Si / 1000 Ang^3
#
#
#
# Elastic Constant Matrix: (Units=GPa)
#
#
# Indices 1 2 3 4 5 6 
#
# 1 86.8050 15.1434 63.8314 0.0000 3.8674 0.0000
# 2 15.1434 82.9953 46.2544 0.0000 1.4838 0.0000
# 3 63.8314 46.2544 179.1870 0.0000 5.6889 0.0000
# 4 0.0000 0.0000 0.0000 38.3685 0.0000 0.6736
# 5 3.8674 1.4838 5.6889 0.0000 27.1742 0.0000
# 6 0.0000 0.0000 0.0000 0.6736 0.0000 30.8153
#
#
#
# Elastic Compliance Matrix: (Units=1/GPa)
#
#
# Indices 1 2 3 4 5 6 
#
# 1 0.015646 0.000294 -0.005615 0.000000 -0.001067 0.000000
# 2 0.000294 0.014079 -0.003738 0.000000 -0.000028 0.000000
# 3 -0.005615 -0.003738 0.008571 0.000000 -0.000791 0.000000
# 4 0.000000 0.000000 0.000000 0.026073 0.000000 -0.000570
# 5 -0.001067 -0.000028 -0.000791 0.000000 0.037119 0.000000
# 6 0.000000 0.000000 0.000000 -0.000570 0.000000 0.032464
#
#
# Mechanical properties :
#
#
# Convention : Reuss Voigt Hill
#
# Bulk Modulus (GPa) = 49.56225 66.60508 58.08367
# Shear Modulus (GPa) = 31.48694 34.18881 32.83787
#
# Velocity S-wave (km/s) = 3.95265 4.11875 4.03655
# Velocity P-wave (km/s) = 6.73970 7.46106 7.10953
#
# Compressibility (1/GPa) = 0.02017665
#
# Stress axis : x y z
#
# Youngs Moduli (GPa) = 63.91579 71.02751 116.67021
#
# Poissons Ratio (x) = -0.02088 0.65515
# Poissons Ratio (y) = -0.01879 0.43613
# Poissons Ratio (z) = 0.35891 0.26551
#
# Static dielectric constant tensor:
#      x y z
#    x 3.649910 0.000000 0.391730 
#    y 0.000000 3.368480 0.000000 
#    z 0.391730 0.000000 7.603640 
# 
# 
# High freq. dielectric constant tensor:
#      x y z
#    x 1.787010 0.000000 0.006880 
#    y 0.000000 1.777970 0.000000 
#    z 0.006880 0.000000 1.814760 
# 
# From -- ./inp_files/133206.got.cif
#   From: 2010.06.25/outbox.cif.g09.slc.cpg/sg15_67_cif.got.tgz:133206.got - 2010.06.28 07:06:18.
