data_PCOD8140267
_publ_section_title
;
Structure prediction by ZEFSAII (Michael W. Deem and Ramdas Pophale) SiO2 
 PCOD8140267
Probable space group: C 2/C
;
_chemical_formula_sum "Si O2"
_cell_formula_units_Z 56
_cell_length_a 13.532925
_cell_length_b 19.685444
_cell_length_c 10.805884
_cell_angle_alpha 90.000000
_cell_angle_beta 98.288018
_cell_angle_gamma 90.000000
_cell_volume 2848.639866
_symmetry_space_group_name_H-M "C 2/C"
_symmetry_group_IT_number 15
_symmetry_cell_setting 'monoclinic'
loop_
_space_group_symop_operation_xyz
x,y,z
-x,y,1/2-z
-x,-y,-z
x,-y,1/2+z
1/2+x,1/2+y,z
1/2-x,1/2+y,1/2-z
1/2-x,1/2-y,-z
1/2+x,1/2-y,1/2+z
loop_
_atom_site_type_symbol
_atom_site_label
_atom_site_fract_x
_atom_site_fract_y
_atom_site_fract_z
Si Si1 0.307302 0.792010 0.820734
Si Si2 0.522741 0.600663 0.924976
Si Si3 0.500000 0.723477 0.750000
Si Si4 0.324268 0.827671 0.094548
Si Si5 0.624905 0.360420 0.685191
Si Si6 0.856473 0.015589 0.164297
Si Si7 0.000000 0.258866 0.250000
Si Si8 0.800882 0.950829 0.399190
O O1 0.409154 0.771950 0.771235
O O2 0.251958 0.725855 0.861416
O O3 0.241259 0.837237 0.713782
O O4 0.326092 0.835936 0.946962
O O5 0.535902 0.674621 0.867332
O O6 0.557296 0.540586 0.838777
O O7 0.407760 0.587027 0.936763
O O8 0.595631 0.597712 0.057013
O O9 0.435468 0.808604 0.153934
O O10 0.289078 0.899265 0.143121
O O11 0.599919 0.408238 0.801104
O O12 0.563583 0.290405 0.673614
O O13 0.796178 0.000396 0.280469
O O14 0.785067 0.013260 0.030156
#
# Coordination Sequence:
#
# PCOD8140267 Si02
#       8
#     8   8   4   8   8   8   4   8
#     4  10  21  38  60  85 126 168 209 251 309 368
#     4  12  23  35  58  92 132 161 199 248 317 379
#     4  12  22  39  60  93 124 172 204 260 312 370
#     4  10  20  41  60  87 119 169 211 252 305 372
#     4  11  23  36  58  93 126 162 199 255 300 378
#     4  12  23  37  59  94 126 163 201 248 317 376
#     4  10  22  35  64  87 116 158 214 248 296 370
#     4  12  23  38  62  89 131 162 202 253 313 378
#
# _framework density 19.658505000000002
#
# number of rings (size 3 to 8) (size 9 to 14) (size 15 to 20)
#    0.000    0.857    5.714    2.143    6.000    0.571 
#    0.000    1.429    0.000    1.714    0.000    0.000 
#    0.000    0.000    0.000    0.000    0.000    0.000 
#
# Total GULP energy -347057.833746 kJ/mol
# GULP energy per Si atom -12394.922634 kJ/mol
# Density = 1.961376 g / cm^3
# Si number density = 19.658505 Si / 1000 Ang^3
#
#
#
# Elastic Constant Matrix: (Units=GPa)
#
#
# Indices 1 2 3 4 5 6 
#
# 1 97.3784 41.7355 38.3701 0.0000 8.3513 0.0000
# 2 41.7355 74.5098 34.9674 0.0000 6.1707 0.0000
# 3 38.3701 34.9674 128.4117 0.0000 -3.1355 0.0000
# 4 0.0000 0.0000 0.0000 23.8888 0.0000 -0.4987
# 5 8.3513 6.1707 -3.1355 0.0000 23.6955 0.0000
# 6 0.0000 0.0000 0.0000 -0.4987 0.0000 19.4514
#
#
#
# Elastic Compliance Matrix: (Units=1/GPa)
#
#
# Indices 1 2 3 4 5 6 
#
# 1 0.014425 -0.006542 -0.002620 0.000000 -0.003727 0.000000
# 2 -0.006542 0.018865 -0.003257 0.000000 -0.003038 0.000000
# 3 -0.002620 -0.003257 0.009531 0.000000 0.003033 0.000000
# 4 0.000000 0.000000 0.000000 0.041883 0.000000 0.001074
# 5 -0.003727 -0.003038 0.003033 0.000000 0.044708 0.000000
# 6 0.000000 0.000000 0.000000 0.001074 0.000000 0.051438
#
#
# Mechanical properties :
#
#
# Convention : Reuss Voigt Hill
#
# Bulk Modulus (GPa) = 55.60240 58.93844 57.27042
# Shear Modulus (GPa) = 23.62039 25.75559 24.68799
#
# Velocity S-wave (km/s) = 3.47008 3.62353 3.54763
# Velocity P-wave (km/s) = 6.66339 6.89586 6.78062
#
# Compressibility (1/GPa) = 0.01798484
#
# Stress axis : x y z
#
# Youngs Moduli (GPa) = 69.32460 53.00756 104.91920
#
# Poissons Ratio (x) = 0.34676 0.27488
# Poissons Ratio (y) = 0.45350 0.34168
# Poissons Ratio (z) = 0.18162 0.17263
#
# Static dielectric constant tensor:
#      x y z
#    x 3.302830 0.000000 0.009100 
#    y 0.000000 3.561660 0.000000 
#    z 0.009100 0.000000 3.770600 
# 
# 
# High freq. dielectric constant tensor:
#      x y z
#    x 1.724360 0.000000 -0.001120 
#    y 0.000000 1.759480 0.000000 
#    z -0.001120 0.000000 1.780800 
# 
# From -- ./inp_files/99466.got.cif
#   From: 2010.06.25/outbox.cif.g09.slc.cpg/sg15_50_cif.got.tgz:99466.got - 2010.06.28 07:06:18.
