data_PCOD8140263
_publ_section_title
;
Structure prediction by ZEFSAII (Michael W. Deem and Ramdas Pophale) SiO2 
 PCOD8140263
Probable space group: C 2/C
;
_chemical_formula_sum "Si O2"
_cell_formula_units_Z 52
_cell_length_a 20.704499
_cell_length_b 19.633597
_cell_length_c 8.588734
_cell_angle_alpha 90.000000
_cell_angle_beta 49.547775
_cell_angle_gamma 90.000000
_cell_volume 2656.735336
_symmetry_space_group_name_H-M "C 2/C"
_symmetry_group_IT_number 15
_symmetry_cell_setting 'monoclinic'
loop_
_space_group_symop_operation_xyz
x,y,z
-x,y,1/2-z
-x,-y,-z
x,-y,1/2+z
1/2+x,1/2+y,z
1/2-x,1/2+y,1/2-z
1/2-x,1/2-y,-z
1/2+x,1/2-y,1/2+z
loop_
_atom_site_type_symbol
_atom_site_label
_atom_site_fract_x
_atom_site_fract_y
_atom_site_fract_z
Si Si1 0.620099 0.410551 0.772268
Si Si2 0.000000 0.838249 0.750000
Si Si3 0.804261 0.003031 0.105603
Si Si4 0.096203 0.303744 0.615996
Si Si5 0.855537 0.216369 0.677206
Si Si6 0.738970 0.906523 0.447560
Si Si7 0.209943 0.224785 0.221132
O O1 0.529093 0.382581 0.855813
O O2 0.661697 0.443824 0.556316
O O3 0.615992 0.465638 0.918737
O O4 0.680437 0.351761 0.744364
O O5 0.078296 0.792115 0.569237
O O6 0.737129 0.969107 0.328718
O O7 0.755973 0.063358 0.091766
O O8 0.098686 0.244976 0.742411
O O9 0.148485 0.369846 0.586826
O O10 0.131525 0.272738 0.398272
O O11 0.000000 0.328037 0.750000
O O12 0.815274 0.143799 0.781460
O O13 0.782033 0.269871 0.742547
O O14 0.250000 0.250000 0.000000
#
# Coordination Sequence:
#
# PCOD8140263 Si02
#       7
#     8   4   8   8   8   8   8
#     4  11  21  37  55  85 114 155 194 242 290 344
#     4  12  22  36  56  90 124 148 198 250 294 356
#     4  10  21  38  61  79 113 160 206 231 282 362
#     4  11  23  38  62  92 121 153 194 254 307 351
#     4  11  22  38  60  88 122 155 196 244 302 360
#     4  10  20  41  60  86 112 158 198 240 291 359
#     4  11  20  39  65  86 117 159 197 243 302 362
#
# _framework density 19.572896
#
# number of rings (size 3 to 8) (size 9 to 14) (size 15 to 20)
#    0.000    1.231    3.077    5.538    0.000    0.615 
#    0.000    0.769    0.000    0.000    0.000    0.000 
#    0.000    0.000    0.000    0.000    0.000    0.000 
#
# Total GULP energy -322391.567027 kJ/mol
# GULP energy per Si atom -12399.675655 kJ/mol
# Density = 1.952835 g / cm^3
# Si number density = 19.572896 Si / 1000 Ang^3
#
#
#
# Elastic Constant Matrix: (Units=GPa)
#
#
# Indices 1 2 3 4 5 6 
#
# 1 112.0267 52.7760 44.1196 0.0000 -0.5270 0.0000
# 2 52.7760 90.9162 25.9935 0.0000 2.9604 0.0000
# 3 44.1196 25.9935 83.1391 0.0000 -4.2073 0.0000
# 4 0.0000 0.0000 0.0000 26.7338 0.0000 9.9585
# 5 -0.5270 2.9604 -4.2073 0.0000 37.4137 0.0000
# 6 0.0000 0.0000 0.0000 9.9585 0.0000 35.6933
#
#
#
# Elastic Compliance Matrix: (Units=1/GPa)
#
#
# Indices 1 2 3 4 5 6 
#
# 1 0.014234 -0.006708 -0.005450 0.000000 0.000118 0.000000
# 2 -0.006708 0.015312 -0.001301 0.000000 -0.001452 0.000000
# 3 -0.005450 -0.001301 0.015416 0.000000 0.001760 0.000000
# 4 0.000000 0.000000 0.000000 0.041744 0.000000 -0.011647
# 5 0.000118 -0.001452 0.001760 0.000000 0.027043 0.000000
# 6 0.000000 0.000000 0.000000 -0.011647 0.000000 0.031266
#
#
# Mechanical properties :
#
#
# Convention : Reuss Voigt Hill
#
# Bulk Modulus (GPa) = 55.42174 59.09557 57.25865
# Shear Modulus (GPa) = 28.09803 30.84768 29.47286
#
# Velocity S-wave (km/s) = 3.79299 3.97424 3.88467
# Velocity P-wave (km/s) = 6.89633 7.16363 7.03125
#
# Compressibility (1/GPa) = 0.01804346
#
# Stress axis : x y z
#
# Youngs Moduli (GPa) = 70.25623 65.30641 64.86726
#
# Poissons Ratio (x) = 0.43808 0.35353
# Poissons Ratio (y) = 0.47129 0.08440
# Poissons Ratio (z) = 0.38290 0.08497
#
# Static dielectric constant tensor:
#      x y z
#    x 3.777380 0.000000 0.229500 
#    y 0.000000 3.655700 0.000000 
#    z 0.229500 0.000000 3.502420 
# 
# 
# High freq. dielectric constant tensor:
#      x y z
#    x 1.765700 0.000000 0.024760 
#    y 0.000000 1.762420 0.000000 
#    z 0.024760 0.000000 1.754760 
# 
# From -- ./inp_files/49831.got.cif
#   From: 2010.06.25/outbox.cif.g09.slc.cpg/sg15_25_cif.got.tgz:49831.got - 2010.06.28 07:06:18.
