data_PCOD8140558
_publ_section_title
;
Structure prediction by ZEFSAII (Michael W. Deem and Ramdas Pophale) SiO2 
 PCOD8140558
Probable space group: C 2/C
;
_chemical_formula_sum "Si O2"
_cell_formula_units_Z 36
_cell_length_a 6.733705
_cell_length_b 24.479663
_cell_length_c 10.067927
_cell_angle_alpha 90.000000
_cell_angle_beta 110.999884
_cell_angle_gamma 90.000000
_cell_volume 1549.357555
_symmetry_space_group_name_H-M "C 2/C"
_symmetry_group_IT_number 15
_symmetry_cell_setting 'monoclinic'
loop_
_space_group_symop_operation_xyz
x,y,z
-x,y,1/2-z
-x,-y,-z
x,-y,1/2+z
1/2+x,1/2+y,z
1/2-x,1/2+y,1/2-z
1/2-x,1/2-y,-z
1/2+x,1/2-y,1/2+z
loop_
_atom_site_type_symbol
_atom_site_label
_atom_site_fract_x
_atom_site_fract_y
_atom_site_fract_z
Si Si1 0.500000 0.629531 0.250000
Si Si2 0.486641 0.232501 0.093204
Si Si3 0.769578 0.827527 0.468278
Si Si4 0.248068 0.455099 0.822709
Si Si5 0.062013 0.926930 0.125339
O O1 0.534533 0.669502 0.381502
O O2 0.698460 0.588267 0.280005
O O3 0.500000 0.211664 0.250000
O O4 0.556158 0.185893 0.002190
O O5 0.250000 0.250000 0.000000
O O6 0.661266 0.281161 0.120217
O O7 0.758274 0.887137 0.396159
O O8 0.341036 0.514578 0.818370
O O9 0.000000 0.460836 0.750000
O O10 0.349169 0.432218 0.984061
O O11 0.000000 0.899330 0.250000
#
# Coordination Sequence:
#
# PCOD8140558 Si02
#       5
#     4   8   8   8   8
#     4  10  20  42  64  96 134 174 222 268 322 402
#     4  11  24  45  68  95 128 168 217 275 335 397
#     4  10  23  41  67  96 129 170 217 274 327 389
#     4  10  22  40  64  93 132 181 223 266 325 387
#     4  10  21  43  63  96 138 172 224 275 321 396
#
# _framework density 23.235437000000001
#
# number of rings (size 3 to 8) (size 9 to 14) (size 15 to 20)
#    0.000    1.778    1.111    2.000    0.000    8.000 
#    8.000    0.000    0.000    0.000    0.000    0.000 
#    0.000    0.000    0.000    0.000    0.000    0.000 
#
# Total GULP energy -223005.375768 kJ/mol
# GULP energy per Si atom -12389.187543 kJ/mol
# Density = 2.318255 g / cm^3
# Si number density = 23.235437 Si / 1000 Ang^3
#
#
#
# Elastic Constant Matrix: (Units=GPa)
#
#
# Indices 1 2 3 4 5 6 
#
# 1 134.5041 31.4302 70.0672 0.0000 0.3017 0.0000
# 2 31.4302 84.3352 34.3780 0.0000 -7.2642 0.0000
# 3 70.0672 34.3780 90.1325 0.0000 -14.3676 0.0000
# 4 0.0000 0.0000 0.0000 16.3007 0.0000 -12.1329
# 5 0.3017 -7.2642 -14.3676 0.0000 44.3130 0.0000
# 6 0.0000 0.0000 0.0000 -12.1329 0.0000 37.2486
#
#
#
# Elastic Compliance Matrix: (Units=1/GPa)
#
#
# Indices 1 2 3 4 5 6 
#
# 1 0.013068 -0.000954 -0.010370 0.000000 -0.003607 0.000000
# 2 -0.000954 0.014125 -0.004509 0.000000 0.000860 0.000000
# 3 -0.010370 -0.004509 0.021901 0.000000 0.006432 0.000000
# 4 0.000000 0.000000 0.000000 0.080980 0.000000 0.026378
# 5 -0.003607 0.000860 0.006432 0.000000 0.024818 0.000000
# 6 0.000000 0.000000 0.000000 0.026378 0.000000 0.035439
#
#
# Mechanical properties :
#
#
# Convention : Reuss Voigt Hill
#
# Bulk Modulus (GPa) = 57.37631 64.52472 60.95051
# Shear Modulus (GPa) = 21.94858 31.11221 26.53040
#
# Velocity S-wave (km/s) = 3.07680 3.66320 3.38273
# Velocity P-wave (km/s) = 6.11304 6.76183 6.44560
#
# Compressibility (1/GPa) = 0.01742880
#
# Stress axis : x y z
#
# Youngs Moduli (GPa) = 76.52524 70.79653 45.65959
#
# Poissons Ratio (x) = 0.06752 0.47348
# Poissons Ratio (y) = 0.07298 0.20588
# Poissons Ratio (z) = 0.79355 0.31922
#
# Static dielectric constant tensor:
#      x y z
#    x 4.099250 0.000000 -0.429750 
#    y 0.000000 4.351920 0.000000 
#    z -0.429750 0.000000 4.422320 
# 
# 
# High freq. dielectric constant tensor:
#      x y z
#    x 1.906760 0.000000 -0.018700 
#    y 0.000000 1.927830 0.000000 
#    z -0.018700 0.000000 1.916570 
# 
# From -- ./inp_files/73423.got.cif
#   From: 2010.06.25/outbox.cif.g09.slc.cpg/sg15_37_cif.got.tgz:73423.got - 2010.06.28 07:06:18.
