data_PCOD8140300
_publ_section_title
;
Structure prediction by ZEFSAII (Michael W. Deem and Ramdas Pophale) SiO2 
 PCOD8140300
Probable space group: C 2/C
;
_chemical_formula_sum "Si O2"
_cell_formula_units_Z 52
_cell_length_a 9.122791
_cell_length_b 13.030981
_cell_length_c 28.941468
_cell_angle_alpha 90.000000
_cell_angle_beta 128.075989
_cell_angle_gamma 90.000000
_cell_volume 2708.363246
_symmetry_space_group_name_H-M "C 2/C"
_symmetry_group_IT_number 15
_symmetry_cell_setting 'monoclinic'
loop_
_space_group_symop_operation_xyz
x,y,z
-x,y,1/2-z
-x,-y,-z
x,-y,1/2+z
1/2+x,1/2+y,z
1/2-x,1/2+y,1/2-z
1/2-x,1/2-y,-z
1/2+x,1/2-y,1/2+z
loop_
_atom_site_type_symbol
_atom_site_label
_atom_site_fract_x
_atom_site_fract_y
_atom_site_fract_z
Si Si1 0.465014 0.248295 0.674285
Si Si2 0.734402 0.819874 0.452673
Si Si3 0.848958 0.368116 0.753290
Si Si4 0.500000 0.934154 0.250000
Si Si5 0.600549 0.829227 0.634676
Si Si6 0.584653 0.326777 0.456864
Si Si7 0.888688 0.477691 0.524533
O O1 0.407234 0.234055 0.610168
O O2 0.662989 0.302638 0.715440
O O3 0.456656 0.137566 0.697783
O O4 0.323321 0.325753 0.671968
O O5 0.750000 0.750000 0.500000
O O6 0.938105 0.834824 0.470313
O O7 0.641175 0.925420 0.449070
O O8 0.940150 0.368997 0.822090
O O9 0.000000 0.311022 0.750000
O O10 0.829784 0.487434 0.731530
O O11 0.520616 0.713341 0.609938
O O12 0.509025 0.899377 0.577995
O O13 0.750000 0.250000 0.500000
O O14 0.684183 0.436406 0.469536
O O15 0.000000 0.500000 0.500000
#
# Coordination Sequence:
#
# PCOD8140300 Si02
#       7
#     8   8   8   4   8   8   8
#     4  11  21  44  67  88 133 169 207 279 320 383
#     4  11  23  40  62  93 126 169 214 263 330 381
#     4  10  23  39  65  96 120 168 223 260 326 393
#     4  10  22  42  66  90 128 164 218 256 336 368
#     4  10  20  41  63  89 127 165 208 268 322 379
#     4   9  20  37  62  87 122 168 203 260 321 372
#     4  11  22  39  59  93 130 165 219 257 319 395
#
# _framework density 19.199788000000002
#
# number of rings (size 3 to 8) (size 9 to 14) (size 15 to 20)
#    0.462    1.231    1.538    4.154    0.000    3.692 
#   11.077    3.077    0.000    0.000    0.000    0.000 
#    0.000    0.000    0.000    0.000    0.000    0.000 
#
# Total GULP energy -322189.699857 kJ/mol
# GULP energy per Si atom -12391.911533 kJ/mol
# Density = 1.915609 g / cm^3
# Si number density = 19.199788 Si / 1000 Ang^3
#
#
#
# Elastic Constant Matrix: (Units=GPa)
#
#
# Indices 1 2 3 4 5 6 
#
# 1 140.0988 51.2429 64.4493 0.0000 -5.0994 0.0000
# 2 51.2429 95.2320 45.9532 0.0000 -6.4039 0.0000
# 3 64.4493 45.9532 126.6415 0.0000 -16.4658 0.0000
# 4 0.0000 0.0000 0.0000 30.3570 0.0000 -6.3493
# 5 -5.0994 -6.4039 -16.4658 0.0000 34.2778 0.0000
# 6 0.0000 0.0000 0.0000 -6.3493 0.0000 38.8535
#
#
#
# Elastic Compliance Matrix: (Units=1/GPa)
#
#
# Indices 1 2 3 4 5 6 
#
# 1 0.010303 -0.003660 -0.004059 0.000000 -0.001101 0.000000
# 2 -0.003660 0.014030 -0.003156 0.000000 0.000561 0.000000
# 3 -0.004059 -0.003156 0.011681 0.000000 0.004418 0.000000
# 4 0.000000 0.000000 0.000000 0.034107 0.000000 0.005574
# 5 -0.001101 0.000561 0.004418 0.000000 0.031237 0.000000
# 6 0.000000 0.000000 0.000000 0.005574 0.000000 0.026649
#
#
# Mechanical properties :
#
#
# Convention : Reuss Voigt Hill
#
# Bulk Modulus (GPa) = 70.09168 76.14032 73.11600
# Shear Modulus (GPa) = 32.36014 34.05280 33.20647
#
# Velocity S-wave (km/s) = 4.10987 4.21599 4.16326
# Velocity P-wave (km/s) = 7.68811 7.96507 7.82782
#
# Compressibility (1/GPa) = 0.01426703
#
# Stress axis : x y z
#
# Youngs Moduli (GPa) = 97.05511 71.27410 85.60688
#
# Poissons Ratio (x) = 0.26084 0.34745
# Poissons Ratio (y) = 0.35519 0.27015
# Poissons Ratio (z) = 0.39392 0.22492
#
# Static dielectric constant tensor:
#      x y z
#    x 3.659280 0.000000 0.046900 
#    y 0.000000 3.662420 0.000000 
#    z 0.046900 0.000000 3.958390 
# 
# 
# High freq. dielectric constant tensor:
#      x y z
#    x 1.752400 0.000000 -0.004230 
#    y 0.000000 1.745080 0.000000 
#    z -0.004230 0.000000 1.751400 
# 
# From -- ./inp_files/264466.got.cif
#   From: 2010.06.25/outbox.cif.g09.slc.cpg/sg15_133_cif.got.tgz:264466.got - 2010.06.28 07:06:18.
