data_PCOD8140639
_publ_section_title
;
Structure prediction by ZEFSAII (Michael W. Deem and Ramdas Pophale) SiO2 
 PCOD8140639
Probable space group: C 2/C
;
_chemical_formula_sum "Si O2"
_cell_formula_units_Z 36
_cell_length_a 26.899817
_cell_length_b 7.466012
_cell_length_c 14.185572
_cell_angle_alpha 90.000000
_cell_angle_beta 150.530884
_cell_angle_gamma 90.000000
_cell_volume 1401.553436
_symmetry_space_group_name_H-M "C 2/C"
_symmetry_group_IT_number 15
_symmetry_cell_setting 'monoclinic'
loop_
_space_group_symop_operation_xyz
x,y,z
-x,y,1/2-z
-x,-y,-z
x,-y,1/2+z
1/2+x,1/2+y,z
1/2-x,1/2+y,1/2-z
1/2-x,1/2-y,-z
1/2+x,1/2-y,1/2+z
loop_
_atom_site_type_symbol
_atom_site_label
_atom_site_fract_x
_atom_site_fract_y
_atom_site_fract_z
Si Si1 0.521186 0.226579 0.083757
Si Si2 0.714124 0.074018 0.623824
Si Si3 0.283189 0.956957 0.668718
Si Si4 0.500000 0.080659 0.250000
Si Si5 0.643734 0.579792 0.278601
O O1 0.600142 0.084888 0.168403
O O2 0.481175 0.188152 0.122321
O O3 0.570373 0.417885 0.180292
O O4 0.425377 0.242447 0.851766
O O5 0.724050 0.269738 0.590012
O O6 0.607328 0.979466 0.415816
O O7 0.720844 0.083197 0.747152
O O8 0.802727 0.948961 0.733440
O O9 0.228900 0.082448 0.501102
#
# Coordination Sequence:
#
# PCOD8140639 Si02
#       5
#     8   8   8   4   8
#     4  10  21  38  70  98 136 179 231 279 351 405
#     4  11  23  41  69  95 139 180 227 286 349 399
#     4  11  22  46  65 103 138 178 231 289 337 421
#     4  12  20  40  62  96 136 186 220 282 346 412
#     4  10  20  42  67  99 133 180 230 289 337 415
#
# _framework density 25.685786
#
# number of rings (size 3 to 8) (size 9 to 14) (size 15 to 20)
#    0.000    1.333    4.444    2.667    0.000    0.889 
#    4.000    2.222    0.000    0.000    0.000    0.000 
#    0.000    0.000    0.000    0.000    0.000    0.000 
#
# Total GULP energy -223000.494477 kJ/mol
# GULP energy per Si atom -12388.916360 kJ/mol
# Density = 2.562732 g / cm^3
# Si number density = 25.685786 Si / 1000 Ang^3
#
#
#
# Elastic Constant Matrix: (Units=GPa)
#
#
# Indices 1 2 3 4 5 6 
#
# 1 150.6916 28.9953 64.1520 0.0000 -20.5638 0.0000
# 2 28.9953 61.8193 21.7485 0.0000 -4.6726 0.0000
# 3 64.1520 21.7485 198.6735 0.0000 -9.4412 0.0000
# 4 0.0000 0.0000 0.0000 28.5409 0.0000 -12.7553
# 5 -20.5638 -4.6726 -9.4412 0.0000 48.3052 0.0000
# 6 0.0000 0.0000 0.0000 -12.7553 0.0000 22.8345
#
#
#
# Elastic Compliance Matrix: (Units=1/GPa)
#
#
# Indices 1 2 3 4 5 6 
#
# 1 0.008594 -0.002998 -0.002308 0.000000 0.002917 0.000000
# 2 -0.002998 0.017949 -0.000984 0.000000 0.000268 0.000000
# 3 -0.002308 -0.000984 0.005890 0.000000 0.000073 0.000000
# 4 0.000000 0.000000 0.000000 0.046694 0.000000 0.026083
# 5 0.002917 0.000268 0.000073 0.000000 0.021984 0.000000
# 6 0.000000 0.000000 0.000000 0.026083 0.000000 0.058363
#
#
# Mechanical properties :
#
#
# Convention : Reuss Voigt Hill
#
# Bulk Modulus (GPa) = 50.37324 71.21955 60.79639
# Shear Modulus (GPa) = 27.98427 39.68871 33.83649
#
# Velocity S-wave (km/s) = 3.30432 3.93512 3.63343
# Velocity P-wave (km/s) = 5.84909 6.95948 6.42830
#
# Compressibility (1/GPa) = 0.01985181
#
# Stress axis : x y z
#
# Youngs Moduli (GPa) = 116.36507 55.71395 169.78309
#
# Poissons Ratio (x) = 0.16704 0.39187
# Poissons Ratio (y) = 0.34889 0.16707
# Poissons Ratio (z) = 0.26858 0.05482
#
# Static dielectric constant tensor:
#      x y z
#    x 4.751010 0.000000 0.197630 
#    y 0.000000 4.332240 0.000000 
#    z 0.197630 0.000000 5.229530 
# 
# 
# High freq. dielectric constant tensor:
#      x y z
#    x 2.044160 0.000000 0.013040 
#    y 0.000000 2.004880 0.000000 
#    z 0.013040 0.000000 2.052730 
# 
# From -- ./inp_files/84372.got.cif
#   From: 2010.06.25/outbox.cif.g09.slc.cpg/sg15_43_cif.got.tgz:84372.got - 2010.06.28 07:06:18.
