data_PCOD8140015
_publ_section_title
;
Structure prediction by ZEFSAII (Michael W. Deem and Ramdas Pophale) SiO2 
 PCOD8140015
Probable space group: C 2/C
;
_chemical_formula_sum "Si O2"
_cell_formula_units_Z 48
_cell_length_a 13.996594
_cell_length_b 12.456961
_cell_length_c 16.744801
_cell_angle_alpha 90.000000
_cell_angle_beta 47.674757
_cell_angle_gamma 90.000000
_cell_volume 2158.516833
_symmetry_space_group_name_H-M "C 2/C"
_symmetry_group_IT_number 15
_symmetry_cell_setting 'monoclinic'
loop_
_space_group_symop_operation_xyz
x,y,z
-x,y,1/2-z
-x,-y,-z
x,-y,1/2+z
1/2+x,1/2+y,z
1/2-x,1/2+y,1/2-z
1/2-x,1/2-y,-z
1/2+x,1/2-y,1/2+z
loop_
_atom_site_type_symbol
_atom_site_label
_atom_site_fract_x
_atom_site_fract_y
_atom_site_fract_z
Si Si1 0.543873 0.323693 0.315985
Si Si2 0.463414 0.749507 0.362077
Si Si3 0.287875 0.641589 0.025834
Si Si4 0.698342 0.114212 0.755433
Si Si5 0.762470 0.903332 0.034438
Si Si6 0.599244 0.095377 0.260993
O O1 0.500000 0.346533 0.250000
O O2 0.443080 0.371336 0.436783
O O3 0.684561 0.374171 0.248880
O O4 0.536210 0.196403 0.340633
O O5 0.500000 0.733227 0.250000
O O6 0.594880 0.790859 0.330809
O O7 0.351881 0.836679 0.442243
O O8 0.406182 0.637648 0.427999
O O9 0.239025 0.526163 0.018657
O O10 0.228694 0.646991 0.147707
O O11 0.250000 0.750000 0.000000
O O12 0.752035 0.111973 0.635351
O O13 0.631437 0.997725 0.806208
O O14 0.500000 0.048242 0.250000
#
# Coordination Sequence:
#
# PCOD8140015 Si02
#       6
#     8   8   8   8   8   8
#     4  11  24  38  58  89 123 162 208 257 309 352
#     4   9  18  37  61  91 125 162 201 260 307 370
#     4  11  20  37  61  85 120 160 201 251 300 370
#     4  10  21  37  62  88 120 164 214 247 305 375
#     4   9  20  36  63  93 123 162 204 248 319 365
#     4  10  20  40  65  86 117 165 204 247 314 379
#
# _framework density 22.237492
#
# number of rings (size 3 to 8) (size 9 to 14) (size 15 to 20)
#    0.000    2.000    3.333    2.500    0.000    6.000 
#    0.000    3.333    0.000    7.000    0.000    0.000 
#    0.000    0.000    0.000    0.000    0.000    0.000 
#
# Total GULP energy -297340.036093 kJ/mol
# GULP energy per Si atom -12389.168171 kJ/mol
# Density = 2.218688 g / cm^3
# Si number density = 22.237492 Si / 1000 Ang^3
#
#
#
# Elastic Constant Matrix: (Units=GPa)
#
#
# Indices 1 2 3 4 5 6 
#
# 1 109.2942 30.6660 17.1726 0.0000 -31.1811 0.0000
# 2 30.6660 128.7516 24.4390 0.0000 -5.3954 0.0000
# 3 17.1726 24.4390 105.9634 0.0000 -23.2839 0.0000
# 4 0.0000 0.0000 0.0000 40.1489 0.0000 -5.4866
# 5 -31.1811 -5.3954 -23.2839 0.0000 24.5146 0.0000
# 6 0.0000 0.0000 0.0000 -5.4866 0.0000 24.4530
#
#
#
# Elastic Compliance Matrix: (Units=1/GPa)
#
#
# Indices 1 2 3 4 5 6 
#
# 1 0.016127 -0.003493 0.003198 0.000000 0.022780 0.000000
# 2 -0.003493 0.008879 -0.002564 0.000000 -0.004924 0.000000
# 3 0.003198 -0.002564 0.012991 0.000000 0.015842 0.000000
# 4 0.000000 0.000000 0.000000 0.025695 0.000000 0.005765
# 5 0.022780 -0.004924 0.015842 0.000000 0.083731 0.000000
# 6 0.000000 0.000000 0.000000 0.005765 0.000000 0.042188
#
#
# Mechanical properties :
#
#
# Convention : Reuss Voigt Hill
#
# Bulk Modulus (GPa) = 30.98022 54.28492 42.63257
# Shear Modulus (GPa) = 24.26129 35.93873 30.10001
#
# Velocity S-wave (km/s) = 3.30662 4.02448 3.68308
# Velocity P-wave (km/s) = 5.34230 6.78673 6.10736
#
# Compressibility (1/GPa) = 0.03227866
#
# Stress axis : x y z
#
# Youngs Moduli (GPa) = 62.00969 112.62229 76.97395
#
# Poissons Ratio (x) = 0.39343 -0.24615
# Poissons Ratio (y) = 0.21662 0.19734
# Poissons Ratio (z) = -0.19830 0.28874
#
# Static dielectric constant tensor:
#      x y z
#    x 3.533600 0.000000 -0.432650 
#    y 0.000000 4.248780 0.000000 
#    z -0.432650 0.000000 4.401650 
# 
# 
# High freq. dielectric constant tensor:
#      x y z
#    x 1.823810 0.000000 -0.034910 
#    y 0.000000 1.886490 0.000000 
#    z -0.034910 0.000000 1.886060 
# 
# From -- ./inp_files/243888.got.cif
#   From: 2010.06.25/outbox.cif.g09.slc.cpg/sg15_122_cif.got.tgz:243888.got - 2010.06.28 07:06:18.
