data_PCOD8140460
_publ_section_title
;
Structure prediction by ZEFSAII (Michael W. Deem and Ramdas Pophale) SiO2 
 PCOD8140460
Probable space group: C 2/C
;
_chemical_formula_sum "Si O2"
_cell_formula_units_Z 60
_cell_length_a 23.533045
_cell_length_b 8.982723
_cell_length_c 19.703390
_cell_angle_alpha 90.000000
_cell_angle_beta 137.848270
_cell_angle_gamma 90.000000
_cell_volume 2795.193613
_symmetry_space_group_name_H-M "C 2/C"
_symmetry_group_IT_number 15
_symmetry_cell_setting 'monoclinic'
loop_
_space_group_symop_operation_xyz
x,y,z
-x,y,1/2-z
-x,-y,-z
x,-y,1/2+z
1/2+x,1/2+y,z
1/2-x,1/2+y,1/2-z
1/2-x,1/2-y,-z
1/2+x,1/2-y,1/2+z
loop_
_atom_site_type_symbol
_atom_site_label
_atom_site_fract_x
_atom_site_fract_y
_atom_site_fract_z
Si Si1 0.368146 0.936043 0.878313
Si Si2 0.144357 0.393086 0.913565
Si Si3 0.733127 0.499561 0.363890
Si Si4 0.471849 0.668114 0.616388
Si Si5 0.151883 0.700276 0.275779
Si Si6 0.464786 0.241136 0.963491
Si Si7 0.500000 0.118589 0.750000
Si Si8 0.941966 0.134044 0.298534
O O1 0.332299 0.917584 0.770247
O O2 0.293297 0.911900 0.865667
O O3 0.404361 0.100056 0.918409
O O4 0.437920 0.810595 0.956019
O O5 0.105081 0.239678 0.909080
O O6 0.187082 0.360540 0.878458
O O7 0.074424 0.519722 0.845735
O O8 0.219094 0.457067 0.025262
O O9 0.698654 0.351690 0.296035
O O10 0.652721 0.600857 0.311386
O O11 0.551479 0.777435 0.697272
O O12 0.449369 0.659159 0.516667
O O13 0.494169 0.502348 0.662634
O O14 0.439951 0.340670 0.877479
O O15 0.528478 0.217401 0.711892
#
# Coordination Sequence:
#
# PCOD8140460 Si02
#       8
#     8   8   8   8   8   8   4   8
#     4  10  21  39  66  97 129 173 225 265 322 401
#     4  12  22  45  71  94 126 181 224 262 325 414
#     4  11  25  40  64  97 138 164 218 275 339 385
#     4  10  21  40  71  94 126 172 223 268 318 395
#     4  10  22  39  63  97 127 171 214 269 325 386
#     4  10  20  41  69  95 125 177 225 266 319 399
#     4  12  26  42  72  92 126 182 220 266 330 390
#     4  11  26  41  64 100 137 163 216 286 332 378
#
# _framework density 21.465419000000001
#
# number of rings (size 3 to 8) (size 9 to 14) (size 15 to 20)
#    0.000    1.333    2.667    2.400    7.467    0.533 
#    0.000    0.000    0.000    0.000    0.000    0.000 
#    0.000    0.000    0.000    0.000    0.000    0.000 
#
# Total GULP energy -372145.933824 kJ/mol
# GULP energy per Si atom -12404.864461 kJ/mol
# Density = 2.141656 g / cm^3
# Si number density = 21.465419 Si / 1000 Ang^3
#
#
#
# Elastic Constant Matrix: (Units=GPa)
#
#
# Indices 1 2 3 4 5 6 
#
# 1 60.0452 13.9041 29.9366 0.0000 -6.1904 0.0000
# 2 13.9041 70.8996 21.3115 0.0000 15.2995 0.0000
# 3 29.9366 21.3115 99.8590 0.0000 -14.0146 0.0000
# 4 0.0000 0.0000 0.0000 32.0089 0.0000 -3.7889
# 5 -6.1904 15.2995 -14.0146 0.0000 23.9336 0.0000
# 6 0.0000 0.0000 0.0000 -3.7889 0.0000 27.9650
#
#
#
# Elastic Compliance Matrix: (Units=1/GPa)
#
#
# Indices 1 2 3 4 5 6 
#
# 1 0.020307 -0.003643 -0.004626 0.000000 0.004872 0.000000
# 2 -0.003643 0.020215 -0.005631 0.000000 -0.017161 0.000000
# 3 -0.004626 -0.005631 0.014099 0.000000 0.010658 0.000000
# 4 0.000000 0.000000 0.000000 0.031751 0.000000 0.004302
# 5 0.004872 -0.017161 0.010658 0.000000 0.060254 0.000000
# 6 0.000000 0.000000 0.000000 0.004302 0.000000 0.036342
#
#
# Mechanical properties :
#
#
# Convention : Reuss Voigt Hill
#
# Bulk Modulus (GPa) = 37.28583 40.12313 38.70448
# Shear Modulus (GPa) = 22.75770 27.82493 25.29131
#
# Velocity S-wave (km/s) = 3.25961 3.60428 3.43627
# Velocity P-wave (km/s) = 5.61913 6.00447 5.81499
#
# Compressibility (1/GPa) = 0.02681984
#
# Stress axis : x y z
#
# Youngs Moduli (GPa) = 49.24517 49.46916 70.92935
#
# Poissons Ratio (x) = 0.18022 0.32815
# Poissons Ratio (y) = 0.17940 0.39937
# Poissons Ratio (z) = 0.22783 0.27854
#
# Static dielectric constant tensor:
#      x y z
#    x 3.794480 0.000000 -0.069970 
#    y 0.000000 3.727530 0.000000 
#    z -0.069970 0.000000 4.073580 
# 
# 
# High freq. dielectric constant tensor:
#      x y z
#    x 1.839330 0.000000 -0.010770 
#    y 0.000000 1.833570 0.000000 
#    z -0.010770 0.000000 1.851070 
# 
# From -- ./inp_files/255182.got.cif
#   From: 2010.06.25/outbox.cif.g09.slc.cpg/sg15_128_cif.got.tgz:255182.got - 2010.06.28 07:06:18.
