data_PCOD8140731
_publ_section_title
;
Structure prediction by ZEFSAII (Michael W. Deem and Ramdas Pophale) SiO2 
 PCOD8140731
Probable space group: C 2/C
;
_chemical_formula_sum "Si O2"
_cell_formula_units_Z 52
_cell_length_a 13.188298
_cell_length_b 19.573435
_cell_length_c 18.091737
_cell_angle_alpha 90.000000
_cell_angle_beta 147.055516
_cell_angle_gamma 90.000000
_cell_volume 2539.780362
_symmetry_space_group_name_H-M "C 2/C"
_symmetry_group_IT_number 15
_symmetry_cell_setting 'monoclinic'
loop_
_space_group_symop_operation_xyz
x,y,z
-x,y,1/2-z
-x,-y,-z
x,-y,1/2+z
1/2+x,1/2+y,z
1/2-x,1/2+y,1/2-z
1/2-x,1/2-y,-z
1/2+x,1/2-y,1/2+z
loop_
_atom_site_type_symbol
_atom_site_label
_atom_site_fract_x
_atom_site_fract_y
_atom_site_fract_z
Si Si1 0.500000 0.982002 0.250000
Si Si2 0.829745 0.524053 0.998558
Si Si3 0.500000 0.756825 0.250000
Si Si4 0.115313 0.177283 0.184090
Si Si5 0.789158 0.132902 0.892041
Si Si6 0.000000 0.888427 0.250000
Si Si7 0.589760 0.900950 0.543712
Si Si8 0.239306 0.683592 0.704529
O O1 0.321633 0.937182 0.163737
O O2 0.565447 0.029540 0.358407
O O3 0.629320 0.561953 0.879725
O O4 0.814998 0.444332 0.964827
O O5 0.944512 0.556831 0.002721
O O6 0.488282 0.711220 0.169598
O O7 0.316703 0.802866 0.137734
O O8 0.254037 0.124733 0.306047
O O9 0.233358 0.234555 0.211298
O O10 0.990467 0.130879 0.053707
O O11 0.821114 0.144101 0.825019
O O12 0.873417 0.836961 0.219784
O O13 0.476553 0.838293 0.438351
#
# Coordination Sequence:
#
# PCOD8140731 Si02
#       8
#     4   8   4   8   8   4   8   8
#     4  11  22  38  61  89 122 154 197 268 302 350
#     4  10  23  42  60  88 121 164 209 253 300 362
#     4   9  20  33  54  88 127 150 187 242 306 372
#     4  11  22  35  62  91 121 160 202 247 310 377
#     4  10  21  35  57  90 122 152 192 249 313 353
#     4  10  24  41  69  85 117 172 214 244 302 370
#     4  10  22  41  61  84 127 164 201 250 309 366
#     4  10  20  43  59  90 123 158 199 255 307 362
#
# _framework density 20.474211
#
# number of rings (size 3 to 8) (size 9 to 14) (size 15 to 20)
#    0.000    1.846    1.538    2.308    4.308    1.231 
#    0.000    9.231    0.000    0.000    0.000    0.000 
#    0.000    0.000    0.000    0.000    0.000    0.000 
#
# Total GULP energy -322406.747705 kJ/mol
# GULP energy per Si atom -12400.259527 kJ/mol
# Density = 2.042761 g / cm^3
# Si number density = 20.474211 Si / 1000 Ang^3
#
#
#
# Elastic Constant Matrix: (Units=GPa)
#
#
# Indices 1 2 3 4 5 6 
#
# 1 61.8241 10.5141 16.9106 -0.0087 2.8112 0.0004
# 2 10.5141 39.7574 16.7783 -0.0084 3.1898 -0.0004
# 3 16.9106 16.7783 150.7695 -0.0186 -8.8550 -0.0023
# 4 -0.0087 -0.0084 -0.0186 9.9674 -0.0085 -3.9947
# 5 2.8112 3.1898 -8.8550 -0.0085 23.9568 -0.0009
# 6 0.0004 -0.0004 -0.0023 -3.9947 -0.0009 8.5849
#
#
#
# Elastic Compliance Matrix: (Units=1/GPa)
#
#
# Indices 1 2 3 4 5 6 
#
# 1 0.017359 -0.003717 -0.001660 0.000008 -0.002156 0.000002
# 2 -0.003717 0.027717 -0.002922 0.000014 -0.004334 0.000006
# 3 -0.001660 -0.002922 0.007338 0.000017 0.003296 0.000010
# 4 0.000008 0.000014 0.000017 0.123327 0.000049 0.057387
# 5 -0.002156 -0.004334 0.003296 0.000049 0.043790 0.000028
# 6 0.000002 0.000006 0.000010 0.057387 0.000028 0.143187
#
#
# Mechanical properties :
#
#
# Convention : Reuss Voigt Hill
#
# Bulk Modulus (GPa) = 27.92147 37.86188 32.89167
# Shear Modulus (GPa) = 12.77941 22.37835 17.57888
#
# Velocity S-wave (km/s) = 2.50105 3.30964 2.93334
# Velocity P-wave (km/s) = 4.69120 5.75653 5.25095
#
# Compressibility (1/GPa) = 0.03581474
#
# Stress axis : x y z
#
# Youngs Moduli (GPa) = 57.60649 36.07954 136.28460
#
# Poissons Ratio (x) = 0.13412 0.22623
# Poissons Ratio (y) = 0.21414 0.39823
# Poissons Ratio (z) = 0.09562 0.10543
#
# Static dielectric constant tensor:
#      x y z
#    x 3.618640 0.000000 -0.061700 
#    y 0.000000 3.661440 0.000000 
#    z -0.061700 0.000000 3.740800 
# 
# 
# High freq. dielectric constant tensor:
#      x y z
#    x 1.788120 0.000000 -0.008710 
#    y 0.000000 1.789280 0.000000 
#    z -0.008710 0.000000 1.810700 
# 
# From -- ./inp_files/40802.got.cif
#   From: 2010.06.25/outbox.cif.g09.slc.cpg/sg15_21_cif.got.tgz:40802.got - 2010.06.28 07:06:18.
