data_PCOD8140830
_publ_section_title
;
Structure prediction by ZEFSAII (Michael W. Deem and Ramdas Pophale) SiO2 
 PCOD8140830
Probable space group: C 2/C
;
_chemical_formula_sum "Si O2"
_cell_formula_units_Z 52
_cell_length_a 8.304646
_cell_length_b 11.641458
_cell_length_c 23.932746
_cell_angle_alpha 90.000000
_cell_angle_beta 100.180583
_cell_angle_gamma 90.000000
_cell_volume 2277.345433
_symmetry_space_group_name_H-M "C 2/C"
_symmetry_group_IT_number 15
_symmetry_cell_setting 'monoclinic'
loop_
_space_group_symop_operation_xyz
x,y,z
-x,y,1/2-z
-x,-y,-z
x,-y,1/2+z
1/2+x,1/2+y,z
1/2-x,1/2+y,1/2-z
1/2-x,1/2-y,-z
1/2+x,1/2-y,1/2+z
loop_
_atom_site_type_symbol
_atom_site_label
_atom_site_fract_x
_atom_site_fract_y
_atom_site_fract_z
Si Si1 0.000000 0.914567 0.250000
Si Si2 0.796442 0.215224 0.587988
Si Si3 0.227682 0.164598 0.416281
Si Si4 0.273907 0.975201 0.340483
Si Si5 0.531802 0.836929 0.473203
Si Si6 0.128367 0.852390 0.142222
Si Si7 0.874464 0.477559 0.611789
O O1 0.843423 0.990506 0.220627
O O2 0.937307 0.838890 0.298471
O O3 0.717536 0.159144 0.640239
O O4 0.664674 0.178519 0.531941
O O5 0.814585 0.350922 0.594322
O O6 0.973636 0.155911 0.589929
O O7 0.398606 0.149311 0.460415
O O8 0.091985 0.216869 0.448940
O O9 0.252001 0.247263 0.364293
O O10 0.183722 0.041895 0.386835
O O11 0.456544 0.024906 0.341517
O O12 0.591599 0.947667 0.441967
O O13 0.227533 0.969621 0.139257
#
# Coordination Sequence:
#
# PCOD8140830 Si02
#       7
#     4   8   8   8   8   8   8
#     4  10  24  44  62  96 118 168 226 272 328 378
#     4  10  21  39  64  96 131 169 210 262 314 397
#     4  10  20  44  66  95 138 170 209 274 316 401
#     4  10  22  43  63  92 129 166 220 272 319 382
#     4   9  22  39  65 101 134 174 211 248 339 392
#     4  10  22  43  65  90 131 164 221 268 320 378
#     4  10  21  42  66  97 131 172 210 264 323 400
#
# _framework density 22.833603
#
# number of rings (size 3 to 8) (size 9 to 14) (size 15 to 20)
#    0.000    2.154    1.538    0.000    4.308    3.692 
#   11.077    2.308    0.000    0.000    0.000    0.000 
#    0.000    0.000    0.000    0.000    0.000    0.000 
#
# Total GULP energy -322149.659448 kJ/mol
# GULP energy per Si atom -12390.371517 kJ/mol
# Density = 2.278163 g / cm^3
# Si number density = 22.833603 Si / 1000 Ang^3
#
#
#
# Elastic Constant Matrix: (Units=GPa)
#
#
# Indices 1 2 3 4 5 6 
#
# 1 79.3179 38.5476 22.9393 0.0000 15.0517 0.0000
# 2 38.5476 121.4820 34.4231 0.0000 5.9110 0.0000
# 3 22.9393 34.4231 90.2187 0.0000 16.8745 0.0000
# 4 0.0000 0.0000 0.0000 20.6256 0.0000 -1.7259
# 5 15.0517 5.9110 16.8745 0.0000 48.0101 0.0000
# 6 0.0000 0.0000 0.0000 -1.7259 0.0000 35.6139
#
#
#
# Elastic Compliance Matrix: (Units=1/GPa)
#
#
# Indices 1 2 3 4 5 6 
#
# 1 0.015964 -0.004409 -0.001651 0.000000 -0.003882 0.000000
# 2 -0.004409 0.010448 -0.003086 0.000000 0.001181 0.000000
# 3 -0.001651 -0.003086 0.013394 0.000000 -0.003810 0.000000
# 4 0.000000 0.000000 0.000000 0.048681 0.000000 0.002359
# 5 -0.003882 0.001181 -0.003810 0.000000 0.023240 0.000000
# 6 0.000000 0.000000 0.000000 0.002359 0.000000 0.028193
#
#
# Mechanical properties :
#
#
# Convention : Reuss Voigt Hill
#
# Bulk Modulus (GPa) = 46.48079 53.64874 50.06476
# Shear Modulus (GPa) = 30.23279 33.85716 32.04497
#
# Velocity S-wave (km/s) = 3.64269 3.85486 3.75028
# Velocity P-wave (km/s) = 6.17194 6.58482 6.38172
#
# Compressibility (1/GPa) = 0.02151426
#
# Stress axis : x y z
#
# Youngs Moduli (GPa) = 62.63985 95.71449 74.65971
#
# Poissons Ratio (x) = 0.42200 0.12325
# Poissons Ratio (y) = 0.27618 0.23041
# Poissons Ratio (z) = 0.10341 0.29539
#
# Static dielectric constant tensor:
#      x y z
#    x 4.411830 0.000000 0.282990 
#    y 0.000000 4.166620 0.000000 
#    z 0.282990 0.000000 3.885430 
# 
# 
# High freq. dielectric constant tensor:
#      x y z
#    x 1.913450 0.000000 0.015580 
#    y 0.000000 1.900870 0.000000 
#    z 0.015580 0.000000 1.868440 
# 
# From -- ./inp_files/287709.got.cif
#   From: 2010.06.25/outbox.cif.g09.slc.cpg/sg15_144_cif.got.tgz:287709.got - 2010.06.28 07:06:18.
