data_PCOD8140933
_publ_section_title
;
Structure prediction by ZEFSAII (Michael W. Deem and Ramdas Pophale) SiO2 
 PCOD8140933
Probable space group: C 2/C
;
_chemical_formula_sum "Si O2"
_cell_formula_units_Z 60
_cell_length_a 22.307121
_cell_length_b 23.363071
_cell_length_c 8.746894
_cell_angle_alpha 90.000000
_cell_angle_beta 135.469683
_cell_angle_gamma 90.000000
_cell_volume 3196.854254
_symmetry_space_group_name_H-M "C 2/C"
_symmetry_group_IT_number 15
_symmetry_cell_setting 'monoclinic'
loop_
_space_group_symop_operation_xyz
x,y,z
-x,y,1/2-z
-x,-y,-z
x,-y,1/2+z
1/2+x,1/2+y,z
1/2-x,1/2+y,1/2-z
1/2-x,1/2-y,-z
1/2+x,1/2-y,1/2+z
loop_
_atom_site_type_symbol
_atom_site_label
_atom_site_fract_x
_atom_site_fract_y
_atom_site_fract_z
Si Si1 0.902007 0.530564 0.542450
Si Si2 0.677389 0.140230 0.973868
Si Si3 0.947086 0.266553 0.372209
Si Si4 0.000000 0.662021 0.250000
Si Si5 0.362287 0.266596 0.303825
Si Si6 0.750612 0.838460 0.927571
Si Si7 0.697000 0.699507 0.478133
Si Si8 0.136247 0.576440 0.358770
O O1 0.869422 0.579561 0.600086
O O2 0.893528 0.546650 0.351644
O O3 0.851240 0.471878 0.488783
O O4 0.000000 0.517256 0.750000
O O5 0.741264 0.147859 0.232745
O O6 0.744771 0.143131 0.953161
O O7 0.602815 0.189241 0.833757
O O8 0.949630 0.296441 0.542053
O O9 0.894993 0.206136 0.274882
O O10 0.040133 0.248284 0.481667
O O11 0.065769 0.622905 0.277889
O O12 0.319423 0.209801 0.159599
O O13 0.313573 0.292856 0.361182
O O14 0.345951 0.315749 0.144088
O O15 0.726706 0.893127 0.989482
O O16 0.750000 0.750000 0.500000
#
# Coordination Sequence:
#
# PCOD8140933 Si02
#       8
#     8   8   8   4   8   8   8   8
#     4  11  23  37  56  79 107 149 186 234 267 329
#     4  10  23  37  56  78 113 149 186 227 279 320
#     4  11  23  34  56  79 112 151 185 225 271 334
#     4  12  24  32  54  82 110 146 192 224 276 318
#     4  11  21  35  55  77 111 149 185 223 274 331
#     4  10  22  36  53  77 112 145 183 229 276 322
#     4  10  21  33  54  80 108 147 187 225 272 331
#     4  11  24  37  53  79 107 146 188 229 275 322
#
# _framework density 18.768450000000001
#
# number of rings (size 3 to 8) (size 9 to 14) (size 15 to 20)
#    0.000    1.333    4.667    1.600    9.333    0.000 
#    0.000    0.000    0.000    0.000    0.000    0.933 
#    0.000    0.000    0.000    0.000    0.000    0.000 
#
# Total GULP energy -371654.338597 kJ/mol
# GULP energy per Si atom -12388.477953 kJ/mol
# Density = 1.872573 g / cm^3
# Si number density = 18.768450 Si / 1000 Ang^3
#
#
#
# Elastic Constant Matrix: (Units=GPa)
#
#
# Indices 1 2 3 4 5 6 
#
# 1 87.1663 31.4387 27.5438 0.0000 -3.4291 0.0000
# 2 31.4387 61.6909 21.7918 0.0000 2.2504 0.0000
# 3 27.5438 21.7918 62.3679 0.0000 3.5886 0.0000
# 4 0.0000 0.0000 0.0000 17.1551 0.0000 -5.6692
# 5 -3.4291 2.2504 3.5886 0.0000 28.1328 0.0000
# 6 0.0000 0.0000 0.0000 -5.6692 0.0000 41.3139
#
#
#
# Elastic Compliance Matrix: (Units=1/GPa)
#
#
# Indices 1 2 3 4 5 6 
#
# 1 0.015349 -0.006247 -0.004767 0.000000 0.002979 0.000000
# 2 -0.006247 0.021047 -0.004487 0.000000 -0.001873 0.000000
# 3 -0.004767 -0.004487 0.019866 0.000000 -0.002756 0.000000
# 4 0.000000 0.000000 0.000000 0.061061 0.000000 0.008379
# 5 0.002979 -0.001873 -0.002756 0.000000 0.036410 0.000000
# 6 0.000000 0.000000 0.000000 0.008379 0.000000 0.025355
#
#
# Mechanical properties :
#
#
# Convention : Reuss Voigt Hill
#
# Bulk Modulus (GPa) = 39.59046 41.41930 40.50488
# Shear Modulus (GPa) = 22.88230 26.01709 24.44970
#
# Velocity S-wave (km/s) = 3.49548 3.72723 3.61321
# Velocity P-wave (km/s) = 6.11810 6.37491 6.24782
#
# Compressibility (1/GPa) = 0.02525861
#
# Stress axis : x y z
#
# Youngs Moduli (GPa) = 65.15089 47.51343 50.33764
#
# Poissons Ratio (x) = 0.29680 0.23998
# Poissons Ratio (y) = 0.40698 0.22588
# Poissons Ratio (z) = 0.31060 0.21321
#
# Static dielectric constant tensor:
#      x y z
#    x 3.878980 0.000000 0.126290 
#    y 0.000000 3.615880 0.000000 
#    z 0.126290 0.000000 3.742470 
# 
# 
# High freq. dielectric constant tensor:
#      x y z
#    x 1.728990 0.000000 -0.018880 
#    y 0.000000 1.699400 0.000000 
#    z -0.018880 0.000000 1.722200 
# 
# From -- ./inp_files/58773.got.cif
#   From: 2010.06.25/outbox.cif.g09.slc.cpg/sg15_30_cif.got.tgz:58773.got - 2010.06.28 07:06:18.
