data_PCOD8140121
_publ_section_title
;
Structure prediction by ZEFSAII (Michael W. Deem and Ramdas Pophale) SiO2 
 PCOD8140121
Probable space group: C 2/C
;
_chemical_formula_sum "Si O2"
_cell_formula_units_Z 64
_cell_length_a 12.241139
_cell_length_b 15.192054
_cell_length_c 29.855143
_cell_angle_alpha 90.000000
_cell_angle_beta 145.085483
_cell_angle_gamma 90.000000
_cell_volume 3177.766206
_symmetry_space_group_name_H-M "C 2/C"
_symmetry_group_IT_number 15
_symmetry_cell_setting 'monoclinic'
loop_
_space_group_symop_operation_xyz
x,y,z
-x,y,1/2-z
-x,-y,-z
x,-y,1/2+z
1/2+x,1/2+y,z
1/2-x,1/2+y,1/2-z
1/2-x,1/2-y,-z
1/2+x,1/2-y,1/2+z
loop_
_atom_site_type_symbol
_atom_site_label
_atom_site_fract_x
_atom_site_fract_y
_atom_site_fract_z
Si Si1 0.550809 0.705112 0.660170
Si Si2 0.951540 0.980209 0.091333
Si Si3 0.323125 0.468252 0.911573
Si Si4 0.938390 0.132004 0.157395
Si Si5 0.413834 0.019817 0.591358
Si Si6 0.691240 0.868008 0.657470
Si Si7 0.910368 0.294842 0.339932
Si Si8 0.674929 0.210328 0.337474
O O1 0.454588 0.621502 0.605031
O O2 0.562658 0.783917 0.627764
O O3 0.760380 0.682425 0.750052
O O4 0.408139 0.729491 0.651683
O O5 0.147362 0.997782 0.129307
O O6 0.939076 0.041131 0.130604
O O7 0.770234 0.999905 0.999969
O O8 0.130171 0.502417 0.870680
O O9 0.309143 0.362983 0.904667
O O10 0.500000 0.500000 0.000000
O O11 0.122669 0.131537 0.249963
O O12 0.948037 0.216119 0.127664
O O13 0.748368 0.137844 0.124218
O O14 0.465434 0.121532 0.604918
O O15 0.583517 0.958900 0.630748
O O16 0.801764 0.270310 0.348448
O O17 0.500000 0.167499 0.250000
#
# Coordination Sequence:
#
# PCOD8140121 Si02
#       8
#     8   8   8   8   8   8   8   8
#     4  10  22  40  63  90 118 157 204 251 302 356
#     4  11  24  41  60  90 123 162 203 244 303 364
#     4  10  22  42  60  90 124 158 204 251 304 354
#     4  10  22  41  62  88 122 157 199 253 303 353
#     4  11  24  41  60  90 123 162 203 244 303 364
#     4  10  22  41  62  88 122 157 199 253 303 353
#     4  10  22  40  63  90 118 157 204 251 302 356
#     4  10  20  40  67  90 118 159 209 254 295 353
#
# _framework density 20.139932999999999
#
# number of rings (size 3 to 8) (size 9 to 14) (size 15 to 20)
#    0.000    1.750    2.500    0.750    3.500    2.500 
#    0.000    0.000    0.000    0.000    0.000    0.000 
#    0.000    0.000    0.000    0.000    0.000    0.000 
#
# Total GULP energy -396785.483907 kJ/mol
# GULP energy per Si atom -12399.546372 kJ/mol
# Density = 2.009409 g / cm^3
# Si number density = 20.139933 Si / 1000 Ang^3
#
#
#
# Elastic Constant Matrix: (Units=GPa)
#
#
# Indices 1 2 3 4 5 6 
#
# 1 186.7071 62.7565 18.8429 0.0000 -3.4333 0.0000
# 2 62.7565 138.3221 27.0330 0.0000 -0.9103 0.0000
# 3 18.8429 27.0330 33.4374 0.0000 -0.7375 0.0000
# 4 0.0000 0.0000 0.0000 37.0978 0.0000 0.3143
# 5 -3.4333 -0.9103 -0.7375 0.0000 20.7053 0.0000
# 6 0.0000 0.0000 0.0000 0.3143 0.0000 25.0254
#
#
#
# Elastic Compliance Matrix: (Units=1/GPa)
#
#
# Indices 1 2 3 4 5 6 
#
# 1 0.006398 -0.002608 -0.001477 0.000000 0.000894 0.000000
# 2 -0.002608 0.009650 -0.006337 0.000000 -0.000234 0.000000
# 3 -0.001477 -0.006337 0.035879 0.000000 0.000754 0.000000
# 4 0.000000 0.000000 0.000000 0.026959 0.000000 -0.000339
# 5 0.000894 -0.000234 0.000754 0.000000 0.048462 0.000000
# 6 0.000000 0.000000 0.000000 -0.000339 0.000000 0.039964
#
#
# Mechanical properties :
#
#
# Convention : Reuss Voigt Hill
#
# Bulk Modulus (GPa) = 32.17267 63.97015 48.07141
# Shear Modulus (GPa) = 25.18689 33.22132 29.20410
#
# Velocity S-wave (km/s) = 3.54021 4.06584 3.81210
# Velocity P-wave (km/s) = 5.72014 7.33984 6.58002
#
# Compressibility (1/GPa) = 0.03108229
#
# Stress axis : x y z
#
# Youngs Moduli (GPa) = 156.29414 103.62926 27.87155
#
# Poissons Ratio (x) = 0.27029 0.04117
# Poissons Ratio (y) = 0.40766 0.17662
# Poissons Ratio (z) = 0.23087 0.65668
#
# Static dielectric constant tensor:
#      x y z
#    x 4.364350 0.000000 -0.026730 
#    y 0.000000 3.890730 0.000000 
#    z -0.026730 0.000000 3.445930 
# 
# 
# High freq. dielectric constant tensor:
#      x y z
#    x 1.811680 0.000000 -0.001350 
#    y 0.000000 1.789070 0.000000 
#    z -0.001350 0.000000 1.763640 
# 
# From -- ./inp_files/311227.got.cif
#   From: 2010.06.25/outbox.cif.g09.slc.cpg/sg15_156_cif.got.tgz:311227.got - 2010.06.28 07:06:18.
