data_PCOD8140136
_publ_section_title
;
Structure prediction by ZEFSAII (Michael W. Deem and Ramdas Pophale) SiO2 
 PCOD8140136
Probable space group: C 2/C
;
_chemical_formula_sum "Si O2"
_cell_formula_units_Z 56
_cell_length_a 27.457434
_cell_length_b 19.185774
_cell_length_c 7.940483
_cell_angle_alpha 90.000000
_cell_angle_beta 141.292774
_cell_angle_gamma 90.000000
_cell_volume 2615.791658
_symmetry_space_group_name_H-M "C 2/C"
_symmetry_group_IT_number 15
_symmetry_cell_setting 'monoclinic'
loop_
_space_group_symop_operation_xyz
x,y,z
-x,y,1/2-z
-x,-y,-z
x,-y,1/2+z
1/2+x,1/2+y,z
1/2-x,1/2+y,1/2-z
1/2-x,1/2-y,-z
1/2+x,1/2-y,1/2+z
loop_
_atom_site_type_symbol
_atom_site_label
_atom_site_fract_x
_atom_site_fract_y
_atom_site_fract_z
Si Si1 0.655353 0.678156 0.401477
Si Si2 0.949359 0.944281 0.964734
Si Si3 0.180674 0.395617 0.214415
Si Si4 0.913384 0.735720 0.081598
Si Si5 0.834729 0.056755 0.672488
Si Si6 0.587130 0.700152 0.552102
Si Si7 0.727261 0.010104 0.115069
O O1 0.587969 0.618738 0.243103
O O2 0.740355 0.644999 0.622157
O O3 0.644254 0.721919 0.547948
O O4 0.643759 0.722427 0.199447
O O5 0.879997 0.988159 0.858384
O O6 0.000000 0.909169 0.250000
O O7 0.000000 0.000000 0.000000
O O8 0.169953 0.468057 0.083580
O O9 0.182756 0.424890 0.410173
O O10 0.107169 0.345867 0.989958
O O11 0.901612 0.754762 0.247033
O O12 0.000000 0.748573 0.250000
O O13 0.891346 0.122266 0.834365
O O14 0.803461 0.046653 0.400468
O O15 0.757962 0.054344 0.581617
O O16 0.500000 0.707265 0.250000
#
# Coordination Sequence:
#
# PCOD8140136 Si02
#       7
#     8   8   8   8   8   8   8
#     4  12  23  44  67 101 141 185 228 265 331 414
#     4  12  23  31  54  95 141 186 215 254 315 391
#     4  11  24  46  70 101 130 174 224 289 348 407
#     4  12  28  48  67  95 139 181 230 286 342 400
#     4  11  19  35  57  93 137 171 217 263 316 391
#     4  12  24  40  65  96 136 183 222 265 328 412
#     4  10  20  40  67  93 130 165 218 290 338 393
#
# _framework density 21.408432999999999
#
# number of rings (size 3 to 8) (size 9 to 14) (size 15 to 20)
#    0.000    0.571    5.714    4.714    2.000    0.571 
#    5.143    0.714    0.000    0.000    0.000    0.000 
#    0.000    0.000    0.000    0.000    0.000    0.000 
#
# Total GULP energy -346868.832467 kJ/mol
# GULP energy per Si atom -12388.172588 kJ/mol
# Density = 2.135971 g / cm^3
# Si number density = 21.408433 Si / 1000 Ang^3
#
#
#
# Elastic Constant Matrix: (Units=GPa)
#
#
# Indices 1 2 3 4 5 6 
#
# 1 57.5863 19.3173 25.7958 0.0000 -23.6184 0.0000
# 2 19.3173 76.0178 44.9151 0.0000 -16.8771 0.0000
# 3 25.7958 44.9151 71.3617 0.0000 -23.6107 0.0000
# 4 0.0000 0.0000 0.0000 50.9535 0.0000 3.1751
# 5 -23.6184 -16.8771 -23.6107 0.0000 25.3049 0.0000
# 6 0.0000 0.0000 0.0000 3.1751 0.0000 23.5047
#
#
#
# Elastic Compliance Matrix: (Units=1/GPa)
#
#
# Indices 1 2 3 4 5 6 
#
# 1 0.028395 -0.000802 -0.001689 0.000000 0.024391 0.000000
# 2 -0.000802 0.021068 -0.012396 0.000000 0.001737 0.000000
# 3 -0.001689 -0.012396 0.027729 0.000000 0.016028 0.000000
# 4 0.000000 0.000000 0.000000 0.019792 0.000000 -0.002674
# 5 0.024391 0.001737 0.016028 0.000000 0.078397 0.000000
# 6 0.000000 0.000000 0.000000 -0.002674 0.000000 0.042906
#
#
# Mechanical properties :
#
#
# Convention : Reuss Voigt Hill
#
# Bulk Modulus (GPa) = 21.08930 42.78025 31.93477
# Shear Modulus (GPa) = 18.94891 27.61512 23.28202
#
# Velocity S-wave (km/s) = 2.97831 3.59544 3.30133
# Velocity P-wave (km/s) = 4.65827 6.10430 5.42964
#
# Compressibility (1/GPa) = 0.04741741
#
# Stress axis : x y z
#
# Youngs Moduli (GPa) = 35.21775 47.46451 36.06366
#
# Poissons Ratio (x) = 0.03808 0.06091
# Poissons Ratio (y) = 0.02826 0.44704
# Poissons Ratio (z) = 0.05949 0.58836
#
# Static dielectric constant tensor:
#      x y z
#    x 4.121100 0.000000 -0.418980 
#    y 0.000000 3.696120 0.000000 
#    z -0.418980 0.000000 3.977620 
# 
# 
# High freq. dielectric constant tensor:
#      x y z
#    x 1.841000 0.000000 -0.031100 
#    y 0.000000 1.813470 0.000000 
#    z -0.031100 0.000000 1.830750 
# 
# From -- ./inp_files/70523.got.cif
#   From: 2010.06.25/outbox.cif.g09.slc.cpg/sg15_36_cif.got.tgz:70523.got - 2010.06.28 07:06:18.
