data_PCOD8140884
_publ_section_title
;
Structure prediction by ZEFSAII (Michael W. Deem and Ramdas Pophale) SiO2 
 PCOD8140884
Probable space group: C 2/C
;
_chemical_formula_sum "Si O2"
_cell_formula_units_Z 36
_cell_length_a 12.843234
_cell_length_b 13.139432
_cell_length_c 10.024743
_cell_angle_alpha 90.000000
_cell_angle_beta 108.805442
_cell_angle_gamma 90.000000
_cell_volume 1601.398029
_symmetry_space_group_name_H-M "C 2/C"
_symmetry_group_IT_number 15
_symmetry_cell_setting 'monoclinic'
loop_
_space_group_symop_operation_xyz
x,y,z
-x,y,1/2-z
-x,-y,-z
x,-y,1/2+z
1/2+x,1/2+y,z
1/2-x,1/2+y,1/2-z
1/2-x,1/2-y,-z
1/2+x,1/2-y,1/2+z
loop_
_atom_site_type_symbol
_atom_site_label
_atom_site_fract_x
_atom_site_fract_y
_atom_site_fract_z
Si Si1 0.185810 0.884175 0.502669
Si Si2 0.154021 0.307966 0.139969
Si Si3 0.587179 0.204530 0.026136
Si Si4 0.000000 0.788921 0.250000
Si Si5 0.269841 0.612629 0.951980
O O1 0.177104 0.813155 0.630462
O O2 0.299898 0.863302 0.473397
O O3 0.083200 0.861375 0.363363
O O4 0.182208 0.000623 0.547178
O O5 0.210362 0.350359 0.293654
O O6 0.023996 0.328916 0.094234
O O7 0.567621 0.216531 0.176698
O O8 0.628023 0.311875 0.979228
O O9 0.681235 0.119731 0.036379
#
# Coordination Sequence:
#
# PCOD8140884 Si02
#       5
#     8   8   8   4   8
#     4  10  23  43  71  96 134 175 224 266 345 381
#     4  10  22  45  66  97 136 178 212 281 327 399
#     4  10  23  42  67  96 138 171 220 270 335 378
#     4  10  20  46  64  96 134 182 212 278 328 400
#     4  11  23  43  67 108 125 174 227 279 319 395
#
# _framework density 22.480357999999999
#
# number of rings (size 3 to 8) (size 9 to 14) (size 15 to 20)
#    0.000    1.778    2.222    0.667    0.000    8.000 
#    8.000    2.222    0.000    0.000    0.000    0.000 
#    0.000    0.000    0.000    0.000    0.000    0.000 
#
# Total GULP energy -223194.806998 kJ/mol
# GULP energy per Si atom -12399.711500 kJ/mol
# Density = 2.242919 g / cm^3
# Si number density = 22.480358 Si / 1000 Ang^3
#
#
#
# Elastic Constant Matrix: (Units=GPa)
#
#
# Indices 1 2 3 4 5 6 
#
# 1 105.3791 -11.4227 32.9565 0.0000 -8.2786 0.0000
# 2 -11.4227 82.7832 33.8811 0.0000 1.9117 0.0000
# 3 32.9565 33.8811 108.3933 0.0000 4.7024 0.0000
# 4 0.0000 0.0000 0.0000 31.5143 0.0000 2.3255
# 5 -8.2786 1.9117 4.7024 0.0000 42.6869 0.0000
# 6 0.0000 0.0000 0.0000 2.3255 0.0000 16.4561
#
#
#
# Elastic Compliance Matrix: (Units=1/GPa)
#
#
# Indices 1 2 3 4 5 6 
#
# 1 0.011539 0.003456 -0.004702 0.000000 0.002601 0.000000
# 2 0.003456 0.014888 -0.005732 0.000000 0.000635 0.000000
# 3 -0.004702 -0.005732 0.012535 0.000000 -0.002036 0.000000
# 4 0.000000 0.000000 0.000000 0.032066 0.000000 -0.004531
# 5 0.002601 0.000635 -0.002036 0.000000 0.024127 0.000000
# 6 0.000000 0.000000 0.000000 -0.004531 0.000000 0.061408
#
#
# Mechanical properties :
#
#
# Convention : Reuss Voigt Hill
#
# Bulk Modulus (GPa) = 39.98792 45.26503 42.62648
# Shear Modulus (GPa) = 27.95587 34.20750 31.08168
#
# Velocity S-wave (km/s) = 3.53025 3.90508 3.72239
# Velocity P-wave (km/s) = 5.86886 6.36490 6.12190
#
# Compressibility (1/GPa) = 0.02500755
#
# Stress axis : x y z
#
# Youngs Moduli (GPa) = 86.66321 67.16821 79.77550
#
# Poissons Ratio (x) = -0.23216 0.37507
# Poissons Ratio (y) = -0.29954 0.45728
# Poissons Ratio (z) = 0.40745 0.38501
#
# Static dielectric constant tensor:
#      x y z
#    x 4.574330 0.000000 -0.142030 
#    y 0.000000 3.852350 0.000000 
#    z -0.142030 0.000000 3.939710 
# 
# 
# High freq. dielectric constant tensor:
#      x y z
#    x 1.910970 0.000000 -0.002320 
#    y 0.000000 1.856870 0.000000 
#    z -0.002320 0.000000 1.879490 
# 
# From -- ./inp_files/84498.got.cif
#   From: 2010.06.25/outbox.cif.g09.slc.cpg/sg15_43_cif.got.tgz:84498.got - 2010.06.28 07:06:18.
