data_PCOD8140822
_publ_section_title
;
Structure prediction by ZEFSAII (Michael W. Deem and Ramdas Pophale) SiO2 
 PCOD8140822
Probable space group: C 2/C
;
_chemical_formula_sum "Si O2"
_cell_formula_units_Z 56
_cell_length_a 15.917948
_cell_length_b 30.652969
_cell_length_c 5.273763
_cell_angle_alpha 90.000000
_cell_angle_beta 103.325090
_cell_angle_gamma 90.000000
_cell_volume 2503.963006
_symmetry_space_group_name_H-M "C 2/C"
_symmetry_group_IT_number 15
_symmetry_cell_setting 'monoclinic'
loop_
_space_group_symop_operation_xyz
x,y,z
-x,y,1/2-z
-x,-y,-z
x,-y,1/2+z
1/2+x,1/2+y,z
1/2-x,1/2+y,1/2-z
1/2-x,1/2-y,-z
1/2+x,1/2-y,1/2+z
loop_
_atom_site_type_symbol
_atom_site_label
_atom_site_fract_x
_atom_site_fract_y
_atom_site_fract_z
Si Si1 0.090381 0.026376 0.473383
Si Si2 0.793441 0.475427 0.104879
Si Si3 0.914642 0.273122 0.521220
Si Si4 0.084750 0.175893 0.978484
Si Si5 0.726531 0.837627 0.033605
Si Si6 0.000000 0.339135 0.250000
Si Si7 0.000000 0.107248 0.250000
Si Si8 0.839461 0.381117 0.000730
O O1 0.191744 0.032885 0.537113
O O2 0.049520 0.074943 0.480870
O O3 0.061359 0.993560 0.677977
O O4 0.820866 0.509774 0.905623
O O5 0.841742 0.431722 0.065054
O O6 0.905376 0.224689 0.397077
O O7 0.825258 0.292455 0.579790
O O8 0.000000 0.274760 0.750000
O O9 0.927690 0.308423 0.315687
O O10 0.170815 0.169677 0.874646
O O11 0.000000 0.173536 0.750000
O O12 0.073608 0.138347 0.180444
O O13 0.702544 0.856570 0.289569
O O14 0.710858 0.871978 0.795267
O O15 0.059297 0.368676 0.474869
#
# Coordination Sequence:
#
# PCOD8140822 Si02
#       8
#     8   8   8   8   8   4   4   8
#     4  10  23  40  65  87 120 169 220 263 315 383
#     4  10  21  39  60  90 126 164 206 262 325 388
#     4  10  20  44  65  95 130 171 221 267 329 386
#     4  11  27  40  62  96 136 179 215 275 326 383
#     4  11  24  43  68  95 131 176 225 265 321 383
#     4  10  21  40  68  98 126 168 218 274 321 394
#     4  12  25  40  62  88 136 162 228 264 333 366
#     4  11  23  41  71  97 129 168 222 266 330 387
#
# _framework density 22.364549
#
# number of rings (size 3 to 8) (size 9 to 14) (size 15 to 20)
#    0.000    1.429    1.429    3.000    6.000    1.143 
#    0.000    2.857    0.000    0.000    0.000    0.000 
#    0.000    0.000    0.000    0.000    0.000    0.000 
#
# Total GULP energy -346948.396361 kJ/mol
# GULP energy per Si atom -12391.014156 kJ/mol
# Density = 2.231365 g / cm^3
# Si number density = 22.364549 Si / 1000 Ang^3
#
#
#
# Elastic Constant Matrix: (Units=GPa)
#
#
# Indices 1 2 3 4 5 6 
#
# 1 106.3625 51.1057 22.1501 0.0000 0.8306 0.0000
# 2 51.1057 146.3060 2.2765 0.0000 -7.7630 0.0000
# 3 22.1501 2.2765 62.3198 0.0000 -4.6660 0.0000
# 4 0.0000 0.0000 0.0000 26.7893 0.0000 -5.9470
# 5 0.8306 -7.7630 -4.6660 0.0000 29.8063 0.0000
# 6 0.0000 0.0000 0.0000 -5.9470 0.0000 32.6313
#
#
#
# Elastic Compliance Matrix: (Units=1/GPa)
#
#
# Indices 1 2 3 4 5 6 
#
# 1 0.012454 -0.004397 -0.004430 0.000000 -0.002186 0.000000
# 2 -0.004397 0.008484 0.001445 0.000000 0.002558 0.000000
# 3 -0.004430 0.001445 0.017814 0.000000 0.003288 0.000000
# 4 0.000000 0.000000 0.000000 0.038902 0.000000 0.007090
# 5 -0.002186 0.002558 0.003288 0.000000 0.034792 0.000000
# 6 0.000000 0.000000 0.000000 0.007090 0.000000 0.031938
#
#
# Mechanical properties :
#
#
# Convention : Reuss Voigt Hill
#
# Bulk Modulus (GPa) = 41.68785 51.78365 46.73575
# Shear Modulus (GPa) = 29.91412 33.80910 31.86161
#
# Velocity S-wave (km/s) = 3.66125 3.89231 3.77855
# Velocity P-wave (km/s) = 6.04596 6.58823 6.32291
#
# Compressibility (1/GPa) = 0.02398780
#
# Stress axis : x y z
#
# Youngs Moduli (GPa) = 80.29401 117.86480 56.13539
#
# Poissons Ratio (x) = 0.51830 0.24866
# Poissons Ratio (y) = 0.35308 -0.08109
# Poissons Ratio (z) = 0.35567 -0.17026
#
# Static dielectric constant tensor:
#      x y z
#    x 3.795680 0.000000 0.216600 
#    y 0.000000 4.247790 0.000000 
#    z 0.216600 0.000000 3.811770 
# 
# 
# High freq. dielectric constant tensor:
#      x y z
#    x 1.893630 0.000000 0.005450 
#    y 0.000000 1.890000 0.000000 
#    z 0.005450 0.000000 1.863420 
# 
# From -- ./inp_files/11590.got.cif
#   From: 2010.06.25/outbox.cif.g09.slc.cpg/sg15_6_cif.got.tgz:11590.got - 2010.06.28 07:06:18.
