data_PCOD8140134
_publ_section_title
;
Structure prediction by ZEFSAII (Michael W. Deem and Ramdas Pophale) SiO2 
 PCOD8140134
Probable space group: C 2/C
;
_chemical_formula_sum "Si O2"
_cell_formula_units_Z 64
_cell_length_a 29.125174
_cell_length_b 12.069194
_cell_length_c 14.317608
_cell_angle_alpha 90.000000
_cell_angle_beta 38.623696
_cell_angle_gamma 90.000000
_cell_volume 3141.542567
_symmetry_space_group_name_H-M "C 2/C"
_symmetry_group_IT_number 15
_symmetry_cell_setting 'monoclinic'
loop_
_space_group_symop_operation_xyz
x,y,z
-x,y,1/2-z
-x,-y,-z
x,-y,1/2+z
1/2+x,1/2+y,z
1/2-x,1/2+y,1/2-z
1/2-x,1/2-y,-z
1/2+x,1/2-y,1/2+z
loop_
_atom_site_type_symbol
_atom_site_label
_atom_site_fract_x
_atom_site_fract_y
_atom_site_fract_z
Si Si1 0.939308 0.093433 0.089067
Si Si2 0.941693 0.266259 0.603777
Si Si3 0.469021 0.882924 0.896795
Si Si4 0.215329 0.285083 0.917778
Si Si5 0.684927 0.667446 0.575636
Si Si6 0.067037 0.365013 0.079544
Si Si7 0.352042 0.297754 0.577271
Si Si8 0.804631 0.084867 0.428922
O O1 0.891893 0.097648 0.067015
O O2 0.887681 0.083612 0.260570
O O3 0.980434 0.208326 0.031493
O O4 0.000000 0.000000 0.000000
O O5 0.879952 0.185502 0.745925
O O6 0.916756 0.298765 0.540682
O O7 0.963616 0.369578 0.635844
O O8 0.500000 0.837647 0.750000
O O9 0.447690 0.009958 0.926086
O O10 0.395592 0.813570 0.036231
O O11 0.268095 0.285044 0.744226
O O12 0.251033 0.353993 0.943828
O O13 0.141003 0.352679 0.020082
O O14 0.198951 0.156231 0.969856
O O15 0.750000 0.750000 0.500000
O O16 0.649364 0.687054 0.531129
O O17 0.718607 0.543388 0.521880
O O18 0.000000 0.319275 0.250000
#
# Coordination Sequence:
#
# PCOD8140134 Si02
#       8
#     8   8   8   8   8   8   8   8
#     4  10  20  40  67  93 125 166 210 271 335 390
#     4  11  22  40  64  95 132 161 217 270 325 390
#     4  10  21  40  66  91 131 167 213 267 329 390
#     4  10  23  44  65  90 131 171 220 263 332 391
#     4  12  25  39  63  97 132 170 221 267 329 388
#     4  11  24  40  65  97 127 173 221 269 321 392
#     4  10  23  40  62  95 128 173 213 268 336 393
#     4  10  23  44  66  93 127 174 213 273 328 397
#
# _framework density 20.372157000000001
#
# number of rings (size 3 to 8) (size 9 to 14) (size 15 to 20)
#    0.000    1.500    2.500    1.875    1.750    4.000 
#    2.250    1.250    0.000    0.000    0.000    0.000 
#    0.000    0.000    0.000    0.000    0.000    0.000 
#
# Total GULP energy -396674.731133 kJ/mol
# GULP energy per Si atom -12396.085348 kJ/mol
# Density = 2.032579 g / cm^3
# Si number density = 20.372157 Si / 1000 Ang^3
#
#
#
# Elastic Constant Matrix: (Units=GPa)
#
#
# Indices 1 2 3 4 5 6 
#
# 1 70.4087 32.3270 40.5328 0.0000 1.3958 0.0000
# 2 32.3270 112.3208 30.7935 0.0000 -1.9613 0.0000
# 3 40.5328 30.7935 107.5752 0.0000 -5.9986 0.0000
# 4 0.0000 0.0000 0.0000 31.7854 0.0000 -6.7851
# 5 1.3958 -1.9613 -5.9986 0.0000 36.9931 0.0000
# 6 0.0000 0.0000 0.0000 -6.7851 0.0000 30.6309
#
#
#
# Elastic Compliance Matrix: (Units=1/GPa)
#
#
# Indices 1 2 3 4 5 6 
#
# 1 0.019758 -0.003961 -0.006422 0.000000 -0.001997 0.000000
# 2 -0.003961 0.010455 -0.001475 0.000000 0.000465 0.000000
# 3 -0.006422 -0.001475 0.012258 0.000000 0.002152 0.000000
# 4 0.000000 0.000000 0.000000 0.033022 0.000000 0.007315
# 5 -0.001997 0.000465 0.002152 0.000000 0.027481 0.000000
# 6 0.000000 0.000000 0.000000 0.007315 0.000000 0.034267
#
#
# Mechanical properties :
#
#
# Convention : Reuss Voigt Hill
#
# Bulk Modulus (GPa) = 53.31589 55.29014 54.30302
# Shear Modulus (GPa) = 29.90278 32.32529 31.11404
#
# Velocity S-wave (km/s) = 3.83538 3.98771 3.91229
# Velocity P-wave (km/s) = 6.77062 6.95711 6.86450
#
# Compressibility (1/GPa) = 0.01875614
#
# Stress axis : x y z
#
# Youngs Moduli (GPa) = 50.61251 95.64439 81.58155
#
# Poissons Ratio (x) = 0.37882 0.52393
# Poissons Ratio (y) = 0.20046 0.12030
# Poissons Ratio (z) = 0.32504 0.14104
#
# Static dielectric constant tensor:
#      x y z
#    x 3.856090 0.000000 -0.030210 
#    y 0.000000 3.711540 0.000000 
#    z -0.030210 0.000000 4.114010 
# 
# 
# High freq. dielectric constant tensor:
#      x y z
#    x 1.800790 0.000000 -0.003760 
#    y 0.000000 1.790130 0.000000 
#    z -0.003760 0.000000 1.806740 
# 
# From -- ./inp_files/177828.got.cif
#   From: 2010.06.25/outbox.cif.g09.slc.cpg/sg15_89_cif.got.tgz:177828.got - 2010.06.28 07:06:18.
