data_PCOD8140426
_publ_section_title
;
Structure prediction by ZEFSAII (Michael W. Deem and Ramdas Pophale) SiO2 
 PCOD8140426
Probable space group: C 2/C
;
_chemical_formula_sum "Si O2"
_cell_formula_units_Z 56
_cell_length_a 16.897787
_cell_length_b 17.567162
_cell_length_c 8.833025
_cell_angle_alpha 90.000000
_cell_angle_beta 110.538608
_cell_angle_gamma 90.000000
_cell_volume 2455.381593
_symmetry_space_group_name_H-M "C 2/C"
_symmetry_group_IT_number 15
_symmetry_cell_setting 'monoclinic'
loop_
_space_group_symop_operation_xyz
x,y,z
-x,y,1/2-z
-x,-y,-z
x,-y,1/2+z
1/2+x,1/2+y,z
1/2-x,1/2+y,1/2-z
1/2-x,1/2-y,-z
1/2+x,1/2-y,1/2+z
loop_
_atom_site_type_symbol
_atom_site_label
_atom_site_fract_x
_atom_site_fract_y
_atom_site_fract_z
Si Si1 0.960317 0.369726 0.942781
Si Si2 0.593251 0.702483 0.555631
Si Si3 0.269222 0.180351 0.801813
Si Si4 0.866900 0.412029 0.580994
Si Si5 0.822232 0.164395 0.203797
Si Si6 0.973580 0.076740 0.403644
Si Si7 0.826559 0.416772 0.062183
O O1 0.958495 0.278655 0.943086
O O2 0.898164 0.398466 0.770231
O O3 0.053785 0.404128 0.982574
O O4 0.923012 0.398275 0.077966
O O5 0.668141 0.686104 0.724365
O O6 0.630016 0.699500 0.410003
O O7 0.523628 0.638862 0.532655
O O8 0.306789 0.263517 0.799299
O O9 0.306308 0.115695 0.713698
O O10 0.297398 0.151610 0.986929
O O11 0.818098 0.492431 0.546652
O O12 0.875047 0.101128 0.333705
O O13 0.735217 0.124669 0.098706
O O14 0.000000 0.071115 0.250000
O O15 0.000000 0.000000 0.500000
#
# Coordination Sequence:
#
# PCOD8140426 Si02
#       7
#     8   8   8   8   8   8   8
#     4  11  22  44  58  89 133 164 205 252 317 382
#     4  10  20  41  68  85 125 165 208 259 302 376
#     4  11  21  41  66  96 118 163 221 252 309 375
#     4  11  26  36  60  96 130 161 202 261 325 371
#     4  10  20  41  69  92 120 167 220 251 304 376
#     4  10  23  42  62  94 124 161 209 259 313 365
#     4  11  21  41  65  89 125 167 210 260 306 375
#
# _framework density 22.807046
#
# number of rings (size 3 to 8) (size 9 to 14) (size 15 to 20)
#    0.000    1.429    2.857    3.000    2.000    2.286 
#    7.714    0.000    0.000    0.000    0.000    0.000 
#    0.000    0.000    0.000    0.000    0.000    0.000 
#
# Total GULP energy -347129.660727 kJ/mol
# GULP energy per Si atom -12397.487883 kJ/mol
# Density = 2.275514 g / cm^3
# Si number density = 22.807046 Si / 1000 Ang^3
#
#
#
# Elastic Constant Matrix: (Units=GPa)
#
#
# Indices 1 2 3 4 5 6 
#
# 1 56.6312 12.6632 0.2357 0.0000 7.2959 0.0000
# 2 12.6632 163.4476 25.2505 0.0000 12.1870 0.0000
# 3 0.2357 25.2505 38.3758 0.0000 27.8218 0.0000
# 4 0.0000 0.0000 0.0000 32.8492 0.0000 9.3678
# 5 7.2959 12.1870 27.8218 0.0000 26.4933 0.0000
# 6 0.0000 0.0000 0.0000 9.3678 0.0000 30.2888
#
#
#
# Elastic Compliance Matrix: (Units=1/GPa)
#
#
# Indices 1 2 3 4 5 6 
#
# 1 0.021773 -0.002998 0.021730 0.000000 -0.027436 0.000000
# 2 -0.002998 0.007510 -0.012641 0.000000 0.010646 0.000000
# 3 0.021730 -0.012641 0.143989 0.000000 -0.151379 0.000000
# 4 0.000000 0.000000 0.000000 0.033387 0.000000 -0.010326
# 5 -0.027436 0.010646 -0.151379 0.000000 0.199374 0.000000
# 6 0.000000 0.000000 0.000000 -0.010326 0.000000 0.036209
#
#
# Mechanical properties :
#
#
# Convention : Reuss Voigt Hill
#
# Bulk Modulus (GPa) = 5.39219 37.19482 21.29350
# Shear Modulus (GPa) = 10.16513 32.61328 21.38920
#
# Velocity S-wave (km/s) = 2.11345 3.78559 3.06573
# Velocity P-wave (km/s) = 2.88530 5.95411 4.67849
#
# Compressibility (1/GPa) = 0.18545349
#
# Stress axis : x y z
#
# Youngs Moduli (GPa) = 45.92890 133.16465 6.94496
#
# Poissons Ratio (x) = 0.39924 -0.15091
# Poissons Ratio (y) = 0.13770 0.08779
# Poissons Ratio (z) = -0.99803 1.68331
#
# Static dielectric constant tensor:
#      x y z
#    x 4.197280 0.000000 0.235820 
#    y 0.000000 4.324820 0.000000 
#    z 0.235820 0.000000 4.169680 
# 
# 
# High freq. dielectric constant tensor:
#      x y z
#    x 1.894010 0.000000 0.015850 
#    y 0.000000 1.911520 0.000000 
#    z 0.015850 0.000000 1.893990 
# 
# From -- ./inp_files/49140.got.cif
#   From: 2010.06.25/outbox.cif.g09.slc.cpg/sg15_25_cif.got.tgz:49140.got - 2010.06.28 07:06:18.
