data_PCOD8140340
_publ_section_title
;
Structure prediction by ZEFSAII (Michael W. Deem and Ramdas Pophale) SiO2 
 PCOD8140340
Probable space group: C 2/C
;
_chemical_formula_sum "Si O2"
_cell_formula_units_Z 64
_cell_length_a 8.230848
_cell_length_b 13.463946
_cell_length_c 25.944834
_cell_angle_alpha 90.000000
_cell_angle_beta 87.739931
_cell_angle_gamma 90.000000
_cell_volume 2872.961984
_symmetry_space_group_name_H-M "C 2/C"
_symmetry_group_IT_number 15
_symmetry_cell_setting 'monoclinic'
loop_
_space_group_symop_operation_xyz
x,y,z
-x,y,1/2-z
-x,-y,-z
x,-y,1/2+z
1/2+x,1/2+y,z
1/2-x,1/2+y,1/2-z
1/2-x,1/2-y,-z
1/2+x,1/2-y,1/2+z
loop_
_atom_site_type_symbol
_atom_site_label
_atom_site_fract_x
_atom_site_fract_y
_atom_site_fract_z
Si Si1 0.136089 0.420358 0.510564
Si Si2 0.653093 0.504729 0.399140
Si Si3 0.126311 0.412700 0.679269
Si Si4 0.329605 0.405401 0.405607
Si Si5 0.793888 0.299152 0.361310
Si Si6 0.481134 0.793929 0.592502
Si Si7 0.586934 0.101951 0.821293
Si Si8 0.323800 0.725245 0.749422
O O1 0.271180 0.457989 0.548490
O O2 0.225656 0.387237 0.457946
O O3 0.039948 0.325901 0.535206
O O4 0.000000 0.500000 0.500000
O O5 0.695161 0.574813 0.349512
O O6 0.460378 0.494027 0.410566
O O7 0.738364 0.404991 0.381323
O O8 0.011337 0.377411 0.634478
O O9 0.154872 0.334914 0.725085
O O10 0.036388 0.515959 0.698556
O O11 0.421977 0.304053 0.389959
O O12 0.214741 0.440414 0.360608
O O13 0.715991 0.224930 0.405281
O O14 0.715590 0.259547 0.309424
O O15 0.987792 0.308439 0.351735
O O16 0.684394 0.153834 0.773621
O O17 0.500000 0.671162 0.750000
#
# Coordination Sequence:
#
# PCOD8140340 Si02
#       8
#     8   8   8   8   8   8   8   8
#     4  11  22  39  63  99 136 178 233 284 349 424
#     4   9  21  40  66  95 134 178 223 285 348 411
#     4  10  21  42  65  96 133 173 224 286 343 419
#     4  11  20  41  66  96 134 184 226 283 350 417
#     4  10  21  41  64  91 131 174 224 284 346 411
#     4  10  20  41  64  93 131 175 221 280 345 406
#     4  11  24  43  67  98 134 182 227 288 353 418
#     4  12  22  42  69  95 134 180 229 283 354 419
#
# _framework density 22.276661000000001
#
# number of rings (size 3 to 8) (size 9 to 14) (size 15 to 20)
#    0.000    1.500    2.500    4.125    0.000    2.000 
#    4.500    6.875    0.000    0.000    0.000    0.000 
#    0.000    0.000    0.000    0.000    0.000    0.000 
#
# Total GULP energy -396432.732161 kJ/mol
# GULP energy per Si atom -12388.522880 kJ/mol
# Density = 2.222596 g / cm^3
# Si number density = 22.276661 Si / 1000 Ang^3
#
#
#
# Elastic Constant Matrix: (Units=GPa)
#
#
# Indices 1 2 3 4 5 6 
#
# 1 92.3204 14.3524 2.5164 0.0000 -29.4351 0.0000
# 2 14.3524 65.6336 8.1046 0.0000 -16.8441 0.0000
# 3 2.5164 8.1046 59.7090 0.0000 -27.6522 0.0000
# 4 0.0000 0.0000 0.0000 38.2917 0.0000 -3.3108
# 5 -29.4351 -16.8441 -27.6522 0.0000 40.9015 0.0000
# 6 0.0000 0.0000 0.0000 -3.3108 0.0000 40.5039
#
#
#
# Elastic Compliance Matrix: (Units=1/GPa)
#
#
# Indices 1 2 3 4 5 6 
#
# 1 0.015685 -0.000225 0.006630 0.000000 0.015677 0.000000
# 2 -0.000225 0.017117 0.001275 0.000000 0.007749 0.000000
# 3 0.006630 0.001275 0.027294 0.000000 0.023749 0.000000
# 4 0.000000 0.000000 0.000000 0.026301 0.000000 0.002150
# 5 0.015677 0.007749 0.023749 0.000000 0.054978 0.000000
# 6 0.000000 0.000000 0.000000 0.002150 0.000000 0.024865
#
#
# Mechanical properties :
#
#
# Convention : Reuss Voigt Hill
#
# Bulk Modulus (GPa) = 13.25317 29.73443 21.49380
# Shear Modulus (GPa) = 28.40405 36.78538 32.59471
#
# Velocity S-wave (km/s) = 3.57467 4.06802 3.82930
# Velocity P-wave (km/s) = 4.79583 5.95331 5.40564
#
# Compressibility (1/GPa) = 0.07545364
#
# Stress axis : x y z
#
# Youngs Moduli (GPa) = 63.75706 58.42299 36.63827
#
# Poissons Ratio (x) = 0.01316 -0.24291
# Poissons Ratio (y) = 0.01436 -0.04670
# Poissons Ratio (z) = -0.42270 -0.07447
#
# Static dielectric constant tensor:
#      x y z
#    x 4.543960 0.000000 -0.568210 
#    y 0.000000 4.083430 0.000000 
#    z -0.568210 0.000000 4.152320 
# 
# 
# High freq. dielectric constant tensor:
#      x y z
#    x 1.879640 0.000000 -0.029580 
#    y 0.000000 1.864970 0.000000 
#    z -0.029580 0.000000 1.884560 
# 
# From -- ./inp_files/288758.got.cif
#   From: 2010.06.25/outbox.cif.g09.slc.cpg/sg15_145_cif.got.tgz:288758.got - 2010.06.28 07:06:18.
