data_PCOD8140648
_publ_section_title
;
Structure prediction by ZEFSAII (Michael W. Deem and Ramdas Pophale) SiO2 
 PCOD8140648
Probable space group: C 2/C
;
_chemical_formula_sum "Si O2"
_cell_formula_units_Z 56
_cell_length_a 18.025011
_cell_length_b 13.965301
_cell_length_c 21.711374
_cell_angle_alpha 90.000000
_cell_angle_beta 26.193851
_cell_angle_gamma 90.000000
_cell_volume 2412.430879
_symmetry_space_group_name_H-M "C 2/C"
_symmetry_group_IT_number 15
_symmetry_cell_setting 'monoclinic'
loop_
_space_group_symop_operation_xyz
x,y,z
-x,y,1/2-z
-x,-y,-z
x,-y,1/2+z
1/2+x,1/2+y,z
1/2-x,1/2+y,1/2-z
1/2-x,1/2-y,-z
1/2+x,1/2-y,1/2+z
loop_
_atom_site_type_symbol
_atom_site_label
_atom_site_fract_x
_atom_site_fract_y
_atom_site_fract_z
Si Si1 0.191003 0.885991 0.878623
Si Si2 0.500000 0.323403 0.750000
Si Si3 0.711239 0.069767 0.533405
Si Si4 0.708479 0.168701 0.884988
Si Si5 0.939129 0.379068 0.885433
Si Si6 0.500000 0.275886 0.250000
Si Si7 0.138120 0.349329 0.215888
Si Si8 0.837698 0.065961 0.676432
O O1 0.191563 0.771928 0.864038
O O2 0.371119 0.913094 0.774814
O O3 0.173844 0.952864 0.830576
O O4 0.034374 0.908354 0.040562
O O5 0.616297 0.389344 0.621389
O O6 0.378014 0.259484 0.797113
O O7 0.548894 0.120364 0.623283
O O8 0.707481 0.084071 0.609401
O O9 0.700380 0.958022 0.525604
O O10 0.867931 0.160354 0.811652
O O11 0.730068 0.086538 0.817767
O O12 0.553639 0.146039 0.046380
O O13 0.894128 0.287721 0.877598
O O14 0.268182 0.363724 0.174482
#
# Coordination Sequence:
#
# PCOD8140648 Si02
#       8
#     8   4   8   8   8   4   8   8
#     4  10  23  45  66  96 133 183 226 273 341 415
#     4  10  22  40  62 102 140 166 232 285 337 394
#     4  10  21  40  63  99 129 176 227 277 335 405
#     4  11  25  44  69 104 135 174 231 293 338 398
#     4  11  22  42  70  98 132 178 228 289 337 400
#     4  10  22  44  70  94 132 182 224 281 339 410
#     4  10  20  42  68  90 131 184 223 271 338 425
#     4  11  24  45  69  99 136 181 229 273 349 419
#
# _framework density 23.213101000000002
#
# number of rings (size 3 to 8) (size 9 to 14) (size 15 to 20)
#    0.000    1.714    1.429    4.714    2.000    4.571 
#   10.286    0.000    0.000    0.000    0.000    0.000 
#    0.000    0.000    0.000    0.000    0.000    0.000 
#
# Total GULP energy -347056.103633 kJ/mol
# GULP energy per Si atom -12394.860844 kJ/mol
# Density = 2.316027 g / cm^3
# Si number density = 23.213101 Si / 1000 Ang^3
#
#
#
# Elastic Constant Matrix: (Units=GPa)
#
#
# Indices 1 2 3 4 5 6 
#
# 1 90.8235 21.6487 42.3223 0.0163 7.1525 -0.0004
# 2 21.6487 55.3629 34.0740 0.0202 12.1308 0.0122
# 3 42.3223 34.0740 122.4328 0.0127 16.7909 0.0069
# 4 0.0163 0.0202 0.0127 31.1051 0.0158 5.6320
# 5 7.1525 12.1308 16.7909 0.0158 41.4041 -0.0174
# 6 -0.0004 0.0122 0.0069 5.6320 -0.0174 24.2803
#
#
#
# Elastic Compliance Matrix: (Units=1/GPa)
#
#
# Indices 1 2 3 4 5 6 
#
# 1 0.013501 -0.002919 -0.003867 -0.000004 0.000091 0.000004
# 2 -0.002919 0.023125 -0.004836 -0.000007 -0.004310 -0.000012
# 3 -0.003867 -0.004836 0.011187 0.000002 -0.002452 -0.000003
# 4 -0.000004 -0.000007 0.000002 0.033559 -0.000014 -0.007784
# 5 0.000091 -0.004310 -0.002452 -0.000014 0.026393 0.000025
# 6 0.000004 -0.000012 -0.000003 -0.007784 0.000025 0.042991
#
#
# Mechanical properties :
#
#
# Convention : Reuss Voigt Hill
#
# Bulk Modulus (GPa) = 40.70272 51.63433 46.16853
# Shear Modulus (GPa) = 27.44406 30.72950 29.08678
#
# Velocity S-wave (km/s) = 3.44214 3.64235 3.54366
# Velocity P-wave (km/s) = 5.77670 6.32304 6.05603
#
# Compressibility (1/GPa) = 0.02456838
#
# Stress axis : x y z
#
# Youngs Moduli (GPa) = 74.06851 43.24390 89.39325
#
# Poissons Ratio (x) = 0.12624 0.34569
# Poissons Ratio (y) = 0.21623 0.43227
# Poissons Ratio (z) = 0.28643 0.20911
#
# Static dielectric constant tensor:
#      x y z
#    x 3.905050 -0.000030 -0.044040 
#    y -0.000030 4.124680 0.000110 
#    z -0.044040 0.000110 4.343470 
# 
# 
# High freq. dielectric constant tensor:
#      x y z
#    x 1.890280 0.000000 -0.003290 
#    y 0.000000 1.915370 0.000010 
#    z -0.003290 0.000010 1.925230 
# 
# From -- ./inp_files/249256.got.cif
#   From: 2010.06.25/outbox.cif.g09.slc.cpg/sg15_125_cif.got.tgz:249256.got - 2010.06.28 07:06:18.
