data_PCOD8140219
_publ_section_title
;
Structure prediction by ZEFSAII (Michael W. Deem and Ramdas Pophale) SiO2 
 PCOD8140219
Probable space group: C 2/C
;
_chemical_formula_sum "Si O2"
_cell_formula_units_Z 44
_cell_length_a 23.529337
_cell_length_b 8.309579
_cell_length_c 15.105607
_cell_angle_alpha 90.000000
_cell_angle_beta 136.792254
_cell_angle_gamma 90.000000
_cell_volume 2022.053986
_symmetry_space_group_name_H-M "C 2/C"
_symmetry_group_IT_number 15
_symmetry_cell_setting 'monoclinic'
loop_
_space_group_symop_operation_xyz
x,y,z
-x,y,1/2-z
-x,-y,-z
x,-y,1/2+z
1/2+x,1/2+y,z
1/2-x,1/2+y,1/2-z
1/2-x,1/2-y,-z
1/2+x,1/2-y,1/2+z
loop_
_atom_site_type_symbol
_atom_site_label
_atom_site_fract_x
_atom_site_fract_y
_atom_site_fract_z
Si Si1 0.242304 0.628391 0.672887
Si Si2 0.639973 0.473770 0.837594
Si Si3 0.259481 0.494916 0.873043
Si Si4 0.075258 0.483752 0.926757
Si Si5 0.594214 0.119160 0.757065
Si Si6 0.500000 0.690222 0.750000
O O1 0.298780 0.564080 0.658501
O O2 0.284084 0.605674 0.816495
O O3 0.156373 0.525254 0.580187
O O4 0.221201 0.812071 0.629277
O O5 0.613163 0.306271 0.762818
O O6 0.558422 0.579897 0.756425
O O7 0.684880 0.444334 0.982408
O O8 0.162483 0.511890 0.785480
O O9 0.097282 0.584327 0.864504
O O10 0.996697 0.570570 0.885219
O O11 0.053091 0.300521 0.876131
#
# Coordination Sequence:
#
# PCOD8140219 Si02
#       6
#     8   8   8   8   8   4
#     4  12  25  43  68  96 133 171 222 266 324 386
#     4  12  23  44  70  96 131 171 218 272 319 395
#     4  12  25  42  68  98 131 175 215 270 323 387
#     4  10  21  41  67  95 130 174 212 266 326 386
#     4  10  22  40  67  97 128 170 214 260 331 377
#     4  10  20  40  70  92 126 174 218 262 330 376
#
# _framework density 21.760052999999999
#
# number of rings (size 3 to 8) (size 9 to 14) (size 15 to 20)
#    0.000    1.091    3.636    5.455    2.545    0.727 
#    0.000    0.909    0.000    0.000    0.000    0.000 
#    0.000    0.000    0.000    0.000    0.000    0.000 
#
# Total GULP energy -272848.184067 kJ/mol
# GULP energy per Si atom -12402.190185 kJ/mol
# Density = 2.171053 g / cm^3
# Si number density = 21.760053 Si / 1000 Ang^3
#
#
#
# Elastic Constant Matrix: (Units=GPa)
#
#
# Indices 1 2 3 4 5 6 
#
# 1 62.9607 12.4391 29.4910 0.0000 11.2352 0.0000
# 2 12.4391 82.1743 -3.3932 0.0000 14.4163 0.0000
# 3 29.4910 -3.3932 37.4200 0.0000 -7.9778 0.0000
# 4 0.0000 0.0000 0.0000 333.3548 0.0000 170.5743
# 5 11.2352 14.4163 -7.9778 0.0000 29.2841 0.0000
# 6 0.0000 0.0000 0.0000 170.5743 0.0000 121.9790
#
#
#
# Elastic Compliance Matrix: (Units=1/GPa)
#
#
# Indices 1 2 3 4 5 6 
#
# 1 0.035665 -0.003048 -0.032892 0.000000 -0.021143 0.000000
# 2 -0.003048 0.013581 0.002609 0.000000 -0.004806 0.000000
# 3 -0.032892 0.002609 0.058709 0.000000 0.027329 0.000000
# 4 0.000000 0.000000 0.000000 0.010546 0.000000 -0.014747
# 5 -0.021143 -0.004806 0.027329 0.000000 0.052071 0.000000
# 6 0.000000 0.000000 0.000000 -0.014747 0.000000 0.028820
#
#
# Mechanical properties :
#
#
# Convention : Reuss Voigt Hill
#
# Bulk Modulus (GPa) = 24.21661 28.84765 26.53213
# Shear Modulus (GPa) = 17.86877 106.52479 62.19678
#
# Velocity S-wave (km/s) = 2.86872 7.00432 5.35211
# Velocity P-wave (km/s) = 4.70381 8.87130 7.10021
#
# Compressibility (1/GPa) = 0.04129397
#
# Stress axis : x y z
#
# Youngs Moduli (GPa) = 28.03899 73.62972 17.03320
#
# Poissons Ratio (x) = 0.22440 0.56025
# Poissons Ratio (y) = 0.08545 -0.04444
# Poissons Ratio (z) = 0.92225 -0.19208
#
# Static dielectric constant tensor:
#      x y z
#    x 4.059410 0.000000 0.185860 
#    y 0.000000 3.904050 0.000000 
#    z 0.185860 0.000000 3.831240 
# 
# 
# High freq. dielectric constant tensor:
#      x y z
#    x 1.863680 0.000000 0.013390 
#    y 0.000000 1.863490 0.000000 
#    z 0.013390 0.000000 1.838190 
# 
# From -- ./inp_files/172089.got.cif
#   From: 2010.06.25/outbox.cif.g09.slc.cpg/sg15_87_cif.got.tgz:172089.got - 2010.06.28 07:06:18.
