data_PCOD8140896
_publ_section_title
;
Structure prediction by ZEFSAII (Michael W. Deem and Ramdas Pophale) SiO2 
 PCOD8140896
Probable space group: C 2/C
;
_chemical_formula_sum "Si O2"
_cell_formula_units_Z 56
_cell_length_a 9.387616
_cell_length_b 25.963342
_cell_length_c 10.656953
_cell_angle_alpha 90.000000
_cell_angle_beta 106.821698
_cell_angle_gamma 90.000000
_cell_volume 2486.315145
_symmetry_space_group_name_H-M "C 2/C"
_symmetry_group_IT_number 15
_symmetry_cell_setting 'monoclinic'
loop_
_space_group_symop_operation_xyz
x,y,z
-x,y,1/2-z
-x,-y,-z
x,-y,1/2+z
1/2+x,1/2+y,z
1/2-x,1/2+y,1/2-z
1/2-x,1/2-y,-z
1/2+x,1/2-y,1/2+z
loop_
_atom_site_type_symbol
_atom_site_label
_atom_site_fract_x
_atom_site_fract_y
_atom_site_fract_z
Si Si1 0.244238 0.427558 0.491952
Si Si2 0.541993 0.973184 0.137694
Si Si3 0.281121 0.362207 0.735035
Si Si4 0.500000 0.191392 0.250000
Si Si5 0.471388 0.377662 0.012344
Si Si6 0.142920 0.029346 0.865355
Si Si7 0.420109 0.259825 0.007790
Si Si8 0.000000 0.778640 0.750000
O O1 0.222007 0.405529 0.626528
O O2 0.354584 0.392576 0.438984
O O3 0.315631 0.485096 0.523086
O O4 0.080255 0.426379 0.385239
O O5 0.500000 0.007518 0.250000
O O6 0.715463 0.959248 0.188826
O O7 0.500000 0.000000 0.000000
O O8 0.355680 0.313893 0.680537
O O9 0.147328 0.343608 0.791136
O O10 0.409183 0.386131 0.856124
O O11 0.515918 0.224467 0.125920
O O12 0.382640 0.415341 0.080266
O O13 0.454785 0.318910 0.050531
O O14 0.000000 0.011049 0.750000
O O15 0.250000 0.250000 0.000000
O O16 0.460915 0.247409 0.870160
#
# Coordination Sequence:
#
# PCOD8140896 Si02
#       8
#     8   8   8   4   8   8   8   4
#     4  11  22  42  70 100 139 186 237 290 338 425
#     4  10  24  43  64  98 141 182 233 286 345 409
#     4  11  22  42  70 102 134 188 241 286 349 437
#     4  12  26  42  74 105 137 178 244 294 374 420
#     4  11  22  41  68  96 139 183 239 284 351 425
#     4  11  24  40  66 100 140 185 232 286 354 411
#     4  11  23  45  70 105 140 180 236 306 355 429
#     4  10  20  46  72  99 143 178 240 286 356 430
#
# _framework density 22.523291
#
# number of rings (size 3 to 8) (size 9 to 14) (size 15 to 20)
#    0.000    1.143    5.714    2.143    3.000    6.286 
#    1.286    0.000    3.143    0.000    0.000    0.000 
#    0.000    0.000    0.000    0.000    0.000    0.000 
#
# Total GULP energy -346949.037857 kJ/mol
# GULP energy per Si atom -12391.037066 kJ/mol
# Density = 2.247203 g / cm^3
# Si number density = 22.523291 Si / 1000 Ang^3
#
#
#
# Elastic Constant Matrix: (Units=GPa)
#
#
# Indices 1 2 3 4 5 6 
#
# 1 189.3407 36.8911 46.4321 0.0000 1.5152 0.0000
# 2 36.8911 76.3925 10.1755 0.0000 -6.4782 0.0000
# 3 46.4321 10.1755 96.1993 0.0000 -11.7653 0.0000
# 4 0.0000 0.0000 0.0000 26.9797 0.0000 -7.0136
# 5 1.5152 -6.4782 -11.7653 0.0000 52.4348 0.0000
# 6 0.0000 0.0000 0.0000 -7.0136 0.0000 36.7264
#
#
#
# Elastic Compliance Matrix: (Units=1/GPa)
#
#
# Indices 1 2 3 4 5 6 
#
# 1 0.006596 -0.002886 -0.003029 0.000000 -0.001227 0.000000
# 2 -0.002886 0.014635 0.000078 0.000000 0.001909 0.000000
# 3 -0.003029 0.000078 0.012195 0.000000 0.002834 0.000000
# 4 0.000000 0.000000 0.000000 0.039001 0.000000 0.007448
# 5 -0.001227 0.001909 0.002834 0.000000 0.019978 0.000000
# 6 0.000000 0.000000 0.000000 0.007448 0.000000 0.028651
#
#
# Mechanical properties :
#
#
# Convention : Reuss Voigt Hill
#
# Bulk Modulus (GPa) = 45.96755 60.99221 53.47988
# Shear Modulus (GPa) = 35.71909 41.12375 38.42142
#
# Velocity S-wave (km/s) = 3.98662 4.27761 4.13468
# Velocity P-wave (km/s) = 6.45322 7.17884 6.82568
#
# Compressibility (1/GPa) = 0.02175448
#
# Stress axis : x y z
#
# Youngs Moduli (GPa) = 151.59955 68.32707 82.00007
#
# Poissons Ratio (x) = 0.19720 0.24834
# Poissons Ratio (y) = 0.43753 -0.00643
# Poissons Ratio (z) = 0.45913 -0.00536
#
# Static dielectric constant tensor:
#      x y z
#    x 4.741760 0.000000 -0.011010 
#    y 0.000000 3.928770 0.000000 
#    z -0.011010 0.000000 4.153050 
# 
# 
# High freq. dielectric constant tensor:
#      x y z
#    x 1.915820 0.000000 -0.003730 
#    y 0.000000 1.853800 0.000000 
#    z -0.003730 0.000000 1.887620 
# 
# From -- ./inp_files/82292.got.cif
#   From: 2010.06.25/outbox.cif.g09.slc.cpg/sg15_42_cif.got.tgz:82292.got - 2010.06.28 07:06:18.
