data_PCOD8140910
_publ_section_title
;
Structure prediction by ZEFSAII (Michael W. Deem and Ramdas Pophale) SiO2 
 PCOD8140910
Probable space group: C 2/C
;
_chemical_formula_sum "Si O2"
_cell_formula_units_Z 60
_cell_length_a 20.145450
_cell_length_b 22.015279
_cell_length_c 17.722214
_cell_angle_alpha 90.000000
_cell_angle_beta 153.243515
_cell_angle_gamma 90.000000
_cell_volume 3538.540418
_symmetry_space_group_name_H-M "C 2/C"
_symmetry_group_IT_number 15
_symmetry_cell_setting 'monoclinic'
loop_
_space_group_symop_operation_xyz
x,y,z
-x,y,1/2-z
-x,-y,-z
x,-y,1/2+z
1/2+x,1/2+y,z
1/2-x,1/2+y,1/2-z
1/2-x,1/2-y,-z
1/2+x,1/2-y,1/2+z
loop_
_atom_site_type_symbol
_atom_site_label
_atom_site_fract_x
_atom_site_fract_y
_atom_site_fract_z
Si Si1 0.164685 0.131710 0.759715
Si Si2 0.680064 0.376530 0.616623
Si Si3 0.310908 0.976281 0.489091
Si Si4 0.263688 0.231529 0.117935
Si Si5 0.000000 0.257940 0.750000
Si Si6 0.634628 0.448545 0.706589
Si Si7 0.685831 0.558029 0.644482
Si Si8 0.358363 0.979219 0.712556
O O1 0.212417 0.199029 0.833332
O O2 0.227576 0.116983 0.738585
O O3 0.989793 0.121776 0.580506
O O4 0.225978 0.086123 0.885351
O O5 0.744716 0.308879 0.672898
O O6 0.700026 0.392058 0.725172
O O7 0.771604 0.421818 0.656767
O O8 0.318271 0.987114 0.584982
O O9 0.466730 0.971105 0.603973
O O10 0.227068 0.037032 0.375214
O O11 0.406183 0.204793 0.216849
O O12 0.122118 0.219273 0.920120
O O13 0.649874 0.507129 0.669435
O O14 0.465274 0.433580 0.556528
O O15 0.814346 0.539263 0.716659
#
# Coordination Sequence:
#
# PCOD8140910 Si02
#       8
#     8   8   8   8   4   8   8   8
#     4  10  21  34  49  67  96 130 163 196 231 276
#     4  10  21  34  49  67  96 130 163 196 231 276
#     4  10  21  31  47  72  98 123 156 196 241 283
#     4  11  22  36  48  70  99 132 164 198 231 278
#     4  10  24  34  48  66 104 130 166 198 232 264
#     4   8  16  33  49  66  90 122 159 196 234 281
#     4   8  16  33  49  66  90 122 159 196 234 281
#     4  10  21  31  47  72  98 123 156 196 241 283
#
# _framework density 16.956143999999998
#
# number of rings (size 3 to 8) (size 9 to 14) (size 15 to 20)
#    0.000    2.400    1.333    2.400    5.600    6.933 
#    0.000    0.000    0.000    0.000    0.000    0.933 
#    0.000    0.000    0.000    0.000    0.000    0.000 
#
# Total GULP energy -371649.073121 kJ/mol
# GULP energy per Si atom -12388.302437 kJ/mol
# Density = 1.691755 g / cm^3
# Si number density = 16.956144 Si / 1000 Ang^3
#
#
#
# Elastic Constant Matrix: (Units=GPa)
#
#
# Indices 1 2 3 4 5 6 
#
# 1 64.5827 29.5134 9.6027 0.0000 7.5778 0.0000
# 2 29.5134 69.8667 20.3869 0.0000 -5.5602 0.0000
# 3 9.6027 20.3869 60.0067 0.0000 0.0970 0.0000
# 4 0.0000 0.0000 0.0000 13.2322 0.0000 1.9661
# 5 7.5778 -5.5602 0.0970 0.0000 20.7666 0.0000
# 6 0.0000 0.0000 0.0000 1.9661 0.0000 21.4676
#
#
#
# Elastic Compliance Matrix: (Units=1/GPa)
#
#
# Indices 1 2 3 4 5 6 
#
# 1 0.021156 -0.009742 -0.000059 0.000000 -0.010328 0.000000
# 2 -0.009742 0.020763 -0.005510 0.000000 0.009140 0.000000
# 3 -0.000059 -0.005510 0.018549 0.000000 -0.001540 0.000000
# 4 0.000000 0.000000 0.000000 0.076616 0.000000 -0.007017
# 5 -0.010328 0.009140 -0.001540 0.000000 0.054377 0.000000
# 6 0.000000 0.000000 0.000000 -0.007017 0.000000 0.047224
#
#
# Mechanical properties :
#
#
# Convention : Reuss Voigt Hill
#
# Bulk Modulus (GPa) = 33.50463 34.82913 34.16688
# Shear Modulus (GPa) = 17.90466 20.09015 18.99741
#
# Velocity S-wave (km/s) = 3.25305 3.44587 3.35085
# Velocity P-wave (km/s) = 5.82342 6.03468 5.92999
#
# Compressibility (1/GPa) = 0.02984662
#
# Stress axis : x y z
#
# Youngs Moduli (GPa) = 47.26684 48.16195 53.91194
#
# Poissons Ratio (x) = 0.46918 0.00319
# Poissons Ratio (y) = 0.46046 0.29706
# Poissons Ratio (z) = 0.00280 0.26537
#
# Static dielectric constant tensor:
#      x y z
#    x 3.377460 0.000000 0.087070 
#    y 0.000000 3.141260 0.000000 
#    z 0.087070 0.000000 3.411780 
# 
# 
# High freq. dielectric constant tensor:
#      x y z
#    x 1.650020 0.000000 0.015920 
#    y 0.000000 1.616490 0.000000 
#    z 0.015920 0.000000 1.659920 
# 
# From -- ./inp_files/164398.got.cif
#   From: 2010.06.25/outbox.cif.g09.slc.cpg/sg15_83_cif.got.tgz:164398.got - 2010.06.28 07:06:18.
