data_PCOD8140788
_publ_section_title
;
Structure prediction by ZEFSAII (Michael W. Deem and Ramdas Pophale) SiO2 
 PCOD8140788
Probable space group: C 2/C
;
_chemical_formula_sum "Si O2"
_cell_formula_units_Z 48
_cell_length_a 8.014600
_cell_length_b 20.918511
_cell_length_c 20.056413
_cell_angle_alpha 90.000000
_cell_angle_beta 141.967142
_cell_angle_gamma 90.000000
_cell_volume 2071.698042
_symmetry_space_group_name_H-M "C 2/C"
_symmetry_group_IT_number 15
_symmetry_cell_setting 'monoclinic'
loop_
_space_group_symop_operation_xyz
x,y,z
-x,y,1/2-z
-x,-y,-z
x,-y,1/2+z
1/2+x,1/2+y,z
1/2-x,1/2+y,1/2-z
1/2-x,1/2-y,-z
1/2+x,1/2-y,1/2+z
loop_
_atom_site_type_symbol
_atom_site_label
_atom_site_fract_x
_atom_site_fract_y
_atom_site_fract_z
Si Si1 0.900432 0.158479 0.293004
Si Si2 0.113011 0.625407 0.964978
Si Si3 0.681705 0.196724 0.745292
Si Si4 0.000000 0.570428 0.250000
Si Si5 0.372430 0.401854 0.098599
Si Si6 0.601122 0.014615 0.412133
Si Si7 0.000000 0.006522 0.750000
O O1 0.765488 0.227884 0.244198
O O2 0.680987 0.111302 0.255715
O O3 0.000000 0.135346 0.250000
O O4 0.135563 0.161452 0.422345
O O5 0.192528 0.557505 0.957577
O O6 0.963324 0.671559 0.866323
O O7 0.919381 0.611604 0.964753
O O8 0.500000 0.178917 0.750000
O O9 0.968092 0.164708 0.852903
O O10 0.151932 0.523348 0.349001
O O11 0.541794 0.450407 0.197758
O O12 0.314607 0.434913 0.009904
O O13 0.290435 0.030287 0.341849
#
# Coordination Sequence:
#
# PCOD8140788 Si02
#       7
#     8   8   8   4   8   8   4
#     4  11  28  51  71 106 150 198 252 304 367 433
#     4  11  23  45  77 101 148 193 246 306 372 436
#     4  11  25  46  72 105 148 195 252 310 357 437
#     4  12  30  45  76 110 155 192 242 312 366 450
#     4  11  22  43  74 107 142 197 240 298 375 439
#     4  11  26  42  72 114 142 199 237 306 376 443
#     4  10  20  43  70 104 157 186 234 296 372 444
#
# _framework density 23.169398999999999
#
# number of rings (size 3 to 8) (size 9 to 14) (size 15 to 20)
#    0.000    1.000    3.333    3.500   11.667    0.667 
#    0.000    2.500    0.000    0.000    0.000    0.000 
#    0.000    0.000    0.000    0.000    0.000    0.000 
#
# Total GULP energy -297431.287396 kJ/mol
# GULP energy per Si atom -12392.970308 kJ/mol
# Density = 2.311666 g / cm^3
# Si number density = 23.169399 Si / 1000 Ang^3
#
#
#
# Elastic Constant Matrix: (Units=GPa)
#
#
# Indices 1 2 3 4 5 6 
#
# 1 82.7219 48.4758 23.1926 -0.0004 -23.8852 0.0002
# 2 48.4758 112.2449 41.0668 -0.0004 -4.4490 0.0003
# 3 23.1926 41.0668 108.0432 0.0032 -13.6864 -0.0019
# 4 -0.0004 -0.0004 0.0032 -4.0404 0.0021 29.3272
# 5 -23.8852 -4.4490 -13.6864 0.0021 40.5564 -0.0012
# 6 0.0002 0.0003 -0.0019 29.3272 -0.0012 32.1810
#
#
#
# Elastic Compliance Matrix: (Units=1/GPa)
#
#
# Indices 1 2 3 4 5 6 
#
# 1 0.020070 -0.008323 0.000247 0.000001 0.010990 -0.000001
# 2 -0.008323 0.013801 -0.004062 -0.000001 -0.004758 0.000001
# 3 0.000247 -0.004062 0.011187 0.000002 0.003475 -0.000001
# 4 0.000001 -0.000001 0.000002 -0.032503 0.000004 0.029620
# 5 0.010990 -0.004758 0.003475 0.000004 0.031780 -0.000002
# 6 -0.000001 0.000001 -0.000001 0.029620 -0.000002 0.004081
#
#
# Mechanical properties :
#
#
# Convention : Reuss Voigt Hill
#
# Bulk Modulus (GPa) = 48.11587 58.72005 53.41796
# Shear Modulus (GPa) = 62.80007 26.42439 44.61223
#
# Velocity S-wave (km/s) = 5.21187 3.38077 4.39279
# Velocity P-wave (km/s) = 7.55183 6.37482 6.98815
#
# Compressibility (1/GPa) = 0.02078316
#
# Stress axis : x y z
#
# Youngs Moduli (GPa) = 49.82614 72.45902 89.39271
#
# Poissons Ratio (x) = 0.60304 -0.02211
# Poissons Ratio (y) = 0.41468 0.36311
# Poissons Ratio (z) = -0.01233 0.29432
#
# Static dielectric constant tensor:
#      x y z
#    x 4.295810 0.000000 -0.185420 
#    y 0.000000 4.164340 0.000000 
#    z -0.185420 0.000000 4.352860 
# 
# 
# High freq. dielectric constant tensor:
#      x y z
#    x 1.914190 0.000000 -0.010100 
#    y 0.000000 1.914900 0.000000 
#    z -0.010100 0.000000 1.930020 
# 
# From -- ./inp_files/234022.got.cif
#   From: 2010.06.25/outbox.cif.g09.slc.cpg/sg15_118_cif.got.tgz:234022.got - 2010.06.28 07:06:18.
