data_PCOD8140682
_publ_section_title
;
Structure prediction by ZEFSAII (Michael W. Deem and Ramdas Pophale) SiO2 
 PCOD8140682
Probable space group: C 2/C
;
_chemical_formula_sum "Si O2"
_cell_formula_units_Z 44
_cell_length_a 9.667410
_cell_length_b 19.818883
_cell_length_c 10.566435
_cell_angle_alpha 90.000000
_cell_angle_beta 88.233542
_cell_angle_gamma 90.000000
_cell_volume 2023.537987
_symmetry_space_group_name_H-M "C 2/C"
_symmetry_group_IT_number 15
_symmetry_cell_setting 'monoclinic'
loop_
_space_group_symop_operation_xyz
x,y,z
-x,y,1/2-z
-x,-y,-z
x,-y,1/2+z
1/2+x,1/2+y,z
1/2-x,1/2+y,1/2-z
1/2-x,1/2-y,-z
1/2+x,1/2-y,1/2+z
loop_
_atom_site_type_symbol
_atom_site_label
_atom_site_fract_x
_atom_site_fract_y
_atom_site_fract_z
Si Si1 0.206707 0.675584 0.040687
Si Si2 0.887001 0.012343 0.843746
Si Si3 0.475336 0.606122 0.053655
Si Si4 0.314381 0.301552 0.097580
Si Si5 0.845913 0.399321 0.220767
Si Si6 0.000000 0.711590 0.250000
O O1 0.340630 0.644939 0.112549
O O2 0.070440 0.668956 0.134171
O O3 0.250000 0.750000 0.000000
O O4 0.168558 0.637603 0.912523
O O5 0.738721 0.029852 0.785642
O O6 0.000000 0.047315 0.750000
O O7 0.919482 0.931226 0.850778
O O8 0.901733 0.045897 0.979318
O O9 0.560364 0.658552 0.969110
O O10 0.203961 0.352564 0.161232
O O11 0.373981 0.257640 0.209103
O O12 0.250000 0.250000 0.000000
O O13 0.000000 0.420853 0.250000
#
# Coordination Sequence:
#
# PCOD8140682 Si02
#       6
#     8   8   8   8   8   4
#     4  11  21  39  67  97 141 178 218 280 348 413
#     4  10  20  42  70  87 124 181 233 281 326 397
#     4  10  22  39  66  98 121 173 238 275 326 411
#     4  12  23  37  67  98 139 182 225 275 350 430
#     4  11  23  41  66  98 138 183 228 284 351 404
#     4  12  22  40  62 100 148 182 208 276 358 412
#
# _framework density 21.744095000000002
#
# number of rings (size 3 to 8) (size 9 to 14) (size 15 to 20)
#    0.000    1.091    5.455    2.182    0.000    1.455 
#    0.000    0.909    8.000    0.000    0.000    0.000 
#    0.000    0.000    0.000    0.000    0.000    0.000 
#
# Total GULP energy -272581.505808 kJ/mol
# GULP energy per Si atom -12390.068446 kJ/mol
# Density = 2.169460 g / cm^3
# Si number density = 21.744095 Si / 1000 Ang^3
#
#
#
# Elastic Constant Matrix: (Units=GPa)
#
#
# Indices 1 2 3 4 5 6 
#
# 1 164.9620 58.3362 43.1518 0.0000 -1.3101 0.0000
# 2 58.3362 90.8969 29.2500 0.0000 7.1351 0.0000
# 3 43.1518 29.2500 81.2388 0.0000 -13.2750 0.0000
# 4 0.0000 0.0000 0.0000 15.7713 0.0000 2.9018
# 5 -1.3101 7.1351 -13.2750 0.0000 48.1671 0.0000
# 6 0.0000 0.0000 0.0000 2.9018 0.0000 32.2343
#
#
#
# Elastic Compliance Matrix: (Units=1/GPa)
#
#
# Indices 1 2 3 4 5 6 
#
# 1 0.008386 -0.004483 -0.002822 0.000000 0.000115 0.000000
# 2 -0.004483 0.015337 -0.003698 0.000000 -0.003413 0.000000
# 3 -0.002822 -0.003698 0.015934 0.000000 0.004863 0.000000
# 4 0.000000 0.000000 0.000000 0.064474 0.000000 -0.005804
# 5 0.000115 -0.003413 0.004863 0.000000 0.022610 0.000000
# 6 0.000000 0.000000 0.000000 -0.005804 0.000000 0.031545
#
#
# Mechanical properties :
#
#
# Convention : Reuss Voigt Hill
#
# Bulk Modulus (GPa) = 56.65420 66.50822 61.58121
# Shear Modulus (GPa) = 26.85609 32.99186 29.92398
#
# Velocity S-wave (km/s) = 3.51821 3.89945 3.71373
# Velocity P-wave (km/s) = 6.52804 7.13635 6.83896
#
# Compressibility (1/GPa) = 0.01765094
#
# Stress axis : x y z
#
# Youngs Moduli (GPa) = 119.23949 65.20272 62.75724
#
# Poissons Ratio (x) = 0.29232 0.17709
# Poissons Ratio (y) = 0.53458 0.23210
# Poissons Ratio (z) = 0.33646 0.24114
#
# Static dielectric constant tensor:
#      x y z
#    x 4.122190 0.000000 -0.005120 
#    y 0.000000 4.104230 0.000000 
#    z -0.005120 0.000000 3.983260 
# 
# 
# High freq. dielectric constant tensor:
#      x y z
#    x 1.855270 0.000000 -0.004640 
#    y 0.000000 1.843210 0.000000 
#    z -0.004640 0.000000 1.857860 
# 
# From -- ./inp_files/78203.got.cif
#   From: 2010.06.25/outbox.cif.g09.slc.cpg/sg15_40_cif.got.tgz:78203.got - 2010.06.28 07:06:18.
