data_PCOD8140009
_publ_section_title
;
Structure prediction by ZEFSAII (Michael W. Deem and Ramdas Pophale) SiO2 
 PCOD8140009
Probable space group: C 2/C
;
_chemical_formula_sum "Si O2"
_cell_formula_units_Z 56
_cell_length_a 8.802279
_cell_length_b 15.376701
_cell_length_c 22.094164
_cell_angle_alpha 90.000000
_cell_angle_beta 125.554062
_cell_angle_gamma 90.000000
_cell_volume 2432.928350
_symmetry_space_group_name_H-M "C 2/C"
_symmetry_group_IT_number 15
_symmetry_cell_setting 'monoclinic'
loop_
_space_group_symop_operation_xyz
x,y,z
-x,y,1/2-z
-x,-y,-z
x,-y,1/2+z
1/2+x,1/2+y,z
1/2-x,1/2+y,1/2-z
1/2-x,1/2-y,-z
1/2+x,1/2-y,1/2+z
loop_
_atom_site_type_symbol
_atom_site_label
_atom_site_fract_x
_atom_site_fract_y
_atom_site_fract_z
Si Si1 0.357604 0.289093 0.617566
Si Si2 0.691803 0.053242 0.536836
Si Si3 0.951248 0.945393 0.307791
Si Si4 0.379263 0.247736 0.326259
Si Si5 0.264487 0.147341 0.073668
Si Si6 0.498128 0.791620 0.037586
Si Si7 0.220374 0.109969 0.198775
O O1 0.294377 0.253366 0.667750
O O2 0.451149 0.213038 0.598289
O O3 0.504339 0.365557 0.659015
O O4 0.180854 0.327041 0.539924
O O5 0.879056 0.016406 0.611003
O O6 0.733285 0.070807 0.475421
O O7 0.667525 0.142630 0.568430
O O8 0.500000 0.000000 0.500000
O O9 0.000000 0.953690 0.250000
O O10 0.896886 0.846151 0.308446
O O11 0.772802 0.009642 0.277126
O O12 0.568383 0.215219 0.403120
O O13 0.344208 0.179911 0.263652
O O14 0.065526 0.197682 0.027554
O O15 0.292832 0.107781 0.146817
#
# Coordination Sequence:
#
# PCOD8140009 Si02
#       7
#     8   8   8   8   8   8   8
#     4  10  21  38  69  96 136 179 229 284 343 408
#     4  12  25  41  71 104 140 177 238 291 350 416
#     4  12  27  44  69 104 145 185 230 291 354 423
#     4  12  23  45  72 102 139 191 233 288 352 421
#     4  11  23  44  72  97 134 184 238 284 346 417
#     4  10  20  40  65 100 131 178 230 280 341 413
#     4  11  26  45  68 101 141 186 232 290 356 412
#
# _framework density 23.017529
#
# number of rings (size 3 to 8) (size 9 to 14) (size 15 to 20)
#    0.000    0.857    2.857    4.714    4.000    1.714 
#    0.000    2.857    0.000    0.000    0.000    0.000 
#    0.000    0.000    0.000    0.000    0.000    0.000 
#
# Total GULP energy -347070.659604 kJ/mol
# GULP energy per Si atom -12395.380700 kJ/mol
# Density = 2.296514 g / cm^3
# Si number density = 23.017529 Si / 1000 Ang^3
#
#
#
# Elastic Constant Matrix: (Units=GPa)
#
#
# Indices 1 2 3 4 5 6 
#
# 1 123.9851 28.0343 40.4735 0.0000 -25.5143 0.0000
# 2 28.0343 95.5369 34.6491 0.0000 1.6304 0.0000
# 3 40.4735 34.6491 102.1154 0.0000 -16.3409 0.0000
# 4 0.0000 0.0000 0.0000 24.3046 0.0000 6.7894
# 5 -25.5143 1.6304 -16.3409 0.0000 51.0637 0.0000
# 6 0.0000 0.0000 0.0000 6.7894 0.0000 30.3757
#
#
#
# Elastic Compliance Matrix: (Units=1/GPa)
#
#
# Indices 1 2 3 4 5 6 
#
# 1 0.010318 -0.002136 -0.002665 0.000000 0.004371 0.000000
# 2 -0.002136 0.012531 -0.003837 0.000000 -0.002695 0.000000
# 3 -0.002665 -0.003837 0.012603 0.000000 0.002824 0.000000
# 4 0.000000 0.000000 0.000000 0.043885 0.000000 -0.009809
# 5 0.004371 -0.002695 0.002824 0.000000 0.022757 0.000000
# 6 0.000000 0.000000 0.000000 -0.009809 0.000000 0.035113
#
#
# Mechanical properties :
#
#
# Convention : Reuss Voigt Hill
#
# Bulk Modulus (GPa) = 55.01613 58.66123 56.83868
# Shear Modulus (GPa) = 31.14452 35.71415 33.42934
#
# Velocity S-wave (km/s) = 3.68241 3.94332 3.81510
# Velocity P-wave (km/s) = 6.48336 6.80248 6.64484
#
# Compressibility (1/GPa) = 0.01817649
#
# Stress axis : x y z
#
# Youngs Moduli (GPa) = 96.91924 79.79974 79.34564
#
# Poissons Ratio (x) = 0.17042 0.21149
# Poissons Ratio (y) = 0.20698 0.30444
# Poissons Ratio (z) = 0.25834 0.30618
#
# Static dielectric constant tensor:
#      x y z
#    x 4.354730 0.000000 0.002890 
#    y 0.000000 4.085360 0.000000 
#    z 0.002890 0.000000 4.098420 
# 
# 
# High freq. dielectric constant tensor:
#      x y z
#    x 1.926990 0.000000 -0.005770 
#    y 0.000000 1.894080 0.000000 
#    z -0.005770 0.000000 1.907920 
# 
# From -- ./inp_files/232782.got.cif
#   From: 2010.06.25/outbox.cif.g09.slc.cpg/sg15_117_cif.got.tgz:232782.got - 2010.06.28 07:06:18.
