data_PCOD8140590
_publ_section_title
;
Structure prediction by ZEFSAII (Michael W. Deem and Ramdas Pophale) SiO2 
 PCOD8140590
Probable space group: C 2/C
;
_chemical_formula_sum "Si O2"
_cell_formula_units_Z 56
_cell_length_a 17.528066
_cell_length_b 11.463521
_cell_length_c 17.687784
_cell_angle_alpha 90.000000
_cell_angle_beta 131.106321
_cell_angle_gamma 90.000000
_cell_volume 2677.956068
_symmetry_space_group_name_H-M "C 2/C"
_symmetry_group_IT_number 15
_symmetry_cell_setting 'monoclinic'
loop_
_space_group_symop_operation_xyz
x,y,z
-x,y,1/2-z
-x,-y,-z
x,-y,1/2+z
1/2+x,1/2+y,z
1/2-x,1/2+y,1/2-z
1/2-x,1/2-y,-z
1/2+x,1/2-y,1/2+z
loop_
_atom_site_type_symbol
_atom_site_label
_atom_site_fract_x
_atom_site_fract_y
_atom_site_fract_z
Si Si1 0.331342 0.820115 0.773523
Si Si2 0.195450 0.510090 0.127064
Si Si3 0.551497 0.607716 0.454266
Si Si4 0.111087 0.533346 0.786687
Si Si5 0.882027 0.701762 0.852004
Si Si6 0.260407 0.386877 0.510673
Si Si7 0.883589 0.076688 0.842155
O O1 0.362979 0.880692 0.873859
O O2 0.211171 0.790333 0.698177
O O3 0.394958 0.700939 0.807345
O O4 0.363097 0.903892 0.725969
O O5 0.124330 0.393868 0.083089
O O6 0.233487 0.546750 0.070253
O O7 0.286919 0.489137 0.246180
O O8 0.485932 0.725635 0.421262
O O9 0.619934 0.600484 0.424513
O O10 0.628108 0.596493 0.575260
O O11 0.484801 0.494529 0.397068
O O12 0.123163 0.632084 0.730401
O O13 0.000000 0.537414 0.750000
O O14 0.190799 0.554198 0.903818
O O15 0.250000 0.250000 0.500000
#
# Coordination Sequence:
#
# PCOD8140590 Si02
#       7
#     8   8   8   8   8   8   8
#     4  10  20  42  66  88 131 173 218 264 330 390
#     4  10  21  41  65  95 134 172 220 266 332 392
#     4  11  22  39  70  97 129 167 231 267 335 388
#     4  11  25  44  67  96 133 175 222 275 335 390
#     4  10  21  40  69  93 127 175 220 271 322 397
#     4  12  25  41  65 101 137 170 217 283 337 398
#     4  10  22  39  63  96 127 175 217 269 323 396
#
# _framework density 20.911470999999999
#
# number of rings (size 3 to 8) (size 9 to 14) (size 15 to 20)
#    0.000    1.429    1.429    5.143    2.000    1.714 
#    5.143    6.429    0.000    0.000    0.000    0.000 
#    0.000    0.000    0.000    0.000    0.000    0.000 
#
# Total GULP energy -346969.657212 kJ/mol
# GULP energy per Si atom -12391.773472 kJ/mol
# Density = 2.086388 g / cm^3
# Si number density = 20.911471 Si / 1000 Ang^3
#
#
#
# Elastic Constant Matrix: (Units=GPa)
#
#
# Indices 1 2 3 4 5 6 
#
# 1 137.7427 61.1501 46.4443 0.0000 -8.9316 0.0000
# 2 61.1501 142.8539 51.8224 0.0000 -9.5064 0.0000
# 3 46.4443 51.8224 95.3112 0.0000 -5.7436 0.0000
# 4 0.0000 0.0000 0.0000 29.8123 0.0000 -0.4219
# 5 -8.9316 -9.5064 -5.7436 0.0000 28.5800 0.0000
# 6 0.0000 0.0000 0.0000 -0.4219 0.0000 37.7461
#
#
#
# Elastic Compliance Matrix: (Units=1/GPa)
#
#
# Indices 1 2 3 4 5 6 
#
# 1 0.009684 -0.002952 -0.003028 0.000000 0.001436 0.000000
# 2 -0.002952 0.009731 -0.003759 0.000000 0.001559 0.000000
# 3 -0.003028 -0.003759 0.014049 0.000000 0.000627 0.000000
# 4 0.000000 0.000000 0.000000 0.033548 0.000000 0.000375
# 5 0.001436 0.001559 0.000627 0.000000 0.036083 0.000000
# 6 0.000000 0.000000 0.000000 0.000375 0.000000 0.026497
#
#
# Mechanical properties :
#
#
# Convention : Reuss Voigt Hill
#
# Bulk Modulus (GPa) = 71.48934 77.19351 74.34143
# Shear Modulus (GPa) = 32.52445 33.66043 33.09244
#
# Velocity S-wave (km/s) = 3.94806 4.01641 3.98238
# Velocity P-wave (km/s) = 7.41915 7.64875 7.53482
#
# Compressibility (1/GPa) = 0.01398810
#
# Stress axis : x y z
#
# Youngs Moduli (GPa) = 103.26057 102.76616 71.18077
#
# Poissons Ratio (x) = 0.30332 0.21551
# Poissons Ratio (y) = 0.30478 0.26754
# Poissons Ratio (z) = 0.31264 0.38626
#
# Static dielectric constant tensor:
#      x y z
#    x 4.748150 0.000000 -0.189690 
#    y 0.000000 4.996990 0.000000 
#    z -0.189690 0.000000 3.698970 
# 
# 
# High freq. dielectric constant tensor:
#      x y z
#    x 1.818610 0.000000 0.007720 
#    y 0.000000 1.843890 0.000000 
#    z 0.007720 0.000000 1.807580 
# 
# From -- ./inp_files/210677.got.cif
#   From: 2010.06.25/outbox.cif.g09.slc.cpg/sg15_106_cif.got.tgz:210677.got - 2010.06.28 07:06:18.
