data_PCOD8140630
_publ_section_title
;
Structure prediction by ZEFSAII (Michael W. Deem and Ramdas Pophale) SiO2 
 PCOD8140630
Probable space group: C 2/C
;
_chemical_formula_sum "Si O2"
_cell_formula_units_Z 64
_cell_length_a 24.237436
_cell_length_b 17.783819
_cell_length_c 19.073559
_cell_angle_alpha 90.000000
_cell_angle_beta 21.543565
_cell_angle_gamma 90.000000
_cell_volume 3018.952263
_symmetry_space_group_name_H-M "C 2/C"
_symmetry_group_IT_number 15
_symmetry_cell_setting 'monoclinic'
loop_
_space_group_symop_operation_xyz
x,y,z
-x,y,1/2-z
-x,-y,-z
x,-y,1/2+z
1/2+x,1/2+y,z
1/2-x,1/2+y,1/2-z
1/2-x,1/2-y,-z
1/2+x,1/2-y,1/2+z
loop_
_atom_site_type_symbol
_atom_site_label
_atom_site_fract_x
_atom_site_fract_y
_atom_site_fract_z
Si Si1 0.878749 0.534625 0.089597
Si Si2 0.912000 0.230055 0.283636
Si Si3 0.889068 0.354962 0.204267
Si Si4 0.113310 0.378552 0.455292
Si Si5 0.303288 0.849000 0.879254
Si Si6 0.392836 0.582170 0.003300
Si Si7 0.438817 0.578040 0.394786
Si Si8 0.184079 0.176211 0.667809
O O1 0.808440 0.461517 0.134653
O O2 0.747456 0.585910 0.277773
O O3 0.000000 0.500000 0.000000
O O4 0.981568 0.588345 0.920376
O O5 0.750000 0.250000 0.500000
O O6 0.940109 0.278231 0.180626
O O7 0.000000 0.251369 0.250000
O O8 0.946478 0.144446 0.217737
O O9 0.895690 0.343653 0.112133
O O10 0.725964 0.385289 0.419587
O O11 0.211079 0.323817 0.387770
O O12 0.949416 0.393948 0.682002
O O13 0.158567 0.881235 0.009582
O O14 0.345721 0.762525 0.814487
O O15 0.269326 0.862262 0.001428
O O16 0.437508 0.493678 0.947254
O O17 0.530996 0.632086 0.867210
O O18 0.500000 0.544974 0.250000
#
# Coordination Sequence:
#
# PCOD8140630 Si02
#       8
#     8   8   8   8   8   8   8   8
#     4  10  20  42  67  91 137 180 223 277 342 411
#     4  11  23  45  68 101 141 175 229 292 333 402
#     4  11  21  44  67  92 133 186 222 271 345 408
#     4  11  22  43  68  94 135 182 227 276 345 417
#     4  11  22  46  68  95 140 182 224 280 353 418
#     4  12  22  44  71 102 134 183 232 279 350 417
#     4  11  21  39  71  96 133 179 226 278 345 401
#     4  11  26  40  68 106 135 168 232 301 334 402
#
# _framework density 21.199407999999998
#
# number of rings (size 3 to 8) (size 9 to 14) (size 15 to 20)
#    0.000    1.000    7.500    2.250    0.000    3.500 
#    4.500    0.000    0.000    0.000    0.000    0.000 
#    0.000    0.000    0.000    0.000    0.000    0.000 
#
# Total GULP energy -396529.509522 kJ/mol
# GULP energy per Si atom -12391.547173 kJ/mol
# Density = 2.115116 g / cm^3
# Si number density = 21.199408 Si / 1000 Ang^3
#
#
#
# Elastic Constant Matrix: (Units=GPa)
#
#
# Indices 1 2 3 4 5 6 
#
# 1 85.4429 22.6563 22.1825 -0.0119 -2.1004 0.0074
# 2 22.6563 115.7937 32.6954 -0.0113 -4.8486 0.0118
# 3 22.1825 32.6954 124.4989 -0.0199 -0.2477 0.0205
# 4 -0.0119 -0.0113 -0.0199 39.6470 0.0103 -2.9393
# 5 -2.1004 -4.8486 -0.2477 0.0103 27.7674 -0.0077
# 6 0.0074 0.0118 0.0205 -2.9393 -0.0077 31.9953
#
#
#
# Elastic Compliance Matrix: (Units=1/GPa)
#
#
# Indices 1 2 3 4 5 6 
#
# 1 0.012693 -0.001966 -0.001744 0.000002 0.000601 -0.000001
# 2 -0.001966 0.009704 -0.002195 0.000001 0.001526 -0.000001
# 3 -0.001744 -0.002195 0.008919 0.000003 -0.000436 -0.000004
# 4 0.000002 0.000001 0.000003 0.025396 -0.000008 0.002333
# 5 0.000601 0.001526 -0.000436 -0.000008 0.036322 0.000008
# 6 -0.000001 -0.000001 -0.000004 0.002333 0.000008 0.031469
#
#
# Mechanical properties :
#
#
# Convention : Reuss Voigt Hill
#
# Bulk Modulus (GPa) = 51.26790 53.42265 52.34528
# Shear Modulus (GPa) = 35.01069 36.42871 35.71970
#
# Velocity S-wave (km/s) = 4.06827 4.14984 4.10925
# Velocity P-wave (km/s) = 6.80469 6.94380 6.87460
#
# Compressibility (1/GPa) = 0.01950538
#
# Stress axis : x y z
#
# Youngs Moduli (GPa) = 78.78638 103.04565 112.12544
#
# Poissons Ratio (x) = 0.20257 0.19555
# Poissons Ratio (y) = 0.15488 0.24614
# Poissons Ratio (z) = 0.13741 0.22621
#
# Static dielectric constant tensor:
#      x y z
#    x 3.836590 0.002560 0.250830 
#    y 0.002560 5.286370 0.001190 
#    z 0.250830 0.001190 4.089250 
# 
# 
# High freq. dielectric constant tensor:
#      x y z
#    x 1.799150 0.000000 0.005880 
#    y 0.000000 1.837120 0.000000 
#    z 0.005880 0.000000 1.850410 
# 
# From -- ./inp_files/258046.got.cif
#   From: 2010.06.25/outbox.cif.g09.slc.cpg/sg15_130_cif.got.tgz:258046.got - 2010.06.28 07:06:18.
