data_PCOD8140842
_publ_section_title
;
Structure prediction by ZEFSAII (Michael W. Deem and Ramdas Pophale) SiO2 
 PCOD8140842
Probable space group: C 2/C
;
_chemical_formula_sum "Si O2"
_cell_formula_units_Z 44
_cell_length_a 14.722604
_cell_length_b 17.905562
_cell_length_c 8.178608
_cell_angle_alpha 90.000000
_cell_angle_beta 125.756554
_cell_angle_gamma 90.000000
_cell_volume 1749.622393
_symmetry_space_group_name_H-M "C 2/C"
_symmetry_group_IT_number 15
_symmetry_cell_setting 'monoclinic'
loop_
_space_group_symop_operation_xyz
x,y,z
-x,y,1/2-z
-x,-y,-z
x,-y,1/2+z
1/2+x,1/2+y,z
1/2-x,1/2+y,1/2-z
1/2-x,1/2-y,-z
1/2+x,1/2-y,1/2+z
loop_
_atom_site_type_symbol
_atom_site_label
_atom_site_fract_x
_atom_site_fract_y
_atom_site_fract_z
Si Si1 0.500000 0.752670 0.250000
Si Si2 0.821115 0.895982 0.818778
Si Si3 0.731690 0.550151 0.602718
Si Si4 0.572572 0.343135 0.096438
Si Si5 0.640531 0.808423 0.794901
Si Si6 0.413992 0.144216 0.923612
O O1 0.583839 0.700987 0.438291
O O2 0.584420 0.797554 0.223349
O O3 0.801357 0.920901 0.611664
O O4 0.746005 0.824716 0.789547
O O5 0.785706 0.961806 0.906247
O O6 0.948481 0.875113 0.994990
O O7 0.655692 0.587387 0.665296
O O8 0.860707 0.569245 0.788448
O O9 0.607514 0.279936 0.265875
O O10 0.540941 0.862460 0.622781
O O11 0.664762 0.827498 0.010131
#
# Coordination Sequence:
#
# PCOD8140842 Si02
#       6
#     4   8   8   8   8   8
#     4  10  20  44  68 104 140 180 234 294 346 418
#     4  12  26  48  71 109 148 193 239 290 366 425
#     4  12  25  45  73 102 151 190 237 294 359 438
#     4  11  24  44  72 104 146 190 238 296 355 426
#     4  10  25  47  72 106 144 183 246 303 348 426
#     4  10  23  46  71 109 138 187 239 297 363 414
#
# _framework density 25.148282999999999
#
# number of rings (size 3 to 8) (size 9 to 14) (size 15 to 20)
#    0.000    1.091    1.818    3.818    5.091    2.909 
#   19.636    1.818    0.000    0.000    0.000    0.000 
#    0.000    0.000    0.000    0.000    0.000    0.000 
#
# Total GULP energy -272629.862393 kJ/mol
# GULP energy per Si atom -12392.266472 kJ/mol
# Density = 2.509104 g / cm^3
# Si number density = 25.148283 Si / 1000 Ang^3
#
#
#
# Elastic Constant Matrix: (Units=GPa)
#
#
# Indices 1 2 3 4 5 6 
#
# 1 112.5344 35.8252 34.0685 0.0000 6.4324 0.0000
# 2 35.8252 102.6888 33.8290 0.0000 6.2891 0.0000
# 3 34.0685 33.8290 69.3195 0.0000 0.4040 0.0000
# 4 0.0000 0.0000 0.0000 25.6378 0.0000 -2.8192
# 5 6.4324 6.2891 0.4040 0.0000 47.3579 0.0000
# 6 0.0000 0.0000 0.0000 -2.8192 0.0000 -28.4782
#
#
#
# Elastic Compliance Matrix: (Units=1/GPa)
#
#
# Indices 1 2 3 4 5 6 
#
# 1 0.010988 -0.002367 -0.004238 0.000000 -0.001142 0.000000
# 2 -0.002367 0.012220 -0.004793 0.000000 -0.001260 0.000000
# 3 -0.004238 -0.004793 0.018842 0.000000 0.001051 0.000000
# 4 0.000000 0.000000 0.000000 0.038585 0.000000 -0.003820
# 5 -0.001142 -0.001260 0.001051 0.000000 0.021429 0.000000
# 6 0.000000 0.000000 0.000000 -0.003820 0.000000 -0.034736
#
#
# Mechanical properties :
#
#
# Convention : Reuss Voigt Hill
#
# Bulk Modulus (GPa) = 51.93963 54.66532 53.30248
# Shear Modulus (GPa) = 51.79053 20.95818 36.37435
#
# Velocity S-wave (km/s) = 4.54299 2.88997 3.80728
# Velocity P-wave (km/s) = 6.94381 5.73762 6.36933
#
# Compressibility (1/GPa) = 0.01925312
#
# Stress axis : x y z
#
# Youngs Moduli (GPa) = 91.00671 81.83221 53.07327
#
# Poissons Ratio (x) = 0.19372 0.22495
# Poissons Ratio (y) = 0.21543 0.25437
# Poissons Ratio (z) = 0.38573 0.39221
#
# Static dielectric constant tensor:
#      x y z
#    x 4.532470 0.000000 -0.196370 
#    y 0.000000 4.451690 0.000000 
#    z -0.196370 0.000000 4.730410 
# 
# 
# High freq. dielectric constant tensor:
#      x y z
#    x 2.009300 0.000000 -0.007960 
#    y 0.000000 1.986750 0.000000 
#    z -0.007960 0.000000 2.017990 
# 
# From -- ./inp_files/42378.got.cif
#   From: 2010.06.25/outbox.cif.g09.slc.cpg/sg15_22_cif.got.tgz:42378.got - 2010.06.28 07:06:18.
