data_PCOD8140979
_publ_section_title
;
Structure prediction by ZEFSAII (Michael W. Deem and Ramdas Pophale) SiO2 
 PCOD8140979
Probable space group: C 2/C
;
_chemical_formula_sum "Si O2"
_cell_formula_units_Z 48
_cell_length_a 18.550960
_cell_length_b 15.768956
_cell_length_c 13.589073
_cell_angle_alpha 90.000000
_cell_angle_beta 137.720991
_cell_angle_gamma 90.000000
_cell_volume 2674.283091
_symmetry_space_group_name_H-M "C 2/C"
_symmetry_group_IT_number 15
_symmetry_cell_setting 'monoclinic'
loop_
_space_group_symop_operation_xyz
x,y,z
-x,y,1/2-z
-x,-y,-z
x,-y,1/2+z
1/2+x,1/2+y,z
1/2-x,1/2+y,1/2-z
1/2-x,1/2-y,-z
1/2+x,1/2-y,1/2+z
loop_
_atom_site_type_symbol
_atom_site_label
_atom_site_fract_x
_atom_site_fract_y
_atom_site_fract_z
Si Si1 0.600511 0.135389 0.557859
Si Si2 0.302699 0.950868 0.170454
Si Si3 0.620900 0.463952 0.395402
Si Si4 0.691442 0.982019 0.535406
Si Si5 0.801450 0.788273 0.955447
Si Si6 0.359214 0.884853 0.834031
O O1 0.676632 0.125725 0.732214
O O2 0.624262 0.220713 0.523437
O O3 0.480173 0.144185 0.475941
O O4 0.613083 0.055297 0.497235
O O5 0.365576 0.032610 0.272674
O O6 0.350736 0.937954 0.108619
O O7 0.174588 0.972603 0.031452
O O8 0.500000 0.491141 0.250000
O O9 0.692604 0.473509 0.368211
O O10 0.625193 0.368508 0.441529
O O11 0.700520 0.906932 0.623924
O O12 0.705561 0.811067 0.784916
O O13 0.750000 0.750000 0.000000
#
# Coordination Sequence:
#
# PCOD8140979 Si02
#       6
#     8   8   8   8   8   8
#     4  11  20  33  58  83 115 150 188 239 290 333
#     4   8  18  35  55  82 109 141 201 237 268 339
#     4   9  19  36  58  80 111 154 184 229 292 328
#     4   9  18  36  57  79 113 139 200 241 265 342
#     4  11  22  36  51  84 123 145 190 228 286 360
#     4  10  21  34  54  86 111 147 191 238 288 330
#
# _framework density 17.948736
#
# number of rings (size 3 to 8) (size 9 to 14) (size 15 to 20)
#    1.000    1.333    1.667    2.000    2.333    4.000 
#    0.000   10.000    0.000    0.000    0.000    0.000 
#    0.000    0.000    0.000    0.000    0.000    0.000 
#
# Total GULP energy -297344.891093 kJ/mol
# GULP energy per Si atom -12389.370462 kJ/mol
# Density = 1.790788 g / cm^3
# Si number density = 17.948736 Si / 1000 Ang^3
#
#
#
# Elastic Constant Matrix: (Units=GPa)
#
#
# Indices 1 2 3 4 5 6 
#
# 1 101.3564 38.4000 53.0639 0.0000 -18.2332 0.0000
# 2 38.4000 57.8964 35.6577 0.0000 -5.4125 0.0000
# 3 53.0639 35.6577 116.6575 0.0000 0.5179 0.0000
# 4 0.0000 0.0000 0.0000 23.7800 0.0000 -13.0940
# 5 -18.2332 -5.4125 0.5179 0.0000 40.1177 0.0000
# 6 0.0000 0.0000 0.0000 -13.0940 0.0000 34.3739
#
#
#
# Elastic Compliance Matrix: (Units=1/GPa)
#
#
# Indices 1 2 3 4 5 6 
#
# 1 0.016558 -0.007027 -0.005414 0.000000 0.006648 0.000000
# 2 -0.007027 0.024616 -0.004329 0.000000 0.000183 0.000000
# 3 -0.005414 -0.004329 0.012372 0.000000 -0.003204 0.000000
# 4 0.000000 0.000000 0.000000 0.053214 0.000000 0.020271
# 5 0.006648 0.000183 -0.003204 0.000000 0.028014 0.000000
# 6 0.000000 0.000000 0.000000 0.020271 0.000000 0.036814
#
#
# Mechanical properties :
#
#
# Convention : Reuss Voigt Hill
#
# Bulk Modulus (GPa) = 49.97980 58.90595 54.44288
# Shear Modulus (GPa) = 23.60768 29.57354 26.59061
#
# Velocity S-wave (km/s) = 3.63062 4.06355 3.85317
# Velocity P-wave (km/s) = 6.74400 7.40991 7.08478
#
# Compressibility (1/GPa) = 0.02000808
#
# Stress axis : x y z
#
# Youngs Moduli (GPa) = 60.39223 40.62415 80.82812
#
# Poissons Ratio (x) = 0.28546 0.43757
# Poissons Ratio (y) = 0.42436 0.34988
# Poissons Ratio (z) = 0.32694 0.17585
#
# Static dielectric constant tensor:
#      x y z
#    x 3.339130 0.000000 -0.263050 
#    y 0.000000 3.126660 0.000000 
#    z -0.263050 0.000000 3.411490 
# 
# 
# High freq. dielectric constant tensor:
#      x y z
#    x 1.690790 0.000000 -0.012020 
#    y 0.000000 1.663530 0.000000 
#    z -0.012020 0.000000 1.692120 
# 
# From -- ./inp_files/162372.got.cif
#   From: 2010.06.25/outbox.cif.g09.slc.cpg/sg15_82_cif.got.tgz:162372.got - 2010.06.28 07:06:18.
