data_PCOD8140310
_publ_section_title
;
Structure prediction by ZEFSAII (Michael W. Deem and Ramdas Pophale) SiO2 
 PCOD8140310
Probable space group: C 2/C
;
_chemical_formula_sum "Si O2"
_cell_formula_units_Z 56
_cell_length_a 14.854023
_cell_length_b 9.770779
_cell_length_c 23.730894
_cell_angle_alpha 90.000000
_cell_angle_beta 52.838481
_cell_angle_gamma 90.000000
_cell_volume 2744.800082
_symmetry_space_group_name_H-M "C 2/C"
_symmetry_group_IT_number 15
_symmetry_cell_setting 'monoclinic'
loop_
_space_group_symop_operation_xyz
x,y,z
-x,y,1/2-z
-x,-y,-z
x,-y,1/2+z
1/2+x,1/2+y,z
1/2-x,1/2+y,1/2-z
1/2-x,1/2-y,-z
1/2+x,1/2-y,1/2+z
loop_
_atom_site_type_symbol
_atom_site_label
_atom_site_fract_x
_atom_site_fract_y
_atom_site_fract_z
Si Si1 0.350277 0.731276 0.082627
Si Si2 0.088776 0.485402 0.375093
Si Si3 0.838760 0.937000 0.779506
Si Si4 0.398442 0.684913 0.825099
Si Si5 0.536635 0.744548 0.573463
Si Si6 0.604059 0.125772 0.747006
Si Si7 0.351317 0.469261 0.150069
O O1 0.218329 0.743509 0.148407
O O2 0.396412 0.602567 0.100260
O O3 0.417624 0.869140 0.074411
O O4 0.369329 0.709151 0.008942
O O5 0.203786 0.572046 0.334981
O O6 0.077607 0.404754 0.321316
O O7 0.987139 0.593029 0.419315
O O8 0.889800 0.787677 0.763507
O O9 0.870938 0.013755 0.709355
O O10 0.890405 0.024288 0.811697
O O11 0.500000 0.753672 0.750000
O O12 0.415028 0.699061 0.885002
O O13 0.423284 0.660511 0.602435
O O14 0.500000 0.066778 0.750000
O O15 0.720525 0.055509 0.683603
#
# Coordination Sequence:
#
# PCOD8140310 Si02
#       7
#     8   8   8   8   8   8   8
#     4  11  25  43  65  93 134 168 210 260 324 382
#     4  10  23  40  65  92 127 169 213 261 320 378
#     4  10  20  41  63  95 123 165 211 265 322 370
#     4  11  24  39  68  96 125 162 212 264 316 378
#     4  12  24  43  66  95 128 172 212 262 316 388
#     4  11  23  37  64  96 126 161 216 274 315 366
#     4  11  23  40  63  92 125 169 212 259 320 381
#
# _framework density 20.402215999999999
#
# number of rings (size 3 to 8) (size 9 to 14) (size 15 to 20)
#    0.000    1.143    4.286    1.714    6.000    0.000 
#    0.000    0.000    0.000    1.714    0.000    0.000 
#    0.000    0.000    0.000    0.000    0.000    0.000 
#
# Total GULP energy -347293.692647 kJ/mol
# GULP energy per Si atom -12403.346166 kJ/mol
# Density = 2.035578 g / cm^3
# Si number density = 20.402216 Si / 1000 Ang^3
#
#
#
# Elastic Constant Matrix: (Units=GPa)
#
#
# Indices 1 2 3 4 5 6 
#
# 1 90.7410 33.5530 23.2680 0.0000 16.9525 0.0000
# 2 33.5530 119.0941 35.1098 0.0000 8.7831 0.0001
# 3 23.2680 35.1098 102.1066 0.0000 16.5826 0.0000
# 4 0.0000 0.0000 0.0000 18.7093 0.0000 3.3437
# 5 16.9525 8.7831 16.5826 0.0000 23.8259 0.0000
# 6 0.0000 0.0001 0.0000 3.3437 0.0000 21.8829
#
#
#
# Elastic Compliance Matrix: (Units=1/GPa)
#
#
# Indices 1 2 3 4 5 6 
#
# 1 0.013891 -0.003080 -0.000773 0.000000 -0.008210 0.000000
# 2 -0.003080 0.010066 -0.002833 0.000000 0.000453 0.000000
# 3 -0.000773 -0.002833 0.012047 0.000000 -0.006790 0.000000
# 4 0.000000 0.000000 0.000000 0.054950 0.000000 -0.008396
# 5 -0.008210 0.000453 -0.006790 0.000000 0.052372 0.000000
# 6 0.000000 0.000000 0.000000 -0.008396 0.000000 0.046981
#
#
# Mechanical properties :
#
#
# Convention : Reuss Voigt Hill
#
# Bulk Modulus (GPa) = 44.18508 55.08926 49.63717
# Shear Modulus (GPa) = 23.67158 27.55101 25.61129
#
# Velocity S-wave (km/s) = 3.40993 3.67876 3.54689
# Velocity P-wave (km/s) = 6.09980 6.71599 6.41530
#
# Compressibility (1/GPa) = 0.02263207
#
# Stress axis : x y z
#
# Youngs Moduli (GPa) = 71.98652 99.34088 83.01048
#
# Poissons Ratio (x) = 0.30600 0.06417
# Poissons Ratio (y) = 0.22174 0.23516
# Poissons Ratio (z) = 0.05564 0.28142
#
# Static dielectric constant tensor:
#      x y z
#    x 3.668530 0.000000 -0.041470 
#    y 0.000000 3.650600 0.000000 
#    z -0.041470 0.000000 3.568390 
# 
# 
# High freq. dielectric constant tensor:
#      x y z
#    x 1.796210 0.000000 0.001290 
#    y 0.000000 1.805020 0.000000 
#    z 0.001290 0.000000 1.786850 
# 
# From -- ./inp_files/242774.got.cif
#   From: 2010.06.25/outbox.cif.g09.slc.cpg/sg15_122_cif.got.tgz:242774.got - 2010.06.28 07:06:18.
