data_PCOD8140551
_publ_section_title
;
Structure prediction by ZEFSAII (Michael W. Deem and Ramdas Pophale) SiO2 
 PCOD8140551
Probable space group: C 2/C
;
_chemical_formula_sum "Si O2"
_cell_formula_units_Z 60
_cell_length_a 21.636978
_cell_length_b 11.111691
_cell_length_c 13.618627
_cell_angle_alpha 90.000000
_cell_angle_beta 61.370217
_cell_angle_gamma 90.000000
_cell_volume 2873.909047
_symmetry_space_group_name_H-M "C 2/C"
_symmetry_group_IT_number 15
_symmetry_cell_setting 'monoclinic'
loop_
_space_group_symop_operation_xyz
x,y,z
-x,y,1/2-z
-x,-y,-z
x,-y,1/2+z
1/2+x,1/2+y,z
1/2-x,1/2+y,1/2-z
1/2-x,1/2-y,-z
1/2+x,1/2-y,1/2+z
loop_
_atom_site_type_symbol
_atom_site_label
_atom_site_fract_x
_atom_site_fract_y
_atom_site_fract_z
Si Si1 0.240411 0.415456 0.910399
Si Si2 0.381174 0.982934 0.126656
Si Si3 0.621046 0.471511 0.250165
Si Si4 0.304689 0.162124 0.855221
Si Si5 0.443561 0.600191 0.514049
Si Si6 0.500197 0.168888 0.060827
Si Si7 0.575278 0.686420 0.177253
Si Si8 0.000000 0.813319 0.250000
O O1 0.167304 0.449266 0.915317
O O2 0.297557 0.520575 0.844440
O O3 0.262451 0.282198 0.852790
O O4 0.238433 0.414382 0.031301
O O5 0.330561 0.920447 0.245793
O O6 0.436561 0.076213 0.132274
O O7 0.428174 0.885992 0.035062
O O8 0.621571 0.424654 0.362396
O O9 0.589823 0.606479 0.263509
O O10 0.569810 0.388208 0.224101
O O11 0.370929 0.204795 0.870849
O O12 0.500000 0.500000 0.500000
O O13 0.473785 0.733962 0.502371
O O14 0.418390 0.594647 0.420607
O O15 0.523767 0.231137 0.142555
O O16 0.500000 0.747110 0.250000
#
# Coordination Sequence:
#
# PCOD8140551 Si02
#       8
#     8   8   8   8   8   8   8   4
#     4  10  24  43  63  91 130 172 219 263 325 388
#     4  11  24  45  64  95 131 169 219 268 325 396
#     4  10  21  38  60  97 127 161 211 268 324 382
#     4  10  24  42  63  92 128 171 221 262 317 393
#     4  11  20  36  67  96 130 166 212 275 326 377
#     4  10  24  40  65  97 127 169 217 266 329 390
#     4  11  18  34  62  96 125 163 209 266 322 375
#     4  10  20  42  64  92 132 158 212 268 332 392
#
# _framework density 20.877488
#
# number of rings (size 3 to 8) (size 9 to 14) (size 15 to 20)
#    0.000    1.600    2.000    2.400    3.733    6.400 
#    2.400    0.667    0.000    0.000    0.000    0.000 
#    0.000    0.000    0.000    0.000    0.000    0.000 
#
# Total GULP energy -371807.841342 kJ/mol
# GULP energy per Si atom -12393.594711 kJ/mol
# Density = 2.082997 g / cm^3
# Si number density = 20.877488 Si / 1000 Ang^3
#
#
#
# Elastic Constant Matrix: (Units=GPa)
#
#
# Indices 1 2 3 4 5 6 
#
# 1 67.5752 19.3950 35.7162 0.0000 -13.0076 0.0000
# 2 19.3950 87.4254 49.9844 0.0000 -9.1662 0.0000
# 3 35.7162 49.9844 117.1512 0.0000 -8.5320 0.0000
# 4 0.0000 0.0000 0.0000 36.8960 0.0000 -6.1380
# 5 -13.0076 -9.1662 -8.5320 0.0000 32.8485 0.0000
# 6 0.0000 0.0000 0.0000 -6.1380 0.0000 31.0512
#
#
#
# Elastic Compliance Matrix: (Units=1/GPa)
#
#
# Indices 1 2 3 4 5 6 
#
# 1 0.018783 -0.000684 -0.005002 0.000000 0.005948 0.000000
# 2 -0.000684 0.015374 -0.006175 0.000000 0.002415 0.000000
# 3 -0.005002 -0.006175 0.012665 0.000000 -0.000414 0.000000
# 4 0.000000 0.000000 0.000000 0.028025 0.000000 0.005540
# 5 0.005948 0.002415 -0.000414 0.000000 0.033365 0.000000
# 6 0.000000 0.000000 0.000000 0.005540 0.000000 0.033300
#
#
# Mechanical properties :
#
#
# Convention : Reuss Voigt Hill
#
# Bulk Modulus (GPa) = 43.28744 53.59369 48.44057
# Shear Modulus (GPa) = 28.91298 31.29620 30.10459
#
# Velocity S-wave (km/s) = 3.72545 3.87595 3.80144
# Velocity P-wave (km/s) = 6.26772 6.76438 6.52078
#
# Compressibility (1/GPa) = 0.02310139
#
# Stress axis : x y z
#
# Youngs Moduli (GPa) = 53.23959 65.04577 78.95548
#
# Poissons Ratio (x) = 0.04448 0.39490
# Poissons Ratio (y) = 0.03640 0.48756
# Poissons Ratio (z) = 0.26628 0.40166
#
# Static dielectric constant tensor:
#      x y z
#    x 3.812220 0.000000 -0.121810 
#    y 0.000000 3.810330 0.000000 
#    z -0.121810 0.000000 4.028440 
# 
# 
# High freq. dielectric constant tensor:
#      x y z
#    x 1.814390 0.000000 -0.007020 
#    y 0.000000 1.809250 0.000000 
#    z -0.007020 0.000000 1.826710 
# 
# From -- ./inp_files/172948.got.cif
#   From: 2010.06.25/outbox.cif.g09.slc.cpg/sg15_87_cif.got.tgz:172948.got - 2010.06.28 07:06:18.
