data_PCOD8140981
_publ_section_title
;
Structure prediction by ZEFSAII (Michael W. Deem and Ramdas Pophale) SiO2 
 PCOD8140981
Probable space group: C 2/C
;
_chemical_formula_sum "Si O2"
_cell_formula_units_Z 64
_cell_length_a 14.662809
_cell_length_b 26.243521
_cell_length_c 14.115879
_cell_angle_alpha 90.000000
_cell_angle_beta 140.427677
_cell_angle_gamma 90.000000
_cell_volume 3460.364884
_symmetry_space_group_name_H-M "C 2/C"
_symmetry_group_IT_number 15
_symmetry_cell_setting 'monoclinic'
loop_
_space_group_symop_operation_xyz
x,y,z
-x,y,1/2-z
-x,-y,-z
x,-y,1/2+z
1/2+x,1/2+y,z
1/2-x,1/2+y,1/2-z
1/2-x,1/2-y,-z
1/2+x,1/2-y,1/2+z
loop_
_atom_site_type_symbol
_atom_site_label
_atom_site_fract_x
_atom_site_fract_y
_atom_site_fract_z
Si Si1 0.366024 0.899624 0.809957
Si Si2 0.360326 0.397899 0.306428
Si Si3 0.159293 0.691953 0.341874
Si Si4 0.842423 0.954991 0.974991
Si Si5 0.270414 0.934062 0.123493
Si Si6 0.656718 0.948154 0.005473
Si Si7 0.410704 0.936124 0.048354
Si Si8 0.654243 0.695776 0.835648
O O1 0.329362 0.843291 0.741937
O O2 0.228674 0.934499 0.678254
O O3 0.502135 0.923030 0.863958
O O4 0.392245 0.899024 0.943686
O O5 0.497786 0.432430 0.390701
O O6 0.325295 0.394785 0.391136
O O7 0.223718 0.425730 0.153739
O O8 0.363585 0.340661 0.269318
O O9 0.252084 0.670464 0.505135
O O10 0.217665 0.748402 0.358496
O O11 0.000000 0.693719 0.250000
O O12 0.831623 0.016069 0.965084
O O13 0.754586 0.933913 0.994368
O O14 0.311058 0.912222 0.052182
O O15 0.423887 0.944679 0.293870
O O16 0.647333 0.007803 0.018460
O O17 0.500000 0.707556 0.750000
#
# Coordination Sequence:
#
# PCOD8140981 Si02
#       8
#     8   8   8   8   8   8   8   8
#     4  12  19  33  56  79 101 142 185 215 256 315
#     4  12  21  34  54  76 107 145 177 210 267 324
#     4  10  21  34  55  81 108 136 175 219 265 320
#     4  11  22  32  50  80 111 138 174 214 265 324
#     4  10  21  37  51  75 107 142 178 223 261 305
#     4  11  20  33  53  78 109 142 175 217 258 314
#     4  10  21  36  53  75 107 138 182 227 258 294
#     4  10  21  38  52  77 115 141 164 215 275 322
#
# _framework density 18.495159000000001
#
# number of rings (size 3 to 8) (size 9 to 14) (size 15 to 20)
#    0.000    1.250    2.500    6.000    0.000    0.000 
#    0.000    1.875    0.000    0.750    0.000    0.000 
#    0.000    0.000    0.000    0.000    0.000    0.000 
#
# Total GULP energy -396604.287425 kJ/mol
# GULP energy per Si atom -12393.883982 kJ/mol
# Density = 1.845306 g / cm^3
# Si number density = 18.495159 Si / 1000 Ang^3
#
#
#
# Elastic Constant Matrix: (Units=GPa)
#
#
# Indices 1 2 3 4 5 6 
#
# 1 95.9773 42.6034 11.2886 0.0000 -19.3256 0.0000
# 2 42.6034 83.7070 26.1231 0.0000 -14.2230 0.0000
# 3 11.2886 26.1231 67.1618 0.0000 -4.3697 0.0000
# 4 0.0000 0.0000 0.0000 29.0923 0.0000 -8.0511
# 5 -19.3256 -14.2230 -4.3697 0.0000 29.3574 0.0000
# 6 0.0000 0.0000 0.0000 -8.0511 0.0000 13.0582
#
#
#
# Elastic Compliance Matrix: (Units=1/GPa)
#
#
# Indices 1 2 3 4 5 6 
#
# 1 0.014534 -0.006441 0.000487 0.000000 0.006519 0.000000
# 2 -0.006441 0.017528 -0.005512 0.000000 0.003431 0.000000
# 3 0.000487 -0.005512 0.016963 0.000000 0.000175 0.000000
# 4 0.000000 0.000000 0.000000 0.041445 0.000000 0.025553
# 5 0.006519 0.003431 0.000175 0.000000 0.040043 0.000000
# 6 0.000000 0.000000 0.000000 0.025553 0.000000 0.092335
#
#
# Mechanical properties :
#
#
# Convention : Reuss Voigt Hill
#
# Bulk Modulus (GPa) = 38.32609 45.20848 41.76728
# Shear Modulus (GPa) = 19.64814 25.42366 22.53590
#
# Velocity S-wave (km/s) = 3.26289 3.71160 3.49445
# Velocity P-wave (km/s) = 5.91291 6.54709 6.23806
#
# Compressibility (1/GPa) = 0.02609189
#
# Stress axis : x y z
#
# Youngs Moduli (GPa) = 68.80529 57.05204 58.95249
#
# Poissons Ratio (x) = 0.36749 -0.02869
# Poissons Ratio (y) = 0.44319 0.32493
# Poissons Ratio (z) = -0.03349 0.31445
#
# Static dielectric constant tensor:
#      x y z
#    x 3.473730 0.000000 -0.054590 
#    y 0.000000 3.340150 0.000000 
#    z -0.054590 0.000000 3.531720 
# 
# 
# High freq. dielectric constant tensor:
#      x y z
#    x 1.706060 0.000000 0.006550 
#    y 0.000000 1.690450 0.000000 
#    z 0.006550 0.000000 1.726910 
# 
# From -- ./inp_files/157093.got.cif
#   From: 2010.06.25/outbox.cif.g09.slc.cpg/sg15_79_cif.got.tgz:157093.got - 2010.06.28 07:06:18.
