data_PCOD8140304
_publ_section_title
;
Structure prediction by ZEFSAII (Michael W. Deem and Ramdas Pophale) SiO2 
 PCOD8140304
Probable space group: C 2/C
;
_chemical_formula_sum "Si O2"
_cell_formula_units_Z 60
_cell_length_a 28.747532
_cell_length_b 17.184954
_cell_length_c 11.356855
_cell_angle_alpha 90.000000
_cell_angle_beta 30.803395
_cell_angle_gamma 90.000000
_cell_volume 2873.138128
_symmetry_space_group_name_H-M "C 2/C"
_symmetry_group_IT_number 15
_symmetry_cell_setting 'monoclinic'
loop_
_space_group_symop_operation_xyz
x,y,z
-x,y,1/2-z
-x,-y,-z
x,-y,1/2+z
1/2+x,1/2+y,z
1/2-x,1/2+y,1/2-z
1/2-x,1/2-y,-z
1/2+x,1/2-y,1/2+z
loop_
_atom_site_type_symbol
_atom_site_label
_atom_site_fract_x
_atom_site_fract_y
_atom_site_fract_z
Si Si1 0.588081 0.951336 0.847340
Si Si2 0.500000 0.825483 0.750000
Si Si3 0.840633 0.564764 0.646844
Si Si4 0.478388 0.782048 0.539057
Si Si5 0.725321 0.525003 0.694006
Si Si6 0.592723 0.340531 0.476246
Si Si7 0.227962 0.864897 0.587893
Si Si8 0.658531 0.259927 0.550659
O O1 0.575296 0.859661 0.875595
O O2 0.675744 0.966047 0.576925
O O3 0.611402 0.982402 0.927567
O O4 0.500000 0.000000 0.000000
O O5 0.588758 0.879704 0.574436
O O6 0.500355 0.772850 0.631163
O O7 0.746388 0.545093 0.784555
O O8 0.816344 0.608825 0.821108
O O9 0.424256 0.707043 0.607391
O O10 0.569487 0.790988 0.265301
O O11 0.645365 0.581444 0.822193
O O12 0.688945 0.437392 0.748199
O O13 0.660545 0.291857 0.413402
O O14 0.500000 0.359485 0.750000
O O15 0.253891 0.795056 0.621181
O O16 0.155443 0.831223 0.651876
#
# Coordination Sequence:
#
# PCOD8140304 Si02
#       8
#     8   4   8   8   8   8   8   8
#     4  11  21  37  59  96 128 157 204 257 326 403
#     4  12  20  38  58  90 134 162 200 260 332 396
#     4  11  20  36  59  90 131 161 199 262 322 389
#     4  11  22  38  60  91 126 168 207 259 326 382
#     4  11  22  40  64  90 123 172 208 260 320 382
#     4  10  24  43  63  87 128 172 220 274 308 367
#     4  10  21  37  65  89 119 163 218 257 315 384
#     4  10  20  41  63  90 124 164 213 264 317 373
#
# _framework density 20.883089999999999
#
# number of rings (size 3 to 8) (size 9 to 14) (size 15 to 20)
#    0.000    1.333    5.333    0.800    1.867    0.533 
#    3.600    5.333    1.467    0.000    0.000    0.000 
#    0.000    0.000    0.000    0.000    0.000    0.000 
#
# Total GULP energy -371795.905733 kJ/mol
# GULP energy per Si atom -12393.196858 kJ/mol
# Density = 2.083556 g / cm^3
# Si number density = 20.883090 Si / 1000 Ang^3
#
#
#
# Elastic Constant Matrix: (Units=GPa)
#
#
# Indices 1 2 3 4 5 6 
#
# 1 113.3233 58.1424 5.2051 0.0000 -1.5893 0.0000
# 2 58.1424 123.3069 26.4000 0.0000 -3.6058 0.0000
# 3 5.2051 26.4000 47.6072 0.0000 -1.4999 0.0000
# 4 0.0000 0.0000 0.0000 33.1427 0.0000 -3.7538
# 5 -1.5893 -3.6058 -1.4999 0.0000 23.7903 0.0000
# 6 0.0000 0.0000 0.0000 -3.7538 0.0000 38.8761
#
#
#
# Elastic Compliance Matrix: (Units=1/GPa)
#
#
# Indices 1 2 3 4 5 6 
#
# 1 0.011812 -0.006006 0.002039 0.000000 0.000007 0.000000
# 2 -0.006006 0.012284 -0.006121 0.000000 0.001075 0.000000
# 3 0.002039 -0.006121 0.024200 0.000000 0.000734 0.000000
# 4 0.000000 0.000000 0.000000 0.030506 0.000000 0.002946
# 5 0.000007 0.001075 0.000734 0.000000 0.042244 0.000000
# 6 0.000000 0.000000 0.000000 0.002946 0.000000 0.026007
#
#
# Mechanical properties :
#
#
# Convention : Reuss Voigt Hill
#
# Bulk Modulus (GPa) = 35.56209 51.52582 43.54396
# Shear Modulus (GPa) = 28.31212 32.12782 30.21997
#
# Velocity S-wave (km/s) = 3.68604 3.92658 3.80821
# Velocity P-wave (km/s) = 5.93144 6.72937 6.34296
#
# Compressibility (1/GPa) = 0.02811983
#
# Stress axis : x y z
#
# Youngs Moduli (GPa) = 84.65719 81.40693 41.32245
#
# Poissons Ratio (x) = 0.48895 -0.08427
# Poissons Ratio (y) = 0.50847 0.25295
# Poissons Ratio (z) = -0.17265 0.49832
#
# Static dielectric constant tensor:
#      x y z
#    x 4.015120 0.000000 -0.023490 
#    y 0.000000 3.953220 0.000000 
#    z -0.023490 0.000000 3.484100 
# 
# 
# High freq. dielectric constant tensor:
#      x y z
#    x 1.825140 0.000000 -0.005900 
#    y 0.000000 1.814250 0.000000 
#    z -0.005900 0.000000 1.788180 
# 
# From -- ./inp_files/127213.got.cif
#   From: 2010.06.25/outbox.cif.g09.slc.cpg/sg15_64_cif.got.tgz:127213.got - 2010.06.28 07:06:18.
