data_PCOD8140892
_publ_section_title
;
Structure prediction by ZEFSAII (Michael W. Deem and Ramdas Pophale) SiO2 
 PCOD8140892
Probable space group: C 2/C
;
_chemical_formula_sum "Si O2"
_cell_formula_units_Z 44
_cell_length_a 11.400632
_cell_length_b 9.812134
_cell_length_c 23.809696
_cell_angle_alpha 90.000000
_cell_angle_beta 135.382494
_cell_angle_gamma 90.000000
_cell_volume 1870.736219
_symmetry_space_group_name_H-M "C 2/C"
_symmetry_group_IT_number 15
_symmetry_cell_setting 'monoclinic'
loop_
_space_group_symop_operation_xyz
x,y,z
-x,y,1/2-z
-x,-y,-z
x,-y,1/2+z
1/2+x,1/2+y,z
1/2-x,1/2+y,1/2-z
1/2-x,1/2-y,-z
1/2+x,1/2-y,1/2+z
loop_
_atom_site_type_symbol
_atom_site_label
_atom_site_fract_x
_atom_site_fract_y
_atom_site_fract_z
Si Si1 0.427803 0.820274 0.057923
Si Si2 0.873214 0.988578 0.299175
Si Si3 0.500000 0.715837 0.750000
Si Si4 0.713767 0.294135 0.579713
Si Si5 0.113241 0.719109 0.734557
Si Si6 0.702592 0.450676 0.470135
O O1 0.544173 0.750187 0.051644
O O2 0.508443 0.834237 0.146208
O O3 0.250000 0.750000 0.000000
O O4 0.377061 0.971276 0.019413
O O5 0.906531 0.885433 0.260003
O O6 0.745159 0.901447 0.294179
O O7 0.036288 0.030815 0.391768
O O8 0.801701 0.133207 0.251594
O O9 0.360226 0.816016 0.675638
O O10 0.678896 0.425194 0.529059
O O11 0.790510 0.183546 0.564144
O O12 0.000000 0.744291 0.750000
#
# Coordination Sequence:
#
# PCOD8140892 Si02
#       6
#     8   8   4   8   8   8
#     4  12  25  45  69 102 143 187 231 294 360 424
#     4  11  24  47  74 103 146 192 238 302 359 433
#     4  10  20  46  70 100 148 184 240 296 354 422
#     4  10  23  44  71 108 139 186 240 295 357 432
#     4  12  28  48  73 109 145 193 242 302 363 432
#     4  10  24  44  73 103 139 186 236 294 361 430
#
# _framework density 23.520150999999998
#
# number of rings (size 3 to 8) (size 9 to 14) (size 15 to 20)
#    0.000    1.091    4.545    0.545    2.545    6.545 
#    3.273    0.000    0.000    0.000    0.000    0.000 
#    0.000    0.000    0.000    0.000    0.000    0.000 
#
# Total GULP energy -272713.035070 kJ/mol
# GULP energy per Si atom -12396.047049 kJ/mol
# Density = 2.346662 g / cm^3
# Si number density = 23.520151 Si / 1000 Ang^3
#
#
#
# Elastic Constant Matrix: (Units=GPa)
#
#
# Indices 1 2 3 4 5 6 
#
# 1 121.3642 35.5428 39.7217 0.0000 5.1156 0.0000
# 2 35.5428 68.0781 6.0718 0.0000 6.5402 0.0000
# 3 39.7217 6.0718 95.9854 0.0000 0.8520 0.0000
# 4 0.0000 0.0000 0.0000 33.4965 0.0000 6.4400
# 5 5.1156 6.5402 0.8520 0.0000 35.9343 0.0000
# 6 0.0000 0.0000 0.0000 6.4400 0.0000 10.1170
#
#
#
# Elastic Compliance Matrix: (Units=1/GPa)
#
#
# Indices 1 2 3 4 5 6 
#
# 1 0.011269 -0.005450 -0.004314 0.000000 -0.000510 0.000000
# 2 -0.005450 0.017668 0.001160 0.000000 -0.002467 0.000000
# 3 -0.004314 0.001160 0.012129 0.000000 0.000116 0.000000
# 4 0.000000 0.000000 0.000000 0.034017 0.000000 -0.021653
# 5 -0.000510 -0.002467 0.000116 0.000000 0.028348 0.000000
# 6 0.000000 0.000000 0.000000 -0.021653 0.000000 0.112627
#
#
# Mechanical properties :
#
#
# Convention : Reuss Voigt Hill
#
# Bulk Modulus (GPa) = 41.91571 49.78891 45.85231
# Shear Modulus (GPa) = 20.72805 29.51565 25.12185
#
# Velocity S-wave (km/s) = 2.97187 3.54631 3.27172
# Velocity P-wave (km/s) = 5.44389 6.16304 5.81459
#
# Compressibility (1/GPa) = 0.02385740
#
# Stress axis : x y z
#
# Youngs Moduli (GPa) = 88.73738 56.59990 82.44528
#
# Poissons Ratio (x) = 0.30845 0.35569
# Poissons Ratio (y) = 0.48359 -0.09560
# Poissons Ratio (z) = 0.38284 -0.06563
#
# Static dielectric constant tensor:
#      x y z
#    x 4.556770 0.000000 0.362870 
#    y 0.000000 4.853810 0.000000 
#    z 0.362870 0.000000 5.149980 
# 
# 
# High freq. dielectric constant tensor:
#      x y z
#    x 1.931360 0.000000 -0.004030 
#    y 0.000000 1.934380 0.000000 
#    z -0.004030 0.000000 1.936460 
# 
# From -- ./inp_files/269134.got.cif
#   From: 2010.06.25/outbox.cif.g09.slc.cpg/sg15_135_cif.got.tgz:269134.got - 2010.06.28 07:06:18.
