data_PCOD8140256
_publ_section_title
;
Structure prediction by ZEFSAII (Michael W. Deem and Ramdas Pophale) SiO2 
 PCOD8140256
Probable space group: C 2/C
;
_chemical_formula_sum "Si O2"
_cell_formula_units_Z 36
_cell_length_a 7.658688
_cell_length_b 10.960924
_cell_length_c 20.766307
_cell_angle_alpha 90.000000
_cell_angle_beta 95.919325
_cell_angle_gamma 90.000000
_cell_volume 1733.959701
_symmetry_space_group_name_H-M "C 2/C"
_symmetry_group_IT_number 15
_symmetry_cell_setting 'monoclinic'
loop_
_space_group_symop_operation_xyz
x,y,z
-x,y,1/2-z
-x,-y,-z
x,-y,1/2+z
1/2+x,1/2+y,z
1/2-x,1/2+y,1/2-z
1/2-x,1/2-y,-z
1/2+x,1/2-y,1/2+z
loop_
_atom_site_type_symbol
_atom_site_label
_atom_site_fract_x
_atom_site_fract_y
_atom_site_fract_z
Si Si1 0.163819 0.657873 0.076490
Si Si2 0.852559 0.739450 0.697729
Si Si3 0.861152 0.082393 0.960667
Si Si4 0.000000 0.705156 0.250000
Si Si5 0.896863 0.484243 0.644715
O O1 0.326890 0.677117 0.132813
O O2 0.064792 0.790014 0.066097
O O3 0.045109 0.549410 0.098603
O O4 0.215672 0.616567 0.007531
O O5 0.656645 0.718535 0.721817
O O6 0.940153 0.611092 0.681505
O O7 0.000000 0.801107 0.750000
O O8 0.784880 0.999936 0.900244
O O9 0.000000 0.000000 0.000000
O O10 0.888490 0.623155 0.196225
#
# Coordination Sequence:
#
# PCOD8140256 Si02
#       5
#     8   8   8   4   8
#     4   9  21  40  58  86 124 149 199 249 290 360
#     4  10  21  40  61  85 120 163 199 249 305 348
#     4  10  21  37  61  91 116 156 197 240 302 359
#     4  10  22  40  58  88 120 156 208 252 292 368
#     4  10  20  41  59  84 123 157 195 251 300 347
#
# _framework density 20.761727
#
# number of rings (size 3 to 8) (size 9 to 14) (size 15 to 20)
#    0.000    2.222    1.111    0.667    3.111    0.889 
#   14.000    0.000    0.000    0.000    0.000    0.000 
#    0.000    0.000    0.000    0.000    0.000    0.000 
#
# Total GULP energy -223012.285999 kJ/mol
# GULP energy per Si atom -12389.571444 kJ/mol
# Density = 2.071447 g / cm^3
# Si number density = 20.761727 Si / 1000 Ang^3
#
#
#
# Elastic Constant Matrix: (Units=GPa)
#
#
# Indices 1 2 3 4 5 6 
#
# 1 65.2707 42.6161 21.6000 0.0000 3.1896 0.0000
# 2 42.6161 97.6999 32.4368 0.0000 6.1139 0.0000
# 3 21.6000 32.4368 113.2425 0.0000 18.4781 0.0000
# 4 0.0000 0.0000 0.0000 22.9101 0.0000 -1.6226
# 5 3.1896 6.1139 18.4781 0.0000 42.8594 0.0000
# 6 0.0000 0.0000 0.0000 -1.6226 0.0000 28.3387
#
#
#
# Elastic Compliance Matrix: (Units=1/GPa)
#
#
# Indices 1 2 3 4 5 6 
#
# 1 0.021679 -0.008936 -0.001635 0.000000 0.000366 0.000000
# 2 -0.008936 0.014997 -0.002528 0.000000 -0.000384 0.000000
# 3 -0.001635 -0.002528 0.010529 0.000000 -0.004057 0.000000
# 4 0.000000 0.000000 0.000000 0.043827 0.000000 0.002509
# 5 0.000366 -0.000384 -0.004057 0.000000 0.025109 0.000000
# 6 0.000000 0.000000 0.000000 0.002509 0.000000 0.035431
#
#
# Mechanical properties :
#
#
# Convention : Reuss Voigt Hill
#
# Bulk Modulus (GPa) = 47.60854 52.16876 49.88865
# Shear Modulus (GPa) = 27.06046 30.79232 28.92639
#
# Velocity S-wave (km/s) = 3.61415 3.85532 3.73668
# Velocity P-wave (km/s) = 6.35585 6.70820 6.53440
#
# Compressibility (1/GPa) = 0.02100463
#
# Stress axis : x y z
#
# Youngs Moduli (GPa) = 46.12859 66.68087 94.97831
#
# Poissons Ratio (x) = 0.59587 0.15530
# Poissons Ratio (y) = 0.41221 0.24015
# Poissons Ratio (z) = 0.07543 0.16860
#
# Static dielectric constant tensor:
#      x y z
#    x 3.690760 0.000000 -0.374610 
#    y 0.000000 4.234310 0.000000 
#    z -0.374610 0.000000 4.647350 
# 
# 
# High freq. dielectric constant tensor:
#      x y z
#    x 1.773310 0.000000 -0.002330 
#    y 0.000000 1.800050 0.000000 
#    z -0.002330 0.000000 1.850290 
# 
# From -- ./inp_files/229322.got.cif
#   From: 2010.06.25/outbox.cif.g09.slc.cpg/sg15_115_cif.got.tgz:229322.got - 2010.06.28 07:06:18.
