data_PCOD8140201
_publ_section_title
;
Structure prediction by ZEFSAII (Michael W. Deem and Ramdas Pophale) SiO2 
 PCOD8140201
Probable space group: C 2/C
;
_chemical_formula_sum "Si O2"
_cell_formula_units_Z 56
_cell_length_a 8.093034
_cell_length_b 20.955197
_cell_length_c 15.456249
_cell_angle_alpha 90.000000
_cell_angle_beta 92.034084
_cell_angle_gamma 90.000000
_cell_volume 2619.590934
_symmetry_space_group_name_H-M "C 2/C"
_symmetry_group_IT_number 15
_symmetry_cell_setting 'monoclinic'
loop_
_space_group_symop_operation_xyz
x,y,z
-x,y,1/2-z
-x,-y,-z
x,-y,1/2+z
1/2+x,1/2+y,z
1/2-x,1/2+y,1/2-z
1/2-x,1/2-y,-z
1/2+x,1/2-y,1/2+z
loop_
_atom_site_type_symbol
_atom_site_label
_atom_site_fract_x
_atom_site_fract_y
_atom_site_fract_z
Si Si1 0.195112 0.169447 0.748703
Si Si2 0.792953 0.924104 0.099934
Si Si3 0.122999 0.456005 0.554117
Si Si4 0.945213 0.759474 0.509495
Si Si5 0.129986 0.357926 0.930874
Si Si6 0.621409 0.708851 0.182503
Si Si7 0.865006 0.885479 0.427640
O O1 0.260004 0.119382 0.820619
O O2 0.279516 0.237335 0.763512
O O3 0.241616 0.141387 0.655064
O O4 0.000000 0.179948 0.750000
O O5 0.991848 0.934237 0.099318
O O6 0.727936 0.996246 0.116175
O O7 0.718903 0.893211 0.011708
O O8 0.239742 0.416859 0.491490
O O9 0.000000 0.500000 0.500000
O O10 0.017078 0.404209 0.606741
O O11 0.750000 0.750000 0.500000
O O12 0.977511 0.829191 0.471119
O O13 0.049838 0.709286 0.456123
O O14 0.010809 0.756766 0.607941
O O15 0.257870 0.344503 0.855705
O O16 0.500000 0.674868 0.250000
#
# Coordination Sequence:
#
# PCOD8140201 Si02
#       7
#     8   8   8   8   8   8   8
#     4  10  22  40  67 104 129 167 221 285 327 390
#     4  10  20  40  69  94 131 173 222 271 330 387
#     4  10  23  39  66  91 125 177 221 270 327 397
#     4  12  22  39  68  96 135 177 214 272 346 404
#     4  11  21  41  63  96 134 169 220 269 335 409
#     4  12  25  39  65  99 139 175 217 276 343 397
#     4  11  21  40  69  98 132 172 230 274 326 401
#
# _framework density 21.377382999999998
#
# number of rings (size 3 to 8) (size 9 to 14) (size 15 to 20)
#    0.000    1.143    4.286    3.429    0.000    0.000 
#    0.000    0.000    9.429    0.000    0.000    0.000 
#    0.000    0.000    0.000    0.000    0.000    0.000 
#
# Total GULP energy -347112.892772 kJ/mol
# GULP energy per Si atom -12396.889028 kJ/mol
# Density = 2.132873 g / cm^3
# Si number density = 21.377383 Si / 1000 Ang^3
#
#
#
# Elastic Constant Matrix: (Units=GPa)
#
#
# Indices 1 2 3 4 5 6 
#
# 1 105.6931 55.0656 31.2996 0.0000 -10.7884 0.0000
# 2 55.0656 120.9156 46.3874 0.0000 -7.9863 0.0000
# 3 31.2996 46.3874 78.9464 0.0000 -5.0207 0.0000
# 4 0.0000 0.0000 0.0000 24.1538 0.0000 8.3523
# 5 -10.7884 -7.9863 -5.0207 0.0000 35.2381 0.0000
# 6 0.0000 0.0000 0.0000 8.3523 0.0000 37.5778
#
#
#
# Elastic Compliance Matrix: (Units=1/GPa)
#
#
# Indices 1 2 3 4 5 6 
#
# 1 0.012890 -0.004911 -0.002063 0.000000 0.002539 0.000000
# 2 -0.004911 0.012631 -0.005438 0.000000 0.000584 0.000000
# 3 -0.002063 -0.005438 0.016713 0.000000 0.000517 0.000000
# 4 0.000000 0.000000 0.000000 0.044848 0.000000 -0.009968
# 5 0.002539 0.000584 0.000517 0.000000 0.029362 0.000000
# 6 0.000000 0.000000 0.000000 -0.009968 0.000000 0.028827
#
#
# Mechanical properties :
#
#
# Convention : Reuss Voigt Hill
#
# Bulk Modulus (GPa) = 57.43763 63.45115 60.44439
# Shear Modulus (GPa) = 28.42529 30.91410 29.66970
#
# Velocity S-wave (km/s) = 3.65045 3.80690 3.72950
# Velocity P-wave (km/s) = 6.68539 7.00494 6.84703
#
# Compressibility (1/GPa) = 0.01741019
#
# Stress axis : x y z
#
# Youngs Moduli (GPa) = 77.57836 79.16774 59.83388
#
# Poissons Ratio (x) = 0.38879 0.12347
# Poissons Ratio (y) = 0.38098 0.32536
# Poissons Ratio (z) = 0.16008 0.43050
#
# Static dielectric constant tensor:
#      x y z
#    x 4.286090 0.000000 -0.010600 
#    y 0.000000 4.402750 0.000000 
#    z -0.010600 0.000000 3.904550 
# 
# 
# High freq. dielectric constant tensor:
#      x y z
#    x 1.860260 0.000000 -0.000190 
#    y 0.000000 1.833670 0.000000 
#    z -0.000190 0.000000 1.817390 
# 
# From -- ./inp_files/136469.got.cif
#   From: 2010.06.25/outbox.cif.g09.slc.cpg/sg15_69_cif.got.tgz:136469.got - 2010.06.28 07:06:18.
