data_PCOD8140966
_publ_section_title
;
Structure prediction by ZEFSAII (Michael W. Deem and Ramdas Pophale) SiO2 
 PCOD8140966
Probable space group: C 2/C
;
_chemical_formula_sum "Si O2"
_cell_formula_units_Z 48
_cell_length_a 7.519896
_cell_length_b 29.180962
_cell_length_c 11.151056
_cell_angle_alpha 90.000000
_cell_angle_beta 90.306019
_cell_angle_gamma 90.000000
_cell_volume 2446.928288
_symmetry_space_group_name_H-M "C 2/C"
_symmetry_group_IT_number 15
_symmetry_cell_setting 'monoclinic'
loop_
_space_group_symop_operation_xyz
x,y,z
-x,y,1/2-z
-x,-y,-z
x,-y,1/2+z
1/2+x,1/2+y,z
1/2-x,1/2+y,1/2-z
1/2-x,1/2-y,-z
1/2+x,1/2-y,1/2+z
loop_
_atom_site_type_symbol
_atom_site_label
_atom_site_fract_x
_atom_site_fract_y
_atom_site_fract_z
Si Si1 0.271748 0.389237 0.126806
Si Si2 0.837587 0.210681 0.578504
Si Si3 0.768688 0.813636 0.500059
Si Si4 0.684712 0.751231 0.306130
Si Si5 0.022119 0.466283 0.387649
Si Si6 0.833499 0.903795 0.395811
O O1 0.242306 0.339627 0.064459
O O2 0.109638 0.423111 0.095720
O O3 0.289496 0.380103 0.268546
O O4 0.456770 0.413067 0.084415
O O5 0.750000 0.250000 0.500000
O O6 0.825197 0.227832 0.714689
O O7 0.040310 0.204724 0.544041
O O8 0.633389 0.789551 0.406489
O O9 0.730925 0.794741 0.633261
O O10 0.761111 0.868609 0.496973
O O11 0.500000 0.735253 0.250000
O O12 0.000000 0.486698 0.250000
O O13 0.000000 0.500000 0.500000
O O14 0.226744 0.451038 0.403948
#
# Coordination Sequence:
#
# PCOD8140966 Si02
#       6
#     8   8   8   8   8   8
#     4   9  19  34  58  86 112 150 196 236 283 342
#     4  11  20  34  52  79 118 153 195 241 275 335
#     4  10  21  34  51  76 111 152 194 240 281 328
#     4  11  21  31  50  78 111 151 196 234 280 325
#     4  10  22  40  65  89 114 146 192 248 304 363
#     4   9  18  35  58  83 112 148 192 236 280 353
#
# _framework density 19.616430000000001
#
# number of rings (size 3 to 8) (size 9 to 14) (size 15 to 20)
#    0.000    2.000    3.333    0.500    2.333    0.667 
#    0.000    1.667    0.000    0.000    0.000    0.000 
#    0.000    0.000    0.000    0.000    0.000    0.000 
#
# Total GULP energy -297345.885710 kJ/mol
# GULP energy per Si atom -12389.411905 kJ/mol
# Density = 1.957178 g / cm^3
# Si number density = 19.616430 Si / 1000 Ang^3
#
#
#
# Elastic Constant Matrix: (Units=GPa)
#
#
# Indices 1 2 3 4 5 6 
#
# 1 54.7524 32.9171 25.1264 0.0000 0.0860 0.0000
# 2 32.9171 83.9790 50.8274 0.0000 -7.6494 0.0000
# 3 25.1264 50.8274 96.1059 0.0000 -1.3893 0.0000
# 4 0.0000 0.0000 0.0000 37.0182 0.0000 -5.2018
# 5 0.0860 -7.6494 -1.3893 0.0000 21.9163 0.0000
# 6 0.0000 0.0000 0.0000 -5.2018 0.0000 25.6830
#
#
#
# Elastic Compliance Matrix: (Units=1/GPa)
#
#
# Indices 1 2 3 4 5 6 
#
# 1 0.024357 -0.008769 -0.001778 0.000000 -0.003269 0.000000
# 2 -0.008769 0.021367 -0.008908 0.000000 0.006928 0.000000
# 3 -0.001778 -0.008908 0.015550 0.000000 -0.002116 0.000000
# 4 0.000000 0.000000 0.000000 0.027805 0.000000 0.005632
# 5 -0.003269 0.006928 -0.002116 0.000000 0.047925 0.000000
# 6 0.000000 0.000000 0.000000 0.005632 0.000000 0.040077
#
#
# Mechanical properties :
#
#
# Convention : Reuss Voigt Hill
#
# Bulk Modulus (GPa) = 44.71106 50.28657 47.49882
# Shear Modulus (GPa) = 22.37687 25.32125 23.84906
#
# Velocity S-wave (km/s) = 3.38112 3.59669 3.49057
# Velocity P-wave (km/s) = 6.17129 6.55277 6.36489
#
# Compressibility (1/GPa) = 0.02236583
#
# Stress axis : x y z
#
# Youngs Moduli (GPa) = 41.05627 46.80068 64.30727
#
# Poissons Ratio (x) = 0.41039 0.11431
# Poissons Ratio (y) = 0.36002 0.57283
# Poissons Ratio (z) = 0.07298 0.41689
#
# Static dielectric constant tensor:
#      x y z
#    x 3.820270 0.000000 -0.058290 
#    y 0.000000 3.399000 0.000000 
#    z -0.058290 0.000000 3.709730 
# 
# 
# High freq. dielectric constant tensor:
#      x y z
#    x 1.773780 0.000000 0.002320 
#    y 0.000000 1.735460 0.000000 
#    z 0.002320 0.000000 1.746270 
# 
# From -- ./inp_files/79384.got.cif
#   From: 2010.06.25/outbox.cif.g09.slc.cpg/sg15_40_cif.got.tgz:79384.got - 2010.06.28 07:06:18.
