data_PCOD8140408
_publ_section_title
;
Structure prediction by ZEFSAII (Michael W. Deem and Ramdas Pophale) SiO2 
 PCOD8140408
Probable space group: C 2/C
;
_chemical_formula_sum "Si O2"
_cell_formula_units_Z 60
_cell_length_a 23.792758
_cell_length_b 14.040336
_cell_length_c 8.726327
_cell_angle_alpha 90.000000
_cell_angle_beta 116.212716
_cell_angle_gamma 90.000000
_cell_volume 2615.314061
_symmetry_space_group_name_H-M "C 2/C"
_symmetry_group_IT_number 15
_symmetry_cell_setting 'monoclinic'
loop_
_space_group_symop_operation_xyz
x,y,z
-x,y,1/2-z
-x,-y,-z
x,-y,1/2+z
1/2+x,1/2+y,z
1/2-x,1/2+y,1/2-z
1/2-x,1/2-y,-z
1/2+x,1/2-y,1/2+z
loop_
_atom_site_type_symbol
_atom_site_label
_atom_site_fract_x
_atom_site_fract_y
_atom_site_fract_z
Si Si1 0.387666 0.164047 0.379408
Si Si2 0.068991 0.107929 0.043922
Si Si3 0.520115 0.188589 0.439885
Si Si4 0.131564 0.443245 0.152706
Si Si5 0.291835 0.351759 0.858833
Si Si6 0.000000 0.959977 0.750000
Si Si7 0.294153 0.162535 0.507655
Si Si8 0.802259 0.343810 0.508635
O O1 0.458339 0.201357 0.468393
O O2 0.359017 0.198230 0.507050
O O3 0.346620 0.206876 0.190366
O O4 0.388286 0.050845 0.350853
O O5 0.143550 0.099519 0.111262
O O6 0.046077 0.101659 0.194363
O O7 0.049661 0.208250 0.948744
O O8 0.042341 0.022607 0.911940
O O9 0.500000 0.145800 0.250000
O O10 0.568964 0.120909 0.586357
O O11 0.186227 0.409599 0.335119
O O12 0.162383 0.433928 0.021107
O O13 0.242987 0.391507 0.673513
O O14 0.263335 0.378340 0.993025
O O15 0.294657 0.235517 0.864612
O O16 0.250000 0.250000 0.500000
#
# Coordination Sequence:
#
# PCOD8140408 Si02
#       8
#     8   8   8   8   8   4   8   8
#     4  11  25  41  66 104 136 177 221 279 343 398
#     4  11  22  48  69 102 132 177 224 288 343 407
#     4  12  23  42  75  95 130 187 228 266 349 425
#     4  12  23  43  67 100 144 169 227 287 330 402
#     4  10  21  42  71  93 128 175 235 259 339 409
#     4  10  26  44  72 100 140 162 226 300 338 390
#     4  11  23  42  64  97 135 178 221 278 329 389
#     4  10  20  41  67  92 129 182 216 272 320 413
#
# _framework density 22.941796
#
# number of rings (size 3 to 8) (size 9 to 14) (size 15 to 20)
#    0.000    1.067    4.667    1.200    0.000    2.667 
#    9.600    1.333    0.000    0.000    0.000    0.000 
#    0.000    0.000    0.000    0.000    0.000    0.000 
#
# Total GULP energy -371814.369945 kJ/mol
# GULP energy per Si atom -12393.812332 kJ/mol
# Density = 2.288958 g / cm^3
# Si number density = 22.941796 Si / 1000 Ang^3
#
#
#
# Elastic Constant Matrix: (Units=GPa)
#
#
# Indices 1 2 3 4 5 6 
#
# 1 190.6551 6.7494 25.9388 0.0000 -2.0732 0.0000
# 2 6.7494 39.3351 6.3363 0.0000 9.9539 0.0000
# 3 25.9388 6.3363 73.4559 0.0000 0.8663 0.0000
# 4 0.0000 0.0000 0.0000 22.7799 0.0000 -2.2315
# 5 -2.0732 9.9539 0.8663 0.0000 35.8092 0.0000
# 6 0.0000 0.0000 0.0000 -2.2315 0.0000 32.2228
#
#
#
# Elastic Compliance Matrix: (Units=1/GPa)
#
#
# Indices 1 2 3 4 5 6 
#
# 1 0.005537 -0.000794 -0.001894 0.000000 0.000587 0.000000
# 2 -0.000794 0.027844 -0.002030 0.000000 -0.007736 0.000000
# 3 -0.001894 -0.002030 0.014456 0.000000 0.000105 0.000000
# 4 0.000000 0.000000 0.000000 0.044198 0.000000 0.003061
# 5 0.000587 -0.007736 0.000105 0.000000 0.030108 0.000000
# 6 0.000000 0.000000 0.000000 0.003061 0.000000 0.031246
#
#
# Mechanical properties :
#
#
# Convention : Reuss Voigt Hill
#
# Bulk Modulus (GPa) = 26.04057 42.38834 34.21446
# Shear Modulus (GPa) = 28.46983 35.79051 32.13017
#
# Velocity S-wave (km/s) = 3.52655 3.95404 3.74640
# Velocity P-wave (km/s) = 5.28748 6.27395 5.80172
#
# Compressibility (1/GPa) = 0.03840162
#
# Stress axis : x y z
#
# Youngs Moduli (GPa) = 180.59670 35.91501 69.17437
#
# Poissons Ratio (x) = 0.02850 0.13100
# Poissons Ratio (y) = 0.14332 0.14044
# Poissons Ratio (z) = 0.34201 0.07292
#
# Static dielectric constant tensor:
#      x y z
#    x 4.579120 0.000000 -0.154960 
#    y 0.000000 3.724130 0.000000 
#    z -0.154960 0.000000 4.296960 
# 
# 
# High freq. dielectric constant tensor:
#      x y z
#    x 1.927600 0.000000 -0.007330 
#    y 0.000000 1.876060 0.000000 
#    z -0.007330 0.000000 1.909480 
# 
# From -- ./inp_files/61962.got.cif
#   From: 2010.06.25/outbox.cif.g09.slc.cpg/sg15_31_cif.got.tgz:61962.got - 2010.06.28 07:06:18.
