data_PCOD8140175
_publ_section_title
;
Structure prediction by ZEFSAII (Michael W. Deem and Ramdas Pophale) SiO2 
 PCOD8140175
Probable space group: C 2/C
;
_chemical_formula_sum "Si O2"
_cell_formula_units_Z 60
_cell_length_a 29.060588
_cell_length_b 19.456734
_cell_length_c 11.969253
_cell_angle_alpha 90.000000
_cell_angle_beta 155.095054
_cell_angle_gamma 90.000000
_cell_volume 2849.975855
_symmetry_space_group_name_H-M "C 2/C"
_symmetry_group_IT_number 15
_symmetry_cell_setting 'monoclinic'
loop_
_space_group_symop_operation_xyz
x,y,z
-x,y,1/2-z
-x,-y,-z
x,-y,1/2+z
1/2+x,1/2+y,z
1/2-x,1/2+y,1/2-z
1/2-x,1/2-y,-z
1/2+x,1/2-y,1/2+z
loop_
_atom_site_type_symbol
_atom_site_label
_atom_site_fract_x
_atom_site_fract_y
_atom_site_fract_z
Si Si1 0.390564 0.352244 0.571313
Si Si2 0.195424 0.181251 0.842956
Si Si3 0.000000 0.109992 0.750000
Si Si4 0.984518 0.656789 0.095544
Si Si5 0.395767 0.020971 0.942047
Si Si6 0.470108 0.698273 0.464090
Si Si7 0.686693 0.500565 0.619939
Si Si8 0.837194 0.434024 0.624845
O O1 0.500000 0.328541 0.750000
O O2 0.299684 0.324786 0.283013
O O3 0.376996 0.319611 0.666181
O O4 0.387423 0.434428 0.577185
O O5 0.078988 0.173166 0.643112
O O6 0.250000 0.250000 0.000000
O O7 0.269203 0.119213 0.051524
O O8 0.960221 0.157467 0.558787
O O9 0.894345 0.064625 0.551010
O O10 0.089908 0.608988 0.302237
O O11 0.000000 0.692436 0.250000
O O12 0.884139 0.602222 0.883642
O O13 0.965290 0.718902 0.967299
O O14 0.281987 0.991463 0.738521
O O15 0.418693 0.977400 0.881228
O O16 0.500000 0.007785 0.250000
O O17 0.749921 0.514867 0.874824
#
# Coordination Sequence:
#
# PCOD8140175 Si02
#       8
#     8   8   4   8   8   8   8   8
#     4   9  21  41  63  94 130 174 217 268 331 392
#     4  10  20  40  68  94 129 180 222 267 332 400
#     4  12  26  40  68 104 136 174 224 276 322 406
#     4  11  21  42  66  90 132 174 210 270 332 397
#     4  11  24  42  67  98 128 171 222 276 327 391
#     4  11  23  42  65  99 135 173 222 269 335 403
#     4  11  23  42  66  97 132 173 219 271 335 386
#     4  11  22  42  68  92 130 175 221 269 333 395
#
# _framework density 21.052810000000001
#
# number of rings (size 3 to 8) (size 9 to 14) (size 15 to 20)
#    0.000    1.333    5.333    1.200    1.867    0.533 
#    2.400    2.000    0.000    0.000    0.000    0.000 
#    0.000    0.000    0.000    0.000    0.000    0.000 
#
# Total GULP energy -371687.983573 kJ/mol
# GULP energy per Si atom -12389.599452 kJ/mol
# Density = 2.100489 g / cm^3
# Si number density = 21.052810 Si / 1000 Ang^3
#
#
#
# Elastic Constant Matrix: (Units=GPa)
#
#
# Indices 1 2 3 4 5 6 
#
# 1 102.3050 50.5604 37.4553 0.0000 -10.6102 0.0000
# 2 50.5604 111.1227 47.8095 0.0000 -21.3632 0.0000
# 3 37.4553 47.8095 70.6409 0.0000 -12.1587 0.0000
# 4 0.0000 0.0000 0.0000 23.2066 0.0000 -4.3063
# 5 -10.6102 -21.3632 -12.1587 0.0000 44.0295 0.0000
# 6 0.0000 0.0000 0.0000 -4.3063 0.0000 31.6154
#
#
#
# Elastic Compliance Matrix: (Units=1/GPa)
#
#
# Indices 1 2 3 4 5 6 
#
# 1 0.013445 -0.004306 -0.004217 0.000000 -0.000014 0.000000
# 2 -0.004306 0.014774 -0.006993 0.000000 0.004200 0.000000
# 3 -0.004217 -0.006993 0.021383 0.000000 0.001495 0.000000
# 4 0.000000 0.000000 0.000000 0.044208 0.000000 0.006022
# 5 -0.000014 0.004200 0.001495 0.000000 0.025159 0.000000
# 6 0.000000 0.000000 0.000000 0.006022 0.000000 0.032450
#
#
# Mechanical properties :
#
#
# Convention : Reuss Voigt Hill
#
# Bulk Modulus (GPa) = 53.85152 61.74654 57.79903
# Shear Modulus (GPa) = 26.50509 29.65319 28.07914
#
# Velocity S-wave (km/s) = 3.55206 3.75709 3.65601
# Velocity P-wave (km/s) = 6.51595 6.94363 6.73319
#
# Compressibility (1/GPa) = 0.01856958
#
# Stress axis : x y z
#
# Youngs Moduli (GPa) = 74.37604 67.68462 46.76693
#
# Poissons Ratio (x) = 0.29143 0.19722
# Poissons Ratio (y) = 0.32024 0.32706
# Poissons Ratio (z) = 0.31366 0.47335
#
# Static dielectric constant tensor:
#      x y z
#    x 4.089420 0.000000 0.116370 
#    y 0.000000 3.737030 0.000000 
#    z 0.116370 0.000000 4.076530 
# 
# 
# High freq. dielectric constant tensor:
#      x y z
#    x 1.833530 0.000000 0.000860 
#    y 0.000000 1.819970 0.000000 
#    z 0.000860 0.000000 1.815650 
# 
# From -- ./inp_files/124005.got.cif
#   From: 2010.06.25/outbox.cif.g09.slc.cpg/sg15_63_cif.got.tgz:124005.got - 2010.06.28 07:06:18.
