data_PCOD8140274
_publ_section_title
;
Structure prediction by ZEFSAII (Michael W. Deem and Ramdas Pophale) SiO2 
 PCOD8140274
Probable space group: C 2/C
;
_chemical_formula_sum "Si O2"
_cell_formula_units_Z 48
_cell_length_a 9.237454
_cell_length_b 27.335124
_cell_length_c 9.713950
_cell_angle_alpha 90.000000
_cell_angle_beta 89.395051
_cell_angle_gamma 90.000000
_cell_volume 2452.703174
_symmetry_space_group_name_H-M "C 2/C"
_symmetry_group_IT_number 15
_symmetry_cell_setting 'monoclinic'
loop_
_space_group_symop_operation_xyz
x,y,z
-x,y,1/2-z
-x,-y,-z
x,-y,1/2+z
1/2+x,1/2+y,z
1/2-x,1/2+y,1/2-z
1/2-x,1/2-y,-z
1/2+x,1/2-y,1/2+z
loop_
_atom_site_type_symbol
_atom_site_label
_atom_site_fract_x
_atom_site_fract_y
_atom_site_fract_z
Si Si1 0.835225 0.898440 0.777606
Si Si2 0.837062 0.384281 0.244337
Si Si3 0.860715 0.204187 0.656460
Si Si4 0.635543 0.289507 0.661993
Si Si5 0.170946 0.549744 0.505317
Si Si6 0.842490 0.438576 0.970598
O O1 0.812854 0.840366 0.773010
O O2 0.791999 0.919161 0.926201
O O3 0.732166 0.922031 0.666934
O O4 0.000000 0.913431 0.750000
O O5 0.727323 0.343761 0.299727
O O6 0.828267 0.433343 0.336173
O O7 0.000000 0.362606 0.250000
O O8 0.796723 0.400716 0.090659
O O9 0.765827 0.252225 0.679843
O O10 0.908736 0.201824 0.496668
O O11 0.000000 0.208854 0.750000
O O12 0.500000 0.268971 0.750000
O O13 0.211011 0.492952 0.491928
O O14 0.014015 0.560902 0.442109
#
# Coordination Sequence:
#
# PCOD8140274 Si02
#       6
#     8   8   8   8   8   8
#     4  11  23  39  60  91 126 162 195 254 306 358
#     4  10  21  38  61  91 122 160 201 254 303 355
#     4  11  24  42  67  91 120 161 200 251 305 362
#     4  10  24  45  62  91 127 156 201 250 301 368
#     4  10  20  41  61  89 123 160 211 255 293 357
#     4  10  22  37  65  89 120 165 209 250 299 354
#
# _framework density 19.570243000000001
#
# number of rings (size 3 to 8) (size 9 to 14) (size 15 to 20)
#    0.000    1.667    1.667    2.000    4.667    5.333 
#    3.000    1.667    0.000    0.000    0.000    0.000 
#    0.000    0.000    0.000    0.000    0.000    0.000 
#
# Total GULP energy -297701.085104 kJ/mol
# GULP energy per Si atom -12404.211879 kJ/mol
# Density = 1.952570 g / cm^3
# Si number density = 19.570243 Si / 1000 Ang^3
#
#
#
# Elastic Constant Matrix: (Units=GPa)
#
#
# Indices 1 2 3 4 5 6 
#
# 1 92.3775 48.0421 53.7098 0.0000 -3.3633 0.0000
# 2 48.0421 78.2813 27.6274 0.0000 -0.3889 0.0000
# 3 53.7098 27.6274 99.7113 0.0000 -2.5853 0.0000
# 4 0.0000 0.0000 0.0000 35.3447 0.0000 -2.3731
# 5 -3.3633 -0.3889 -2.5853 0.0000 38.2424 0.0000
# 6 0.0000 0.0000 0.0000 -2.3731 0.0000 27.6632
#
#
#
# Elastic Compliance Matrix: (Units=1/GPa)
#
#
# Indices 1 2 3 4 5 6 
#
# 1 0.020939 -0.009836 -0.008523 0.000000 0.001165 0.000000
# 2 -0.009836 0.018781 0.000078 0.000000 -0.000669 0.000000
# 3 -0.008523 0.000078 0.014605 0.000000 0.000239 0.000000
# 4 0.000000 0.000000 0.000000 0.028457 0.000000 0.002441
# 5 0.001165 -0.000669 0.000239 0.000000 0.026261 0.000000
# 6 0.000000 0.000000 0.000000 0.002441 0.000000 0.036359
#
#
# Mechanical properties :
#
#
# Convention : Reuss Voigt Hill
#
# Bulk Modulus (GPa) = 56.30698 58.79210 57.54954
# Shear Modulus (GPa) = 26.61224 29.64944 28.13084
#
# Velocity S-wave (km/s) = 3.69159 3.89656 3.79546
# Velocity P-wave (km/s) = 6.85599 7.09584 6.97695
#
# Compressibility (1/GPa) = 0.01775979
#
# Stress axis : x y z
#
# Youngs Moduli (GPa) = 47.75880 53.24666 68.47159
#
# Poissons Ratio (x) = 0.52376 0.58358
# Poissons Ratio (y) = 0.46978 -0.00531
# Poissons Ratio (z) = 0.40705 -0.00413
#
# Static dielectric constant tensor:
#      x y z
#    x 3.560540 0.000000 -0.152600 
#    y 0.000000 3.563060 0.000000 
#    z -0.152600 0.000000 3.632300 
# 
# 
# High freq. dielectric constant tensor:
#      x y z
#    x 1.756590 0.000000 -0.010120 
#    y 0.000000 1.770810 0.000000 
#    z -0.010120 0.000000 1.774260 
# 
# From -- ./inp_files/26055.got.cif
#   From: 2010.06.25/outbox.cif.g09.slc.cpg/sg15_14_cif.got.tgz:26055.got - 2010.06.28 07:06:18.
