data_PCOD8140766
_publ_section_title
;
Structure prediction by ZEFSAII (Michael W. Deem and Ramdas Pophale) SiO2 
 PCOD8140766
Probable space group: C 2/C
;
_chemical_formula_sum "Si O2"
_cell_formula_units_Z 56
_cell_length_a 10.825285
_cell_length_b 25.553070
_cell_length_c 9.358272
_cell_angle_alpha 90.000000
_cell_angle_beta 108.511049
_cell_angle_gamma 90.000000
_cell_volume 2454.746447
_symmetry_space_group_name_H-M "C 2/C"
_symmetry_group_IT_number 15
_symmetry_cell_setting 'monoclinic'
loop_
_space_group_symop_operation_xyz
x,y,z
-x,y,1/2-z
-x,-y,-z
x,-y,1/2+z
1/2+x,1/2+y,z
1/2-x,1/2+y,1/2-z
1/2-x,1/2-y,-z
1/2+x,1/2-y,1/2+z
loop_
_atom_site_type_symbol
_atom_site_label
_atom_site_fract_x
_atom_site_fract_y
_atom_site_fract_z
Si Si1 0.000000 0.718557 0.750000
Si Si2 0.170372 0.040131 0.065962
Si Si3 0.084784 0.468590 0.418244
Si Si4 0.252004 0.778510 0.742115
Si Si5 0.362840 0.327622 0.340513
Si Si6 0.348818 0.852991 0.005545
Si Si7 0.500000 0.499045 0.250000
Si Si8 0.157786 0.151086 0.979362
O O1 0.121022 0.756077 0.764616
O O2 0.026568 0.680677 0.895570
O O3 0.105232 0.032754 0.198725
O O4 0.288540 0.000260 0.086459
O O5 0.216471 0.100139 0.079554
O O6 0.069447 0.035807 0.896445
O O7 0.122349 0.414040 0.506552
O O8 0.000000 0.455045 0.250000
O O9 0.000000 0.500000 0.500000
O O10 0.362393 0.734325 0.801476
O O11 0.228150 0.797352 0.570457
O O12 0.298260 0.830659 0.838520
O O13 0.263026 0.346540 0.419707
O O14 0.316480 0.355810 0.178697
O O15 0.503406 0.343601 0.449035
#
# Coordination Sequence:
#
# PCOD8140766 Si02
#       8
#     4   8   8   8   8   8   4   8
#     4  10  20  43  66  96 132 174 223 274 346 416
#     4  11  26  44  73 101 141 180 238 288 360 407
#     4  12  29  49  71 100 146 192 241 288 346 430
#     4  11  22  39  68 102 132 171 229 286 334 423
#     4  10  23  42  66  97 142 174 223 281 356 422
#     4  11  24  42  70  97 132 183 229 277 351 410
#     4  10  24  45  70 104 138 170 229 306 348 410
#     4  11  24  40  67 100 136 178 221 286 359 407
#
# _framework density 22.812946
#
# number of rings (size 3 to 8) (size 9 to 14) (size 15 to 20)
#    0.000    1.143    0.714    5.571   12.000    0.571 
#    0.000    2.857    0.000    0.000    0.000    0.000 
#    0.000    0.000    0.000    0.000    0.000    0.000 
#
# Total GULP energy -347170.873953 kJ/mol
# GULP energy per Si atom -12398.959784 kJ/mol
# Density = 2.276102 g / cm^3
# Si number density = 22.812946 Si / 1000 Ang^3
#
#
#
# Elastic Constant Matrix: (Units=GPa)
#
#
# Indices 1 2 3 4 5 6 
#
# 1 27.1703 2.3297 24.9152 0.0000 1.3313 0.0000
# 2 2.3297 138.1797 27.4275 0.0000 7.7926 0.0000
# 3 24.9152 27.4275 73.7067 0.0000 -0.7089 0.0000
# 4 0.0000 0.0000 0.0000 42.3885 0.0000 3.4051
# 5 1.3313 7.7926 -0.7089 0.0000 33.6375 0.0000
# 6 0.0000 0.0000 0.0000 3.4051 0.0000 19.7779
#
#
#
# Elastic Compliance Matrix: (Units=1/GPa)
#
#
# Indices 1 2 3 4 5 6 
#
# 1 0.054795 0.003181 -0.019738 0.000000 -0.003322 0.000000
# 2 0.003181 0.008118 -0.004117 0.000000 -0.002093 0.000000
# 3 -0.019738 -0.004117 0.021792 0.000000 0.002194 0.000000
# 4 0.000000 0.000000 0.000000 0.023922 0.000000 -0.004119
# 5 -0.003322 -0.002093 0.002194 0.000000 0.030391 0.000000
# 6 0.000000 0.000000 0.000000 -0.004119 0.000000 0.051270
#
#
# Mechanical properties :
#
#
# Convention : Reuss Voigt Hill
#
# Bulk Modulus (GPa) = 23.06331 38.71128 30.88730
# Shear Modulus (GPa) = 20.31781 31.45308 25.88544
#
# Velocity S-wave (km/s) = 2.98757 3.71716 3.37216
# Velocity P-wave (km/s) = 4.69388 5.95222 5.36010
#
# Compressibility (1/GPa) = 0.04335891
#
# Stress axis : x y z
#
# Youngs Moduli (GPa) = 18.24987 123.17591 45.88762
#
# Poissons Ratio (x) = -0.39186 0.90574
# Poissons Ratio (y) = -0.05806 0.18890
# Poissons Ratio (z) = 0.36022 0.50706
#
# Static dielectric constant tensor:
#      x y z
#    x 4.180190 0.000000 0.012290 
#    y 0.000000 4.260800 0.000000 
#    z 0.012290 0.000000 4.245970 
# 
# 
# High freq. dielectric constant tensor:
#      x y z
#    x 1.889460 0.000000 0.005200 
#    y 0.000000 1.909570 0.000000 
#    z 0.005200 0.000000 1.913290 
# 
# From -- ./inp_files/34400.got.cif
#   From: 2010.06.25/outbox.cif.g09.slc.cpg/sg15_18_cif.got.tgz:34400.got - 2010.06.28 07:06:18.
