data_PCOD8140270
_publ_section_title
;
Structure prediction by ZEFSAII (Michael W. Deem and Ramdas Pophale) SiO2 
 PCOD8140270
Probable space group: C 2/C
;
_chemical_formula_sum "Si O2"
_cell_formula_units_Z 44
_cell_length_a 24.046776
_cell_length_b 8.199449
_cell_length_c 10.962621
_cell_angle_alpha 90.000000
_cell_angle_beta 115.007935
_cell_angle_gamma 90.000000
_cell_volume 1958.860850
_symmetry_space_group_name_H-M "C 2/C"
_symmetry_group_IT_number 15
_symmetry_cell_setting 'monoclinic'
loop_
_space_group_symop_operation_xyz
x,y,z
-x,y,1/2-z
-x,-y,-z
x,-y,1/2+z
1/2+x,1/2+y,z
1/2-x,1/2+y,1/2-z
1/2-x,1/2-y,-z
1/2+x,1/2-y,1/2+z
loop_
_atom_site_type_symbol
_atom_site_label
_atom_site_fract_x
_atom_site_fract_y
_atom_site_fract_z
Si Si1 0.867279 0.953996 0.657220
Si Si2 0.472853 0.937859 0.101268
Si Si3 0.160481 0.371834 0.487060
Si Si4 0.208020 0.858325 0.236425
Si Si5 0.500000 0.624532 0.250000
Si Si6 0.754240 0.926783 0.924069
O O1 0.845537 0.020077 0.768119
O O2 0.854486 0.759692 0.633758
O O3 0.826993 0.049093 0.517721
O O4 0.940101 0.989276 0.712585
O O5 0.500000 0.023643 0.250000
O O6 0.400241 0.973783 0.037060
O O7 0.487579 0.742943 0.121498
O O8 0.500000 0.000000 0.000000
O O9 0.180373 0.281296 0.627349
O O10 0.214092 0.493871 0.495216
O O11 0.258243 0.966971 0.211080
O O12 0.237827 0.764159 0.382577
#
# Coordination Sequence:
#
# PCOD8140270 Si02
#       6
#     8   8   8   8   4   8
#     4  10  20  41  60  90 124 173 213 266 330 398
#     4   9  20  40  67  95 135 176 222 266 334 390
#     4  10  22  39  62  90 130 167 214 273 336 390
#     4  11  22  37  65  88 130 163 218 270 340 397
#     4   8  20  40  66  88 138 176 220 276 332 388
#     4  11  22  39  62  97 125 165 216 276 336 398
#
# _framework density 22.462036000000001
#
# number of rings (size 3 to 8) (size 9 to 14) (size 15 to 20)
#    0.545    1.455    0.000    4.909    2.545    0.000 
#    0.000   13.636    0.000    0.000    0.000    0.000 
#    0.000    0.000    0.000    0.000    0.000    0.000 
#
# Total GULP energy -272672.967660 kJ/mol
# GULP energy per Si atom -12394.225803 kJ/mol
# Density = 2.241091 g / cm^3
# Si number density = 22.462036 Si / 1000 Ang^3
#
#
#
# Elastic Constant Matrix: (Units=GPa)
#
#
# Indices 1 2 3 4 5 6 
#
# 1 178.0145 66.6680 60.4878 0.0000 1.2900 0.0000
# 2 66.6680 84.8334 32.5835 0.0000 -7.9986 0.0000
# 3 60.4878 32.5835 91.1305 0.0000 -23.6801 0.0000
# 4 0.0000 0.0000 0.0000 27.8113 0.0000 -9.7891
# 5 1.2900 -7.9986 -23.6801 0.0000 40.8625 0.0000
# 6 0.0000 0.0000 0.0000 -9.7891 0.0000 39.8006
#
#
#
# Elastic Compliance Matrix: (Units=1/GPa)
#
#
# Indices 1 2 3 4 5 6 
#
# 1 0.009795 -0.005998 -0.005583 0.000000 -0.004719 0.000000
# 2 -0.005998 0.017339 -0.001515 0.000000 0.002705 0.000000
# 3 -0.005583 -0.001515 0.017882 0.000000 0.010243 0.000000
# 4 0.000000 0.000000 0.000000 0.039364 0.000000 0.009682
# 5 -0.004719 0.002705 0.010243 0.000000 0.031087 0.000000
# 6 0.000000 0.000000 0.000000 0.009682 0.000000 0.027507
#
#
# Mechanical properties :
#
#
# Convention : Reuss Voigt Hill
#
# Bulk Modulus (GPa) = 53.12559 74.82855 63.97707
# Shear Modulus (GPa) = 28.49963 34.64414 31.57188
#
# Velocity S-wave (km/s) = 3.56587 3.93153 3.75316
# Velocity P-wave (km/s) = 6.37625 7.34812 6.87937
#
# Compressibility (1/GPa) = 0.01882332
#
# Stress axis : x y z
#
# Youngs Moduli (GPa) = 102.09073 57.67446 55.92140
#
# Poissons Ratio (x) = 0.34595 0.31221
# Poissons Ratio (y) = 0.61237 0.08472
# Poissons Ratio (z) = 0.56998 0.08738
#
# Static dielectric constant tensor:
#      x y z
#    x 4.013000 0.000000 0.025510 
#    y 0.000000 3.946480 0.000000 
#    z 0.025510 0.000000 4.204490 
# 
# 
# High freq. dielectric constant tensor:
#      x y z
#    x 1.875140 0.000000 -0.001400 
#    y 0.000000 1.870800 0.000000 
#    z -0.001400 0.000000 1.897120 
# 
# From -- ./inp_files/110115.got.cif
#   From: 2010.06.25/outbox.cif.g09.slc.cpg/sg15_56_cif.got.tgz:110115.got - 2010.06.28 07:06:18.
