data_PCOD8140036
_publ_section_title
;
Structure prediction by ZEFSAII (Michael W. Deem and Ramdas Pophale) SiO2 
 PCOD8140036
Probable space group: C 2/C
;
_chemical_formula_sum "Si O2"
_cell_formula_units_Z 64
_cell_length_a 25.111989
_cell_length_b 15.475354
_cell_length_c 11.696443
_cell_angle_alpha 90.000000
_cell_angle_beta 42.403479
_cell_angle_gamma 90.000000
_cell_volume 3065.201916
_symmetry_space_group_name_H-M "C 2/C"
_symmetry_group_IT_number 15
_symmetry_cell_setting 'monoclinic'
loop_
_space_group_symop_operation_xyz
x,y,z
-x,y,1/2-z
-x,-y,-z
x,-y,1/2+z
1/2+x,1/2+y,z
1/2-x,1/2+y,1/2-z
1/2-x,1/2-y,-z
1/2+x,1/2-y,1/2+z
loop_
_atom_site_type_symbol
_atom_site_label
_atom_site_fract_x
_atom_site_fract_y
_atom_site_fract_z
Si Si1 0.298101 0.322009 0.088629
Si Si2 0.487462 0.101774 0.144864
Si Si3 0.595702 0.065215 0.783262
Si Si4 0.353690 0.715993 0.177182
Si Si5 0.868871 0.740350 0.395841
Si Si6 0.723892 0.434491 0.574137
Si Si7 0.287824 0.367042 0.356951
Si Si8 0.566704 0.230617 0.727011
O O1 0.207471 0.295296 0.211016
O O2 0.321026 0.347843 0.179495
O O3 0.320524 0.402380 0.970435
O O4 0.350896 0.240002 0.970435
O O5 0.500000 0.062924 0.250000
O O6 0.447333 0.196426 0.218545
O O7 0.430609 0.034207 0.170846
O O8 0.572902 0.105395 0.945685
O O9 0.684887 0.072610 0.603574
O O10 0.547657 0.128606 0.773383
O O11 0.305178 0.626065 0.274208
O O12 0.423454 0.725244 0.161826
O O13 0.386254 0.722507 0.995615
O O14 0.801840 0.666441 0.495976
O O15 0.843676 0.821072 0.359810
O O16 0.703835 0.532054 0.634517
O O17 0.500000 0.272419 0.750000
#
# Coordination Sequence:
#
# PCOD8140036 Si02
#       8
#     8   8   8   8   8   8   8   8
#     4  10  21  39  63  90 126 161 216 266 315 379
#     4  11  24  39  57  90 136 172 205 247 319 405
#     4  11  22  38  59  95 129 171 207 249 323 389
#     4  10  20  40  65  92 122 171 216 261 325 377
#     4  10  22  42  59  86 132 170 214 250 322 393
#     4  11  20  38  67  94 127 161 217 270 320 375
#     4  10  23  38  61  94 119 167 210 271 318 363
#     4  11  21  37  63  93 124 161 213 263 313 377
#
# _framework density 20.879538
#
# number of rings (size 3 to 8) (size 9 to 14) (size 15 to 20)
#    0.000    1.500    3.750    1.875    5.250    0.000 
#    0.000    0.000    0.000    6.000    0.000    0.000 
#    0.000    0.000    0.000    0.000    0.000    0.000 
#
# Total GULP energy -396436.915280 kJ/mol
# GULP energy per Si atom -12388.653602 kJ/mol
# Density = 2.083202 g / cm^3
# Si number density = 20.879538 Si / 1000 Ang^3
#
#
#
# Elastic Constant Matrix: (Units=GPa)
#
#
# Indices 1 2 3 4 5 6 
#
# 1 122.3221 34.7044 36.3072 0.0000 23.7607 0.0000
# 2 34.7044 130.2852 43.8801 0.0000 16.2233 0.0000
# 3 36.3072 43.8801 93.7068 0.0000 18.3451 0.0000
# 4 0.0000 0.0000 0.0000 27.9370 0.0000 4.2533
# 5 23.7607 16.2233 18.3451 0.0000 33.3920 0.0000
# 6 0.0000 0.0000 0.0000 4.2533 0.0000 20.6695
#
#
#
# Elastic Compliance Matrix: (Units=1/GPa)
#
#
# Indices 1 2 3 4 5 6 
#
# 1 0.010280 -0.001282 -0.002323 0.000000 -0.005416 0.000000
# 2 -0.001282 0.009438 -0.003590 0.000000 -0.001701 0.000000
# 3 -0.002323 -0.003590 0.014104 0.000000 -0.004352 0.000000
# 4 0.000000 0.000000 0.000000 0.036953 0.000000 -0.007604
# 5 -0.005416 -0.001701 -0.004352 0.000000 0.037019 0.000000
# 6 0.000000 0.000000 0.000000 -0.007604 0.000000 0.049945
#
#
# Mechanical properties :
#
#
# Convention : Reuss Voigt Hill
#
# Bulk Modulus (GPa) = 51.45519 64.01084 57.73302
# Shear Modulus (GPa) = 27.99467 31.82784 29.91126
#
# Velocity S-wave (km/s) = 3.66563 3.90854 3.78903
# Velocity P-wave (km/s) = 6.52787 7.14791 6.84491
#
# Compressibility (1/GPa) = 0.01943438
#
# Stress axis : x y z
#
# Youngs Moduli (GPa) = 97.27366 105.95762 70.89945
#
# Poissons Ratio (x) = 0.13580 0.16467
# Poissons Ratio (y) = 0.12467 0.25451
# Poissons Ratio (z) = 0.22593 0.38037
#
# Static dielectric constant tensor:
#      x y z
#    x 3.728020 0.000000 0.181590 
#    y 0.000000 3.713240 0.000000 
#    z 0.181590 0.000000 3.882010 
# 
# 
# High freq. dielectric constant tensor:
#      x y z
#    x 1.803960 0.000000 0.017710 
#    y 0.000000 1.809070 0.000000 
#    z 0.017710 0.000000 1.820280 
# 
# From -- ./inp_files/123514.got.cif
#   From: 2010.06.25/outbox.cif.g09.slc.cpg/sg15_62_cif.got.tgz:123514.got - 2010.06.28 07:06:18.
