data_PCOD8140076
_publ_section_title
;
Structure prediction by ZEFSAII (Michael W. Deem and Ramdas Pophale) SiO2 
 PCOD8140076
Probable space group: C 2/C
;
_chemical_formula_sum "Si O2"
_cell_formula_units_Z 56
_cell_length_a 15.967147
_cell_length_b 20.595273
_cell_length_c 18.827754
_cell_angle_alpha 90.000000
_cell_angle_beta 26.966139
_cell_angle_gamma 90.000000
_cell_volume 2807.605349
_symmetry_space_group_name_H-M "C 2/C"
_symmetry_group_IT_number 15
_symmetry_cell_setting 'monoclinic'
loop_
_space_group_symop_operation_xyz
x,y,z
-x,y,1/2-z
-x,-y,-z
x,-y,1/2+z
1/2+x,1/2+y,z
1/2-x,1/2+y,1/2-z
1/2-x,1/2-y,-z
1/2+x,1/2-y,1/2+z
loop_
_atom_site_type_symbol
_atom_site_label
_atom_site_fract_x
_atom_site_fract_y
_atom_site_fract_z
Si Si1 0.825254 0.438322 0.931454
Si Si2 0.041809 0.176512 0.300647
Si Si3 0.107948 0.191016 0.598077
Si Si4 0.753826 0.182853 0.776833
Si Si5 0.392232 0.745291 0.541532
Si Si6 0.157966 0.545438 0.913167
Si Si7 0.987135 0.033267 0.342825
O O1 0.000000 0.439645 0.750000
O O2 0.719604 0.372461 0.991702
O O3 0.874219 0.442524 0.978333
O O4 0.706672 0.499383 0.993488
O O5 0.258206 0.192318 0.147332
O O6 0.002817 0.105268 0.362546
O O7 0.000000 0.185498 0.250000
O O8 0.910206 0.223360 0.446106
O O9 0.250000 0.250000 0.500000
O O10 0.000000 0.172347 0.750000
O O11 0.945149 0.207207 0.666562
O O12 0.801076 0.187049 0.656992
O O13 0.675848 0.113019 0.857908
O O14 0.593864 0.234170 0.918582
O O15 0.349326 0.510629 0.751440
O O16 0.000000 0.500000 0.000000
O O17 0.000000 0.040872 0.250000
#
# Coordination Sequence:
#
# PCOD8140076 Si02
#       7
#     8   8   8   8   8   8   8
#     4  11  23  42  62  93 126 163 218 265 305 388
#     4  10  20  40  66  90 122 166 204 261 327 381
#     4  12  22  40  64  89 125 175 216 260 317 377
#     4  11  22  41  59  89 131 164 208 265 316 372
#     4  10  23  38  60  95 129 156 211 265 316 388
#     4  11  22  41  65  90 124 169 210 260 323 376
#     4   9  19  40  62  83 120 162 206 259 308 371
#
# _framework density 19.945824000000002
#
# number of rings (size 3 to 8) (size 9 to 14) (size 15 to 20)
#    0.000    1.429    2.857    3.000    0.000    1.143 
#    5.143    5.000    0.000    0.000    0.000    0.000 
#    0.000    0.000    0.000    0.000    0.000    0.000 
#
# Total GULP energy -347043.630336 kJ/mol
# GULP energy per Si atom -12394.415369 kJ/mol
# Density = 1.990043 g / cm^3
# Si number density = 19.945824 Si / 1000 Ang^3
#
#
#
# Elastic Constant Matrix: (Units=GPa)
#
#
# Indices 1 2 3 4 5 6 
#
# 1 91.9061 42.9814 55.8391 -0.0226 -2.6249 0.0066
# 2 42.9814 145.0748 77.2539 -0.0026 0.7584 0.0171
# 3 55.8391 77.2539 164.0125 -0.0778 -0.1337 0.0515
# 4 -0.0226 -0.0026 -0.0778 2.2008 0.0692 6.4591
# 5 -2.6249 0.7584 -0.1337 0.0692 26.4546 -0.0242
# 6 0.0066 0.0171 0.0515 6.4591 -0.0242 23.5039
#
#
#
# Elastic Compliance Matrix: (Units=1/GPa)
#
#
# Indices 1 2 3 4 5 6 
#
# 1 0.014274 -0.002201 -0.003822 -0.000305 0.001461 0.000091
# 2 -0.002201 0.009543 -0.003746 -0.000681 -0.000509 0.000189
# 3 -0.003822 -0.003746 0.009164 0.001737 -0.000230 -0.000494
# 4 -0.000305 -0.000681 0.001737 2.350305 -0.006744 -0.645896
# 5 0.001461 -0.000509 -0.000230 -0.006744 0.037978 0.001893
# 6 0.000091 0.000189 -0.000494 -0.645896 0.001893 0.220047
#
#
# Mechanical properties :
#
#
# Convention : Reuss Voigt Hill
#
# Bulk Modulus (GPa) = 74.39654 83.68248 79.03951
# Shear Modulus (GPa) = 1.87594 25.42647 13.65120
#
# Velocity S-wave (km/s) = 0.97086 3.57427 2.61897
# Velocity P-wave (km/s) = 6.21587 7.68634 6.98988
#
# Compressibility (1/GPa) = 0.01344149
#
# Stress axis : x y z
#
# Youngs Moduli (GPa) = 70.05856 104.79188 109.12849
#
# Poissons Ratio (x) = 0.23070 0.41705
# Poissons Ratio (y) = 0.15423 0.40881
# Poissons Ratio (z) = 0.26774 0.39257
#
# Static dielectric constant tensor:
#      x y z
#    x 3.048830 0.008960 0.167690 
#    y 0.008960 2.447590 -0.005680 
#    z 0.167690 -0.005680 3.452800 
# 
# 
# High freq. dielectric constant tensor:
#      x y z
#    x 1.771530 0.000000 -0.007870 
#    y 0.000000 1.782030 0.000030 
#    z -0.007870 0.000030 1.790620 
# 
# From -- ./inp_files/250028.got.cif
#   From: 2010.06.25/outbox.cif.g09.slc.cpg/sg15_126_cif.got.tgz:250028.got - 2010.06.28 07:06:18.
