data_PCOD8140260
_publ_section_title
;
Structure prediction by ZEFSAII (Michael W. Deem and Ramdas Pophale) SiO2 
 PCOD8140260
Probable space group: C 2/C
;
_chemical_formula_sum "Si O2"
_cell_formula_units_Z 48
_cell_length_a 16.487879
_cell_length_b 8.814207
_cell_length_c 29.658044
_cell_angle_alpha 90.000000
_cell_angle_beta 146.876642
_cell_angle_gamma 90.000000
_cell_volume 2355.243167
_symmetry_space_group_name_H-M "C 2/C"
_symmetry_group_IT_number 15
_symmetry_cell_setting 'monoclinic'
loop_
_space_group_symop_operation_xyz
x,y,z
-x,y,1/2-z
-x,-y,-z
x,-y,1/2+z
1/2+x,1/2+y,z
1/2-x,1/2+y,1/2-z
1/2-x,1/2-y,-z
1/2+x,1/2-y,1/2+z
loop_
_atom_site_type_symbol
_atom_site_label
_atom_site_fract_x
_atom_site_fract_y
_atom_site_fract_z
Si Si1 0.643308 0.813788 0.165046
Si Si2 0.904570 0.994167 0.246501
Si Si3 0.222375 0.244661 0.678386
Si Si4 0.948687 0.407078 0.578744
Si Si5 0.961083 0.018174 0.429723
Si Si6 0.880478 0.098580 0.579946
O O1 0.760612 0.892390 0.186617
O O2 0.732146 0.740242 0.247855
O O3 0.560979 0.691417 0.095448
O O4 0.522557 0.934102 0.129053
O O5 0.000000 0.928100 0.250000
O O6 0.006210 0.000022 0.338139
O O7 0.849521 0.166622 0.209709
O O8 0.064427 0.331055 0.597653
O O9 0.196132 0.071437 0.651214
O O10 0.914979 0.279891 0.602093
O O11 0.786657 0.441051 0.481800
O O12 0.000000 0.000000 0.500000
O O13 0.092006 0.947657 0.459598
#
# Coordination Sequence:
#
# PCOD8140260 Si02
#       6
#     8   8   8   8   8   8
#     4  11  20  41  67  90 124 180 213 261 334 391
#     4  11  23  39  66  93 125 170 225 263 319 400
#     4  10  20  43  63  86 130 176 209 265 332 392
#     4   9  20  35  68  85 121 168 209 265 332 380
#     4  11  23  39  64  95 131 169 222 270 327 392
#     4  10  20  41  59  93 130 164 213 277 325 384
#
# _framework density 20.380061000000001
#
# number of rings (size 3 to 8) (size 9 to 14) (size 15 to 20)
#    0.000    1.667    5.000    1.000    0.000    6.000 
#    3.000    6.667    0.000    0.000    0.000    0.000 
#    0.000    0.000    0.000    0.000    0.000    0.000 
#
# Total GULP energy -297345.050385 kJ/mol
# GULP energy per Si atom -12389.377099 kJ/mol
# Density = 2.033367 g / cm^3
# Si number density = 20.380061 Si / 1000 Ang^3
#
#
#
# Elastic Constant Matrix: (Units=GPa)
#
#
# Indices 1 2 3 4 5 6 
#
# 1 93.5475 39.4428 51.2846 0.0000 5.0349 0.0000
# 2 39.4428 104.0204 52.7328 0.0001 13.9816 0.0000
# 3 51.2846 52.7328 105.8295 -0.0001 12.3344 0.0000
# 4 0.0000 0.0001 -0.0001 32.2023 0.0000 3.9378
# 5 5.0349 13.9816 12.3344 0.0000 41.0850 0.0000
# 6 0.0000 0.0000 0.0000 3.9378 0.0000 20.8577
#
#
#
# Elastic Compliance Matrix: (Units=1/GPa)
#
#
# Indices 1 2 3 4 5 6 
#
# 1 0.015135 -0.002796 -0.006048 0.000000 0.000912 0.000000
# 2 -0.002796 0.013640 -0.005120 0.000000 -0.002762 0.000000
# 3 -0.006048 -0.005120 0.015172 0.000000 -0.002072 0.000000
# 4 0.000000 0.000000 0.000000 0.031788 0.000000 -0.006001
# 5 0.000912 -0.002762 -0.002072 0.000000 0.025790 0.000000
# 6 0.000000 0.000000 0.000000 -0.006001 0.000000 0.049077
#
#
# Mechanical properties :
#
#
# Convention : Reuss Voigt Hill
#
# Bulk Modulus (GPa) = 62.41769 65.59086 64.00427
# Shear Modulus (GPa) = 27.19325 29.49148 28.34236
#
# Velocity S-wave (km/s) = 3.65678 3.80817 3.73324
# Velocity P-wave (km/s) = 6.96582 7.18261 7.07505
#
# Compressibility (1/GPa) = 0.01602110
#
# Stress axis : x y z
#
# Youngs Moduli (GPa) = 66.07287 73.31137 65.90898
#
# Poissons Ratio (x) = 0.20496 0.39859
# Poissons Ratio (y) = 0.18472 0.33746
# Poissons Ratio (z) = 0.39958 0.37536
#
# Static dielectric constant tensor:
#      x y z
#    x 3.451550 0.000000 0.347110 
#    y 0.000000 3.950060 0.000000 
#    z 0.347110 0.000000 3.701570 
# 
# 
# High freq. dielectric constant tensor:
#      x y z
#    x 1.764580 0.000000 0.028190 
#    y 0.000000 1.805550 0.000000 
#    z 0.028190 0.000000 1.788480 
# 
# From -- ./inp_files/224546.got.cif
#   From: 2010.06.25/outbox.cif.g09.slc.cpg/sg15_113_cif.got.tgz:224546.got - 2010.06.28 07:06:18.
