data_PCOD8140659
_publ_section_title
;
Structure prediction by ZEFSAII (Michael W. Deem and Ramdas Pophale) SiO2 
 PCOD8140659
Probable space group: C 2/C
;
_chemical_formula_sum "Si O2"
_cell_formula_units_Z 48
_cell_length_a 17.834635
_cell_length_b 7.679434
_cell_length_c 30.954019
_cell_angle_alpha 90.000000
_cell_angle_beta 148.019318
_cell_angle_gamma 90.000000
_cell_volume 2245.358900
_symmetry_space_group_name_H-M "C 2/C"
_symmetry_group_IT_number 15
_symmetry_cell_setting 'monoclinic'
loop_
_space_group_symop_operation_xyz
x,y,z
-x,y,1/2-z
-x,-y,-z
x,-y,1/2+z
1/2+x,1/2+y,z
1/2-x,1/2+y,1/2-z
1/2-x,1/2-y,-z
1/2+x,1/2-y,1/2+z
loop_
_atom_site_type_symbol
_atom_site_label
_atom_site_fract_x
_atom_site_fract_y
_atom_site_fract_z
Si Si1 0.294946 0.492892 0.698896
Si Si2 0.437219 0.905007 0.850501
Si Si3 0.224426 0.428642 0.465345
Si Si4 0.248735 0.381333 0.818342
Si Si5 0.468399 0.510378 0.865630
Si Si6 0.162037 0.336838 0.337165
O O1 0.142782 0.488714 0.648047
O O2 0.300638 0.694682 0.686026
O O3 0.425276 0.448439 0.795719
O O4 0.303764 0.360880 0.662566
O O5 0.366644 0.961030 0.770994
O O6 0.405735 0.701408 0.841027
O O7 0.599774 0.963247 0.927481
O O8 0.250000 0.250000 0.500000
O O9 0.366655 0.536042 0.543834
O O10 0.196381 0.371348 0.403181
O O11 0.398764 0.375505 0.865859
O O12 0.261493 0.522549 0.862205
O O13 0.000000 0.382908 0.250000
#
# Coordination Sequence:
#
# PCOD8140659 Si02
#       6
#     8   8   8   8   8   8
#     4  10  22  42  71  95 126 173 225 264 326 405
#     4  10  20  42  68  94 128 174 219 264 328 399
#     4  12  25  41  63  95 133 173 217 274 333 386
#     4  10  21  41  69  96 126 174 216 269 325 393
#     4  10  21  40  68  96 130 170 223 270 330 390
#     4  12  24  43  66  95 135 167 223 276 326 390
#
# _framework density 21.37743
#
# number of rings (size 3 to 8) (size 9 to 14) (size 15 to 20)
#    0.000    1.333    3.333    2.500    2.333    1.333 
#    6.000    1.667    0.000    0.000    0.000    0.000 
#    0.000    0.000    0.000    0.000    0.000    0.000 
#
# Total GULP energy -297452.295094 kJ/mol
# GULP energy per Si atom -12393.845629 kJ/mol
# Density = 2.132877 g / cm^3
# Si number density = 21.377430 Si / 1000 Ang^3
#
#
#
# Elastic Constant Matrix: (Units=GPa)
#
#
# Indices 1 2 3 4 5 6 
#
# 1 69.1233 13.1132 38.8935 0.0001 4.1836 -0.0005
# 2 13.1132 76.3964 2.0127 0.0001 -5.9297 -0.0003
# 3 38.8935 2.0127 110.3759 0.0000 17.4854 -0.0007
# 4 0.0001 0.0001 0.0000 25.4556 0.0000 0.0214
# 5 4.1836 -5.9297 17.4854 0.0000 35.8284 0.0005
# 6 -0.0005 -0.0003 -0.0007 0.0214 0.0005 12.2147
#
#
#
# Elastic Compliance Matrix: (Units=1/GPa)
#
#
# Indices 1 2 3 4 5 6 
#
# 1 0.018735 -0.002998 -0.006635 0.000000 0.000554 0.000000
# 2 -0.002998 0.013781 0.000421 0.000000 0.002426 0.000000
# 3 -0.006635 0.000421 0.012200 0.000000 -0.005109 0.000001
# 4 0.000000 0.000000 0.000000 0.039284 0.000000 -0.000069
# 5 0.000554 0.002426 -0.005109 0.000000 0.030741 -0.000001
# 6 0.000000 0.000000 0.000001 -0.000069 -0.000001 0.081868
#
#
# Mechanical properties :
#
#
# Convention : Reuss Voigt Hill
#
# Bulk Modulus (GPa) = 38.03410 40.43716 39.23563
# Shear Modulus (GPa) = 22.34152 28.15816 25.24984
#
# Velocity S-wave (km/s) = 3.23631 3.63325 3.44051
# Velocity P-wave (km/s) = 5.63873 6.04628 5.84606
#
# Compressibility (1/GPa) = 0.02629219
#
# Stress axis : x y z
#
# Youngs Moduli (GPa) = 53.37486 72.56151 81.96938
#
# Poissons Ratio (x) = 0.21754 0.54387
# Poissons Ratio (y) = 0.16002 -0.03450
# Poissons Ratio (z) = 0.35414 -0.03054
#
# Static dielectric constant tensor:
#      x y z
#    x 3.454500 0.000000 0.173580 
#    y 0.000000 3.864010 0.000000 
#    z 0.173580 0.000000 3.517350 
# 
# 
# High freq. dielectric constant tensor:
#      x y z
#    x 1.833170 0.000000 0.010930 
#    y 0.000000 1.853050 0.000000 
#    z 0.010930 0.000000 1.822840 
# 
# From -- ./inp_files/247087.got.cif
#   From: 2010.06.25/outbox.cif.g09.slc.cpg/sg15_124_cif.got.tgz:247087.got - 2010.06.28 07:06:18.
