data_PCOD8140394
_publ_section_title
;
Structure prediction by ZEFSAII (Michael W. Deem and Ramdas Pophale) SiO2 
 PCOD8140394
Probable space group: C 2/C
;
_chemical_formula_sum "Si O2"
_cell_formula_units_Z 44
_cell_length_a 6.697929
_cell_length_b 23.527452
_cell_length_c 15.704204
_cell_angle_alpha 90.000000
_cell_angle_beta 46.421825
_cell_angle_gamma 90.000000
_cell_volume 1792.794400
_symmetry_space_group_name_H-M "C 2/C"
_symmetry_group_IT_number 15
_symmetry_cell_setting 'monoclinic'
loop_
_space_group_symop_operation_xyz
x,y,z
-x,y,1/2-z
-x,-y,-z
x,-y,1/2+z
1/2+x,1/2+y,z
1/2-x,1/2+y,1/2-z
1/2-x,1/2-y,-z
1/2+x,1/2-y,1/2+z
loop_
_atom_site_type_symbol
_atom_site_label
_atom_site_fract_x
_atom_site_fract_y
_atom_site_fract_z
Si Si1 0.430968 0.655599 0.646688
Si Si2 0.443686 0.657670 0.084751
Si Si3 0.472749 0.878462 0.508875
Si Si4 0.000000 0.250011 0.750000
Si Si5 0.195520 0.553739 0.805315
Si Si6 0.727142 0.930128 0.772720
O O1 0.435918 0.653663 0.544514
O O2 0.357171 0.715362 0.713352
O O3 0.212812 0.606008 0.733695
O O4 0.735141 0.649549 0.599270
O O5 0.714061 0.663081 0.066218
O O6 0.252225 0.712348 0.142587
O O7 0.274110 0.601847 0.168489
O O8 0.468100 0.933295 0.446384
O O9 0.488167 0.895531 0.604250
O O10 0.500000 0.544396 0.750000
O O11 0.113653 0.493466 0.786359
O O12 0.000000 0.931271 0.750000
#
# Coordination Sequence:
#
# PCOD8140394 Si02
#       6
#     8   8   8   4   8   8
#     4  11  23  45  65  92 131 170 214 265 324 375
#     4  11  25  40  66  96 126 168 218 266 317 383
#     4  10  20  41  66  96 129 169 216 257 320 381
#     4  12  24  48  64  90 134 172 214 272 322 376
#     4   9  18  38  66  95 134 173 205 261 324 380
#     4   9  19  37  64  99 134 167 210 260 320 382
#
# _framework density 24.542693
#
# number of rings (size 3 to 8) (size 9 to 14) (size 15 to 20)
#    0.000    1.818    2.727    2.182    0.000    3.636 
#    0.000    9.091    0.000    0.000    0.000    0.000 
#    0.000    0.000    0.000    0.000    0.000    0.000 
#
# Total GULP energy -272614.339689 kJ/mol
# GULP energy per Si atom -12391.560895 kJ/mol
# Density = 2.448683 g / cm^3
# Si number density = 24.542693 Si / 1000 Ang^3
#
#
#
# Elastic Constant Matrix: (Units=GPa)
#
#
# Indices 1 2 3 4 5 6 
#
# 1 60.0558 13.5683 19.3321 0.0000 22.4483 0.0000
# 2 13.5683 129.6470 38.0467 0.0000 29.4613 0.0000
# 3 19.3321 38.0467 122.2234 0.0000 42.8792 0.0000
# 4 0.0000 0.0000 0.0000 25.8391 0.0000 2.4619
# 5 22.4483 29.4613 42.8792 0.0000 55.2151 0.0000
# 6 0.0000 0.0000 0.0000 2.4619 0.0000 -10.9893
#
#
#
# Elastic Compliance Matrix: (Units=1/GPa)
#
#
# Indices 1 2 3 4 5 6 
#
# 1 0.019656 -0.000224 -0.000382 0.000000 -0.007576 0.000000
# 2 -0.000224 0.008984 -0.001528 0.000000 -0.003516 0.000000
# 3 -0.000382 -0.001528 0.011514 0.000000 -0.007972 0.000000
# 4 0.000000 0.000000 0.000000 0.037892 0.000000 0.008489
# 5 -0.007576 -0.003516 -0.007972 0.000000 0.029258 0.000000
# 6 0.000000 0.000000 0.000000 0.008489 0.000000 -0.089096
#
#
# Mechanical properties :
#
#
# Convention : Reuss Voigt Hill
#
# Bulk Modulus (GPa) = 27.86376 50.42449 39.14412
# Shear Modulus (GPa) = 145.19120 30.07827 87.63473
#
# Velocity S-wave (km/s) = 7.69981 3.50458 5.98202
# Velocity P-wave (km/s) = 9.50932 6.08000 7.98103
#
# Compressibility (1/GPa) = 0.03588891
#
# Stress axis : x y z
#
# Youngs Moduli (GPa) = 50.87427 111.30865 86.84883
#
# Poissons Ratio (x) = 0.02489 0.03314
# Poissons Ratio (y) = 0.01138 0.13267
# Poissons Ratio (z) = 0.01942 0.17003
#
# Static dielectric constant tensor:
#      x y z
#    x 4.168440 0.000000 -0.008730 
#    y 0.000000 4.550150 0.000000 
#    z -0.008730 0.000000 4.726110 
# 
# 
# High freq. dielectric constant tensor:
#      x y z
#    x 1.971820 0.000000 0.001530 
#    y 0.000000 1.959730 0.000000 
#    z 0.001530 0.000000 1.993730 
# 
# From -- ./inp_files/193135.got.cif
#   From: 2010.06.25/outbox.cif.g09.slc.cpg/sg15_97_cif.got.tgz:193135.got - 2010.06.28 07:06:18.
