data_PCOD8140149
_publ_section_title
;
Structure prediction by ZEFSAII (Michael W. Deem and Ramdas Pophale) SiO2 
 PCOD8140149
Probable space group: C 2/C
;
_chemical_formula_sum "Si O2"
_cell_formula_units_Z 56
_cell_length_a 15.805568
_cell_length_b 13.791075
_cell_length_c 10.274957
_cell_angle_alpha 90.000000
_cell_angle_beta 82.020185
_cell_angle_gamma 90.000000
_cell_volume 2218.004851
_symmetry_space_group_name_H-M "C 2/C"
_symmetry_group_IT_number 15
_symmetry_cell_setting 'monoclinic'
loop_
_space_group_symop_operation_xyz
x,y,z
-x,y,1/2-z
-x,-y,-z
x,-y,1/2+z
1/2+x,1/2+y,z
1/2-x,1/2+y,1/2-z
1/2-x,1/2-y,-z
1/2+x,1/2-y,1/2+z
loop_
_atom_site_type_symbol
_atom_site_label
_atom_site_fract_x
_atom_site_fract_y
_atom_site_fract_z
Si Si1 0.877299 0.304666 0.911166
Si Si2 0.071957 0.033831 0.329471
Si Si3 0.775443 0.274511 0.184329
Si Si4 0.492501 0.656605 0.557784
Si Si5 0.581248 0.782840 0.141509
Si Si6 0.751660 0.491099 0.222133
Si Si7 0.857555 0.482085 0.453154
O O1 0.805593 0.299541 0.810672
O O2 0.907945 0.415074 0.932389
O O3 0.839112 0.258384 0.050760
O O4 0.959309 0.237184 0.863827
O O5 0.000000 0.077795 0.250000
O O6 0.062602 0.089523 0.467789
O O7 0.062512 0.917065 0.343136
O O8 0.163976 0.053231 0.244013
O O9 0.829901 0.258463 0.304091
O O10 0.734945 0.381147 0.181041
O O11 0.425603 0.710631 0.478091
O O12 0.500000 0.769125 0.250000
O O13 0.579018 0.894045 0.092163
O O14 0.783429 0.488865 0.362811
O O15 0.817711 0.537031 0.104575
#
# Coordination Sequence:
#
# PCOD8140149 Si02
#       7
#     8   8   8   8   8   8   8
#     4  10  20  40  67  99 133 185 234 282 353 425
#     4  11  26  43  69 101 138 183 237 299 367 426
#     4   9  20  38  67  95 134 179 236 284 344 428
#     4  11  25  43  70 101 141 185 235 298 366 428
#     4  11  22  46  70 105 142 187 234 298 363 427
#     4  10  23  46  67  99 140 185 238 297 352 434
#     4  10  25  45  70 102 141 189 238 293 358 429
#
# _framework density 25.247916
#
# number of rings (size 3 to 8) (size 9 to 14) (size 15 to 20)
#    0.000    1.714    1.429    1.286   10.000    0.571 
#    5.143    1.429    0.000    0.000    0.000    0.000 
#    0.000    0.000    0.000    0.000    0.000    0.000 
#
# Total GULP energy -347185.555321 kJ/mol
# GULP energy per Si atom -12399.484119 kJ/mol
# Density = 2.519045 g / cm^3
# Si number density = 25.247916 Si / 1000 Ang^3
#
#
#
# Elastic Constant Matrix: (Units=GPa)
#
#
# Indices 1 2 3 4 5 6 
#
# 1 77.0799 19.3138 22.7043 0.0000 20.8290 0.0000
# 2 19.3138 114.6146 4.9729 0.0000 0.4838 0.0000
# 3 22.7043 4.9729 58.6145 0.0000 5.8444 0.0000
# 4 0.0000 0.0000 0.0000 39.1794 0.0000 1.5832
# 5 20.8290 0.4838 5.8444 0.0000 32.2129 0.0000
# 6 0.0000 0.0000 0.0000 1.5832 0.0000 33.4546
#
#
#
# Elastic Compliance Matrix: (Units=1/GPa)
#
#
# Indices 1 2 3 4 5 6 
#
# 1 0.018268 -0.002783 -0.005771 0.000000 -0.010724 0.000000
# 2 -0.002783 0.009181 0.000136 0.000000 0.001637 0.000000
# 3 -0.005771 0.000136 0.019261 0.000000 0.000235 0.000000
# 4 0.000000 0.000000 0.000000 0.025572 0.000000 -0.001210
# 5 -0.010724 0.001637 0.000235 0.000000 0.037910 0.000000
# 6 0.000000 0.000000 0.000000 -0.001210 0.000000 0.029948
#
#
# Mechanical properties :
#
#
# Convention : Reuss Voigt Hill
#
# Bulk Modulus (GPa) = 33.47316 38.25455 35.86386
# Shear Modulus (GPa) = 29.95161 34.52392 32.23777
#
# Velocity S-wave (km/s) = 3.44801 3.70184 3.57718
# Velocity P-wave (km/s) = 5.39799 5.78412 5.59438
#
# Compressibility (1/GPa) = 0.02987468
#
# Stress axis : x y z
#
# Youngs Moduli (GPa) = 54.73907 108.92038 51.91819
#
# Poissons Ratio (x) = 0.30310 0.29962
# Poissons Ratio (y) = 0.15233 -0.00705
# Poissons Ratio (z) = 0.31590 -0.01479
#
# Static dielectric constant tensor:
#      x y z
#    x 4.226960 0.000000 0.208290 
#    y 0.000000 4.871950 0.000000 
#    z 0.208290 0.000000 4.459410 
# 
# 
# High freq. dielectric constant tensor:
#      x y z
#    x 1.982840 0.000000 0.013000 
#    y 0.000000 2.028220 0.000000 
#    z 0.013000 0.000000 1.996280 
# 
# From -- ./inp_files/97012.got.cif
#   From: 2010.06.25/outbox.cif.g09.slc.cpg/sg15_49_cif.got.tgz:97012.got - 2010.06.28 07:06:18.
