data_PCOD8140958
_publ_section_title
;
Structure prediction by ZEFSAII (Michael W. Deem and Ramdas Pophale) SiO2 
 PCOD8140958
Probable space group: C 2/C
;
_chemical_formula_sum "Si O2"
_cell_formula_units_Z 44
_cell_length_a 11.769381
_cell_length_b 18.356952
_cell_length_c 16.247038
_cell_angle_alpha 90.000000
_cell_angle_beta 142.419387
_cell_angle_gamma 90.000000
_cell_volume 2140.773290
_symmetry_space_group_name_H-M "C 2/C"
_symmetry_group_IT_number 15
_symmetry_cell_setting 'monoclinic'
loop_
_space_group_symop_operation_xyz
x,y,z
-x,y,1/2-z
-x,-y,-z
x,-y,1/2+z
1/2+x,1/2+y,z
1/2-x,1/2+y,1/2-z
1/2-x,1/2-y,-z
1/2+x,1/2-y,1/2+z
loop_
_atom_site_type_symbol
_atom_site_label
_atom_site_fract_x
_atom_site_fract_y
_atom_site_fract_z
Si Si1 0.313286 0.045657 0.900880
Si Si2 0.158631 0.179139 0.906594
Si Si3 0.648684 0.379947 0.161129
Si Si4 0.500000 0.556647 0.250000
Si Si5 0.499941 0.211594 0.844358
Si Si6 0.633539 0.358567 0.970656
O O1 0.309225 0.123798 0.948515
O O2 0.234922 0.054243 0.763264
O O3 0.176714 0.992791 0.870831
O O4 0.500000 0.000000 0.000000
O O5 0.000000 0.202484 0.750000
O O6 0.055355 0.138715 0.922045
O O7 0.250000 0.250000 0.000000
O O8 0.795240 0.313306 0.253740
O O9 0.628130 0.401807 0.053796
O O10 0.512560 0.605406 0.175634
O O11 0.500000 0.239642 0.750000
O O12 0.561523 0.275645 0.941626
O O13 0.652148 0.145639 0.939662
#
# Coordination Sequence:
#
# PCOD8140958 Si02
#       6
#     8   8   8   4   8   8
#     4  11  24  45  65  89 132 176 216 269 344 403
#     4  10  23  45  66  97 134 172 228 285 339 410
#     4  10  21  39  63  89 126 169 214 276 324 400
#     4  12  22  42  60  90 130 168 204 270 330 406
#     4   9  18  36  56  94 127 160 210 272 321 383
#     4  10  21  33  62  94 126 163 216 261 328 398
#
# _framework density 20.553321
#
# number of rings (size 3 to 8) (size 9 to 14) (size 15 to 20)
#    0.000    1.818    3.636    1.091    5.091    2.182 
#    0.000    0.000    0.000    0.000    0.000    0.000 
#    0.000    0.000    0.000    0.000    0.000    0.000 
#
# Total GULP energy -272585.042807 kJ/mol
# GULP energy per Si atom -12390.229218 kJ/mol
# Density = 2.050654 g / cm^3
# Si number density = 20.553321 Si / 1000 Ang^3
#
#
#
# Elastic Constant Matrix: (Units=GPa)
#
#
# Indices 1 2 3 4 5 6 
#
# 1 92.8983 43.7218 39.2012 -0.0002 -0.8934 -0.0001
# 2 43.7218 91.1717 51.6266 -0.0001 -2.9175 -0.0001
# 3 39.2012 51.6266 95.0924 -0.0009 -4.0438 -0.0006
# 4 -0.0002 -0.0001 -0.0009 48.3468 -0.0005 1.7123
# 5 -0.8934 -2.9175 -4.0438 -0.0005 41.3108 -0.0003
# 6 -0.0001 -0.0001 -0.0006 1.7123 -0.0003 23.3044
#
#
#
# Elastic Compliance Matrix: (Units=1/GPa)
#
#
# Indices 1 2 3 4 5 6 
#
# 1 0.014548 -0.005174 -0.003204 0.000000 -0.000364 0.000000
# 2 -0.005174 0.017680 -0.007449 0.000000 0.000408 0.000000
# 3 -0.003204 -0.007449 0.015922 0.000000 0.000963 0.000000
# 4 0.000000 0.000000 0.000000 0.020738 0.000000 -0.001524
# 5 -0.000364 0.000408 0.000963 0.000000 0.024322 0.000000
# 6 0.000000 0.000000 0.000000 -0.001524 0.000000 0.043022
#
#
# Mechanical properties :
#
#
# Convention : Reuss Voigt Hill
#
# Bulk Modulus (GPa) = 60.61593 60.91794 60.76693
# Shear Modulus (GPa) = 28.83769 32.23324 30.53546
#
# Velocity S-wave (km/s) = 3.74982 3.96444 3.85862
# Velocity P-wave (km/s) = 6.95012 7.11752 7.03432
#
# Compressibility (1/GPa) = 0.01649731
#
# Stress axis : x y z
#
# Youngs Moduli (GPa) = 68.73790 56.55975 62.80746
#
# Poissons Ratio (x) = 0.29264 0.20122
# Poissons Ratio (y) = 0.35566 0.46783
# Poissons Ratio (z) = 0.22022 0.42129
#
# Static dielectric constant tensor:
#      x y z
#    x 3.798630 0.000000 -0.036420 
#    y 0.000000 3.598120 0.000000 
#    z -0.036420 0.000000 3.734290 
# 
# 
# High freq. dielectric constant tensor:
#      x y z
#    x 1.801620 0.000000 -0.003780 
#    y 0.000000 1.785630 0.000000 
#    z -0.003780 0.000000 1.802520 
# 
# From -- ./inp_files/199635.got.cif
#   From: 2010.06.25/outbox.cif.g09.slc.cpg/sg15_100_cif.got.tgz:199635.got - 2010.06.28 07:06:18.
