data_PCOD8140565
_publ_section_title
;
Structure prediction by ZEFSAII (Michael W. Deem and Ramdas Pophale) SiO2 
 PCOD8140565
Probable space group: C 2/C
;
_chemical_formula_sum "Si O2"
_cell_formula_units_Z 64
_cell_length_a 8.488560
_cell_length_b 15.547460
_cell_length_c 25.894588
_cell_angle_alpha 90.000000
_cell_angle_beta 115.125716
_cell_angle_gamma 90.000000
_cell_volume 3094.087311
_symmetry_space_group_name_H-M "C 2/C"
_symmetry_group_IT_number 15
_symmetry_cell_setting 'monoclinic'
loop_
_space_group_symop_operation_xyz
x,y,z
-x,y,1/2-z
-x,-y,-z
x,-y,1/2+z
1/2+x,1/2+y,z
1/2-x,1/2+y,1/2-z
1/2-x,1/2-y,-z
1/2+x,1/2-y,1/2+z
loop_
_atom_site_type_symbol
_atom_site_label
_atom_site_fract_x
_atom_site_fract_y
_atom_site_fract_z
Si Si1 0.061501 0.315011 0.046251
Si Si2 0.019968 0.835528 0.617950
Si Si3 0.568559 0.693772 0.893132
Si Si4 0.542324 0.479040 0.146360
Si Si5 0.851303 0.474164 0.374110
Si Si6 0.322160 0.261390 0.205258
Si Si7 0.870390 0.656558 0.416159
Si Si8 0.330889 0.078962 0.759674
O O1 0.023794 0.222576 0.067387
O O2 0.255556 0.312893 0.047840
O O3 0.050331 0.394243 0.084942
O O4 0.919720 0.326988 0.982291
O O5 0.166964 0.807073 0.679472
O O6 0.833907 0.827147 0.619544
O O7 0.055076 0.936984 0.611075
O O8 0.447184 0.609645 0.885579
O O9 0.644030 0.694762 0.845294
O O10 0.463113 0.778754 0.890186
O O11 0.356096 0.475905 0.148395
O O12 0.697338 0.481078 0.209506
O O13 0.930968 0.561267 0.408920
O O14 0.894246 0.471465 0.319399
O O15 0.500000 0.216451 0.250000
O O16 0.268838 0.333691 0.239119
O O17 0.500000 0.101947 0.750000
#
# Coordination Sequence:
#
# PCOD8140565 Si02
#       8
#     8   8   8   8   8   8   8   8
#     4  10  20  42  65  88 131 173 207 260 314 358
#     4  10  23  38  62  93 128 162 212 255 307 366
#     4  10  21  38  64  85 127 164 212 253 308 372
#     4  10  21  40  61  87 129 170 195 250 319 378
#     4  10  21  42  64  90 128 168 206 253 313 378
#     4  11  21  42  65  82 125 169 200 254 325 374
#     4  11  23  38  65  99 121 168 220 258 302 368
#     4  12  23  38  65  93 122 157 208 260 316 378
#
# _framework density 20.684614
#
# number of rings (size 3 to 8) (size 9 to 14) (size 15 to 20)
#    0.000    1.500    5.000    1.500    1.750    3.500 
#    0.000    1.875    0.000    0.000    0.000    0.000 
#    0.000    0.000    0.000    0.000    0.000    0.000 
#
# Total GULP energy -396695.841768 kJ/mol
# GULP energy per Si atom -12396.745055 kJ/mol
# Density = 2.063754 g / cm^3
# Si number density = 20.684614 Si / 1000 Ang^3
#
#
#
# Elastic Constant Matrix: (Units=GPa)
#
#
# Indices 1 2 3 4 5 6 
#
# 1 81.5040 48.1518 46.7394 0.0000 9.5604 0.0000
# 2 48.1518 158.9699 45.5984 0.0000 -2.3265 0.0000
# 3 46.7394 45.5984 83.0977 0.0000 6.0985 0.0000
# 4 0.0000 0.0000 0.0000 31.7035 0.0000 -0.3014
# 5 9.5604 -2.3265 6.0985 0.0000 28.1471 0.0000
# 6 0.0000 0.0000 0.0000 -0.3014 0.0000 31.5509
#
#
#
# Elastic Compliance Matrix: (Units=1/GPa)
#
#
# Indices 1 2 3 4 5 6 
#
# 1 0.020159 -0.003607 -0.008978 0.000000 -0.005200 0.000000
# 2 -0.003607 0.008176 -0.002639 0.000000 0.002473 0.000000
# 3 -0.008978 -0.002639 0.018620 0.000000 -0.001203 0.000000
# 4 0.000000 0.000000 0.000000 0.031545 0.000000 0.000301
# 5 -0.005200 0.002473 -0.001203 0.000000 0.037759 0.000000
# 6 0.000000 0.000000 0.000000 0.000301 0.000000 0.031698
#
#
# Mechanical properties :
#
#
# Convention : Reuss Voigt Hill
#
# Bulk Modulus (GPa) = 60.57912 67.17230 63.87571
# Shear Modulus (GPa) = 27.18767 30.48575 28.83671
#
# Velocity S-wave (km/s) = 3.62939 3.84322 3.73783
# Velocity P-wave (km/s) = 6.84937 7.22764 7.04105
#
# Compressibility (1/GPa) = 0.01650734
#
# Stress axis : x y z
#
# Youngs Moduli (GPa) = 49.60666 122.30488 53.70534
#
# Poissons Ratio (x) = 0.44116 0.48214
# Poissons Ratio (y) = 0.17893 0.14174
# Poissons Ratio (z) = 0.44535 0.32279
#
# Static dielectric constant tensor:
#      x y z
#    x 3.684790 0.000000 0.335920 
#    y 0.000000 3.979340 0.000000 
#    z 0.335920 0.000000 3.668200 
# 
# 
# High freq. dielectric constant tensor:
#      x y z
#    x 1.799800 0.000000 0.024990 
#    y 0.000000 1.817930 0.000000 
#    z 0.024990 0.000000 1.796770 
# 
# From -- ./inp_files/288806.got.cif
#   From: 2010.06.25/outbox.cif.g09.slc.cpg/sg15_145_cif.got.tgz:288806.got - 2010.06.28 07:06:18.
