data_PCOD8140082
_publ_section_title
;
Structure prediction by ZEFSAII (Michael W. Deem and Ramdas Pophale) SiO2 
 PCOD8140082
Probable space group: C 2/C
;
_chemical_formula_sum "Si O2"
_cell_formula_units_Z 44
_cell_length_a 10.933700
_cell_length_b 9.698093
_cell_length_c 21.347137
_cell_angle_alpha 90.000000
_cell_angle_beta 129.301855
_cell_angle_gamma 90.000000
_cell_volume 1751.591862
_symmetry_space_group_name_H-M "C 2/C"
_symmetry_group_IT_number 15
_symmetry_cell_setting 'monoclinic'
loop_
_space_group_symop_operation_xyz
x,y,z
-x,y,1/2-z
-x,-y,-z
x,-y,1/2+z
1/2+x,1/2+y,z
1/2-x,1/2+y,1/2-z
1/2-x,1/2-y,-z
1/2+x,1/2-y,1/2+z
loop_
_atom_site_type_symbol
_atom_site_label
_atom_site_fract_x
_atom_site_fract_y
_atom_site_fract_z
Si Si1 0.212140 0.476802 0.582483
Si Si2 0.265923 0.558707 0.466981
Si Si3 0.500000 0.544652 0.750000
Si Si4 0.197250 0.796181 0.212692
Si Si5 0.578955 0.999819 0.665926
Si Si6 0.568041 0.309126 0.035171
O O1 0.231367 0.579605 0.529858
O O2 0.381700 0.449521 0.670926
O O3 0.092151 0.539428 0.595982
O O4 0.134056 0.335654 0.532941
O O5 0.366773 0.419377 0.492834
O O6 0.374655 0.683386 0.475351
O O7 0.099480 0.548500 0.375839
O O8 0.404969 0.645417 0.764142
O O9 0.199088 0.629228 0.217851
O O10 0.126800 0.844391 0.124000
O O11 0.371556 0.866712 0.276885
#
# Coordination Sequence:
#
# PCOD8140082 Si02
#       6
#     8   8   4   8   8   8
#     4  10  21  41  66  95 134 181 221 279 344 409
#     4  11  22  42  64  99 135 174 227 285 338 399
#     4  10  20  40  66  90 134 176 220 280 344 400
#     4  10  22  43  63  98 131 177 226 274 341 413
#     4  10  24  42  69  99 131 179 222 281 338 402
#     4  10  23  40  64  96 135 178 226 279 339 412
#
# _framework density 25.120009
#
# number of rings (size 3 to 8) (size 9 to 14) (size 15 to 20)
#    0.000    1.818    1.818    1.091    0.000    9.455 
#   13.091    0.000    0.000    0.000    0.000    0.000 
#    0.000    0.000    0.000    0.000    0.000    0.000 
#
# Total GULP energy -272678.338614 kJ/mol
# GULP energy per Si atom -12394.469937 kJ/mol
# Density = 2.506283 g / cm^3
# Si number density = 25.120009 Si / 1000 Ang^3
#
#
#
# Elastic Constant Matrix: (Units=GPa)
#
#
# Indices 1 2 3 4 5 6 
#
# 1 77.5472 15.4137 25.2755 0.0000 19.3497 0.0000
# 2 15.4137 80.7881 29.5976 0.0000 12.8062 0.0000
# 3 25.2755 29.5976 77.4300 0.0000 31.1667 0.0000
# 4 0.0000 0.0000 0.0000 37.3189 0.0000 6.5583
# 5 19.3497 12.8062 31.1667 0.0000 47.4074 0.0000
# 6 0.0000 0.0000 0.0000 6.5583 0.0000 14.4051
#
#
#
# Elastic Compliance Matrix: (Units=1/GPa)
#
#
# Indices 1 2 3 4 5 6 
#
# 1 0.015050 -0.001196 -0.002874 0.000000 -0.003931 0.000000
# 2 -0.001196 0.014494 -0.005127 0.000000 -0.000056 0.000000
# 3 -0.002874 -0.005127 0.020103 0.000000 -0.010658 0.000000
# 4 0.000000 0.000000 0.000000 0.029126 0.000000 -0.013261
# 5 -0.003931 -0.000056 -0.010658 0.000000 0.029720 0.000000
# 6 0.000000 0.000000 0.000000 -0.013261 0.000000 0.075457
#
#
# Mechanical properties :
#
#
# Convention : Reuss Voigt Hill
#
# Bulk Modulus (GPa) = 31.99597 41.81543 36.90570
# Shear Modulus (GPa) = 23.50049 30.85819 27.17934
#
# Velocity S-wave (km/s) = 3.06196 3.50870 3.29291
# Velocity P-wave (km/s) = 5.02650 5.75300 5.40198
#
# Compressibility (1/GPa) = 0.03125393
#
# Stress axis : x y z
#
# Youngs Moduli (GPa) = 66.44302 68.99642 49.74410
#
# Poissons Ratio (x) = 0.08249 0.14295
# Poissons Ratio (y) = 0.07944 0.25505
# Poissons Ratio (z) = 0.19094 0.35375
#
# Static dielectric constant tensor:
#      x y z
#    x 4.765650 0.000000 0.234460 
#    y 0.000000 4.162950 0.000000 
#    z 0.234460 0.000000 4.670380 
# 
# 
# High freq. dielectric constant tensor:
#      x y z
#    x 2.012890 0.000000 0.007940 
#    y 0.000000 1.983750 0.000000 
#    z 0.007940 0.000000 1.996230 
# 
# From -- ./inp_files/268569.got.cif
#   From: 2010.06.25/outbox.cif.g09.slc.cpg/sg15_135_cif.got.tgz:268569.got - 2010.06.28 07:06:18.
