data_PCOD8140396
_publ_section_title
;
Structure prediction by ZEFSAII (Michael W. Deem and Ramdas Pophale) SiO2 
 PCOD8140396
Probable space group: C 2/C
;
_chemical_formula_sum "Si O2"
_cell_formula_units_Z 40
_cell_length_a 11.741994
_cell_length_b 12.232457
_cell_length_c 19.042519
_cell_angle_alpha 90.000000
_cell_angle_beta 140.629885
_cell_angle_gamma 90.000000
_cell_volume 1734.975730
_symmetry_space_group_name_H-M "C 2/C"
_symmetry_group_IT_number 15
_symmetry_cell_setting 'monoclinic'
loop_
_space_group_symop_operation_xyz
x,y,z
-x,y,1/2-z
-x,-y,-z
x,-y,1/2+z
1/2+x,1/2+y,z
1/2-x,1/2+y,1/2-z
1/2-x,1/2-y,-z
1/2+x,1/2-y,1/2+z
loop_
_atom_site_type_symbol
_atom_site_label
_atom_site_fract_x
_atom_site_fract_y
_atom_site_fract_z
Si Si1 0.006053 0.642043 0.407560
Si Si2 0.035986 0.992328 0.098573
Si Si3 0.933006 0.431474 0.293931
Si Si4 0.878047 0.166043 0.627470
Si Si5 0.403767 0.314645 0.774151
O O1 0.011566 0.513577 0.389834
O O2 0.811135 0.679671 0.342300
O O3 0.054972 0.713533 0.361852
O O4 0.162259 0.664806 0.540940
O O5 0.220905 0.931564 0.198601
O O6 0.890152 0.917458 0.067753
O O7 0.040001 0.113394 0.132548
O O8 0.000000 0.000000 0.000000
O O9 0.983580 0.305069 0.330675
O O10 0.000000 0.471619 0.250000
O O11 0.000000 0.123918 0.750000
O O12 0.500000 0.359397 0.750000
#
# Coordination Sequence:
#
# PCOD8140396 Si02
#       5
#     8   8   8   8   8
#     4  10  22  42  71 100 134 185 223 284 343 410
#     4  11  23  42  66  96 138 182 227 283 346 406
#     4  10  20  41  66  98 134 177 226 279 342 409
#     4  11  23  43  70 102 134 179 240 283 336 411
#     4  10  22  44  71 101 141 176 231 284 346 413
#
# _framework density 23.055077000000001
#
# number of rings (size 3 to 8) (size 9 to 14) (size 15 to 20)
#    0.000    1.600    2.000    2.400    0.000    4.800 
#    0.000   22.000    0.000    0.000    0.000    0.000 
#    0.000    0.000    0.000    0.000    0.000    0.000 
#
# Total GULP energy -247950.840332 kJ/mol
# GULP energy per Si atom -12397.542017 kJ/mol
# Density = 2.300260 g / cm^3
# Si number density = 23.055077 Si / 1000 Ang^3
#
#
#
# Elastic Constant Matrix: (Units=GPa)
#
#
# Indices 1 2 3 4 5 6 
#
# 1 104.6825 36.8613 56.0638 0.0000 8.7707 0.0000
# 2 36.8613 114.5935 44.7002 0.0001 -6.7738 0.0000
# 3 56.0638 44.7002 140.0146 0.0002 -1.6634 0.0000
# 4 0.0000 0.0001 0.0002 -3.8417 0.0000 9.1022
# 5 8.7707 -6.7738 -1.6634 0.0000 42.1249 0.0000
# 6 0.0000 0.0000 0.0000 9.1022 0.0000 33.6080
#
#
#
# Elastic Compliance Matrix: (Units=1/GPa)
#
#
# Indices 1 2 3 4 5 6 
#
# 1 0.013167 -0.002697 -0.004451 0.000000 -0.003351 0.000000
# 2 -0.002697 0.010613 -0.002282 0.000000 0.002178 0.000000
# 3 -0.004451 -0.002282 0.009664 0.000000 0.000941 0.000000
# 4 0.000000 0.000000 0.000000 -0.158557 0.000000 0.042943
# 5 -0.003351 0.002178 0.000941 0.000000 0.024824 0.000000
# 6 0.000000 0.000000 0.000000 0.042943 0.000000 0.018124
#
#
# Mechanical properties :
#
#
# Convention : Reuss Voigt Hill
#
# Bulk Modulus (GPa) = 68.57250 70.50457 69.53853
# Shear Modulus (GPa) = -85.55546 29.15592 -28.19977
#
# Velocity S-wave (km/s) = -6.09834 3.56001 -3.50115
# Velocity P-wave (km/s) = 4.44734 6.89533 3.72604
#
# Compressibility (1/GPa) = 0.01458311
#
# Stress axis : x y z
#
# Youngs Moduli (GPa) = 75.94759 94.22226 103.47497
#
# Poissons Ratio (x) = 0.25415 0.46056
# Poissons Ratio (y) = 0.20485 0.23617
# Poissons Ratio (z) = 0.33804 0.21505
#
# Static dielectric constant tensor:
#      x y z
#    x 4.193450 0.000000 0.321340 
#    y 0.000000 4.197290 0.000000 
#    z 0.321340 0.000000 3.924380 
# 
# 
# High freq. dielectric constant tensor:
#      x y z
#    x 1.907120 0.000000 0.024100 
#    y 0.000000 1.926090 0.000000 
#    z 0.024100 0.000000 1.895990 
# 
# From -- ./inp_files/237812.got.cif
#   From: 2010.06.25/outbox.cif.g09.slc.cpg/sg15_119_cif.got.tgz:237812.got - 2010.06.28 07:06:18.
