data_PCOD8140307
_publ_section_title
;
Structure prediction by ZEFSAII (Michael W. Deem and Ramdas Pophale) SiO2 
 PCOD8140307
Probable space group: C 2/C
;
_chemical_formula_sum "Si O2"
_cell_formula_units_Z 44
_cell_length_a 5.353924
_cell_length_b 15.582286
_cell_length_c 24.720847
_cell_angle_alpha 90.000000
_cell_angle_beta 58.974380
_cell_angle_gamma 90.000000
_cell_volume 1767.321542
_symmetry_space_group_name_H-M "C 2/C"
_symmetry_group_IT_number 15
_symmetry_cell_setting 'monoclinic'
loop_
_space_group_symop_operation_xyz
x,y,z
-x,y,1/2-z
-x,-y,-z
x,-y,1/2+z
1/2+x,1/2+y,z
1/2-x,1/2+y,1/2-z
1/2-x,1/2-y,-z
1/2+x,1/2-y,1/2+z
loop_
_atom_site_type_symbol
_atom_site_label
_atom_site_fract_x
_atom_site_fract_y
_atom_site_fract_z
Si Si1 0.067950 0.209395 0.417063
Si Si2 0.500000 0.737139 0.250000
Si Si3 0.291285 0.405067 0.693686
Si Si4 0.273235 0.571273 0.508204
Si Si5 0.821632 0.028792 0.901436
Si Si6 0.362802 0.695299 0.617432
O O1 0.225289 0.132223 0.365542
O O2 0.321194 0.261929 0.417419
O O3 0.898882 0.167983 0.487849
O O4 0.852532 0.265436 0.403188
O O5 0.656874 0.676450 0.274855
O O6 0.271760 0.797076 0.307235
O O7 0.537328 0.480494 0.666389
O O8 0.000000 0.448765 0.750000
O O9 0.500000 0.500000 0.500000
O O10 0.199944 0.545458 0.454444
O O11 0.982134 0.578066 0.578817
O O12 0.063820 0.093902 0.901464
#
# Coordination Sequence:
#
# PCOD8140307 Si02
#       6
#     8   4   8   8   8   8
#     4  10  24  42  69  91 134 170 220 270 336 387
#     4  10  22  40  66  90 136 172 218 268 336 402
#     4  10  20  41  63  93 124 180 213 265 327 405
#     4  10  24  44  66  92 132 178 221 269 327 407
#     4  10  25  40  64  98 131 170 224 276 327 390
#     4  11  24  43  65 101 129 171 221 279 332 388
#
# _framework density 24.896429999999999
#
# number of rings (size 3 to 8) (size 9 to 14) (size 15 to 20)
#    0.000    1.818    1.818    0.000   14.000    1.455 
#    0.000    0.000    0.000    0.000    0.000    0.000 
#    0.000    0.000    0.000    0.000    0.000    0.000 
#
# Total GULP energy -272558.460747 kJ/mol
# GULP energy per Si atom -12389.020943 kJ/mol
# Density = 2.483976 g / cm^3
# Si number density = 24.896430 Si / 1000 Ang^3
#
#
#
# Elastic Constant Matrix: (Units=GPa)
#
#
# Indices 1 2 3 4 5 6 
#
# 1 95.6035 26.6470 32.2612 0.0000 -28.3774 0.0000
# 2 26.6470 112.3098 59.2270 0.0000 -17.8454 0.0000
# 3 32.2612 59.2270 143.6561 0.0000 -42.8752 0.0001
# 4 0.0000 0.0000 0.0000 47.0628 0.0000 -6.6966
# 5 -28.3774 -17.8454 -42.8752 0.0000 38.5945 0.0000
# 6 0.0000 0.0000 0.0001 -6.6966 0.0000 6.3157
#
#
#
# Elastic Compliance Matrix: (Units=1/GPa)
#
#
# Indices 1 2 3 4 5 6 
#
# 1 0.013747 -0.002068 0.000743 0.000000 0.009977 0.000000
# 2 -0.002068 0.011689 -0.004781 0.000000 -0.001427 0.000000
# 3 0.000743 -0.004781 0.012370 0.000000 0.012078 0.000000
# 4 0.000000 0.000000 0.000000 0.025024 0.000000 0.026533
# 5 0.009977 -0.001427 0.012078 0.000000 0.046004 0.000000
# 6 0.000000 0.000000 0.000000 0.026533 0.000000 0.186469
#
#
# Mechanical properties :
#
#
# Convention : Reuss Voigt Hill
#
# Bulk Modulus (GPa) = 39.07060 65.31555 52.19307
# Shear Modulus (GPa) = 15.82053 33.95686 24.88870
#
# Velocity S-wave (km/s) = 2.52356 3.69714 3.16522
# Velocity P-wave (km/s) = 4.92122 6.67211 5.86240
#
# Compressibility (1/GPa) = 0.02559469
#
# Stress axis : x y z
#
# Youngs Moduli (GPa) = 72.74319 85.55050 80.84204
#
# Poissons Ratio (x) = 0.17695 -0.06009
# Poissons Ratio (y) = 0.15046 0.38647
# Poissons Ratio (z) = -0.05407 0.40898
#
# Static dielectric constant tensor:
#      x y z
#    x 4.208720 0.000000 -0.287970 
#    y 0.000000 4.913130 0.000000 
#    z -0.287970 0.000000 5.553850 
# 
# 
# High freq. dielectric constant tensor:
#      x y z
#    x 1.970970 0.000000 -0.018590 
#    y 0.000000 1.996450 0.000000 
#    z -0.018590 0.000000 2.008540 
# 
# From -- ./inp_files/226977.got.cif
#   From: 2010.06.25/outbox.cif.g09.slc.cpg/sg15_114_cif.got.tgz:226977.got - 2010.06.28 07:06:18.
