data_PCOD8140339
_publ_section_title
;
Structure prediction by ZEFSAII (Michael W. Deem and Ramdas Pophale) SiO2 
 PCOD8140339
Probable space group: C 2/C
;
_chemical_formula_sum "Si O2"
_cell_formula_units_Z 52
_cell_length_a 8.620514
_cell_length_b 14.967908
_cell_length_c 18.649738
_cell_angle_alpha 90.000000
_cell_angle_beta 93.285856
_cell_angle_gamma 90.000000
_cell_volume 2402.439349
_symmetry_space_group_name_H-M "C 2/C"
_symmetry_group_IT_number 15
_symmetry_cell_setting 'monoclinic'
loop_
_space_group_symop_operation_xyz
x,y,z
-x,y,1/2-z
-x,-y,-z
x,-y,1/2+z
1/2+x,1/2+y,z
1/2-x,1/2+y,1/2-z
1/2-x,1/2-y,-z
1/2+x,1/2-y,1/2+z
loop_
_atom_site_type_symbol
_atom_site_label
_atom_site_fract_x
_atom_site_fract_y
_atom_site_fract_z
Si Si1 0.500000 0.170943 0.250000
Si Si2 0.000000 0.638987 0.750000
Si Si3 0.396403 0.941941 0.549225
Si Si4 0.075134 0.215953 0.363596
Si Si5 0.872479 0.173044 0.493773
Si Si6 0.296026 0.012011 0.199081
Si Si7 0.500000 0.423107 0.750000
Si Si8 0.575161 0.766078 0.602862
O O1 0.354254 0.107421 0.230175
O O2 0.460676 0.237958 0.313743
O O3 0.000958 0.697976 0.822075
O O4 0.148182 0.572831 0.752999
O O5 0.229866 0.917772 0.507998
O O6 0.355071 0.998686 0.619101
O O7 0.500882 0.855748 0.568762
O O8 0.500000 0.000000 0.500000
O O9 0.239804 0.238469 0.404895
O O10 0.953983 0.183223 0.419327
O O11 0.101223 0.137715 0.306606
O O12 0.750000 0.250000 0.500000
O O13 0.999286 0.179679 0.561204
O O14 0.111105 0.014696 0.204535
#
# Coordination Sequence:
#
# PCOD8140339 Si02
#       8
#     4   4   8   8   8   8   4   8
#     4   9  18  37  63  90 121 174 214 257 336 399
#     4  10  26  38  68  93 131 166 222 276 330 380
#     4  10  22  41  66  96 132 175 218 264 339 400
#     4  11  22  42  64  97 127 175 218 276 329 396
#     4  10  22  39  63  97 130 171 219 269 327 399
#     4  10  20  41  64  93 129 170 217 278 330 394
#     4  11  20  39  71  89 128 170 230 265 336 403
#     4  10  21  38  66  94 132 169 222 271 325 398
#
# _framework density 21.644666999999998
#
# number of rings (size 3 to 8) (size 9 to 14) (size 15 to 20)
#    0.000    1.846    3.077    0.462    4.308    0.000 
#    0.000    6.154    0.000    0.000    0.000    0.000 
#    0.000    0.000    0.000    0.000    0.000    0.000 
#
# Total GULP energy -322302.846617 kJ/mol
# GULP energy per Si atom -12396.263331 kJ/mol
# Density = 2.159540 g / cm^3
# Si number density = 21.644667 Si / 1000 Ang^3
#
#
#
# Elastic Constant Matrix: (Units=GPa)
#
#
# Indices 1 2 3 4 5 6 
#
# 1 152.9605 48.8771 67.0336 0.0000 -8.8741 0.0000
# 2 48.8771 70.8169 45.2362 0.0000 -3.6773 0.0000
# 3 67.0336 45.2362 136.0801 0.0000 -12.3212 0.0000
# 4 0.0000 0.0000 0.0000 18.9013 0.0000 -1.7639
# 5 -8.8741 -3.6773 -12.3212 0.0000 38.9155 0.0000
# 6 0.0000 0.0000 0.0000 -1.7639 0.0000 22.8629
#
#
#
# Elastic Compliance Matrix: (Units=1/GPa)
#
#
# Indices 1 2 3 4 5 6 
#
# 1 0.009344 -0.004460 -0.003053 0.000000 0.000743 0.000000
# 2 -0.004460 0.020058 -0.004521 0.000000 -0.000553 0.000000
# 3 -0.003053 -0.004521 0.010556 0.000000 0.002219 0.000000
# 4 0.000000 0.000000 0.000000 0.053290 0.000000 0.004111
# 5 0.000743 -0.000553 0.002219 0.000000 0.026516 0.000000
# 6 0.000000 0.000000 0.000000 0.004111 0.000000 0.044056
#
#
# Mechanical properties :
#
#
# Convention : Reuss Voigt Hill
#
# Bulk Modulus (GPa) = 62.93065 75.79458 69.36262
# Shear Modulus (GPa) = 25.88177 29.38331 27.63254
#
# Velocity S-wave (km/s) = 3.46172 3.68847 3.57689
# Velocity P-wave (km/s) = 6.71681 7.29612 7.01245
#
# Compressibility (1/GPa) = 0.01589051
#
# Stress axis : x y z
#
# Youngs Moduli (GPa) = 107.02190 49.85422 94.73133
#
# Poissons Ratio (x) = 0.22237 0.28920
# Poissons Ratio (y) = 0.47736 0.42826
# Poissons Ratio (z) = 0.32672 0.22538
#
# Static dielectric constant tensor:
#      x y z
#    x 3.991220 0.000000 0.374250 
#    y 0.000000 3.708170 0.000000 
#    z 0.374250 0.000000 3.995800 
# 
# 
# High freq. dielectric constant tensor:
#      x y z
#    x 1.860350 0.000000 -0.000050 
#    y 0.000000 1.820930 0.000000 
#    z -0.000050 0.000000 1.853020 
# 
# From -- ./inp_files/190484.got.cif
#   From: 2010.06.25/outbox.cif.g09.slc.cpg/sg15_96_cif.got.tgz:190484.got - 2010.06.28 07:06:18.
