data_PCOD8140718
_publ_section_title
;
Structure prediction by ZEFSAII (Michael W. Deem and Ramdas Pophale) SiO2 
 PCOD8140718
Probable space group: C 2/C
;
_chemical_formula_sum "Si O2"
_cell_formula_units_Z 60
_cell_length_a 22.813986
_cell_length_b 14.327351
_cell_length_c 9.190424
_cell_angle_alpha 90.000000
_cell_angle_beta 80.861296
_cell_angle_gamma 90.000000
_cell_volume 2965.887836
_symmetry_space_group_name_H-M "C 2/C"
_symmetry_group_IT_number 15
_symmetry_cell_setting 'monoclinic'
loop_
_space_group_symop_operation_xyz
x,y,z
-x,y,1/2-z
-x,-y,-z
x,-y,1/2+z
1/2+x,1/2+y,z
1/2-x,1/2+y,1/2-z
1/2-x,1/2-y,-z
1/2+x,1/2-y,1/2+z
loop_
_atom_site_type_symbol
_atom_site_label
_atom_site_fract_x
_atom_site_fract_y
_atom_site_fract_z
Si Si1 0.611972 0.192368 0.872479
Si Si2 0.798468 0.805053 0.068209
Si Si3 0.505723 0.099117 0.074261
Si Si4 0.178453 0.005577 0.077097
Si Si5 0.744776 0.831627 0.387676
Si Si6 0.922904 0.725027 0.925498
Si Si7 0.000000 0.876744 0.750000
Si Si8 0.390019 0.414879 0.631965
O O1 0.676992 0.149056 0.867969
O O2 0.587871 0.167553 0.720265
O O3 0.615920 0.304037 0.884187
O O4 0.568175 0.147971 0.009020
O O5 0.785642 0.794713 0.242189
O O6 0.750000 0.750000 0.000000
O O7 0.862487 0.764050 0.012379
O O8 0.793591 0.912948 0.029398
O O9 0.500000 0.089770 0.250000
O O10 0.451444 0.160454 0.036422
O O11 0.500000 0.000000 0.000000
O O12 0.229513 0.928186 0.062535
O O13 0.160739 0.045769 0.240852
O O14 0.119712 0.963741 0.019886
O O15 0.750000 0.750000 0.500000
O O16 0.965116 0.812913 0.878926
O O17 0.954541 0.940017 0.673998
#
# Coordination Sequence:
#
# PCOD8140718 Si02
#       8
#     8   8   8   8   8   8   4   8
#     4  11  22  47  70  97 141 190 229 296 358 410
#     4  12  25  44  70 100 139 191 233 288 360 423
#     4  12  27  47  74 106 140 182 239 294 352 427
#     4  12  24  42  66 102 139 181 233 288 345 422
#     4  12  26  43  70 102 145 185 233 294 349 424
#     4  11  21  43  74  95 136 186 233 283 360 412
#     4  10  20  42  72  92 138 188 226 284 360 406
#     4  11  22  42  69  98 140 181 232 288 347 415
#
# _framework density 20.230029999999999
#
# number of rings (size 3 to 8) (size 9 to 14) (size 15 to 20)
#    0.000    0.533    9.333    0.800    1.867    1.600 
#    2.400    0.000    0.000    0.000    0.000    0.000 
#    0.000    0.000    0.000    0.000    0.000    0.000 
#
# Total GULP energy -372064.228707 kJ/mol
# GULP energy per Si atom -12402.140957 kJ/mol
# Density = 2.018399 g / cm^3
# Si number density = 20.230030 Si / 1000 Ang^3
#
#
#
# Elastic Constant Matrix: (Units=GPa)
#
#
# Indices 1 2 3 4 5 6 
#
# 1 133.0032 60.1662 45.4027 0.0000 -2.8260 0.0000
# 2 60.1662 115.0501 50.8744 0.0000 -1.6458 0.0000
# 3 45.4027 50.8744 145.8773 0.0000 -9.3943 0.0000
# 4 0.0000 0.0000 0.0000 29.7455 0.0000 -0.7681
# 5 -2.8260 -1.6458 -9.3943 0.0000 41.7290 0.0000
# 6 0.0000 0.0000 0.0000 -0.7681 0.0000 36.7153
#
#
#
# Elastic Compliance Matrix: (Units=1/GPa)
#
#
# Indices 1 2 3 4 5 6 
#
# 1 0.010135 -0.004620 -0.001533 0.000000 0.000159 0.000000
# 2 -0.004620 0.012390 -0.002914 0.000000 -0.000480 0.000000
# 3 -0.001533 -0.002914 0.008457 0.000000 0.001685 0.000000
# 4 0.000000 0.000000 0.000000 0.033637 0.000000 0.000704
# 5 0.000159 -0.000480 0.001685 0.000000 0.024335 0.000000
# 6 0.000000 0.000000 0.000000 0.000704 0.000000 0.027251
#
#
# Mechanical properties :
#
#
# Convention : Reuss Voigt Hill
#
# Bulk Modulus (GPa) = 77.83368 78.53525 78.18446
# Shear Modulus (GPa) = 36.06938 37.47045 36.76992
#
# Velocity S-wave (km/s) = 4.22709 4.30841 4.26795
# Velocity P-wave (km/s) = 7.89825 7.97843 7.93844
#
# Compressibility (1/GPa) = 0.01284791
#
# Stress axis : x y z
#
# Youngs Moduli (GPa) = 98.66485 80.71282 118.24670
#
# Poissons Ratio (x) = 0.37291 0.18127
# Poissons Ratio (y) = 0.45585 0.34455
# Poissons Ratio (z) = 0.15125 0.23518
#
# Static dielectric constant tensor:
#      x y z
#    x 3.898630 0.000000 0.200330 
#    y 0.000000 3.623240 0.000000 
#    z 0.200330 0.000000 3.877660 
# 
# 
# High freq. dielectric constant tensor:
#      x y z
#    x 1.802770 0.000000 0.005210 
#    y 0.000000 1.786790 0.000000 
#    z 0.005210 0.000000 1.796510 
# 
# From -- ./inp_files/61553.got.cif
#   From: 2010.06.25/outbox.cif.g09.slc.cpg/sg15_31_cif.got.tgz:61553.got - 2010.06.28 07:06:18.
