data_PCOD8140306
_publ_section_title
;
Structure prediction by ZEFSAII (Michael W. Deem and Ramdas Pophale) SiO2 
 PCOD8140306
Probable space group: C 2/C
;
_chemical_formula_sum "Si O2"
_cell_formula_units_Z 64
_cell_length_a 17.245633
_cell_length_b 20.482889
_cell_length_c 14.033209
_cell_angle_alpha 90.000000
_cell_angle_beta 146.935983
_cell_angle_gamma 90.000000
_cell_volume 2704.471450
_symmetry_space_group_name_H-M "C 2/C"
_symmetry_group_IT_number 15
_symmetry_cell_setting 'monoclinic'
loop_
_space_group_symop_operation_xyz
x,y,z
-x,y,1/2-z
-x,-y,-z
x,-y,1/2+z
1/2+x,1/2+y,z
1/2-x,1/2+y,1/2-z
1/2-x,1/2-y,-z
1/2+x,1/2-y,1/2+z
loop_
_atom_site_type_symbol
_atom_site_label
_atom_site_fract_x
_atom_site_fract_y
_atom_site_fract_z
Si Si1 0.601301 0.710312 0.555493
Si Si2 0.787604 0.884621 0.875908
Si Si3 0.574680 0.157883 0.921558
Si Si4 0.477962 0.117671 0.120989
Si Si5 0.958321 0.230806 0.603139
Si Si6 0.370971 0.614823 0.248980
Si Si7 0.926518 0.008882 0.025503
Si Si8 0.673899 0.897965 0.217409
O O1 0.617865 0.784172 0.537593
O O2 0.569334 0.710314 0.635646
O O3 0.476978 0.676847 0.364561
O O4 0.750015 0.672865 0.696467
O O5 0.623821 0.895896 0.719849
O O6 0.816595 0.901444 0.797486
O O7 0.887489 0.938821 0.033842
O O8 0.815091 0.809827 0.934017
O O9 0.500000 0.184978 0.750000
O O10 0.470818 0.106993 0.869012
O O11 0.725451 0.126781 0.040204
O O12 0.500000 0.088204 0.250000
O O13 0.428713 0.192754 0.075950
O O14 0.362137 0.084735 0.931314
O O15 0.000000 0.205273 0.750000
O O16 0.460989 0.553390 0.298391
O O17 0.776238 0.046240 0.860912
O O18 0.000000 0.000000 0.000000
#
# Coordination Sequence:
#
# PCOD8140306 Si02
#       8
#     8   8   8   8   8   8   8   8
#     4  10  21  37  63  95 130 175 215 263 331 394
#     4  10  20  41  63  92 130 171 216 256 320 388
#     4  12  24  40  64  96 129 168 218 281 338 383
#     4  11  24  36  61 102 136 167 209 267 330 394
#     4  10  22  36  62  97 136 170 205 257 321 398
#     4   9  19  40  63  89 125 165 220 268 315 389
#     4   9  21  44  71  89 118 180 223 261 322 386
#     4  11  23  41  68  93 130 173 219 272 327 386
#
# _framework density 23.664514
#
# number of rings (size 3 to 8) (size 9 to 14) (size 15 to 20)
#    0.000    1.750    2.500    1.500    5.250    3.500 
#    0.000    3.750    0.000    0.000    0.000    0.000 
#    0.000    0.000    0.000    0.000    0.000    0.000 
#
# Total GULP energy -396464.310476 kJ/mol
# GULP energy per Si atom -12389.509702 kJ/mol
# Density = 2.361065 g / cm^3
# Si number density = 23.664514 Si / 1000 Ang^3
#
#
#
# Elastic Constant Matrix: (Units=GPa)
#
#
# Indices 1 2 3 4 5 6 
#
# 1 43.3203 12.8635 35.3624 0.0000 -1.4119 0.0000
# 2 12.8635 67.5458 16.0951 0.0000 13.3162 0.0000
# 3 35.3624 16.0951 123.1242 0.0000 16.0059 0.0000
# 4 0.0000 0.0000 0.0000 -25.1649 0.0000 -10.7359
# 5 -1.4119 13.3162 16.0059 0.0000 39.5709 0.0000
# 6 0.0000 0.0000 0.0000 -10.7359 0.0000 -3.4530
#
#
#
# Elastic Compliance Matrix: (Units=1/GPa)
#
#
# Indices 1 2 3 4 5 6 
#
# 1 0.032704 -0.005289 -0.009589 0.000000 0.006825 0.000000
# 2 -0.005289 0.016963 0.000072 0.000000 -0.005926 0.000000
# 3 -0.009589 0.000072 0.011520 0.000000 -0.005026 0.000000
# 4 0.000000 0.000000 0.000000 0.121728 0.000000 -0.378474
# 5 0.006825 -0.005926 -0.005026 0.000000 0.029542 0.000000
# 6 0.000000 0.000000 0.000000 -0.378474 0.000000 0.887141
#
#
# Mechanical properties :
#
#
# Convention : Reuss Voigt Hill
#
# Bulk Modulus (GPa) = 31.67004 40.29247 35.98125
# Shear Modulus (GPa) = 4.38699 13.50190 8.94445
#
# Velocity S-wave (km/s) = 1.36303 2.39122 1.94625
# Velocity P-wave (km/s) = 3.98611 4.96864 4.50425
#
# Compressibility (1/GPa) = 0.03157559
#
# Stress axis : x y z
#
# Youngs Moduli (GPa) = 30.57712 58.95128 86.80681
#
# Poissons Ratio (x) = 0.31179 0.83237
# Poissons Ratio (y) = 0.16172 -0.00625
# Poissons Ratio (z) = 0.29320 -0.00424
#
# Static dielectric constant tensor:
#      x y z
#    x 4.046570 0.000000 -0.140900 
#    y 0.000000 4.618690 0.000000 
#    z -0.140900 0.000000 3.924130 
# 
# 
# High freq. dielectric constant tensor:
#      x y z
#    x 1.927290 0.000000 0.013970 
#    y 0.000000 1.921810 0.000000 
#    z 0.013970 0.000000 1.942080 
# 
# From -- ./inp_files/164261.got.cif
#   From: 2010.06.25/outbox.cif.g09.slc.cpg/sg15_83_cif.got.tgz:164261.got - 2010.06.28 07:06:18.
