data_PCOD8140802
_publ_section_title
;
Structure prediction by ZEFSAII (Michael W. Deem and Ramdas Pophale) SiO2 
 PCOD8140802
Probable space group: C 2/C
;
_chemical_formula_sum "Si O2"
_cell_formula_units_Z 28
_cell_length_a 6.574322
_cell_length_b 12.681924
_cell_length_c 18.405129
_cell_angle_alpha 90.000000
_cell_angle_beta 61.068394
_cell_angle_gamma 90.000000
_cell_volume 1343.016045
_symmetry_space_group_name_H-M "C 2/C"
_symmetry_group_IT_number 15
_symmetry_cell_setting 'monoclinic'
loop_
_space_group_symop_operation_xyz
x,y,z
-x,y,1/2-z
-x,-y,-z
x,-y,1/2+z
1/2+x,1/2+y,z
1/2-x,1/2+y,1/2-z
1/2-x,1/2-y,-z
1/2+x,1/2-y,1/2+z
loop_
_atom_site_type_symbol
_atom_site_label
_atom_site_fract_x
_atom_site_fract_y
_atom_site_fract_z
Si Si1 0.000000 0.899404 0.750000
Si Si2 0.955859 0.667385 0.972219
Si Si3 0.015814 0.545667 0.387156
Si Si4 0.775866 0.697831 0.327492
O O1 0.780862 0.970484 0.812911
O O2 0.926752 0.824406 0.695664
O O3 0.905341 0.563640 0.932740
O O4 0.191105 0.720918 0.903069
O O5 0.750000 0.750000 0.000000
O O6 0.988282 0.634082 0.049539
O O7 0.852848 0.587236 0.350723
O O8 0.000000 0.749606 0.250000
#
# Coordination Sequence:
#
# PCOD8140802 Si02
#       4
#     4   8   8   8
#     4  10  20  44  60  90 130 156 210 254 296 374
#     4  11  22  42  65  93 123 162 207 254 304 366
#     4  10  23  41  63  92 124 162 204 256 307 357
#     4  10  22  42  63  91 127 164 204 252 306 363
#
# _framework density 20.848596000000001
#
# number of rings (size 3 to 8) (size 9 to 14) (size 15 to 20)
#    0.000    1.714    2.857    0.857    2.000    1.143 
#   12.857    0.000    0.000    0.000    0.000    0.000 
#    0.000    0.000    0.000    0.000    0.000    0.000 
#
# Total GULP energy -173615.180433 kJ/mol
# GULP energy per Si atom -12401.084317 kJ/mol
# Density = 2.080114 g / cm^3
# Si number density = 20.848596 Si / 1000 Ang^3
#
#
#
# Elastic Constant Matrix: (Units=GPa)
#
#
# Indices 1 2 3 4 5 6 
#
# 1 111.8851 48.8648 43.4641 -0.0002 6.1479 0.0001
# 2 48.8648 105.4178 53.9652 -0.0001 -7.1557 0.0001
# 3 43.4641 53.9652 132.0421 -0.0001 -6.0350 0.0001
# 4 -0.0002 -0.0001 -0.0001 19.6354 0.0001 -9.7245
# 5 6.1479 -7.1557 -6.0350 0.0001 28.1520 -0.0001
# 6 0.0001 0.0001 0.0001 -9.7245 -0.0001 22.6037
#
#
#
# Elastic Compliance Matrix: (Units=1/GPa)
#
#
# Indices 1 2 3 4 5 6 
#
# 1 0.012131 -0.004770 -0.002242 0.000000 -0.004342 0.000000
# 2 -0.004770 0.013986 -0.003975 0.000000 0.003745 0.000000
# 3 -0.002242 -0.003975 0.010010 0.000000 0.001625 0.000000
# 4 0.000000 0.000000 0.000000 0.064718 0.000000 0.027843
# 5 -0.004342 0.003745 0.001625 0.000000 0.037770 0.000000
# 6 0.000000 0.000000 0.000000 0.027843 0.000000 0.056219
#
#
# Mechanical properties :
#
#
# Convention : Reuss Voigt Hill
#
# Bulk Modulus (GPa) = 70.65529 71.32589 70.99059
# Shear Modulus (GPa) = 22.57085 27.61495 25.09290
#
# Velocity S-wave (km/s) = 3.29387 3.64338 3.47302
# Velocity P-wave (km/s) = 6.95912 7.21003 7.08569
#
# Compressibility (1/GPa) = 0.01415322
#
# Stress axis : x y z
#
# Youngs Moduli (GPa) = 82.43680 71.49980 99.89922
#
# Poissons Ratio (x) = 0.34105 0.22397
# Poissons Ratio (y) = 0.39322 0.39708
# Poissons Ratio (z) = 0.18482 0.28420
#
# Static dielectric constant tensor:
#      x y z
#    x 3.565810 0.000000 0.002830 
#    y 0.000000 3.471000 0.000000 
#    z 0.002830 0.000000 4.300360 
# 
# 
# High freq. dielectric constant tensor:
#      x y z
#    x 1.807900 0.000000 0.001370 
#    y 0.000000 1.793180 0.000000 
#    z 0.001370 0.000000 1.848010 
# 
# From -- ./inp_files/183567.got.cif
#   From: 2010.06.25/outbox.cif.g09.slc.cpg/sg15_92_cif.got.tgz:183567.got - 2010.06.28 07:06:18.
