data_PCOD8140685
_publ_section_title
;
Structure prediction by ZEFSAII (Michael W. Deem and Ramdas Pophale) SiO2 
 PCOD8140685
Probable space group: C 2/C
;
_chemical_formula_sum "Si O2"
_cell_formula_units_Z 52
_cell_length_a 17.484136
_cell_length_b 20.038694
_cell_length_c 8.594943
_cell_angle_alpha 90.000000
_cell_angle_beta 126.035068
_cell_angle_gamma 90.000000
_cell_volume 2435.123477
_symmetry_space_group_name_H-M "C 2/C"
_symmetry_group_IT_number 15
_symmetry_cell_setting 'monoclinic'
loop_
_space_group_symop_operation_xyz
x,y,z
-x,y,1/2-z
-x,-y,-z
x,-y,1/2+z
1/2+x,1/2+y,z
1/2-x,1/2+y,1/2-z
1/2-x,1/2-y,-z
1/2+x,1/2-y,1/2+z
loop_
_atom_site_type_symbol
_atom_site_label
_atom_site_fract_x
_atom_site_fract_y
_atom_site_fract_z
Si Si1 0.210986 0.485635 0.036022
Si Si2 0.419452 0.948466 0.356039
Si Si3 0.500000 0.611519 0.750000
Si Si4 0.182909 0.080590 0.116026
Si Si5 0.959570 0.700923 0.865003
Si Si6 0.609024 0.728651 0.738889
Si Si7 0.203423 0.763243 0.669251
O O1 0.161456 0.441290 0.109358
O O2 0.290677 0.533208 0.208140
O O3 0.129046 0.530341 0.862780
O O4 0.255958 0.436623 0.963335
O O5 0.467020 0.878087 0.382629
O O6 0.500000 0.000000 0.500000
O O7 0.428865 0.568904 0.556010
O O8 0.569013 0.654420 0.720129
O O9 0.205500 0.156682 0.190102
O O10 0.853044 0.729625 0.755237
O O11 0.000000 0.727222 0.750000
O O12 0.021304 0.727278 0.081663
O O13 0.691240 0.731822 0.706199
O O14 0.650793 0.758648 0.947792
#
# Coordination Sequence:
#
# PCOD8140685 Si02
#       7
#     8   8   4   8   8   8   8
#     4  10  24  42  64  94 127 176 214 265 332 391
#     4  11  25  42  63  97 137 173 212 264 326 399
#     4  10  20  42  70  90 130 160 230 270 316 394
#     4  10  22  43  67  94 127 166 223 274 325 392
#     4  12  25  40  63 103 133 168 215 271 336 387
#     4  10  21  40  65  95 123 170 221 260 332 385
#     4  10  23  41  69  93 128 172 215 276 320 400
#
# _framework density 21.354154000000001
#
# number of rings (size 3 to 8) (size 9 to 14) (size 15 to 20)
#    0.000    1.538    3.077    1.385   12.923    2.462 
#    0.000    0.000    1.692    0.000    0.000    0.000 
#    0.000    0.000    0.000    0.000    0.000    0.000 
#
# Total GULP energy -322420.829720 kJ/mol
# GULP energy per Si atom -12400.801143 kJ/mol
# Density = 2.130555 g / cm^3
# Si number density = 21.354154 Si / 1000 Ang^3
#
#
#
# Elastic Constant Matrix: (Units=GPa)
#
#
# Indices 1 2 3 4 5 6 
#
# 1 120.5411 31.0285 8.3624 0.0000 7.0791 0.0000
# 2 31.0285 79.9601 21.6096 0.0000 1.2510 0.0000
# 3 8.3624 21.6096 88.5257 0.0000 17.9514 0.0000
# 4 0.0000 0.0000 0.0000 25.9474 0.0000 7.8970
# 5 7.0791 1.2510 17.9514 0.0000 38.8854 0.0000
# 6 0.0000 0.0000 0.0000 7.8970 0.0000 29.9989
#
#
#
# Elastic Compliance Matrix: (Units=1/GPa)
#
#
# Indices 1 2 3 4 5 6 
#
# 1 0.009323 -0.003692 0.000376 0.000000 -0.001752 0.000000
# 2 -0.003692 0.014902 -0.003672 0.000000 0.001888 0.000000
# 3 0.000376 -0.003672 0.013401 0.000000 -0.006137 0.000000
# 4 0.000000 0.000000 0.000000 0.041896 0.000000 -0.011029
# 5 -0.001752 0.001888 -0.006137 0.000000 0.028808 0.000000
# 6 0.000000 0.000000 0.000000 -0.011029 0.000000 0.036238
#
#
# Mechanical properties :
#
#
# Convention : Reuss Voigt Hill
#
# Bulk Modulus (GPa) = 42.28225 45.66978 43.97601
# Shear Modulus (GPa) = 30.04317 34.16809 32.10563
#
# Velocity S-wave (km/s) = 3.75494 4.00442 3.88169
# Velocity P-wave (km/s) = 6.21634 6.54323 6.38188
#
# Compressibility (1/GPa) = 0.02365059
#
# Stress axis : x y z
#
# Youngs Moduli (GPa) = 107.26050 67.10669 74.61904
#
# Poissons Ratio (x) = 0.24776 -0.02804
# Poissons Ratio (y) = 0.39600 0.27397
# Poissons Ratio (z) = -0.04031 0.24639
#
# Static dielectric constant tensor:
#      x y z
#    x 4.194780 0.000000 0.159970 
#    y 0.000000 3.577280 0.000000 
#    z 0.159970 0.000000 4.041270 
# 
# 
# High freq. dielectric constant tensor:
#      x y z
#    x 1.849480 0.000000 0.011700 
#    y 0.000000 1.817900 0.000000 
#    z 0.011700 0.000000 1.838910 
# 
# From -- ./inp_files/50706.got.cif
#   From: 2010.06.25/outbox.cif.g09.slc.cpg/sg15_26_cif.got.tgz:50706.got - 2010.06.28 07:06:18.
