data_PCOD8140107
_publ_section_title
;
Structure prediction by ZEFSAII (Michael W. Deem and Ramdas Pophale) SiO2 
 PCOD8140107
Probable space group: C 2/C
;
_chemical_formula_sum "Si O2"
_cell_formula_units_Z 44
_cell_length_a 8.094329
_cell_length_b 16.046220
_cell_length_c 16.617012
_cell_angle_alpha 90.000000
_cell_angle_beta 67.248472
_cell_angle_gamma 90.000000
_cell_volume 1990.339889
_symmetry_space_group_name_H-M "C 2/C"
_symmetry_group_IT_number 15
_symmetry_cell_setting 'monoclinic'
loop_
_space_group_symop_operation_xyz
x,y,z
-x,y,1/2-z
-x,-y,-z
x,-y,1/2+z
1/2+x,1/2+y,z
1/2-x,1/2+y,1/2-z
1/2-x,1/2-y,-z
1/2+x,1/2-y,1/2+z
loop_
_atom_site_type_symbol
_atom_site_label
_atom_site_fract_x
_atom_site_fract_y
_atom_site_fract_z
Si Si1 0.258120 0.953860 0.108966
Si Si2 0.630686 0.274594 0.097854
Si Si3 0.855407 0.516413 0.916656
Si Si4 0.696490 0.630265 0.356260
Si Si5 0.639960 0.318755 0.472587
Si Si6 0.500000 0.571135 0.250000
O O1 0.194698 0.858844 0.129286
O O2 0.431461 0.971345 0.131056
O O3 0.100637 0.014654 0.165782
O O4 0.303142 0.969485 0.007960
O O5 0.651664 0.201321 0.159941
O O6 0.429447 0.282149 0.100089
O O7 0.750000 0.250000 0.000000
O O8 0.783860 0.459526 0.857891
O O9 0.770862 0.606824 0.926286
O O10 0.525156 0.647396 0.444530
O O11 0.635843 0.629638 0.274453
O O12 0.750000 0.250000 0.500000
#
# Coordination Sequence:
#
# PCOD8140107 Si02
#       6
#     8   8   8   8   8   4
#     4  11  23  41  68  98 130 175 215 275 325 400
#     4  10  20  40  66  98 125 166 227 279 313 376
#     4  11  21  40  70  97 124 170 238 265 314 385
#     4  11  23  41  67  96 134 172 216 277 328 396
#     4  11  21  36  66 102 123 166 223 285 312 372
#     4  12  26  44  62  96 144 176 208 262 358 396
#
# _framework density 22.106774999999999
#
# number of rings (size 3 to 8) (size 9 to 14) (size 15 to 20)
#    0.000    1.091    5.455    3.818    2.545    0.727 
#    0.000    7.273    0.000    0.000    0.000    0.000 
#    0.000    0.000    0.000    0.000    0.000    0.000 
#
# Total GULP energy -272840.164921 kJ/mol
# GULP energy per Si atom -12401.825678 kJ/mol
# Density = 2.205646 g / cm^3
# Si number density = 22.106775 Si / 1000 Ang^3
#
#
#
# Elastic Constant Matrix: (Units=GPa)
#
#
# Indices 1 2 3 4 5 6 
#
# 1 147.5345 73.2406 26.4561 0.0000 39.5889 0.0000
# 2 73.2406 164.7958 22.2380 0.0000 36.0672 0.0000
# 3 26.4561 22.2380 40.4045 0.0000 28.3684 0.0000
# 4 0.0000 0.0000 0.0000 20.7529 0.0000 17.8013
# 5 39.5889 36.0672 28.3684 0.0000 43.0524 0.0000
# 6 0.0000 0.0000 0.0000 17.8013 0.0000 49.2034
#
#
#
# Elastic Compliance Matrix: (Units=1/GPa)
#
#
# Indices 1 2 3 4 5 6 
#
# 1 0.010084 -0.003007 -0.000383 0.000000 -0.006501 0.000000
# 2 -0.003007 0.008333 0.000638 0.000000 -0.004636 0.000000
# 3 -0.000383 0.000638 0.046109 0.000000 -0.030564 0.000000
# 4 0.000000 0.000000 0.000000 0.069868 0.000000 -0.025278
# 5 -0.006501 -0.004636 -0.030564 0.000000 0.053229 0.000000
# 6 0.000000 0.000000 0.000000 -0.025278 0.000000 0.029469
#
#
# Mechanical properties :
#
#
# Convention : Reuss Voigt Hill
#
# Bulk Modulus (GPa) = 16.94328 66.28936 41.61632
# Shear Modulus (GPa) = 20.63794 37.98843 29.31319
#
# Velocity S-wave (km/s) = 3.05873 4.14986 3.64535
# Velocity P-wave (km/s) = 4.48947 7.28100 6.04848
#
# Compressibility (1/GPa) = 0.05902046
#
# Stress axis : x y z
#
# Youngs Moduli (GPa) = 99.16580 120.00198 21.68766
#
# Poissons Ratio (x) = 0.36087 0.00831
# Poissons Ratio (y) = 0.29821 -0.01383
# Poissons Ratio (z) = 0.03802 -0.07651
#
# Static dielectric constant tensor:
#      x y z
#    x 4.657790 0.000000 0.444540 
#    y 0.000000 4.146430 0.000000 
#    z 0.444540 0.000000 3.700150 
# 
# 
# High freq. dielectric constant tensor:
#      x y z
#    x 1.889960 0.000000 0.019950 
#    y 0.000000 1.879950 0.000000 
#    z 0.019950 0.000000 1.833860 
# 
# From -- ./inp_files/188808.got.cif
#   From: 2010.06.25/outbox.cif.g09.slc.cpg/sg15_95_cif.got.tgz:188808.got - 2010.06.28 07:06:18.
