data_PCOD8140559
_publ_section_title
;
Structure prediction by ZEFSAII (Michael W. Deem and Ramdas Pophale) SiO2 
 PCOD8140559
Probable space group: C 2/C
;
_chemical_formula_sum "Si O2"
_cell_formula_units_Z 36
_cell_length_a 16.435125
_cell_length_b 8.161907
_cell_length_c 19.959215
_cell_angle_alpha 90.000000
_cell_angle_beta 140.532128
_cell_angle_gamma 90.000000
_cell_volume 1701.856923
_symmetry_space_group_name_H-M "C 2/C"
_symmetry_group_IT_number 15
_symmetry_cell_setting 'monoclinic'
loop_
_space_group_symop_operation_xyz
x,y,z
-x,y,1/2-z
-x,-y,-z
x,-y,1/2+z
1/2+x,1/2+y,z
1/2-x,1/2+y,1/2-z
1/2-x,1/2-y,-z
1/2+x,1/2-y,1/2+z
loop_
_atom_site_type_symbol
_atom_site_label
_atom_site_fract_x
_atom_site_fract_y
_atom_site_fract_z
Si Si1 0.500000 0.086591 0.250000
Si Si2 0.699804 0.103445 0.803722
Si Si3 0.282813 0.665429 0.601636
Si Si4 0.362186 0.462031 0.020795
Si Si5 0.343416 0.530929 0.270243
O O1 0.609100 0.201253 0.350509
O O2 0.439903 0.971527 0.269667
O O3 0.685308 0.290766 0.775636
O O4 0.758118 0.997702 0.780827
O O5 0.791033 0.090038 0.926867
O O6 0.297146 0.525246 0.553872
O O7 0.152394 0.773392 0.515906
O O8 0.302631 0.598523 0.688065
O O9 0.509606 0.510005 0.116979
#
# Coordination Sequence:
#
# PCOD8140559 Si02
#       5
#     4   8   8   8   8
#     4  10  20  42  64  98 128 174 210 270 320 394
#     4  11  26  41  68  98 134 172 224 262 331 385
#     4  10  21  42  72  94 131 172 219 264 335 380
#     4  10  22  43  69  96 129 175 219 268 323 395
#     4  12  24  46  66  97 136 173 213 282 318 385
#
# _framework density 21.153365999999998
#
# number of rings (size 3 to 8) (size 9 to 14) (size 15 to 20)
#    0.000    1.333    2.222    3.333    3.111    0.889 
#    8.000    2.222    0.000    0.000    0.000    0.000 
#    0.000    0.000    0.000    0.000    0.000    0.000 
#
# Total GULP energy -223145.609734 kJ/mol
# GULP energy per Si atom -12396.978319 kJ/mol
# Density = 2.110522 g / cm^3
# Si number density = 21.153366 Si / 1000 Ang^3
#
#
#
# Elastic Constant Matrix: (Units=GPa)
#
#
# Indices 1 2 3 4 5 6 
#
# 1 110.3082 39.1794 56.1369 0.0000 8.2618 0.0000
# 2 39.1794 105.9407 57.6611 0.0000 12.1540 0.0000
# 3 56.1369 57.6611 105.8500 0.0000 -12.8697 0.0000
# 4 0.0000 0.0000 0.0000 32.3886 0.0000 -3.5434
# 5 8.2618 12.1540 -12.8697 0.0000 20.8314 0.0000
# 6 0.0000 0.0000 0.0000 -3.5434 0.0000 27.9382
#
#
#
# Elastic Compliance Matrix: (Units=1/GPa)
#
#
# Indices 1 2 3 4 5 6 
#
# 1 0.014710 0.001699 -0.010333 0.000000 -0.013209 0.000000
# 2 0.001699 0.018225 -0.013195 0.000000 -0.019460 0.000000
# 3 -0.010333 -0.013195 0.025462 0.000000 0.027528 0.000000
# 4 0.000000 0.000000 0.000000 0.031309 0.000000 0.003971
# 5 -0.013209 -0.019460 0.027528 0.000000 0.081604 0.000000
# 6 0.000000 0.000000 0.000000 0.003971 0.000000 0.036297
#
#
# Mechanical properties :
#
#
# Convention : Reuss Voigt Hill
#
# Bulk Modulus (GPa) = 67.84480 69.78375 68.81427
# Shear Modulus (GPa) = 19.51761 27.50639 23.51200
#
# Velocity S-wave (km/s) = 3.04085 3.60992 3.33754
# Velocity P-wave (km/s) = 6.66869 7.10186 6.88868
#
# Compressibility (1/GPa) = 0.01473952
#
# Stress axis : x y z
#
# Youngs Moduli (GPa) = 67.98166 54.86921 39.27351
#
# Poissons Ratio (x) = -0.09325 0.40582
# Poissons Ratio (y) = -0.11553 0.51823
# Poissons Ratio (z) = 0.70246 0.72402
#
# Static dielectric constant tensor:
#      x y z
#    x 4.008130 0.000000 0.002390 
#    y 0.000000 3.861300 0.000000 
#    z 0.002390 0.000000 4.029660 
# 
# 
# High freq. dielectric constant tensor:
#      x y z
#    x 1.832190 0.000000 -0.010930 
#    y 0.000000 1.823530 0.000000 
#    z -0.010930 0.000000 1.839250 
# 
# From -- ./inp_files/102462.got.cif
#   From: 2010.06.25/outbox.cif.g09.slc.cpg/sg15_52_cif.got.tgz:102462.got - 2010.06.28 07:06:18.
