data_PCOD8140254
_publ_section_title
;
Structure prediction by ZEFSAII (Michael W. Deem and Ramdas Pophale) SiO2 
 PCOD8140254
Probable space group: C 2/C
;
_chemical_formula_sum "Si O2"
_cell_formula_units_Z 56
_cell_length_a 17.519992
_cell_length_b 13.021848
_cell_length_c 15.012336
_cell_angle_alpha 90.000000
_cell_angle_beta 128.088672
_cell_angle_gamma 90.000000
_cell_volume 2695.634387
_symmetry_space_group_name_H-M "C 2/C"
_symmetry_group_IT_number 15
_symmetry_cell_setting 'monoclinic'
loop_
_space_group_symop_operation_xyz
x,y,z
-x,y,1/2-z
-x,-y,-z
x,-y,1/2+z
1/2+x,1/2+y,z
1/2-x,1/2+y,1/2-z
1/2-x,1/2-y,-z
1/2+x,1/2-y,1/2+z
loop_
_atom_site_type_symbol
_atom_site_label
_atom_site_fract_x
_atom_site_fract_y
_atom_site_fract_z
Si Si1 0.315554 0.467471 0.085315
Si Si2 0.556844 0.619388 0.967166
Si Si3 0.149488 0.665868 0.523465
Si Si4 0.169685 0.395832 0.225742
Si Si5 0.689071 0.848672 0.432113
Si Si6 0.865840 0.989816 0.322235
Si Si7 0.024867 0.479563 0.368605
O O1 0.406936 0.454173 0.086393
O O2 0.348817 0.512373 0.205160
O O3 0.251712 0.361159 0.047534
O O4 0.251983 0.550267 0.988665
O O5 0.593395 0.730165 0.959160
O O6 0.440093 0.607122 0.884143
O O7 0.593700 0.587583 0.092794
O O8 0.175414 0.679335 0.646049
O O9 0.079145 0.570734 0.457080
O O10 0.161563 0.330257 0.309560
O O11 0.264478 0.466504 0.296426
O O12 0.073531 0.465132 0.147202
O O13 0.750000 0.750000 0.500000
O O14 0.589537 0.873263 0.414982
O O15 0.000000 0.513524 0.250000
#
# Coordination Sequence:
#
# PCOD8140254 Si02
#       7
#     8   8   8   8   8   8   8
#     4  10  21  42  62  87 126 158 203 252 309 356
#     4  11  22  41  59  90 127 155 211 248 306 374
#     4  10  22  37  65  92 117 162 204 250 312 358
#     4  10  20  41  57  88 123 154 207 251 300 363
#     4  10  21  37  62  88 119 161 201 249 308 366
#     4  10  23  39  60  86 123 168 192 257 308 360
#     4   9  20  39  60  87 122 159 203 257 303 358
#
# _framework density 20.774332000000001
#
# number of rings (size 3 to 8) (size 9 to 14) (size 15 to 20)
#    0.000    2.000    1.429    1.286    2.000    2.286 
#    5.143    1.429    0.000    0.000    0.000    0.000 
#    0.000    0.000    0.000    0.000    0.000    0.000 
#
# Total GULP energy -346923.941249 kJ/mol
# GULP energy per Si atom -12390.140759 kJ/mol
# Density = 2.072705 g / cm^3
# Si number density = 20.774332 Si / 1000 Ang^3
#
#
#
# Elastic Constant Matrix: (Units=GPa)
#
#
# Indices 1 2 3 4 5 6 
#
# 1 112.8288 29.8688 34.8831 0.0000 17.9000 0.0000
# 2 29.8688 73.9625 20.8774 0.0000 5.8272 0.0000
# 3 34.8831 20.8774 83.1373 0.0000 8.3512 0.0000
# 4 0.0000 0.0000 0.0000 22.9477 0.0000 2.9631
# 5 17.9000 5.8272 8.3512 0.0000 41.5708 0.0000
# 6 0.0000 0.0000 0.0000 2.9631 0.0000 18.0579
#
#
#
# Elastic Compliance Matrix: (Units=1/GPa)
#
#
# Indices 1 2 3 4 5 6 
#
# 1 0.011445 -0.003312 -0.003594 0.000000 -0.003742 0.000000
# 2 -0.003312 0.015583 -0.002498 0.000000 -0.000256 0.000000
# 3 -0.003594 -0.002498 0.014261 0.000000 -0.000967 0.000000
# 4 0.000000 0.000000 0.000000 0.044521 0.000000 -0.007305
# 5 -0.003742 -0.000256 -0.000967 0.000000 0.025897 0.000000
# 6 0.000000 0.000000 0.000000 -0.007305 0.000000 0.056576
#
#
# Mechanical properties :
#
#
# Convention : Reuss Voigt Hill
#
# Bulk Modulus (GPa) = 44.48431 49.02080 46.75256
# Shear Modulus (GPa) = 25.69577 28.80189 27.24883
#
# Velocity S-wave (km/s) = 3.52077 3.72750 3.62561
# Velocity P-wave (km/s) = 6.16339 6.49413 6.33092
#
# Compressibility (1/GPa) = 0.02247983
#
# Stress axis : x y z
#
# Youngs Moduli (GPa) = 87.37644 64.17145 70.12230
#
# Poissons Ratio (x) = 0.21256 0.25205
# Poissons Ratio (y) = 0.28943 0.17514
# Poissons Ratio (z) = 0.31406 0.16028
#
# Static dielectric constant tensor:
#      x y z
#    x 4.139110 0.000000 0.126340 
#    y 0.000000 3.387900 0.000000 
#    z 0.126340 0.000000 4.002250 
# 
# 
# High freq. dielectric constant tensor:
#      x y z
#    x 1.827650 0.000000 0.001610 
#    y 0.000000 1.769380 0.000000 
#    z 0.001610 0.000000 1.832030 
# 
# From -- ./inp_files/210697.got.cif
#   From: 2010.06.25/outbox.cif.g09.slc.cpg/sg15_106_cif.got.tgz:210697.got - 2010.06.28 07:06:18.
