data_PCOD8140108
_publ_section_title
;
Structure prediction by ZEFSAII (Michael W. Deem and Ramdas Pophale) SiO2 
 PCOD8140108
Probable space group: C 2/C
;
_chemical_formula_sum "Si O2"
_cell_formula_units_Z 52
_cell_length_a 8.973159
_cell_length_b 18.617488
_cell_length_c 17.680884
_cell_angle_alpha 90.000000
_cell_angle_beta 52.854242
_cell_angle_gamma 90.000000
_cell_volume 2354.421878
_symmetry_space_group_name_H-M "C 2/C"
_symmetry_group_IT_number 15
_symmetry_cell_setting 'monoclinic'
loop_
_space_group_symop_operation_xyz
x,y,z
-x,y,1/2-z
-x,-y,-z
x,-y,1/2+z
1/2+x,1/2+y,z
1/2-x,1/2+y,1/2-z
1/2-x,1/2-y,-z
1/2+x,1/2-y,1/2+z
loop_
_atom_site_type_symbol
_atom_site_label
_atom_site_fract_x
_atom_site_fract_y
_atom_site_fract_z
Si Si1 0.155002 0.228998 0.952384
Si Si2 0.268911 0.682476 0.120088
Si Si3 0.935306 0.956853 0.609769
Si Si4 0.594050 0.997218 0.888839
Si Si5 0.500000 0.516579 0.250000
Si Si6 0.618283 0.831528 0.829710
Si Si7 0.267614 0.931716 0.407851
O O1 0.202011 0.287422 0.874253
O O2 0.240739 0.152495 0.901979
O O3 0.250000 0.250000 0.000000
O O4 0.933661 0.231787 0.037209
O O5 0.329817 0.600161 0.089559
O O6 0.240635 0.689281 0.219045
O O7 0.088205 0.697996 0.125566
O O8 0.144310 0.964919 0.513955
O O9 0.955371 0.933280 0.691190
O O10 0.810057 0.029422 0.644341
O O11 0.608658 0.915828 0.852669
O O12 0.809010 0.028464 0.826880
O O13 0.480437 0.047182 0.864057
O O14 0.500000 0.000000 0.000000
#
# Coordination Sequence:
#
# PCOD8140108 Si02
#       7
#     8   8   8   8   4   8   8
#     4  11  25  42  66  99 137 180 223 286 351 419
#     4  10  22  42  70  95 129 183 234 274 341 428
#     4  10  20  40  66  98 125 175 223 283 334 405
#     4  12  23  39  67 102 136 176 230 290 345 409
#     4  12  24  36  66 104 132 170 230 288 336 416
#     4  11  23  42  70  98 133 183 233 277 348 431
#     4  10  22  42  65  93 137 172 221 282 349 394
#
# _framework density 22.086100999999999
#
# number of rings (size 3 to 8) (size 9 to 14) (size 15 to 20)
#    0.000    1.231    4.615    1.385    2.154    1.231 
#    0.000    6.154    0.000    0.000    0.000    0.000 
#    0.000    0.000    0.000    0.000    0.000    0.000 
#
# Total GULP energy -322154.336128 kJ/mol
# GULP energy per Si atom -12390.551390 kJ/mol
# Density = 2.203583 g / cm^3
# Si number density = 22.086101 Si / 1000 Ang^3
#
#
#
# Elastic Constant Matrix: (Units=GPa)
#
#
# Indices 1 2 3 4 5 6 
#
# 1 110.0275 32.7769 35.9596 0.0000 -5.7497 0.0000
# 2 32.7769 85.6228 12.9009 0.0000 3.0527 0.0000
# 3 35.9596 12.9009 86.2830 0.0000 -7.1333 0.0000
# 4 0.0000 0.0000 0.0000 23.2321 0.0000 5.2588
# 5 -5.7497 3.0527 -7.1333 0.0000 51.5603 0.0000
# 6 0.0000 0.0000 0.0000 5.2588 0.0000 33.5050
#
#
#
# Elastic Compliance Matrix: (Units=1/GPa)
#
#
# Indices 1 2 3 4 5 6 
#
# 1 0.011664 -0.003865 -0.004205 0.000000 0.000948 0.000000
# 2 -0.003865 0.013277 -0.000480 0.000000 -0.001284 0.000000
# 3 -0.004205 -0.000480 0.013532 0.000000 0.001432 0.000000
# 4 0.000000 0.000000 0.000000 0.044629 0.000000 -0.007005
# 5 0.000948 -0.001284 0.001432 0.000000 0.019775 0.000000
# 6 0.000000 0.000000 0.000000 -0.007005 0.000000 0.030946
#
#
# Mechanical properties :
#
#
# Convention : Reuss Voigt Hill
#
# Bulk Modulus (GPa) = 46.78948 49.46758 48.12853
# Shear Modulus (GPa) = 31.63601 35.01253 33.32427
#
# Velocity S-wave (km/s) = 3.78880 3.98587 3.88859
# Velocity P-wave (km/s) = 6.35382 6.60523 6.48075
#
# Compressibility (1/GPa) = 0.02137233
#
# Stress axis : x y z
#
# Youngs Moduli (GPa) = 85.73514 75.31871 73.89698
#
# Poissons Ratio (x) = 0.29112 0.31072
# Poissons Ratio (y) = 0.33139 0.03550
# Poissons Ratio (z) = 0.36050 0.03618
#
# Static dielectric constant tensor:
#      x y z
#    x 4.451420 0.000000 -0.329130 
#    y 0.000000 3.732280 0.000000 
#    z -0.329130 0.000000 4.268350 
# 
# 
# High freq. dielectric constant tensor:
#      x y z
#    x 1.888960 0.000000 -0.005610 
#    y 0.000000 1.829130 0.000000 
#    z -0.005610 0.000000 1.880270 
# 
# From -- ./inp_files/190827.got.cif
#   From: 2010.06.25/outbox.cif.g09.slc.cpg/sg15_96_cif.got.tgz:190827.got - 2010.06.28 07:06:18.
