data_PCOD8140231
_publ_section_title
;
Structure prediction by ZEFSAII (Michael W. Deem and Ramdas Pophale) SiO2 
 PCOD8140231
Probable space group: C 2/C
;
_chemical_formula_sum "Si O2"
_cell_formula_units_Z 52
_cell_length_a 4.971152
_cell_length_b 27.606768
_cell_length_c 16.895648
_cell_angle_alpha 90.000000
_cell_angle_beta 78.208559
_cell_angle_gamma 90.000000
_cell_volume 2269.785772
_symmetry_space_group_name_H-M "C 2/C"
_symmetry_group_IT_number 15
_symmetry_cell_setting 'monoclinic'
loop_
_space_group_symop_operation_xyz
x,y,z
-x,y,1/2-z
-x,-y,-z
x,-y,1/2+z
1/2+x,1/2+y,z
1/2-x,1/2+y,1/2-z
1/2-x,1/2-y,-z
1/2+x,1/2-y,1/2+z
loop_
_atom_site_type_symbol
_atom_site_label
_atom_site_fract_x
_atom_site_fract_y
_atom_site_fract_z
Si Si1 0.171306 0.529969 0.874306
Si Si2 0.240984 0.947649 0.520138
Si Si3 0.953754 0.300127 0.062225
Si Si4 0.707684 0.902266 0.597732
Si Si5 0.720284 0.872602 0.300664
Si Si6 0.022245 0.192127 0.457280
Si Si7 0.500000 0.961476 0.750000
O O1 0.316270 0.500159 0.936112
O O2 0.318044 0.580635 0.845924
O O3 0.174261 0.496007 0.796765
O O4 0.866074 0.543549 0.925474
O O5 0.430463 0.913091 0.565410
O O6 0.948528 0.922822 0.527431
O O7 0.936823 0.331638 0.141579
O O8 0.668098 0.303979 0.033328
O O9 0.204757 0.321722 0.994161
O O10 0.991766 0.244103 0.085609
O O11 0.697345 0.927032 0.685054
O O12 0.797340 0.846004 0.605335
O O13 0.500000 0.891310 0.250000
O O14 0.000000 0.849663 0.250000
#
# Coordination Sequence:
#
# PCOD8140231 Si02
#       7
#     8   8   8   8   8   8   4
#     4  10  22  41  59  89 120 169 201 255 296 361
#     4  10  24  38  65  85 123 156 219 246 294 354
#     4  10  22  41  65  96 116 157 209 253 303 365
#     4  11  22  41  61  94 118 164 197 259 297 370
#     4  12  25  38  61  89 128 165 195 251 308 369
#     4  10  20  40  71  88 121 155 203 261 301 356
#     4  10  24  38  60  88 130 158 206 242 310 362
#
# _framework density 22.909649000000002
#
# number of rings (size 3 to 8) (size 9 to 14) (size 15 to 20)
#    0.000    1.538    0.769    3.692    2.154    8.615 
#    1.385    0.000    3.385    0.000    0.000    0.000 
#    0.000    0.000    0.000    0.000    0.000    0.000 
#
# Total GULP energy -322298.038662 kJ/mol
# GULP energy per Si atom -12396.078410 kJ/mol
# Density = 2.285751 g / cm^3
# Si number density = 22.909649 Si / 1000 Ang^3
#
#
#
# Elastic Constant Matrix: (Units=GPa)
#
#
# Indices 1 2 3 4 5 6 
#
# 1 68.1214 17.4047 3.0174 0.0000 -13.8142 0.0000
# 2 17.4047 142.9125 52.1047 0.0000 -15.4207 0.0000
# 3 3.0174 52.1047 91.3490 0.0000 -6.8045 0.0000
# 4 0.0000 0.0000 0.0000 28.1437 0.0000 -3.8362
# 5 -13.8142 -15.4207 -6.8045 0.0000 23.3157 0.0000
# 6 0.0000 0.0000 0.0000 -3.8362 0.0000 30.1954
#
#
#
# Elastic Compliance Matrix: (Units=1/GPa)
#
#
# Indices 1 2 3 4 5 6 
#
# 1 0.016891 -0.001386 0.000930 0.000000 0.009363 0.000000
# 2 -0.001386 0.009429 -0.005038 0.000000 0.003944 0.000000
# 3 0.000930 -0.005038 0.013885 0.000000 0.001271 0.000000
# 4 0.000000 0.000000 0.000000 0.036158 0.000000 0.004594
# 5 0.009363 0.003944 0.001271 0.000000 0.051416 0.000000
# 6 0.000000 0.000000 0.000000 0.004594 0.000000 0.033701
#
#
# Mechanical properties :
#
#
# Convention : Reuss Voigt Hill
#
# Bulk Modulus (GPa) = 34.22788 49.71517 41.97153
# Shear Modulus (GPa) = 27.44121 31.65471 29.54796
#
# Velocity S-wave (km/s) = 3.46468 3.72118 3.59522
# Velocity P-wave (km/s) = 5.56580 6.34118 5.96610
#
# Compressibility (1/GPa) = 0.02921595
#
# Stress axis : x y z
#
# Youngs Moduli (GPa) = 59.20252 106.05962 72.02091
#
# Poissons Ratio (x) = 0.14699 -0.06698
# Poissons Ratio (y) = 0.08205 0.36287
# Poissons Ratio (z) = -0.05506 0.53437
#
# Static dielectric constant tensor:
#      x y z
#    x 3.873360 0.000000 -0.174240 
#    y 0.000000 4.430260 0.000000 
#    z -0.174240 0.000000 4.011500 
# 
# 
# High freq. dielectric constant tensor:
#      x y z
#    x 1.900540 0.000000 -0.011500 
#    y 0.000000 1.916190 0.000000 
#    z -0.011500 0.000000 1.882650 
# 
# From -- ./inp_files/185797.got.cif
#   From: 2010.06.25/outbox.cif.g09.slc.cpg/sg15_93_cif.got.tgz:185797.got - 2010.06.28 07:06:18.
