data_PCOD8140784
_publ_section_title
;
Structure prediction by ZEFSAII (Michael W. Deem and Ramdas Pophale) SiO2 
 PCOD8140784
Probable space group: C 2/C
;
_chemical_formula_sum "Si O2"
_cell_formula_units_Z 48
_cell_length_a 8.366737
_cell_length_b 29.004204
_cell_length_c 14.927109
_cell_angle_alpha 90.000000
_cell_angle_beta 142.715133
_cell_angle_gamma 90.000000
_cell_volume 2194.352881
_symmetry_space_group_name_H-M "C 2/C"
_symmetry_group_IT_number 15
_symmetry_cell_setting 'monoclinic'
loop_
_space_group_symop_operation_xyz
x,y,z
-x,y,1/2-z
-x,-y,-z
x,-y,1/2+z
1/2+x,1/2+y,z
1/2-x,1/2+y,1/2-z
1/2-x,1/2-y,-z
1/2+x,1/2-y,1/2+z
loop_
_atom_site_type_symbol
_atom_site_label
_atom_site_fract_x
_atom_site_fract_y
_atom_site_fract_z
Si Si1 0.437876 0.205911 0.821838
Si Si2 0.001925 0.191203 0.350037
Si Si3 0.033535 0.036744 0.362550
Si Si4 0.305899 0.387416 0.887810
Si Si5 0.111261 0.121124 0.704169
Si Si6 0.921567 0.534073 0.814217
O O1 0.500000 0.188748 0.750000
O O2 0.350385 0.259488 0.783961
O O3 0.202624 0.174167 0.753559
O O4 0.691921 0.198470 0.995371
O O5 0.000000 0.169086 0.250000
O O6 0.856786 0.159892 0.357871
O O7 0.335904 0.020851 0.512224
O O8 0.000000 0.060602 0.250000
O O9 0.967063 0.071931 0.412310
O O10 0.844279 0.992471 0.277447
O O11 0.000000 0.400091 0.750000
O O12 0.391396 0.383365 0.028990
O O13 0.361526 0.088683 0.793152
O O14 0.000000 0.105192 0.750000
O O15 0.000000 0.519057 0.750000
#
# Coordination Sequence:
#
# PCOD8140784 Si02
#       6
#     8   8   8   8   8   8
#     4  10  20  43  69  92 130 173 226 274 332 398
#     4  10  22  40  69  99 126 172 222 278 335 400
#     4  12  27  45  74 101 138 175 224 278 336 400
#     4  12  27  44  65  99 140 175 223 279 336 396
#     4  12  27  44  67  96 137 182 224 272 336 402
#     4  12  25  47  72 100 135 181 224 276 334 396
#
# _framework density 21.874328999999999
#
# number of rings (size 3 to 8) (size 9 to 14) (size 15 to 20)
#    0.000    0.667    3.333    4.000    7.000    0.667 
#    0.000    1.667    0.000    0.000    0.000    0.000 
#    0.000    0.000    0.000    0.000    0.000    0.000 
#
# Total GULP energy -297731.899848 kJ/mol
# GULP energy per Si atom -12405.495827 kJ/mol
# Density = 2.182454 g / cm^3
# Si number density = 21.874329 Si / 1000 Ang^3
#
#
#
# Elastic Constant Matrix: (Units=GPa)
#
#
# Indices 1 2 3 4 5 6 
#
# 1 87.6643 26.8333 55.0139 0.0000 -14.7326 0.0000
# 2 26.8333 95.7411 33.5905 0.0000 5.1124 0.0000
# 3 55.0139 33.5905 172.3763 0.0000 -10.3468 0.0000
# 4 0.0000 0.0000 0.0000 -70.5317 0.0000 -23.5883
# 5 -14.7326 5.1124 -10.3468 0.0000 49.0932 0.0000
# 6 0.0000 0.0000 0.0000 -23.5883 0.0000 19.3919
#
#
#
# Elastic Compliance Matrix: (Units=1/GPa)
#
#
# Indices 1 2 3 4 5 6 
#
# 1 0.015669 -0.003163 -0.004135 0.000000 0.004160 0.000000
# 2 -0.003163 0.011983 -0.001476 0.000000 -0.002508 0.000000
# 3 -0.004135 -0.001476 0.007437 0.000000 0.000480 0.000000
# 4 0.000000 0.000000 0.000000 -0.010078 0.000000 -0.012259
# 5 0.004160 -0.002508 0.000480 0.000000 0.021980 0.000000
# 6 0.000000 0.000000 0.000000 -0.012259 0.000000 0.036656
#
#
# Mechanical properties :
#
#
# Convention : Reuss Voigt Hill
#
# Bulk Modulus (GPa) = 57.00680 65.18412 61.09546
# Shear Modulus (GPa) = 46.71008 15.61363 31.16186
#
# Velocity S-wave (km/s) = 4.62603 2.67458 3.77846
# Velocity P-wave (km/s) = 7.39265 6.27709 6.85759
#
# Compressibility (1/GPa) = 0.01754177
#
# Stress axis : x y z
#
# Youngs Moduli (GPa) = 63.81917 83.45014 134.45631
#
# Poissons Ratio (x) = 0.26396 0.55594
# Poissons Ratio (y) = 0.20187 0.19848
# Poissons Ratio (z) = 0.26388 0.12319
#
# Static dielectric constant tensor:
#      x y z
#    x 3.870780 0.000000 -0.112480 
#    y 0.000000 3.974020 0.000000 
#    z -0.112480 0.000000 4.099570 
# 
# 
# High freq. dielectric constant tensor:
#      x y z
#    x 1.850900 0.000000 -0.013710 
#    y 0.000000 1.864650 0.000000 
#    z -0.013710 0.000000 1.876060 
# 
# From -- ./inp_files/139057.got.cif
#   From: 2010.06.25/outbox.cif.g09.slc.cpg/sg15_70_cif.got.tgz:139057.got - 2010.06.28 07:06:18.
