data_PCOD8140876
_publ_section_title
;
Structure prediction by ZEFSAII (Michael W. Deem and Ramdas Pophale) SiO2 
 PCOD8140876
Probable space group: C 2/C
;
_chemical_formula_sum "Si O2"
_cell_formula_units_Z 56
_cell_length_a 30.288213
_cell_length_b 12.151328
_cell_length_c 14.435023
_cell_angle_alpha 90.000000
_cell_angle_beta 27.970215
_cell_angle_gamma 90.000000
_cell_volume 2491.720324
_symmetry_space_group_name_H-M "C 2/C"
_symmetry_group_IT_number 15
_symmetry_cell_setting 'monoclinic'
loop_
_space_group_symop_operation_xyz
x,y,z
-x,y,1/2-z
-x,-y,-z
x,-y,1/2+z
1/2+x,1/2+y,z
1/2-x,1/2+y,1/2-z
1/2-x,1/2-y,-z
1/2+x,1/2-y,1/2+z
loop_
_atom_site_type_symbol
_atom_site_label
_atom_site_fract_x
_atom_site_fract_y
_atom_site_fract_z
Si Si1 0.782930 0.218063 0.683862
Si Si2 0.494127 0.379187 0.371559
Si Si3 0.870998 0.687926 0.667826
Si Si4 0.408080 0.814981 0.297639
Si Si5 0.540518 0.617730 0.074636
Si Si6 0.174189 0.746740 0.059515
Si Si7 0.965854 0.560320 0.211950
O O1 0.717657 0.152636 0.731294
O O2 0.850076 0.298005 0.499638
O O3 0.847155 0.134767 0.624883
O O4 0.721383 0.282967 0.874183
O O5 0.500000 0.372442 0.250000
O O6 0.405772 0.307465 0.569474
O O7 0.479494 0.502209 0.439816
O O8 0.590677 0.332363 0.237155
O O9 0.840527 0.687476 0.832627
O O10 0.953696 0.598034 0.508349
O O11 0.487928 0.722712 0.127510
O O12 0.458499 0.930568 0.217266
O O13 0.500000 0.600450 0.250000
O O14 0.132076 0.622992 0.128295
O O15 0.250000 0.750000 0.000000
O O16 0.000000 0.597950 0.250000
#
# Coordination Sequence:
#
# PCOD8140876 Si02
#       7
#     8   8   8   8   8   8   8
#     4  11  22  45  65 100 137 169 228 281 328 403
#     4  10  20  45  70  92 133 182 223 278 342 396
#     4  11  22  42  70  98 133 178 227 278 341 409
#     4  11  25  44  65  99 138 180 218 281 349 405
#     4   9  22  42  64  95 135 179 219 269 343 397
#     4  11  24  44  70 102 127 173 236 280 328 405
#     4  11  22  47  70  93 138 183 226 279 348 405
#
# _framework density 22.474433000000001
#
# number of rings (size 3 to 8) (size 9 to 14) (size 15 to 20)
#    0.000    1.429    2.857    3.000    4.000    1.714 
#   18.000    0.000    0.000    0.000    0.000    0.000 
#    0.000    0.000    0.000    0.000    0.000    0.000 
#
# Total GULP energy -347138.681829 kJ/mol
# GULP energy per Si atom -12397.810065 kJ/mol
# Density = 2.242328 g / cm^3
# Si number density = 22.474433 Si / 1000 Ang^3
#
#
#
# Elastic Constant Matrix: (Units=GPa)
#
#
# Indices 1 2 3 4 5 6 
#
# 1 139.1447 22.4248 24.6218 0.0000 -19.6577 0.0000
# 2 22.4248 157.1605 37.7229 0.0000 -12.3618 0.0000
# 3 24.6218 37.7229 67.9875 0.0000 -17.6866 0.0000
# 4 0.0000 0.0000 0.0000 6.8704 0.0000 -8.7559
# 5 -19.6577 -12.3618 -17.6866 0.0000 41.3147 0.0000
# 6 0.0000 0.0000 0.0000 -8.7559 0.0000 18.3627
#
#
#
# Elastic Compliance Matrix: (Units=1/GPa)
#
#
# Indices 1 2 3 4 5 6 
#
# 1 0.008001 -0.000461 -0.001899 0.000000 0.002856 0.000000
# 2 -0.000461 0.007377 -0.003836 0.000000 0.000346 0.000000
# 3 -0.001899 -0.003836 0.019120 0.000000 0.006134 0.000000
# 4 0.000000 0.000000 0.000000 0.371016 0.000000 0.176911
# 5 0.002856 0.000346 0.006134 0.000000 0.028293 0.000000
# 6 0.000000 0.000000 0.000000 0.176911 0.000000 0.138815
#
#
# Mechanical properties :
#
#
# Convention : Reuss Voigt Hill
#
# Bulk Modulus (GPa) = 45.23665 59.31461 52.27563
# Shear Modulus (GPa) = 8.44052 31.94444 20.19248
#
# Velocity S-wave (km/s) = 1.94004 3.77419 3.00069
# Velocity P-wave (km/s) = 5.01897 6.74107 5.94273
#
# Compressibility (1/GPa) = 0.02210597
#
# Stress axis : x y z
#
# Youngs Moduli (GPa) = 124.99201 135.56263 52.30029
#
# Poissons Ratio (x) = 0.06253 0.09929
# Poissons Ratio (y) = 0.05765 0.20062
# Poissons Ratio (z) = 0.23730 0.52002
#
# Static dielectric constant tensor:
#      x y z
#    x 4.261490 0.000000 -0.247590 
#    y 0.000000 4.099260 0.000000 
#    z -0.247590 0.000000 4.470730 
# 
# 
# High freq. dielectric constant tensor:
#      x y z
#    x 1.899220 0.000000 0.001160 
#    y 0.000000 1.867570 0.000000 
#    z 0.001160 0.000000 1.883730 
# 
# From -- ./inp_files/181911.got.cif
#   From: 2010.06.25/outbox.cif.g09.slc.cpg/sg15_91_cif.got.tgz:181911.got - 2010.06.28 07:06:18.
