data_PCOD8140188
_publ_section_title
;
Structure prediction by ZEFSAII (Michael W. Deem and Ramdas Pophale) SiO2 
 PCOD8140188
Probable space group: C 2/C
;
_chemical_formula_sum "Si O2"
_cell_formula_units_Z 56
_cell_length_a 8.845482
_cell_length_b 16.249450
_cell_length_c 20.650840
_cell_angle_alpha 90.000000
_cell_angle_beta 112.618511
_cell_angle_gamma 90.000000
_cell_volume 2739.933741
_symmetry_space_group_name_H-M "C 2/C"
_symmetry_group_IT_number 15
_symmetry_cell_setting 'monoclinic'
loop_
_space_group_symop_operation_xyz
x,y,z
-x,y,1/2-z
-x,-y,-z
x,-y,1/2+z
1/2+x,1/2+y,z
1/2-x,1/2+y,1/2-z
1/2-x,1/2-y,-z
1/2+x,1/2-y,1/2+z
loop_
_atom_site_type_symbol
_atom_site_label
_atom_site_fract_x
_atom_site_fract_y
_atom_site_fract_z
Si Si1 0.360481 0.571729 0.147251
Si Si2 0.497628 0.087131 0.428887
Si Si3 0.413715 0.905351 0.056674
Si Si4 0.310254 0.820810 0.318957
Si Si5 0.739385 0.293816 0.566674
Si Si6 0.500000 0.568569 0.750000
Si Si7 0.500000 0.716162 0.250000
Si Si8 0.064236 0.913523 0.985934
O O1 0.170383 0.564822 0.136431
O O2 0.470691 0.493551 0.185525
O O3 0.420969 0.659028 0.182675
O O4 0.364755 0.569948 0.072242
O O5 0.469536 0.129729 0.495248
O O6 0.603282 0.147246 0.400938
O O7 0.598168 0.003520 0.453063
O O8 0.538442 0.876557 0.132569
O O9 0.229004 0.879389 0.049194
O O10 0.252299 0.765440 0.369913
O O11 0.160446 0.875714 0.268112
O O12 0.364705 0.769978 0.264910
O O13 0.750000 0.250000 0.500000
O O14 0.571886 0.344231 0.537647
O O15 0.000000 0.000000 0.000000
#
# Coordination Sequence:
#
# PCOD8140188 Si02
#       8
#     8   8   8   8   8   4   4   8
#     4  10  23  46  68  91 131 187 222 264 333 403
#     4  10  20  40  68  98 130 165 208 282 332 392
#     4  10  21  40  68  95 133 166 214 268 342 391
#     4  12  26  46  62 100 133 177 223 275 329 394
#     4  12  25  41  67 106 135 161 217 284 347 383
#     4  11  26  44  70  89 132 184 230 265 314 398
#     4  11  26  46  62  91 140 184 224 261 322 410
#     4  11  23  40  71 103 129 168 221 281 339 402
#
# _framework density 20.43845
#
# number of rings (size 3 to 8) (size 9 to 14) (size 15 to 20)
#    0.000    1.143    5.714    0.000    4.000    2.857 
#    0.000    0.000    0.000    0.000    0.000    0.000 
#    0.000    0.000    0.000    0.000    0.000    0.000 
#
# Total GULP energy -347076.902471 kJ/mol
# GULP energy per Si atom -12395.603660 kJ/mol
# Density = 2.039193 g / cm^3
# Si number density = 20.438450 Si / 1000 Ang^3
#
#
#
# Elastic Constant Matrix: (Units=GPa)
#
#
# Indices 1 2 3 4 5 6 
#
# 1 136.9235 61.2167 49.1893 0.0000 25.9366 0.0000
# 2 61.2167 101.4544 36.8633 0.0000 10.4191 0.0000
# 3 49.1893 36.8633 78.0231 0.0000 24.5955 0.0000
# 4 0.0000 0.0000 0.0000 12.8029 0.0000 22.5319
# 5 25.9366 10.4191 24.5955 0.0000 43.5886 0.0000
# 6 0.0000 0.0000 0.0000 22.5319 0.0000 25.4481
#
#
#
# Elastic Compliance Matrix: (Units=1/GPa)
#
#
# Indices 1 2 3 4 5 6 
#
# 1 0.011711 -0.005344 -0.003728 0.000000 -0.003588 0.000000
# 2 -0.005344 0.014343 -0.004050 0.000000 0.002036 0.000000
# 3 -0.003728 -0.004050 0.019554 0.000000 -0.007848 0.000000
# 4 0.000000 0.000000 0.000000 -0.139920 0.000000 0.123886
# 5 -0.003588 0.002036 -0.007848 0.000000 0.029018 0.000000
# 6 0.000000 0.000000 0.000000 0.123886 0.000000 -0.070394
#
#
# Mechanical properties :
#
#
# Convention : Reuss Voigt Hill
#
# Bulk Modulus (GPa) = 51.63539 67.88217 59.75878
# Shear Modulus (GPa) = -48.54839 27.64336 -10.45252
#
# Velocity S-wave (km/s) = -4.87904 3.68165 -2.26390
# Velocity P-wave (km/s) = 2.53404 7.16643 4.74007
#
# Compressibility (1/GPa) = 0.01936656
#
# Stress axis : x y z
#
# Youngs Moduli (GPa) = 85.38902 69.71920 51.14057
#
# Poissons Ratio (x) = 0.37255 0.19063
# Poissons Ratio (y) = 0.45628 0.20711
# Poissons Ratio (z) = 0.31829 0.28235
#
# Static dielectric constant tensor:
#      x y z
#    x 4.467370 0.000000 0.465250 
#    y 0.000000 3.767620 0.000000 
#    z 0.465250 0.000000 3.777790 
# 
# 
# High freq. dielectric constant tensor:
#      x y z
#    x 1.808380 0.000000 0.018480 
#    y 0.000000 1.805810 0.000000 
#    z 0.018480 0.000000 1.790480 
# 
# From -- ./inp_files/264841.got.cif
#   From: 2010.06.25/outbox.cif.g09.slc.cpg/sg15_133_cif.got.tgz:264841.got - 2010.06.28 07:06:18.
