data_PCOD8140258
_publ_section_title
;
Structure prediction by ZEFSAII (Michael W. Deem and Ramdas Pophale) SiO2 
 PCOD8140258
Probable space group: C 2/C
;
_chemical_formula_sum "Si O2"
_cell_formula_units_Z 48
_cell_length_a 14.372703
_cell_length_b 10.196143
_cell_length_c 16.975667
_cell_angle_alpha 90.000000
_cell_angle_beta 112.405510
_cell_angle_gamma 90.000000
_cell_volume 2299.918992
_symmetry_space_group_name_H-M "C 2/C"
_symmetry_group_IT_number 15
_symmetry_cell_setting 'monoclinic'
loop_
_space_group_symop_operation_xyz
x,y,z
-x,y,1/2-z
-x,-y,-z
x,-y,1/2+z
1/2+x,1/2+y,z
1/2-x,1/2+y,1/2-z
1/2-x,1/2-y,-z
1/2+x,1/2-y,1/2+z
loop_
_atom_site_type_symbol
_atom_site_label
_atom_site_fract_x
_atom_site_fract_y
_atom_site_fract_z
Si Si1 0.361411 0.961536 0.169764
Si Si2 0.309851 0.210415 0.791672
Si Si3 0.517445 0.689511 0.545450
Si Si4 0.413083 0.221457 0.273980
Si Si5 0.652199 0.439767 0.587418
Si Si6 0.006819 0.597088 0.574544
O O1 0.338905 0.826107 0.210535
O O2 0.447238 0.940736 0.133572
O O3 0.396327 0.072122 0.242444
O O4 0.261264 0.012621 0.093113
O O5 0.189323 0.192539 0.763397
O O6 0.338074 0.359111 0.826670
O O7 0.374120 0.112985 0.868105
O O8 0.537902 0.789754 0.623336
O O9 0.585058 0.564688 0.584601
O O10 0.399967 0.644009 0.499767
O O11 0.541526 0.764850 0.471477
O O12 0.500000 0.291174 0.250000
O O13 0.000000 0.500000 0.500000
#
# Coordination Sequence:
#
# PCOD8140258 Si02
#       6
#     8   8   8   8   8   8
#     4  11  21  40  65  92 122 163 210 258 308 366
#     4  10  21  39  61  87 122 157 206 254 305 368
#     4  10  20  41  59  86 130 161 201 252 313 366
#     4  11  22  38  63  88 120 162 204 254 310 369
#     4   9  21  38  61  88 124 162 201 255 307 371
#     4  11  23  38  64  93 123 161 208 259 309 365
#
# _framework density 20.870301000000001
#
# number of rings (size 3 to 8) (size 9 to 14) (size 15 to 20)
#    0.000    1.667    1.667    3.500    0.000    2.000 
#    0.000   10.000    0.000    0.000    0.000    0.000 
#    0.000    0.000    0.000    0.000    0.000    0.000 
#
# Total GULP energy -297319.126040 kJ/mol
# GULP energy per Si atom -12388.296918 kJ/mol
# Density = 2.082280 g / cm^3
# Si number density = 20.870301 Si / 1000 Ang^3
#
#
#
# Elastic Constant Matrix: (Units=GPa)
#
#
# Indices 1 2 3 4 5 6 
#
# 1 151.9702 52.0133 73.2041 0.0000 13.6347 0.0000
# 2 52.0133 77.0438 51.7478 0.0000 5.8617 0.0000
# 3 73.2041 51.7478 127.8433 0.0000 14.4721 0.0000
# 4 0.0000 0.0000 0.0000 34.3893 0.0000 2.9655
# 5 13.6347 5.8617 14.4721 0.0000 37.5681 0.0000
# 6 0.0000 0.0000 0.0000 2.9655 0.0000 29.6335
#
#
#
# Elastic Compliance Matrix: (Units=1/GPa)
#
#
# Indices 1 2 3 4 5 6 
#
# 1 0.009967 -0.003977 -0.003930 0.000000 -0.001483 0.000000
# 2 -0.003977 0.019413 -0.005647 0.000000 0.000590 0.000000
# 3 -0.003930 -0.005647 0.012649 0.000000 -0.002565 0.000000
# 4 0.000000 0.000000 0.000000 0.029332 0.000000 -0.002935
# 5 -0.001483 0.000590 -0.002565 0.000000 0.028053 0.000000
# 6 0.000000 0.000000 0.000000 -0.002935 0.000000 0.034039
#
#
# Mechanical properties :
#
#
# Convention : Reuss Voigt Hill
#
# Bulk Modulus (GPa) = 67.02092 78.97642 72.99867
# Shear Modulus (GPa) = 30.20522 32.31098 31.25810
#
# Velocity S-wave (km/s) = 3.80844 3.93896 3.87425
# Velocity P-wave (km/s) = 7.17787 7.65578 7.42067
#
# Compressibility (1/GPa) = 0.01492071
#
# Stress axis : x y z
#
# Youngs Moduli (GPa) = 100.32724 51.51269 79.05980
#
# Poissons Ratio (x) = 0.20485 0.31069
# Poissons Ratio (y) = 0.39897 0.44649
# Poissons Ratio (z) = 0.39427 0.29091
#
# Static dielectric constant tensor:
#      x y z
#    x 3.986280 0.000000 0.470350 
#    y 0.000000 3.931980 0.000000 
#    z 0.470350 0.000000 4.063670 
# 
# 
# High freq. dielectric constant tensor:
#      x y z
#    x 1.804710 0.000000 0.039060 
#    y 0.000000 1.816410 0.000000 
#    z 0.039060 0.000000 1.826480 
# 
# From -- ./inp_files/152202.got.cif
#   From: 2010.06.25/outbox.cif.g09.slc.cpg/sg15_77_cif.got.tgz:152202.got - 2010.06.28 07:06:18.
