data_PCOD8140674
_publ_section_title
;
Structure prediction by ZEFSAII (Michael W. Deem and Ramdas Pophale) SiO2 
 PCOD8140674
Probable space group: C 2/C
;
_chemical_formula_sum "Si O2"
_cell_formula_units_Z 44
_cell_length_a 7.830890
_cell_length_b 16.051729
_cell_length_c 17.117146
_cell_angle_alpha 90.000000
_cell_angle_beta 106.116511
_cell_angle_gamma 90.000000
_cell_volume 2067.053544
_symmetry_space_group_name_H-M "C 2/C"
_symmetry_group_IT_number 15
_symmetry_cell_setting 'monoclinic'
loop_
_space_group_symop_operation_xyz
x,y,z
-x,y,1/2-z
-x,-y,-z
x,-y,1/2+z
1/2+x,1/2+y,z
1/2-x,1/2+y,1/2-z
1/2-x,1/2-y,-z
1/2+x,1/2-y,1/2+z
loop_
_atom_site_type_symbol
_atom_site_label
_atom_site_fract_x
_atom_site_fract_y
_atom_site_fract_z
Si Si1 0.862954 0.073181 0.466525
Si Si2 0.288537 0.801531 0.803146
Si Si3 0.966957 0.214406 0.371638
Si Si4 0.000000 0.165625 0.750000
Si Si5 0.512200 0.032369 0.339722
Si Si6 0.805975 0.389198 0.390843
O O1 0.970194 0.150469 0.443683
O O2 0.766631 0.104706 0.531595
O O3 0.718154 0.042246 0.386164
O O4 0.000000 0.000000 0.500000
O O5 0.175032 0.816558 0.710444
O O6 0.417042 0.722665 0.807896
O O7 0.163649 0.782386 0.860710
O O8 0.409376 0.880877 0.835627
O O9 0.918569 0.305208 0.397025
O O10 0.145919 0.106864 0.808121
O O11 0.500000 0.997642 0.250000
O O12 0.430796 0.967225 0.389917
#
# Coordination Sequence:
#
# PCOD8140674 Si02
#       6
#     8   8   8   4   8   8
#     4  12  26  46  65 100 137 177 223 274 336 394
#     4  10  20  42  69  96 129 179 224 262 331 402
#     4  10  22  42  68  99 136 175 220 277 332 391
#     4  10  22  42  64 100 132 176 218 278 328 394
#     4  12  24  43  69  95 133 180 224 270 329 398
#     4  11  26  40  68 100 138 170 226 277 330 390
#
# _framework density 21.286337
#
# number of rings (size 3 to 8) (size 9 to 14) (size 15 to 20)
#    0.000    1.091    2.727    3.273    7.636    1.455 
#    0.000    2.727    0.000    0.000    0.000    0.000 
#    0.000    0.000    0.000    0.000    0.000    0.000 
#
# Total GULP energy -272957.966125 kJ/mol
# GULP energy per Si atom -12407.180278 kJ/mol
# Density = 2.123789 g / cm^3
# Si number density = 21.286337 Si / 1000 Ang^3
#
#
#
# Elastic Constant Matrix: (Units=GPa)
#
#
# Indices 1 2 3 4 5 6 
#
# 1 124.1778 30.5882 42.4893 0.0000 -14.5974 0.0000
# 2 30.5882 66.1090 37.8578 0.0000 3.3287 0.0000
# 3 42.4893 37.8578 86.2879 0.0000 -20.7777 0.0000
# 4 0.0000 0.0000 0.0000 23.0736 0.0000 3.6240
# 5 -14.5974 3.3287 -20.7777 0.0000 46.4183 0.0000
# 6 0.0000 0.0000 0.0000 3.6240 0.0000 15.8921
#
#
#
# Elastic Compliance Matrix: (Units=1/GPa)
#
#
# Indices 1 2 3 4 5 6 
#
# 1 0.010106 -0.002928 -0.003223 0.000000 0.001945 0.000000
# 2 -0.002928 0.022702 -0.010235 0.000000 -0.007130 0.000000
# 3 -0.003223 -0.010235 0.019726 0.000000 0.008550 0.000000
# 4 0.000000 0.000000 0.000000 0.044950 0.000000 -0.010250
# 5 0.001945 -0.007130 0.008550 0.000000 0.026493 0.000000
# 6 0.000000 0.000000 0.000000 -0.010250 0.000000 0.065262
#
#
# Mechanical properties :
#
#
# Convention : Reuss Voigt Hill
#
# Bulk Modulus (GPa) = 50.60683 55.38280 52.99482
# Shear Modulus (GPa) = 21.87254 28.11942 24.99598
#
# Velocity S-wave (km/s) = 3.20900 3.63851 3.43048
# Velocity P-wave (km/s) = 6.12831 6.61258 6.37504
#
# Compressibility (1/GPa) = 0.01976018
#
# Stress axis : x y z
#
# Youngs Moduli (GPa) = 98.95372 44.04976 50.69554
#
# Poissons Ratio (x) = 0.12898 0.16340
# Poissons Ratio (y) = 0.28974 0.51888
# Poissons Ratio (z) = 0.31894 0.45086
#
# Static dielectric constant tensor:
#      x y z
#    x 4.156840 0.000000 -0.080160 
#    y 0.000000 3.724080 0.000000 
#    z -0.080160 0.000000 3.822020 
# 
# 
# High freq. dielectric constant tensor:
#      x y z
#    x 1.853000 0.000000 -0.007780 
#    y 0.000000 1.836750 0.000000 
#    z -0.007780 0.000000 1.831610 
# 
# From -- ./inp_files/189002.got.cif
#   From: 2010.06.25/outbox.cif.g09.slc.cpg/sg15_95_cif.got.tgz:189002.got - 2010.06.28 07:06:18.
