data_PCOD8140846
_publ_section_title
;
Structure prediction by ZEFSAII (Michael W. Deem and Ramdas Pophale) SiO2 
 PCOD8140846
Probable space group: C 2/C
;
_chemical_formula_sum "Si O2"
_cell_formula_units_Z 52
_cell_length_a 15.909235
_cell_length_b 17.022483
_cell_length_c 15.633176
_cell_angle_alpha 90.000000
_cell_angle_beta 142.273236
_cell_angle_gamma 90.000000
_cell_volume 2590.582586
_symmetry_space_group_name_H-M "C 2/C"
_symmetry_group_IT_number 15
_symmetry_cell_setting 'monoclinic'
loop_
_space_group_symop_operation_xyz
x,y,z
-x,y,1/2-z
-x,-y,-z
x,-y,1/2+z
1/2+x,1/2+y,z
1/2-x,1/2+y,1/2-z
1/2-x,1/2-y,-z
1/2+x,1/2-y,1/2+z
loop_
_atom_site_type_symbol
_atom_site_label
_atom_site_fract_x
_atom_site_fract_y
_atom_site_fract_z
Si Si1 0.347369 0.357182 0.276651
Si Si2 0.349648 0.815942 0.746637
Si Si3 0.919806 0.475986 0.023259
Si Si4 0.500000 0.921659 0.750000
Si Si5 0.043186 0.332710 0.067301
Si Si6 0.596430 0.520043 0.247908
Si Si7 0.438918 0.659085 0.409743
O O1 0.352531 0.276803 0.225163
O O2 0.186991 0.376519 0.161011
O O3 0.429372 0.430416 0.302286
O O4 0.420287 0.342216 0.424965
O O5 0.380047 0.863813 0.684768
O O6 0.199762 0.849359 0.647930
O O7 0.457529 0.830912 0.909829
O O8 0.958664 0.527005 0.135875
O O9 0.965751 0.385773 0.075164
O O10 0.757145 0.472749 0.890834
O O11 0.000000 0.500000 0.000000
O O12 0.066985 0.248366 0.132176
O O13 0.500000 0.535959 0.250000
O O14 0.548939 0.587705 0.145375
#
# Coordination Sequence:
#
# PCOD8140846 Si02
#       7
#     8   8   8   4   8   8   8
#     4  10  22  38  66  94 124 172 210 263 325 388
#     4  10  21  40  64  94 128 167 216 265 318 385
#     4  12  23  45  67  92 133 175 220 267 315 394
#     4  12  24  36  70 100 124 176 220 258 322 386
#     4  10  20  44  69  88 123 177 222 262 314 383
#     4  12  25  40  61  96 137 163 210 278 326 377
#     4  10  22  42  66  88 128 175 213 264 329 382
#
# _framework density 20.072704999999999
#
# number of rings (size 3 to 8) (size 9 to 14) (size 15 to 20)
#    0.000    1.231    4.615    0.462    3.231    1.231 
#    1.385    3.846    0.000    0.000    0.000    0.000 
#    0.000    0.000    0.000    0.000    0.000    0.000 
#
# Total GULP energy -322121.100689 kJ/mol
# GULP energy per Si atom -12389.273103 kJ/mol
# Density = 2.002702 g / cm^3
# Si number density = 20.072705 Si / 1000 Ang^3
#
#
#
# Elastic Constant Matrix: (Units=GPa)
#
#
# Indices 1 2 3 4 5 6 
#
# 1 122.6175 76.4769 42.5441 0.0007 7.0135 0.0001
# 2 76.4769 133.4203 18.5286 0.0002 -10.0583 0.0005
# 3 42.5441 18.5286 82.0793 0.0013 15.0109 0.0000
# 4 0.0007 0.0002 0.0013 67.5356 0.0010 -39.2349
# 5 7.0135 -10.0583 15.0109 0.0010 31.5311 -0.0003
# 6 0.0001 0.0005 0.0000 -39.2349 -0.0003 72.7508
#
#
#
# Elastic Compliance Matrix: (Units=1/GPa)
#
#
# Indices 1 2 3 4 5 6 
#
# 1 0.015489 -0.008379 -0.005496 0.000000 -0.003501 0.000000
# 2 -0.008379 0.012666 0.000443 0.000000 0.005693 0.000000
# 3 -0.005496 0.000443 0.016083 0.000000 -0.006293 0.000000
# 4 0.000000 0.000000 0.000000 0.021563 -0.000001 0.011629
# 5 -0.003501 0.005693 -0.006293 -0.000001 0.037305 0.000000
# 6 0.000000 0.000000 0.000000 0.011629 0.000000 0.020017
#
#
# Mechanical properties :
#
#
# Convention : Reuss Voigt Hill
#
# Bulk Modulus (GPa) = 57.56301 68.13517 62.84909
# Shear Modulus (GPa) = 32.09674 47.73466 39.91570
#
# Velocity S-wave (km/s) = 4.00312 4.88185 4.46416
# Velocity P-wave (km/s) = 7.07857 8.11138 7.61251
#
# Compressibility (1/GPa) = 0.01737227
#
# Stress axis : x y z
#
# Youngs Moduli (GPa) = 64.56324 78.95402 62.17645
#
# Poissons Ratio (x) = 0.66154 0.34175
# Poissons Ratio (y) = 0.54096 -0.02752
# Poissons Ratio (z) = 0.35487 -0.03495
#
# Static dielectric constant tensor:
#      x y z
#    x 3.580750 0.000000 -0.092110 
#    y 0.000000 4.543000 -0.000010 
#    z -0.092110 -0.000010 5.075500 
# 
# 
# High freq. dielectric constant tensor:
#      x y z
#    x 1.757110 0.000000 0.028500 
#    y 0.000000 1.818470 0.000000 
#    z 0.028500 0.000000 1.780990 
# 
# From -- ./inp_files/56954.got.cif
#   From: 2010.06.25/outbox.cif.g09.slc.cpg/sg15_29_cif.got.tgz:56954.got - 2010.06.28 07:06:18.
