data_PCOD8140594
_publ_section_title
;
Structure prediction by ZEFSAII (Michael W. Deem and Ramdas Pophale) SiO2 
 PCOD8140594
Probable space group: C 2/C
;
_chemical_formula_sum "Si O2"
_cell_formula_units_Z 32
_cell_length_a 21.249439
_cell_length_b 13.301085
_cell_length_c 11.973528
_cell_angle_alpha 90.000000
_cell_angle_beta 26.698864
_cell_angle_gamma 90.000000
_cell_volume 1520.527689
_symmetry_space_group_name_H-M "C 2/C"
_symmetry_group_IT_number 15
_symmetry_cell_setting 'monoclinic'
loop_
_space_group_symop_operation_xyz
x,y,z
-x,y,1/2-z
-x,-y,-z
x,-y,1/2+z
1/2+x,1/2+y,z
1/2-x,1/2+y,1/2-z
1/2-x,1/2-y,-z
1/2+x,1/2-y,1/2+z
loop_
_atom_site_type_symbol
_atom_site_label
_atom_site_fract_x
_atom_site_fract_y
_atom_site_fract_z
Si Si1 0.000000 0.708853 0.750000
Si Si2 0.367309 0.546488 0.765707
Si Si3 0.811744 0.360364 0.374556
Si Si4 0.500000 0.675106 0.750000
Si Si5 0.237970 0.681950 0.780088
O O1 0.048091 0.635306 0.773772
O O2 0.120986 0.776287 0.501683
O O3 0.500000 0.500000 0.500000
O O4 0.418411 0.610729 0.788558
O O5 0.276148 0.612055 0.823803
O O6 0.282648 0.451471 0.939447
O O7 0.750000 0.250000 0.500000
O O8 0.840929 0.376010 0.196204
O O9 0.625434 0.736530 0.495775
#
# Coordination Sequence:
#
# PCOD8140594 Si02
#       5
#     4   8   8   4   8
#     4  10  20  42  66  90 128 174 214 268 324 380
#     4  12  23  41  68  98 129 174 219 264 326 391
#     4  10  22  39  63  94 128 166 212 264 318 381
#     4  12  26  44  66  98 132 170 216 272 326 384
#     4  11  23  43  66  95 132 171 216 270 322 385
#
# _framework density 21.045324000000001
#
# number of rings (size 3 to 8) (size 9 to 14) (size 15 to 20)
#    0.000    1.000    0.000    9.750    0.000    2.000 
#    0.000    3.750    0.000    0.000    0.000    0.000 
#    0.000    0.000    0.000    0.000    0.000    0.000 
#
# Total GULP energy -198226.227837 kJ/mol
# GULP energy per Si atom -12389.139240 kJ/mol
# Density = 2.099742 g / cm^3
# Si number density = 21.045324 Si / 1000 Ang^3
#
#
#
# Elastic Constant Matrix: (Units=GPa)
#
#
# Indices 1 2 3 4 5 6 
#
# 1 249.9677 89.6758 41.9090 0.0000 9.0784 0.0000
# 2 89.6758 138.1609 62.7625 0.0000 2.9428 0.0000
# 3 41.9090 62.7625 115.8749 0.0000 8.9472 0.0000
# 4 0.0000 0.0000 0.0000 51.4045 0.0000 0.4723
# 5 9.0784 2.9428 8.9472 0.0000 29.5095 0.0000
# 6 0.0000 0.0000 0.0000 0.4723 0.0000 -18.1152
#
#
#
# Elastic Compliance Matrix: (Units=1/GPa)
#
#
# Indices 1 2 3 4 5 6 
#
# 1 0.005263 -0.003407 0.000042 0.000000 -0.001292 0.000000
# 2 -0.003407 0.011818 -0.005282 0.000000 0.001471 0.000000
# 3 0.000042 -0.005282 0.011710 0.000000 -0.003037 0.000000
# 4 0.000000 0.000000 0.000000 0.019449 0.000000 0.000507
# 5 -0.001292 0.001471 -0.003037 0.000000 0.035059 0.000000
# 6 0.000000 0.000000 0.000000 0.000507 0.000000 -0.055189
#
#
# Mechanical properties :
#
#
# Convention : Reuss Voigt Hill
#
# Bulk Modulus (GPa) = 86.99025 99.18870 93.08948
# Shear Modulus (GPa) = 101.54965 33.20352 67.37658
#
# Velocity S-wave (km/s) = 6.95396 3.97635 5.66432
# Velocity P-wave (km/s) = 10.29083 8.26530 9.33318
#
# Compressibility (1/GPa) = 0.01149554
#
# Stress axis : x y z
#
# Youngs Moduli (GPa) = 190.01147 84.61768 85.39436
#
# Poissons Ratio (x) = 0.28833 -0.00358
# Poissons Ratio (y) = 0.64746 0.45107
# Poissons Ratio (z) = -0.00797 0.44697
#
# Static dielectric constant tensor:
#      x y z
#    x 5.005080 0.000000 -0.103740 
#    y 0.000000 3.827910 0.000000 
#    z -0.103740 0.000000 3.773440 
# 
# 
# High freq. dielectric constant tensor:
#      x y z
#    x 1.869250 0.000000 0.002860 
#    y 0.000000 1.819480 0.000000 
#    z 0.002860 0.000000 1.821450 
# 
# From -- ./inp_files/75572.got.cif
#   From: 2010.06.25/outbox.cif.g09.slc.cpg/sg15_38_cif.got.tgz:75572.got - 2010.06.28 07:06:18.
