data_PCOD8140777
_publ_section_title
;
Structure prediction by ZEFSAII (Michael W. Deem and Ramdas Pophale) SiO2 
 PCOD8140777
Probable space group: C 2/C
;
_chemical_formula_sum "Si O2"
_cell_formula_units_Z 40
_cell_length_a 7.964788
_cell_length_b 22.997848
_cell_length_c 9.757274
_cell_angle_alpha 90.000000
_cell_angle_beta 102.305440
_cell_angle_gamma 90.000000
_cell_volume 1746.207101
_symmetry_space_group_name_H-M "C 2/C"
_symmetry_group_IT_number 15
_symmetry_cell_setting 'monoclinic'
loop_
_space_group_symop_operation_xyz
x,y,z
-x,y,1/2-z
-x,-y,-z
x,-y,1/2+z
1/2+x,1/2+y,z
1/2-x,1/2+y,1/2-z
1/2-x,1/2-y,-z
1/2+x,1/2-y,1/2+z
loop_
_atom_site_type_symbol
_atom_site_label
_atom_site_fract_x
_atom_site_fract_y
_atom_site_fract_z
Si Si1 0.232891 0.558322 0.052521
Si Si2 0.304319 0.754799 0.170792
Si Si3 0.167018 0.123623 0.694226
Si Si4 0.170404 0.429768 0.042009
Si Si5 0.203076 0.365223 0.788440
O O1 0.330191 0.596856 0.956550
O O2 0.028633 0.563417 0.019960
O O3 0.276274 0.490306 0.045472
O O4 0.290629 0.585742 0.207361
O O5 0.500000 0.770294 0.250000
O O6 0.185348 0.807154 0.200306
O O7 0.264165 0.697831 0.251776
O O8 0.250000 0.750000 0.000000
O O9 0.323141 0.094089 0.803081
O O10 0.000000 0.105074 0.750000
O O11 0.257873 0.382717 0.952855
O O12 0.000000 0.366358 0.750000
#
# Coordination Sequence:
#
# PCOD8140777 Si02
#       5
#     8   8   8   8   8
#     4  10  20  43  67  99 137 175 231 276 345 412
#     4  12  27  47  74  98 137 186 231 291 352 417
#     4  12  26  42  66  99 139 179 230 285 350 409
#     4  10  22  39  71 100 130 182 224 286 335 420
#     4  10  22  40  68  99 134 174 229 282 344 410
#
# _framework density 22.906790000000001
#
# number of rings (size 3 to 8) (size 9 to 14) (size 15 to 20)
#    0.000    1.200    2.000    3.600    5.600    4.800 
#    0.000    2.000    0.000    0.000    0.000    0.000 
#    0.000    0.000    0.000    0.000    0.000    0.000 
#
# Total GULP energy -247824.114176 kJ/mol
# GULP energy per Si atom -12391.205709 kJ/mol
# Density = 2.285465 g / cm^3
# Si number density = 22.906790 Si / 1000 Ang^3
#
#
#
# Elastic Constant Matrix: (Units=GPa)
#
#
# Indices 1 2 3 4 5 6 
#
# 1 40.9491 20.2091 23.4326 0.0000 -15.8165 0.0000
# 2 20.2091 146.1665 14.0635 0.0000 -23.1294 0.0000
# 3 23.4326 14.0635 80.7921 0.0000 -9.9869 0.0000
# 4 0.0000 0.0000 0.0000 42.7553 0.0000 -11.3987
# 5 -15.8165 -23.1294 -9.9869 0.0000 34.2226 0.0000
# 6 0.0000 0.0000 0.0000 -11.3987 0.0000 26.4844
#
#
#
# Elastic Compliance Matrix: (Units=1/GPa)
#
#
# Indices 1 2 3 4 5 6 
#
# 1 0.034929 -0.002085 -0.008244 0.000000 0.012328 0.000000
# 2 -0.002085 0.007826 -0.000231 0.000000 0.004258 0.000000
# 3 -0.008244 -0.000231 0.014854 0.000000 0.000369 0.000000
# 4 0.000000 0.000000 0.000000 0.026420 0.000000 0.011371
# 5 0.012328 0.004258 0.000369 0.000000 0.037903 0.000000
# 6 0.000000 0.000000 0.000000 0.011371 0.000000 0.042652
#
#
# Mechanical properties :
#
#
# Convention : Reuss Voigt Hill
#
# Bulk Modulus (GPa) = 27.40594 42.59090 34.99842
# Shear Modulus (GPa) = 25.26942 34.70597 29.98770
#
# Velocity S-wave (km/s) = 3.32496 3.89665 3.62210
# Velocity P-wave (km/s) = 5.17016 6.23527 5.72753
#
# Compressibility (1/GPa) = 0.03648844
#
# Stress axis : x y z
#
# Youngs Moduli (GPa) = 28.62974 127.78186 67.32093
#
# Poissons Ratio (x) = 0.26647 0.55498
# Poissons Ratio (y) = 0.05970 0.01556
# Poissons Ratio (z) = 0.23602 0.02953
#
# Static dielectric constant tensor:
#      x y z
#    x 3.906900 0.000000 -0.073860 
#    y 0.000000 4.405230 0.000000 
#    z -0.073860 0.000000 4.707990 
# 
# 
# High freq. dielectric constant tensor:
#      x y z
#    x 1.890930 0.000000 -0.005690 
#    y 0.000000 1.917210 0.000000 
#    z -0.005690 0.000000 1.916470 
# 
# From -- ./inp_files/23430.got.cif
#   From: 2010.06.25/outbox.cif.g09.slc.cpg/sg15_12_cif.got.tgz:23430.got - 2010.06.28 07:06:18.
