data_PCOD8140903
_publ_section_title
;
Structure prediction by ZEFSAII (Michael W. Deem and Ramdas Pophale) SiO2 
 PCOD8140903
Probable space group: C 2/C
;
_chemical_formula_sum "Si O2"
_cell_formula_units_Z 44
_cell_length_a 21.521207
_cell_length_b 6.719331
_cell_length_c 15.784260
_cell_angle_alpha 90.000000
_cell_angle_beta 62.329677
_cell_angle_gamma 90.000000
_cell_volume 2021.488630
_symmetry_space_group_name_H-M "C 2/C"
_symmetry_group_IT_number 15
_symmetry_cell_setting 'monoclinic'
loop_
_space_group_symop_operation_xyz
x,y,z
-x,y,1/2-z
-x,-y,-z
x,-y,1/2+z
1/2+x,1/2+y,z
1/2-x,1/2+y,1/2-z
1/2-x,1/2-y,-z
1/2+x,1/2-y,1/2+z
loop_
_atom_site_type_symbol
_atom_site_label
_atom_site_fract_x
_atom_site_fract_y
_atom_site_fract_z
Si Si1 0.500000 0.461939 0.750000
Si Si2 0.387484 0.322825 0.706825
Si Si3 0.270609 0.395181 0.910702
Si Si4 0.621816 0.639918 0.570566
Si Si5 0.626436 0.023185 0.937418
Si Si6 0.075952 0.896073 0.450263
O O1 0.462923 0.315711 0.705964
O O2 0.556118 0.611385 0.673688
O O3 0.326782 0.288582 0.813837
O O4 0.384068 0.538274 0.661499
O O5 0.384078 0.154063 0.638601
O O6 0.305470 0.600657 0.924552
O O7 0.205421 0.442565 0.891569
O O8 0.250000 0.250000 0.000000
O O9 0.622036 0.469343 0.499464
O O10 0.614746 0.856954 0.532608
O O11 0.571137 0.842387 0.961667
O O12 0.000000 0.000000 0.500000
#
# Coordination Sequence:
#
# PCOD8140903 Si02
#       6
#     4   8   8   8   8   8
#     4  10  20  48  62  96 140 170 226 288 336 392
#     4  10  25  42  70  94 133 181 221 281 337 417
#     4  11  23  45  68  98 143 176 226 286 342 402
#     4  10  22  43  68  96 133 180 221 286 336 412
#     4  11  25  42  70 102 131 184 228 274 349 413
#     4  11  22  45  65  95 137 174 223 283 340 398
#
# _framework density 21.766138000000002
#
# number of rings (size 3 to 8) (size 9 to 14) (size 15 to 20)
#    0.000    1.455    3.636    0.545    2.545    2.909 
#    6.545    1.818    0.000    0.000    0.000    0.000 
#    0.000    0.000    0.000    0.000    0.000    0.000 
#
# Total GULP energy -272720.265716 kJ/mol
# GULP energy per Si atom -12396.375714 kJ/mol
# Density = 2.171660 g / cm^3
# Si number density = 21.766138 Si / 1000 Ang^3
#
#
#
# Elastic Constant Matrix: (Units=GPa)
#
#
# Indices 1 2 3 4 5 6 
#
# 1 120.4966 60.0228 29.6076 -0.0010 5.8204 -0.0018
# 2 60.0228 141.7264 47.5249 0.0006 2.2401 0.0085
# 3 29.6076 47.5249 115.2900 -0.0002 -1.3425 -0.0022
# 4 -0.0010 0.0006 -0.0002 26.1597 -0.0005 7.0982
# 5 5.8204 2.2401 -1.3425 -0.0005 36.0032 -0.0007
# 6 -0.0018 0.0085 -0.0022 7.0982 -0.0007 34.6338
#
#
#
# Elastic Compliance Matrix: (Units=1/GPa)
#
#
# Indices 1 2 3 4 5 6 
#
# 1 0.010700 -0.004155 -0.001053 0.000000 -0.001511 0.000001
# 2 -0.004155 0.009815 -0.002980 0.000000 -0.000050 -0.000003
# 3 -0.001053 -0.002980 0.010181 0.000000 0.000735 0.000001
# 4 0.000000 0.000000 0.000000 0.040478 0.000000 -0.008296
# 5 -0.001511 -0.000050 0.000735 0.000000 0.028050 0.000000
# 6 0.000001 -0.000003 0.000001 -0.008296 0.000000 0.030574
#
#
# Mechanical properties :
#
#
# Convention : Reuss Voigt Hill
#
# Bulk Modulus (GPa) = 69.82239 72.42485 71.12362
# Shear Modulus (GPa) = 33.12422 35.38319 34.25370
#
# Velocity S-wave (km/s) = 3.90529 4.03626 3.97131
# Velocity P-wave (km/s) = 7.24452 7.42079 7.33319
#
# Compressibility (1/GPa) = 0.01432205
#
# Stress axis : x y z
#
# Youngs Moduli (GPa) = 93.45563 101.88059 98.22199
#
# Poissons Ratio (x) = 0.42329 0.10341
# Poissons Ratio (y) = 0.38829 0.29267
# Poissons Ratio (z) = 0.09839 0.30357
#
# Static dielectric constant tensor:
#      x y z
#    x 4.245760 -0.000010 0.193480 
#    y -0.000010 3.779510 0.000000 
#    z 0.193480 0.000000 4.109900 
# 
# 
# High freq. dielectric constant tensor:
#      x y z
#    x 1.874340 0.000000 0.011160 
#    y 0.000000 1.830960 0.000000 
#    z 0.011160 0.000000 1.862740 
# 
# From -- ./inp_files/217689.got.cif
#   From: 2010.06.25/outbox.cif.g09.slc.cpg/sg15_109_cif.got.tgz:217689.got - 2010.06.28 07:06:18.
