data_PCOD8140618
_publ_section_title
;
Structure prediction by ZEFSAII (Michael W. Deem and Ramdas Pophale) SiO2 
 PCOD8140618
Probable space group: C 2/C
;
_chemical_formula_sum "Si O2"
_cell_formula_units_Z 40
_cell_length_a 19.264566
_cell_length_b 10.850849
_cell_length_c 10.366640
_cell_angle_alpha 90.000000
_cell_angle_beta 47.869654
_cell_angle_gamma 90.000000
_cell_volume 1607.099562
_symmetry_space_group_name_H-M "C 2/C"
_symmetry_group_IT_number 15
_symmetry_cell_setting 'monoclinic'
loop_
_space_group_symop_operation_xyz
x,y,z
-x,y,1/2-z
-x,-y,-z
x,-y,1/2+z
1/2+x,1/2+y,z
1/2-x,1/2+y,1/2-z
1/2-x,1/2-y,-z
1/2+x,1/2-y,1/2+z
loop_
_atom_site_type_symbol
_atom_site_label
_atom_site_fract_x
_atom_site_fract_y
_atom_site_fract_z
Si Si1 0.588259 0.437722 0.457531
Si Si2 0.594002 0.315369 0.054199
Si Si3 0.629286 0.000791 0.259359
Si Si4 0.509018 0.196727 0.538457
Si Si5 0.223438 0.400491 0.401982
O O1 0.500000 0.500000 0.500000
O O2 0.624604 0.539159 0.515753
O O3 0.561116 0.305084 0.556878
O O4 0.664475 0.403417 0.252028
O O5 0.500000 0.291609 0.250000
O O6 0.570519 0.270157 0.940395
O O7 0.684209 0.236364 0.986808
O O8 0.545753 0.908746 0.314151
O O9 0.680772 0.949211 0.321181
O O10 0.583783 0.132375 0.349707
O O11 0.697276 0.009432 0.052138
#
# Coordination Sequence:
#
# PCOD8140618 Si02
#       5
#     8   8   8   8   8
#     4  10  24  43  62 101 142 187 227 291 350 413
#     4  10  20  42  66  97 135 184 232 281 347 420
#     4  10  22  42  73 105 133 177 236 286 341 414
#     4   9  20  40  67  96 138 173 228 283 348 398
#     4  11  24  42  73 101 137 184 239 282 343 422
#
# _framework density 24.889561
#
# number of rings (size 3 to 8) (size 9 to 14) (size 15 to 20)
#    0.000    2.000    2.000    0.000    2.800    4.000 
#    3.600    9.000    0.000    0.000    0.000    0.000 
#    0.000    0.000    0.000    0.000    0.000    0.000 
#
# Total GULP energy -247762.153518 kJ/mol
# GULP energy per Si atom -12388.107676 kJ/mol
# Density = 2.483291 g / cm^3
# Si number density = 24.889561 Si / 1000 Ang^3
#
#
#
# Elastic Constant Matrix: (Units=GPa)
#
#
# Indices 1 2 3 4 5 6 
#
# 1 48.7693 40.7891 45.4658 0.0000 -8.1025 0.0000
# 2 40.7891 196.3105 62.1244 0.0000 -15.2791 0.0000
# 3 45.4658 62.1244 148.3232 0.0000 -25.5113 0.0000
# 4 0.0000 0.0000 0.0000 17.0850 0.0000 -18.1202
# 5 -8.1025 -15.2791 -25.5113 0.0000 39.6369 0.0000
# 6 0.0000 0.0000 0.0000 -18.1202 0.0000 -2.5688
#
#
#
# Elastic Compliance Matrix: (Units=1/GPa)
#
#
# Indices 1 2 3 4 5 6 
#
# 1 0.031198 -0.003991 -0.007938 0.000000 -0.000270 0.000000
# 2 -0.003991 0.006404 -0.001321 0.000000 0.000803 0.000000
# 3 -0.007938 -0.001321 0.010527 0.000000 0.004644 0.000000
# 4 0.000000 0.000000 0.000000 0.006901 0.000000 -0.048680
# 5 -0.000270 0.000803 0.004644 0.000000 0.028472 0.000000
# 6 0.000000 0.000000 0.000000 -0.048680 0.000000 -0.045899
#
#
# Mechanical properties :
#
#
# Convention : Reuss Voigt Hill
#
# Bulk Modulus (GPa) = 46.23370 76.68463 61.45916
# Shear Modulus (GPa) = 70.11353 27.16552 48.63953
#
# Velocity S-wave (km/s) = 5.31329 3.30728 4.42545
# Velocity P-wave (km/s) = 7.50048 6.74248 7.13156
#
# Compressibility (1/GPa) = 0.02162925
#
# Stress axis : x y z
#
# Youngs Moduli (GPa) = 32.05301 156.16035 94.99246
#
# Poissons Ratio (x) = 0.62328 0.75405
# Poissons Ratio (y) = 0.12793 0.12545
# Poissons Ratio (z) = 0.25444 0.20623
#
# Static dielectric constant tensor:
#      x y z
#    x 4.425060 0.000000 -0.257500 
#    y 0.000000 5.861680 0.000000 
#    z -0.257500 0.000000 4.417440 
# 
# 
# High freq. dielectric constant tensor:
#      x y z
#    x 1.968190 0.000000 -0.019000 
#    y 0.000000 2.012340 0.000000 
#    z -0.019000 0.000000 1.981930 
# 
# From -- ./inp_files/111367.got.cif
#   From: 2010.06.25/outbox.cif.g09.slc.cpg/sg15_56_cif.got.tgz:111367.got - 2010.06.28 07:06:18.
