data_PCOD8140056
_publ_section_title
;
Structure prediction by ZEFSAII (Michael W. Deem and Ramdas Pophale) SiO2 
 PCOD8140056
Probable space group: C 2/C
;
_chemical_formula_sum "Si O2"
_cell_formula_units_Z 56
_cell_length_a 9.580104
_cell_length_b 28.848420
_cell_length_c 11.765446
_cell_angle_alpha 90.000000
_cell_angle_beta 50.126929
_cell_angle_gamma 90.000000
_cell_volume 2495.514546
_symmetry_space_group_name_H-M "C 2/C"
_symmetry_group_IT_number 15
_symmetry_cell_setting 'monoclinic'
loop_
_space_group_symop_operation_xyz
x,y,z
-x,y,1/2-z
-x,-y,-z
x,-y,1/2+z
1/2+x,1/2+y,z
1/2-x,1/2+y,1/2-z
1/2-x,1/2-y,-z
1/2+x,1/2-y,1/2+z
loop_
_atom_site_type_symbol
_atom_site_label
_atom_site_fract_x
_atom_site_fract_y
_atom_site_fract_z
Si Si1 0.629538 0.526038 0.576019
Si Si2 0.811975 0.361738 0.517995
Si Si3 0.332717 0.433864 0.078058
Si Si4 0.224149 0.782933 0.718429
Si Si5 0.000000 0.154823 0.750000
Si Si6 0.429586 0.268938 0.460865
Si Si7 0.343378 0.089283 0.605668
Si Si8 0.500000 0.203420 0.750000
O O1 0.500000 0.512887 0.750000
O O2 0.696734 0.480780 0.476071
O O3 0.525765 0.562069 0.544621
O O4 0.813364 0.548531 0.529679
O O5 0.678005 0.390608 0.504456
O O6 0.689499 0.330316 0.666008
O O7 0.954952 0.328740 0.379520
O O8 0.948827 0.394179 0.519726
O O9 0.174349 0.428014 0.254403
O O10 0.437872 0.775153 0.626300
O O11 0.172942 0.736484 0.676615
O O12 0.100466 0.784887 0.894486
O O13 0.994665 0.185954 0.640624
O O14 0.184285 0.125749 0.660086
O O15 0.250000 0.250000 0.500000
#
# Coordination Sequence:
#
# PCOD8140056 Si02
#       8
#     8   8   8   8   4   8   8   4
#     4   9  20  41  67  96 131 170 220 270 348 416
#     4  12  24  40  67  98 136 173 234 280 336 405
#     4  10  20  40  65  96 128 171 215 272 338 411
#     4  12  26  44  63  98 137 182 229 289 337 402
#     4  12  22  38  70  95 128 183 232 270 334 410
#     4  12  24  42  68  93 132 180 233 284 344 394
#     4  11  21  41  67  99 128 177 224 278 337 409
#     4  12  24  44  66  93 136 189 232 274 344 396
#
# _framework density 22.440261
#
# number of rings (size 3 to 8) (size 9 to 14) (size 15 to 20)
#    0.000    0.857    6.429    2.143    0.000    0.571 
#    3.857    0.000    0.000    0.000    0.000    0.000 
#    0.000    0.000    0.000    0.000    0.000    0.000 
#
# Total GULP energy -347142.057535 kJ/mol
# GULP energy per Si atom -12397.930626 kJ/mol
# Density = 2.238919 g / cm^3
# Si number density = 22.440261 Si / 1000 Ang^3
#
#
#
# Elastic Constant Matrix: (Units=GPa)
#
#
# Indices 1 2 3 4 5 6 
#
# 1 90.7855 42.0704 22.5302 0.0000 16.2765 0.0000
# 2 42.0704 109.3468 42.6052 0.0000 18.5832 0.0000
# 3 22.5302 42.6052 94.1285 0.0000 20.6223 0.0000
# 4 0.0000 0.0000 0.0000 36.2815 0.0000 14.6534
# 5 16.2765 18.5832 20.6223 0.0000 29.2992 0.0000
# 6 0.0000 0.0000 0.0000 14.6534 0.0000 43.7448
#
#
#
# Elastic Compliance Matrix: (Units=1/GPa)
#
#
# Indices 1 2 3 4 5 6 
#
# 1 0.014009 -0.004471 -0.000291 0.000000 -0.004742 0.000000
# 2 -0.004471 0.012973 -0.004189 0.000000 -0.002796 0.000000
# 3 -0.000291 -0.004189 0.014155 0.000000 -0.007144 0.000000
# 4 0.000000 0.000000 0.000000 0.031875 0.000000 -0.010677
# 5 -0.004742 -0.002796 -0.007144 0.000000 0.043567 0.000000
# 6 0.000000 0.000000 0.000000 -0.010677 0.000000 0.026436
#
#
# Mechanical properties :
#
#
# Convention : Reuss Voigt Hill
#
# Bulk Modulus (GPa) = 43.03768 56.51915 49.77841
# Shear Modulus (GPa) = 29.64535 34.33545 31.99040
#
# Velocity S-wave (km/s) = 3.63861 3.91587 3.77978
# Velocity P-wave (km/s) = 6.07232 6.75918 6.42494
#
# Compressibility (1/GPa) = 0.02323545
#
# Stress axis : x y z
#
# Youngs Moduli (GPa) = 71.38241 77.08511 70.64794
#
# Poissons Ratio (x) = 0.34463 0.02053
# Poissons Ratio (y) = 0.31913 0.29596
# Poissons Ratio (z) = 0.02074 0.32292
#
# Static dielectric constant tensor:
#      x y z
#    x 4.210390 0.000000 0.194010 
#    y 0.000000 4.353530 0.000000 
#    z 0.194010 0.000000 4.144240 
# 
# 
# High freq. dielectric constant tensor:
#      x y z
#    x 1.898700 0.000000 0.014450 
#    y 0.000000 1.885060 0.000000 
#    z 0.014450 0.000000 1.864490 
# 
# From -- ./inp_files/82536.got.cif
#   From: 2010.06.25/outbox.cif.g09.slc.cpg/sg15_42_cif.got.tgz:82536.got - 2010.06.28 07:06:18.
