data_PCOD8140832
_publ_section_title
;
Structure prediction by ZEFSAII (Michael W. Deem and Ramdas Pophale) SiO2 
 PCOD8140832
Probable space group: C 2/C
;
_chemical_formula_sum "Si O2"
_cell_formula_units_Z 52
_cell_length_a 14.695253
_cell_length_b 15.389859
_cell_length_c 16.543302
_cell_angle_alpha 90.000000
_cell_angle_beta 139.218854
_cell_angle_gamma 90.000000
_cell_volume 2443.774406
_symmetry_space_group_name_H-M "C 2/C"
_symmetry_group_IT_number 15
_symmetry_cell_setting 'monoclinic'
loop_
_space_group_symop_operation_xyz
x,y,z
-x,y,1/2-z
-x,-y,-z
x,-y,1/2+z
1/2+x,1/2+y,z
1/2-x,1/2+y,1/2-z
1/2-x,1/2-y,-z
1/2+x,1/2-y,1/2+z
loop_
_atom_site_type_symbol
_atom_site_label
_atom_site_fract_x
_atom_site_fract_y
_atom_site_fract_z
Si Si1 0.277400 0.650673 0.290800
Si Si2 0.660702 0.184856 0.383831
Si Si3 0.441091 0.432055 0.523308
Si Si4 0.000000 0.618895 0.750000
Si Si5 0.840660 0.491605 0.375400
Si Si6 0.784397 0.332725 0.225580
Si Si7 0.780781 0.497900 0.513510
O O1 0.258484 0.666620 0.372843
O O2 0.433912 0.630761 0.366369
O O3 0.187018 0.566568 0.208426
O O4 0.229783 0.738838 0.215517
O O5 0.500000 0.213925 0.250000
O O6 0.750000 0.250000 0.500000
O O7 0.652874 0.096686 0.429078
O O8 0.500000 0.500000 0.500000
O O9 0.331151 0.369519 0.409922
O O10 0.371530 0.485624 0.550053
O O11 0.075768 0.677635 0.733670
O O12 0.108383 0.562507 0.873550
O O13 0.804845 0.396794 0.315707
O O14 0.756677 0.509745 0.401417
O O15 0.000000 0.500000 0.500000
#
# Coordination Sequence:
#
# PCOD8140832 Si02
#       7
#     8   8   8   4   8   8   8
#     4  12  27  46  70 102 147 179 232 301 358 423
#     4  12  26  45  73 107 145 189 244 302 366 436
#     4  11  23  46  67  97 139 186 223 287 358 422
#     4  10  20  44  66  96 130 184 230 284 344 422
#     4  12  24  43  69 103 134 182 236 286 353 430
#     4  11  25  42  71  98 138 179 232 290 353 424
#     4  11  22  42  74  95 138 186 238 288 362 427
#
# _framework density 21.278559000000001
#
# number of rings (size 3 to 8) (size 9 to 14) (size 15 to 20)
#    0.000    0.615    5.385    2.769    4.308    1.846 
#    2.769    3.077    0.000    0.000    0.000    0.000 
#    0.000    0.000    0.000    0.000    0.000    0.000 
#
# Total GULP energy -322303.291938 kJ/mol
# GULP energy per Si atom -12396.280459 kJ/mol
# Density = 2.123013 g / cm^3
# Si number density = 21.278559 Si / 1000 Ang^3
#
#
#
# Elastic Constant Matrix: (Units=GPa)
#
#
# Indices 1 2 3 4 5 6 
#
# 1 136.9323 21.2860 33.9927 0.0000 -6.1930 0.0000
# 2 21.2860 80.7544 16.9681 0.0000 0.0085 0.0000
# 3 33.9927 16.9681 96.6857 0.0000 10.8072 0.0000
# 4 0.0000 0.0000 0.0000 27.4890 0.0000 -2.0787
# 5 -6.1930 0.0085 10.8072 0.0000 40.2525 0.0000
# 6 0.0000 0.0000 0.0000 -2.0787 0.0000 29.8762
#
#
#
# Elastic Compliance Matrix: (Units=1/GPa)
#
#
# Indices 1 2 3 4 5 6 
#
# 1 0.008362 -0.001597 -0.002890 0.000000 0.002063 0.000000
# 2 -0.001597 0.013177 -0.001777 0.000000 0.000229 0.000000
# 3 -0.002890 -0.001777 0.012083 0.000000 -0.003688 0.000000
# 4 0.000000 0.000000 0.000000 0.036571 0.000000 0.002545
# 5 0.002063 0.000229 -0.003688 0.000000 0.026151 0.000000
# 6 0.000000 0.000000 0.000000 0.002545 0.000000 0.033648
#
#
# Mechanical properties :
#
#
# Convention : Reuss Voigt Hill
#
# Bulk Modulus (GPa) = 47.40547 50.98510 49.19528
# Shear Modulus (GPa) = 33.43330 35.66526 34.54928
#
# Velocity S-wave (km/s) = 3.96816 4.09848 4.03385
# Velocity P-wave (km/s) = 6.58194 6.81245 6.69819
#
# Compressibility (1/GPa) = 0.02109461
#
# Stress axis : x y z
#
# Youngs Moduli (GPa) = 119.59004 75.88704 82.76097
#
# Poissons Ratio (x) = 0.12119 0.23919
# Poissons Ratio (y) = 0.19099 0.14704
# Poissons Ratio (z) = 0.34564 0.13483
#
# Static dielectric constant tensor:
#      x y z
#    x 4.365750 0.000000 0.205040 
#    y 0.000000 3.817140 0.000000 
#    z 0.205040 0.000000 3.923380 
# 
# 
# High freq. dielectric constant tensor:
#      x y z
#    x 1.851940 0.000000 0.001620 
#    y 0.000000 1.832840 0.000000 
#    z 0.001620 0.000000 1.836150 
# 
# From -- ./inp_files/205792.got.cif
#   From: 2010.06.25/outbox.cif.g09.slc.cpg/sg15_103_cif.got.tgz:205792.got - 2010.06.28 07:06:18.
