data_PCOD8140420
_publ_section_title
;
Structure prediction by ZEFSAII (Michael W. Deem and Ramdas Pophale) SiO2 
 PCOD8140420
Probable space group: C 2/C
;
_chemical_formula_sum "Si O2"
_cell_formula_units_Z 60
_cell_length_a 14.939654
_cell_length_b 11.419359
_cell_length_c 15.162266
_cell_angle_alpha 90.000000
_cell_angle_beta 82.124304
_cell_angle_gamma 90.000000
_cell_volume 2562.303261
_symmetry_space_group_name_H-M "C 2/C"
_symmetry_group_IT_number 15
_symmetry_cell_setting 'monoclinic'
loop_
_space_group_symop_operation_xyz
x,y,z
-x,y,1/2-z
-x,-y,-z
x,-y,1/2+z
1/2+x,1/2+y,z
1/2-x,1/2+y,1/2-z
1/2-x,1/2-y,-z
1/2+x,1/2-y,1/2+z
loop_
_atom_site_type_symbol
_atom_site_label
_atom_site_fract_x
_atom_site_fract_y
_atom_site_fract_z
Si Si1 0.215636 0.450535 0.528588
Si Si2 0.855329 0.402221 0.680184
Si Si3 0.500000 0.759935 0.750000
Si Si4 0.888109 0.651624 0.608445
Si Si5 0.185031 0.115568 0.310414
Si Si6 0.466673 0.445338 0.130603
Si Si7 0.883831 0.093334 0.453067
Si Si8 0.592488 0.154143 0.522976
O O1 0.181462 0.351929 0.464718
O O2 0.252561 0.394214 0.611768
O O3 0.290167 0.525593 0.466272
O O4 0.134450 0.539734 0.563763
O O5 0.875057 0.540706 0.674454
O O6 0.749154 0.379534 0.715885
O O7 0.881954 0.343838 0.584014
O O8 0.912510 0.343084 0.751837
O O9 0.496343 0.675350 0.834727
O O10 0.873059 0.766320 0.670070
O O11 0.985855 0.650930 0.550989
O O12 0.119117 0.003704 0.308270
O O13 0.549874 0.536279 0.127934
O O14 0.439002 0.415027 0.036133
O O15 0.866370 0.230221 0.435908
#
# Coordination Sequence:
#
# PCOD8140420 Si02
#       8
#     8   8   4   8   8   8   8   8
#     4  10  23  37  71 101 133 181 235 266 339 403
#     4  11  27  40  71  98 138 175 225 283 340 391
#     4  12  26  42  70  96 134 174 226 270 354 400
#     4  11  25  47  68  97 142 179 228 276 338 409
#     4  11  25  44  67 100 139 179 225 286 336 400
#     4  10  23  42  66 100 133 179 223 281 332 403
#     4  10  20  41  67  98 133 175 231 275 329 398
#     4  11  22  46  67  99 140 181 223 280 332 411
#
# _framework density 23.416430999999999
#
# number of rings (size 3 to 8) (size 9 to 14) (size 15 to 20)
#    0.000    1.333    2.667    2.400    7.467    1.067 
#    0.000    2.000    0.000    0.000    0.000    0.000 
#    0.000    0.000    0.000    0.000    0.000    0.000 
#
# Total GULP energy -371986.906515 kJ/mol
# GULP energy per Si atom -12399.563550 kJ/mol
# Density = 2.336313 g / cm^3
# Si number density = 23.416431 Si / 1000 Ang^3
#
#
#
# Elastic Constant Matrix: (Units=GPa)
#
#
# Indices 1 2 3 4 5 6 
#
# 1 85.2017 19.5825 41.7620 0.0000 -25.2359 0.0000
# 2 19.5825 99.3071 31.5903 0.0000 -8.5062 0.0000
# 3 41.7620 31.5903 85.3820 0.0000 -28.2466 0.0000
# 4 0.0000 0.0000 0.0000 36.1482 0.0000 1.4588
# 5 -25.2359 -8.5062 -28.2466 0.0000 37.6934 0.0000
# 6 0.0000 0.0000 0.0000 1.4588 0.0000 44.3673
#
#
#
# Elastic Compliance Matrix: (Units=1/GPa)
#
#
# Indices 1 2 3 4 5 6 
#
# 1 0.016695 -0.000938 -0.005573 0.000000 0.006790 0.000000
# 2 -0.000938 0.011483 -0.004175 0.000000 -0.001166 0.000000
# 3 -0.005573 -0.004175 0.019195 0.000000 0.009711 0.000000
# 4 0.000000 0.000000 0.000000 0.027701 0.000000 -0.000911
# 5 0.006790 -0.001166 0.009711 0.000000 0.038090 0.000000
# 6 0.000000 0.000000 0.000000 -0.000911 0.000000 0.022569
#
#
# Mechanical properties :
#
#
# Convention : Reuss Voigt Hill
#
# Bulk Modulus (GPa) = 38.45918 50.64003 44.54961
# Shear Modulus (GPa) = 30.16188 35.43885 32.80037
#
# Velocity S-wave (km/s) = 3.59286 3.89449 3.74671
# Velocity P-wave (km/s) = 5.80268 6.47267 6.14681
#
# Compressibility (1/GPa) = 0.02600159
#
# Stress axis : x y z
#
# Youngs Moduli (GPa) = 59.89861 87.08437 52.09587
#
# Poissons Ratio (x) = 0.08167 0.29031
# Poissons Ratio (y) = 0.05617 0.21753
# Poissons Ratio (z) = 0.33379 0.36362
#
# Static dielectric constant tensor:
#      x y z
#    x 4.371540 0.000000 -0.080760 
#    y 0.000000 4.451060 0.000000 
#    z -0.080760 0.000000 3.948240 
# 
# 
# High freq. dielectric constant tensor:
#      x y z
#    x 1.937420 0.000000 -0.007090 
#    y 0.000000 1.937390 0.000000 
#    z -0.007090 0.000000 1.908070 
# 
# From -- ./inp_files/204429.got.cif
#   From: 2010.06.25/outbox.cif.g09.slc.cpg/sg15_103_cif.got.tgz:204429.got - 2010.06.28 07:06:18.
