data_PCOD8140205
_publ_section_title
;
Structure prediction by ZEFSAII (Michael W. Deem and Ramdas Pophale) SiO2 
 PCOD8140205
Probable space group: C 2/C
;
_chemical_formula_sum "Si O2"
_cell_formula_units_Z 52
_cell_length_a 9.162146
_cell_length_b 25.445171
_cell_length_c 11.368898
_cell_angle_alpha 90.000000
_cell_angle_beta 117.072624
_cell_angle_gamma 90.000000
_cell_volume 2360.048416
_symmetry_space_group_name_H-M "C 2/C"
_symmetry_group_IT_number 15
_symmetry_cell_setting 'monoclinic'
loop_
_space_group_symop_operation_xyz
x,y,z
-x,y,1/2-z
-x,-y,-z
x,-y,1/2+z
1/2+x,1/2+y,z
1/2-x,1/2+y,1/2-z
1/2-x,1/2-y,-z
1/2+x,1/2-y,1/2+z
loop_
_atom_site_type_symbol
_atom_site_label
_atom_site_fract_x
_atom_site_fract_y
_atom_site_fract_z
Si Si1 0.181525 0.555101 0.610028
Si Si2 0.178401 0.773264 0.814508
Si Si3 0.796235 0.830741 0.447036
Si Si4 0.424762 0.367243 0.106648
Si Si5 0.405162 0.050275 0.325619
Si Si6 0.000000 0.390078 0.250000
Si Si7 0.689234 0.845019 0.824344
O O1 0.359929 0.576876 0.636065
O O2 0.199910 0.492202 0.638669
O O3 0.048344 0.571480 0.463266
O O4 0.122380 0.577554 0.712558
O O5 0.307377 0.726918 0.889496
O O6 0.212442 0.798707 0.701787
O O7 0.000000 0.746513 0.750000
O O8 0.176749 0.821853 0.905376
O O9 0.616578 0.854974 0.373596
O O10 0.933641 0.869541 0.440967
O O11 0.500000 0.336867 0.250000
O O12 0.263005 0.343166 0.984443
O O13 0.500000 0.023443 0.250000
O O14 0.292588 0.098049 0.234575
O O15 0.500000 0.829369 0.750000
#
# Coordination Sequence:
#
# PCOD8140205 Si02
#       7
#     8   8   8   8   8   4   8
#     4  11  22  39  69  98 132 174 229 268 334 399
#     4  11  23  45  67  97 127 177 226 276 329 407
#     4  11  25  41  68  96 135 168 225 278 337 393
#     4  12  24  42  65 101 141 174 216 287 333 394
#     4  10  20  40  69  97 127 179 229 268 321 412
#     4  12  22  40  68  96 126 188 210 274 342 406
#     4  11  23  45  70  97 133 182 227 272 338 401
#
# _framework density 22.033445
#
# number of rings (size 3 to 8) (size 9 to 14) (size 15 to 20)
#    0.000    0.923    7.692    0.923    0.000    0.615 
#    0.000    3.077    3.385    0.000    0.000    0.000 
#    0.000    0.000    0.000    0.000    0.000    0.000 
#
# Total GULP energy -322103.562659 kJ/mol
# GULP energy per Si atom -12388.598564 kJ/mol
# Density = 2.198330 g / cm^3
# Si number density = 22.033445 Si / 1000 Ang^3
#
#
#
# Elastic Constant Matrix: (Units=GPa)
#
#
# Indices 1 2 3 4 5 6 
#
# 1 103.9151 44.6479 17.5227 0.0000 7.7747 0.0000
# 2 44.6479 67.5865 17.5308 0.0000 -3.5804 0.0000
# 3 17.5227 17.5308 140.1897 0.0000 6.5252 0.0000
# 4 0.0000 0.0000 0.0000 20.9216 0.0000 -1.1134
# 5 7.7747 -3.5804 6.5252 0.0000 33.2608 0.0000
# 6 0.0000 0.0000 0.0000 -1.1134 0.0000 21.7877
#
#
#
# Elastic Compliance Matrix: (Units=1/GPa)
#
#
# Indices 1 2 3 4 5 6 
#
# 1 0.014043 -0.009401 -0.000383 0.000000 -0.004219 0.000000
# 2 -0.009401 0.021723 -0.001769 0.000000 0.004883 0.000000
# 3 -0.000383 -0.001769 0.007475 0.000000 -0.001567 0.000000
# 4 0.000000 0.000000 0.000000 0.047928 0.000000 0.002449
# 5 -0.004219 0.004883 -0.001567 0.000000 0.031885 0.000000
# 6 0.000000 0.000000 0.000000 0.002449 0.000000 0.046023
#
#
# Mechanical properties :
#
#
# Convention : Reuss Voigt Hill
#
# Bulk Modulus (GPa) = 49.66285 52.34380 51.00332
# Shear Modulus (GPa) = 25.13902 30.66001 27.89951
#
# Velocity S-wave (km/s) = 3.38146 3.73436 3.56228
# Velocity P-wave (km/s) = 6.15096 6.51168 6.33389
#
# Compressibility (1/GPa) = 0.02013578
#
# Stress axis : x y z
#
# Youngs Moduli (GPa) = 71.21178 46.03321 133.77497
#
# Poissons Ratio (x) = 0.43274 0.05127
# Poissons Ratio (y) = 0.66944 0.23662
# Poissons Ratio (z) = 0.02729 0.08142
#
# Static dielectric constant tensor:
#      x y z
#    x 3.847440 0.000000 -0.019520 
#    y 0.000000 3.715010 0.000000 
#    z -0.019520 0.000000 4.271830 
# 
# 
# High freq. dielectric constant tensor:
#      x y z
#    x 1.850430 0.000000 -0.002740 
#    y 0.000000 1.840240 0.000000 
#    z -0.002740 0.000000 1.888090 
# 
# From -- ./inp_files/82335.got.cif
#   From: 2010.06.25/outbox.cif.g09.slc.cpg/sg15_42_cif.got.tgz:82335.got - 2010.06.28 07:06:18.
