data_PCOD8140669
_publ_section_title
;
Structure prediction by ZEFSAII (Michael W. Deem and Ramdas Pophale) SiO2 
 PCOD8140669
Probable space group: C 2/C
;
_chemical_formula_sum "Si O2"
_cell_formula_units_Z 56
_cell_length_a 9.941215
_cell_length_b 10.382396
_cell_length_c 29.551909
_cell_angle_alpha 90.000000
_cell_angle_beta 119.788028
_cell_angle_gamma 90.000000
_cell_volume 2647.140005
_symmetry_space_group_name_H-M "C 2/C"
_symmetry_group_IT_number 15
_symmetry_cell_setting 'monoclinic'
loop_
_space_group_symop_operation_xyz
x,y,z
-x,y,1/2-z
-x,-y,-z
x,-y,1/2+z
1/2+x,1/2+y,z
1/2-x,1/2+y,1/2-z
1/2-x,1/2-y,-z
1/2+x,1/2-y,1/2+z
loop_
_atom_site_type_symbol
_atom_site_label
_atom_site_fract_x
_atom_site_fract_y
_atom_site_fract_z
Si Si1 0.146202 0.316508 0.338009
Si Si2 0.898509 0.014910 0.274292
Si Si3 0.036312 0.849954 0.962369
Si Si4 0.976764 0.446935 0.446438
Si Si5 0.253536 0.517467 0.933816
Si Si6 0.800378 0.715488 0.755562
Si Si7 0.648024 0.553958 0.386358
O O1 0.214097 0.437154 0.376541
O O2 0.217669 0.316747 0.300274
O O3 0.195033 0.189947 0.373200
O O4 0.961444 0.327155 0.304393
O O5 0.773990 0.132004 0.262180
O O6 0.000000 0.073711 0.250000
O O7 0.003932 0.990367 0.335763
O O8 0.826042 0.881179 0.244037
O O9 0.026020 0.700779 0.949029
O O10 0.099953 0.931962 0.930585
O O11 0.864717 0.894185 0.948548
O O12 0.156418 0.870445 0.023444
O O13 0.796791 0.462784 0.403877
O O14 0.000000 0.500000 0.500000
O O15 0.093577 0.522977 0.432307
#
# Coordination Sequence:
#
# PCOD8140669 Si02
#       7
#     8   8   8   8   8   8   8
#     4  10  20  42  69  87 123 173 203 258 320 382
#     4  11  23  43  65  95 127 168 207 270 316 384
#     4  11  24  44  61  96 130 164 214 266 306 384
#     4  12  24  41  64  95 128 171 209 261 320 378
#     4  11  23  41  67  92 129 170 212 258 321 378
#     4  10  22  43  66  93 128 163 217 260 321 378
#     4  11  22  42  68  91 130 165 214 262 318 377
#
# _framework density 21.154907000000001
#
# number of rings (size 3 to 8) (size 9 to 14) (size 15 to 20)
#    0.000    1.143    5.714    2.143    2.000    0.571 
#   10.286    0.000    0.000    0.000    0.000    0.000 
#    0.000    0.000    0.000    0.000    0.000    0.000 
#
# Total GULP energy -347186.833948 kJ/mol
# GULP energy per Si atom -12399.529784 kJ/mol
# Density = 2.110676 g / cm^3
# Si number density = 21.154907 Si / 1000 Ang^3
#
#
#
# Elastic Constant Matrix: (Units=GPa)
#
#
# Indices 1 2 3 4 5 6 
#
# 1 95.7427 37.3209 21.2713 0.0000 10.9222 0.0000
# 2 37.3209 77.5011 19.3896 0.0000 19.3945 0.0000
# 3 21.2713 19.3896 108.0327 0.0000 1.6396 0.0000
# 4 0.0000 0.0000 0.0000 28.1866 0.0000 1.6809
# 5 10.9222 19.3945 1.6396 0.0000 25.3814 0.0000
# 6 0.0000 0.0000 0.0000 1.6809 0.0000 27.6640
#
#
#
# Elastic Compliance Matrix: (Units=1/GPa)
#
#
# Indices 1 2 3 4 5 6 
#
# 1 0.013123 -0.005616 -0.001557 0.000000 -0.001255 0.000000
# 2 -0.005616 0.019172 -0.002152 0.000000 -0.012094 0.000000
# 3 -0.001557 -0.002152 0.009924 0.000000 0.001673 0.000000
# 4 0.000000 0.000000 0.000000 0.035607 0.000000 -0.002164
# 5 -0.001255 -0.012094 0.001673 0.000000 0.049073 0.000000
# 6 0.000000 0.000000 0.000000 -0.002164 0.000000 0.036280
#
#
# Mechanical properties :
#
#
# Convention : Reuss Voigt Hill
#
# Bulk Modulus (GPa) = 42.42642 48.58223 45.50433
# Shear Modulus (GPa) = 26.35975 29.79938 28.07956
#
# Velocity S-wave (km/s) = 3.53375 3.75724 3.64721
# Velocity P-wave (km/s) = 6.06206 6.46818 6.26841
#
# Compressibility (1/GPa) = 0.02357022
#
# Stress axis : x y z
#
# Youngs Moduli (GPa) = 76.20344 52.15894 100.76788
#
# Poissons Ratio (x) = 0.29291 0.15688
# Poissons Ratio (y) = 0.42793 0.21683
# Poissons Ratio (z) = 0.11864 0.11223
#
# Static dielectric constant tensor:
#      x y z
#    x 3.810550 0.000000 0.021000 
#    y 0.000000 3.629500 0.000000 
#    z 0.021000 0.000000 4.055500 
# 
# 
# High freq. dielectric constant tensor:
#      x y z
#    x 1.822040 0.000000 0.000420 
#    y 0.000000 1.812230 0.000000 
#    z 0.000420 0.000000 1.847040 
# 
# From -- ./inp_files/307552.got.cif
#   From: 2010.06.25/outbox.cif.g09.slc.cpg/sg15_154_cif.got.tgz:307552.got - 2010.06.28 07:06:18.
