data_PCOD8140154
_publ_section_title
;
Structure prediction by ZEFSAII (Michael W. Deem and Ramdas Pophale) SiO2 
 PCOD8140154
Probable space group: C 2/C
;
_chemical_formula_sum "Si O2"
_cell_formula_units_Z 48
_cell_length_a 12.862577
_cell_length_b 8.336470
_cell_length_c 23.896041
_cell_angle_alpha 90.000000
_cell_angle_beta 48.910707
_cell_angle_gamma 90.000000
_cell_volume 1931.197593
_symmetry_space_group_name_H-M "C 2/C"
_symmetry_group_IT_number 15
_symmetry_cell_setting 'monoclinic'
loop_
_space_group_symop_operation_xyz
x,y,z
-x,y,1/2-z
-x,-y,-z
x,-y,1/2+z
1/2+x,1/2+y,z
1/2-x,1/2+y,1/2-z
1/2-x,1/2-y,-z
1/2+x,1/2-y,1/2+z
loop_
_atom_site_type_symbol
_atom_site_label
_atom_site_fract_x
_atom_site_fract_y
_atom_site_fract_z
Si Si1 0.438326 0.757456 0.500092
Si Si2 0.676209 0.951452 0.110426
Si Si3 0.346816 0.094039 0.499901
Si Si4 0.338531 0.585822 0.753868
Si Si5 0.383448 0.278722 0.352302
Si Si6 0.436607 0.256175 0.666541
O O1 0.331202 0.614772 0.552263
O O2 0.547784 0.774569 0.511496
O O3 0.514035 0.716349 0.414843
O O4 0.354791 0.923118 0.528350
O O5 0.565203 0.810283 0.158100
O O6 0.625268 0.053985 0.074106
O O7 0.663454 0.102860 0.157225
O O8 0.194644 0.167778 0.562997
O O9 0.453069 0.715958 0.693465
O O10 0.339348 0.589316 0.821284
O O11 0.383478 0.415944 0.713940
O O12 0.187281 0.628632 0.785156
#
# Coordination Sequence:
#
# PCOD8140154 Si02
#       6
#     8   8   8   8   8   8
#     4  10  21  40  70 101 135 173 230 286 353 419
#     4  11  23  41  70 105 138 174 228 289 352 422
#     4  10  20  40  68 102 137 174 219 287 357 410
#     4  11  24  43  68  89 137 184 226 280 330 412
#     4  11  23  43  64  99 136 174 227 278 339 413
#     4  11  22  45  67  98 133 180 231 274 342 408
#
# _framework density 24.855043999999999
#
# number of rings (size 3 to 8) (size 9 to 14) (size 15 to 20)
#    0.000    1.333    1.667    5.500    0.000    0.667 
#    3.000   10.000    0.000    0.000    0.000    0.000 
#    0.000    0.000    0.000    0.000    0.000    0.000 
#
# Total GULP energy -297458.504358 kJ/mol
# GULP energy per Si atom -12394.104348 kJ/mol
# Density = 2.479847 g / cm^3
# Si number density = 24.855044 Si / 1000 Ang^3
#
#
#
# Elastic Constant Matrix: (Units=GPa)
#
#
# Indices 1 2 3 4 5 6 
#
# 1 65.8632 24.9050 28.0383 0.0000 -11.3836 -0.0001
# 2 24.9050 134.5230 65.3043 0.0000 -8.6121 -0.0002
# 3 28.0383 65.3043 124.8241 0.0000 -32.5654 0.0000
# 4 0.0000 0.0000 0.0000 52.5038 0.0000 -9.7779
# 5 -11.3836 -8.6121 -32.5654 0.0000 33.1402 0.0000
# 6 -0.0001 -0.0002 0.0000 -9.7779 0.0000 37.1199
#
#
#
# Elastic Compliance Matrix: (Units=1/GPa)
#
#
# Indices 1 2 3 4 5 6 
#
# 1 0.017389 -0.002074 -0.001887 0.000000 0.003580 0.000000
# 2 -0.002074 0.010506 -0.006057 0.000000 -0.003934 0.000000
# 3 -0.001887 -0.006057 0.014825 0.000000 0.012346 0.000000
# 4 0.000000 0.000000 0.000000 0.020029 0.000000 0.005276
# 5 0.003580 -0.003934 0.012346 0.000000 0.042514 0.000000
# 6 0.000000 0.000000 0.000000 0.005276 0.000000 0.028330
#
#
# Mechanical properties :
#
#
# Convention : Reuss Voigt Hill
#
# Bulk Modulus (GPa) = 44.08368 62.41171 53.24769
# Shear Modulus (GPa) = 31.01933 38.35028 34.68480
#
# Velocity S-wave (km/s) = 3.53655 3.93231 3.73967
# Velocity P-wave (km/s) = 5.86950 6.76626 6.33377
#
# Compressibility (1/GPa) = 0.02268413
#
# Stress axis : x y z
#
# Youngs Moduli (GPa) = 57.50653 95.18188 67.45457
#
# Poissons Ratio (x) = 0.19743 0.12728
# Poissons Ratio (y) = 0.11928 0.40857
# Poissons Ratio (z) = 0.10851 0.57652
#
# Static dielectric constant tensor:
#      x y z
#    x 4.612560 0.000000 -0.164400 
#    y 0.000000 4.896360 0.000000 
#    z -0.164400 0.000000 4.556510 
# 
# 
# High freq. dielectric constant tensor:
#      x y z
#    x 1.973590 0.000000 -0.017010 
#    y 0.000000 2.004840 0.000000 
#    z -0.017010 0.000000 1.994150 
# 
# From -- ./inp_files/312797.got.cif
#   From: 2010.06.25/outbox.cif.g09.slc.cpg/sg15_157_cif.got.tgz:312797.got - 2010.06.28 07:06:18.
