data_PCOD8140874
_publ_section_title
;
Structure prediction by ZEFSAII (Michael W. Deem and Ramdas Pophale) SiO2 
 PCOD8140874
Probable space group: C 2/C
;
_chemical_formula_sum "Si O2"
_cell_formula_units_Z 40
_cell_length_a 9.156858
_cell_length_b 22.482421
_cell_length_c 8.977021
_cell_angle_alpha 90.000000
_cell_angle_beta 64.069497
_cell_angle_gamma 90.000000
_cell_volume 1662.028685
_symmetry_space_group_name_H-M "C 2/C"
_symmetry_group_IT_number 15
_symmetry_cell_setting 'monoclinic'
loop_
_space_group_symop_operation_xyz
x,y,z
-x,y,1/2-z
-x,-y,-z
x,-y,1/2+z
1/2+x,1/2+y,z
1/2-x,1/2+y,1/2-z
1/2-x,1/2-y,-z
1/2+x,1/2-y,1/2+z
loop_
_atom_site_type_symbol
_atom_site_label
_atom_site_fract_x
_atom_site_fract_y
_atom_site_fract_z
Si Si1 0.360128 0.473762 0.211282
Si Si2 0.190282 0.076970 0.079666
Si Si3 0.692074 0.220958 0.875669
Si Si4 0.116099 0.793332 0.500968
Si Si5 0.453801 0.100944 0.604724
O O1 0.500000 0.441290 0.250000
O O2 0.374449 0.545264 0.240631
O O3 0.186497 0.448112 0.340427
O O4 0.370766 0.465459 0.029131
O O5 0.128108 0.142759 0.074331
O O6 0.381301 0.074078 0.031793
O O7 0.840875 0.205103 0.696066
O O8 0.601230 0.159761 0.958987
O O9 0.750000 0.250000 0.000000
O O10 0.560316 0.268676 0.874119
O O11 0.250000 0.750000 0.500000
O O12 0.500000 0.122882 0.750000
#
# Coordination Sequence:
#
# PCOD8140874 Si02
#       5
#     8   8   8   8   8
#     4  11  24  42  70 102 134 185 232 291 357 411
#     4  11  24  46  71  96 145 186 234 291 354 429
#     4  12  25  43  72 107 140 184 237 296 356 416
#     4  12  24  47  73 101 146 191 233 288 362 427
#     4  10  20  45  69  91 138 189 221 281 357 416
#
# _framework density 24.066973000000001
#
# number of rings (size 3 to 8) (size 9 to 14) (size 15 to 20)
#    0.000    0.800    6.000    2.400    2.800    1.600 
#    3.600    0.000    0.000    0.000    0.000    0.000 
#    0.000    0.000    0.000    0.000    0.000    0.000 
#
# Total GULP energy -247814.386167 kJ/mol
# GULP energy per Si atom -12390.719308 kJ/mol
# Density = 2.401220 g / cm^3
# Si number density = 24.066973 Si / 1000 Ang^3
#
#
#
# Elastic Constant Matrix: (Units=GPa)
#
#
# Indices 1 2 3 4 5 6 
#
# 1 94.0700 30.9915 20.7167 0.0000 -0.6030 0.0000
# 2 30.9915 176.1541 49.0733 0.0000 17.2030 0.0000
# 3 20.7167 49.0733 80.1693 0.0000 -10.9286 0.0000
# 4 0.0000 0.0000 0.0000 38.0359 0.0000 13.2787
# 5 -0.6030 17.2030 -10.9286 0.0000 37.7113 0.0000
# 6 0.0000 0.0000 0.0000 13.2787 0.0000 26.3833
#
#
#
# Elastic Compliance Matrix: (Units=1/GPa)
#
#
# Indices 1 2 3 4 5 6 
#
# 1 0.011574 -0.001496 -0.002038 0.000000 0.000277 0.000000
# 2 -0.001496 0.007865 -0.005122 0.000000 -0.005096 0.000000
# 3 -0.002038 -0.005122 0.017126 0.000000 0.007267 0.000000
# 4 0.000000 0.000000 0.000000 0.031895 0.000000 -0.016053
# 5 0.000277 -0.005096 0.007267 0.000000 0.030952 0.000000
# 6 0.000000 0.000000 0.000000 -0.016053 0.000000 0.045982
#
#
# Mechanical properties :
#
#
# Convention : Reuss Voigt Hill
#
# Bulk Modulus (GPa) = 51.93829 61.32849 56.63339
# Shear Modulus (GPa) = 29.56429 37.06689 33.31559
#
# Velocity S-wave (km/s) = 3.50868 3.92874 3.72464
# Velocity P-wave (km/s) = 6.16782 6.79100 6.48690
#
# Compressibility (1/GPa) = 0.01925362
#
# Stress axis : x y z
#
# Youngs Moduli (GPa) = 86.40351 127.15171 58.38989
#
# Poissons Ratio (x) = 0.19017 0.11897
# Poissons Ratio (y) = 0.12923 0.29909
# Poissons Ratio (z) = 0.17605 0.65131
#
# Static dielectric constant tensor:
#      x y z
#    x 7.846510 0.000000 -1.385680 
#    y 0.000000 4.179360 0.000000 
#    z -1.385680 0.000000 4.967770 
# 
# 
# High freq. dielectric constant tensor:
#      x y z
#    x 1.983260 0.000000 -0.016640 
#    y 0.000000 1.958300 0.000000 
#    z -0.016640 0.000000 1.942470 
# 
# From -- ./inp_files/23465.got.cif
#   From: 2010.06.25/outbox.cif.g09.slc.cpg/sg15_12_cif.got.tgz:23465.got - 2010.06.28 07:06:18.
