data_PCOD8140174
_publ_section_title
;
Structure prediction by ZEFSAII (Michael W. Deem and Ramdas Pophale) SiO2 
 PCOD8140174
Probable space group: C 2/C
;
_chemical_formula_sum "Si O2"
_cell_formula_units_Z 60
_cell_length_a 18.103854
_cell_length_b 14.305443
_cell_length_c 11.798309
_cell_angle_alpha 90.000000
_cell_angle_beta 59.319579
_cell_angle_gamma 90.000000
_cell_volume 2627.870998
_symmetry_space_group_name_H-M "C 2/C"
_symmetry_group_IT_number 15
_symmetry_cell_setting 'monoclinic'
loop_
_space_group_symop_operation_xyz
x,y,z
-x,y,1/2-z
-x,-y,-z
x,-y,1/2+z
1/2+x,1/2+y,z
1/2-x,1/2+y,1/2-z
1/2-x,1/2-y,-z
1/2+x,1/2-y,1/2+z
loop_
_atom_site_type_symbol
_atom_site_label
_atom_site_fract_x
_atom_site_fract_y
_atom_site_fract_z
Si Si1 0.000000 0.416736 0.750000
Si Si2 0.910803 0.735032 0.598705
Si Si3 0.350110 0.131954 0.212427
Si Si4 0.399946 0.307478 0.061481
Si Si5 0.409704 0.972217 0.024235
Si Si6 0.599693 0.347418 0.686486
Si Si7 0.297907 0.663753 0.015475
Si Si8 0.909627 0.944220 0.257511
O O1 0.943584 0.358131 0.703507
O O2 0.074638 0.474535 0.624534
O O3 0.882245 0.629116 0.593370
O O4 0.867304 0.767131 0.752410
O O5 0.878488 0.802425 0.524941
O O6 0.012939 0.748494 0.525574
O O7 0.333758 0.233910 0.170146
O O8 0.272049 0.106860 0.356663
O O9 0.344835 0.051552 0.119608
O O10 0.413774 0.398603 0.129141
O O11 0.359941 0.339800 0.971585
O O12 0.500000 0.000000 0.000000
O O13 0.500000 0.332718 0.750000
O O14 0.615189 0.447232 0.734414
O O15 0.250000 0.750000 0.000000
O O16 0.331755 0.599590 0.888568
O O17 0.000000 0.929908 0.250000
#
# Coordination Sequence:
#
# PCOD8140174 Si02
#       8
#     4   8   8   8   8   8   8   8
#     4  10  20  40  68  94 126 168 224 268 334 384
#     4  11  22  43  67  96 136 170 217 280 340 384
#     4  11  24  42  62 103 128 171 220 275 338 400
#     4  11  21  40  72  94 129 170 228 270 334 402
#     4  10  21  38  68  96 125 173 222 270 330 400
#     4   9  24  41  65 100 128 173 224 270 333 404
#     4  12  25  41  67  99 133 173 224 283 333 396
#     4  11  23  41  71  94 129 177 225 279 328 402
#
# _framework density 22.832170000000001
#
# number of rings (size 3 to 8) (size 9 to 14) (size 15 to 20)
#    0.000    1.333    5.333    0.800    2.800    3.733 
#    8.400    0.667    0.000    0.000    0.000    0.000 
#    0.000    0.000    0.000    0.000    0.000    0.000 
#
# Total GULP energy -371794.891335 kJ/mol
# GULP energy per Si atom -12393.163044 kJ/mol
# Density = 2.278020 g / cm^3
# Si number density = 22.832170 Si / 1000 Ang^3
#
#
#
# Elastic Constant Matrix: (Units=GPa)
#
#
# Indices 1 2 3 4 5 6 
#
# 1 22.9825 12.8117 12.4559 0.0000 4.2373 0.0000
# 2 12.8117 122.6560 65.8962 0.0000 15.3488 0.0000
# 3 12.4559 65.8962 158.3232 0.0000 18.8392 0.0000
# 4 0.0000 0.0000 0.0000 43.0243 0.0000 2.6146
# 5 4.2373 15.3488 18.8392 0.0000 38.9898 0.0000
# 6 0.0000 0.0000 0.0000 2.6146 0.0000 11.4931
#
#
#
# Elastic Compliance Matrix: (Units=1/GPa)
#
#
# Indices 1 2 3 4 5 6 
#
# 1 0.047029 -0.003546 -0.001891 0.000000 -0.002802 0.000000
# 2 -0.003546 0.010940 -0.004040 0.000000 -0.001969 0.000000
# 3 -0.001891 -0.004040 0.008417 0.000000 -0.002271 0.000000
# 4 0.000000 0.000000 0.000000 0.023569 0.000000 -0.005362
# 5 -0.002802 -0.001969 -0.002271 0.000000 0.027825 0.000000
# 6 0.000000 0.000000 0.000000 -0.005362 0.000000 0.088228
#
#
# Mechanical properties :
#
#
# Convention : Reuss Voigt Hill
#
# Bulk Modulus (GPa) = 21.08260 54.03216 37.55738
# Shear Modulus (GPa) = 20.76649 32.88796 26.82723
#
# Velocity S-wave (km/s) = 3.01911 3.79941 3.43151
# Velocity P-wave (km/s) = 4.62678 6.55466 5.67322
#
# Compressibility (1/GPa) = 0.04743248
#
# Stress axis : x y z
#
# Youngs Moduli (GPa) = 21.26335 91.40550 118.81083
#
# Poissons Ratio (x) = 0.32412 0.22464
# Poissons Ratio (y) = 0.07540 0.48002
# Poissons Ratio (z) = 0.04020 0.36929
#
# Static dielectric constant tensor:
#      x y z
#    x 3.577370 0.000000 1.085910 
#    y 0.000000 4.598890 0.000000 
#    z 1.085910 0.000000 3.014550 
# 
# 
# High freq. dielectric constant tensor:
#      x y z
#    x 1.872920 0.000000 0.010460 
#    y 0.000000 1.891070 0.000000 
#    z 0.010460 0.000000 1.918730 
# 
# From -- ./inp_files/112702.got.cif
#   From: 2010.06.25/outbox.cif.g09.slc.cpg/sg15_57_cif.got.tgz:112702.got - 2010.06.28 07:06:18.
