data_PCOD8140042
_publ_section_title
;
Structure prediction by ZEFSAII (Michael W. Deem and Ramdas Pophale) SiO2 
 PCOD8140042
Probable space group: C 2/C
;
_chemical_formula_sum "Si O2"
_cell_formula_units_Z 64
_cell_length_a 11.468418
_cell_length_b 14.633574
_cell_length_c 29.678487
_cell_angle_alpha 90.000000
_cell_angle_beta 38.432484
_cell_angle_gamma 90.000000
_cell_volume 3096.001008
_symmetry_space_group_name_H-M "C 2/C"
_symmetry_group_IT_number 15
_symmetry_cell_setting 'monoclinic'
loop_
_space_group_symop_operation_xyz
x,y,z
-x,y,1/2-z
-x,-y,-z
x,-y,1/2+z
1/2+x,1/2+y,z
1/2-x,1/2+y,1/2-z
1/2-x,1/2-y,-z
1/2+x,1/2-y,1/2+z
loop_
_atom_site_type_symbol
_atom_site_label
_atom_site_fract_x
_atom_site_fract_y
_atom_site_fract_z
Si Si1 0.664389 0.029503 0.290112
Si Si2 0.976245 0.882977 0.961764
Si Si3 0.366731 0.991838 0.100967
Si Si4 0.623061 0.237465 0.276487
Si Si5 0.867157 0.898333 0.164125
Si Si6 0.285554 0.782022 0.135010
Si Si7 0.761564 0.457188 0.389293
Si Si8 0.719737 0.505627 0.051403
O O1 0.658654 0.131485 0.273512
O O2 0.716433 0.030368 0.327285
O O3 0.822796 0.974550 0.215395
O O4 0.471017 0.976594 0.341205
O O5 0.876856 0.910291 0.945125
O O6 0.048454 0.780359 0.934737
O O7 0.829515 0.888121 0.047150
O O8 0.151714 0.947667 0.919823
O O9 0.344005 0.883335 0.104463
O O10 0.252257 0.034576 0.093650
O O11 0.584275 0.020508 0.031557
O O12 0.665949 0.296049 0.308142
O O13 0.765001 0.271680 0.194950
O O14 0.408832 0.253571 0.328523
O O15 0.736234 0.909029 0.160067
O O16 0.086146 0.916453 0.086063
#
# Coordination Sequence:
#
# PCOD8140042 Si02
#       8
#     8   8   8   8   8   8   8   8
#     4  12  23  43  69  96 131 174 217 274 329 395
#     4  10  20  40  65  92 128 166 222 263 326 388
#     4  11  23  42  65  92 137 169 215 271 337 383
#     4  11  23  40  65  99 127 170 227 263 326 398
#     4  11  23  41  66  95 135 169 222 272 329 395
#     4  11  22  41  66  97 127 174 223 270 316 410
#     4  10  21  39  63  96 127 171 206 276 327 383
#     4  10  22  41  63  94 126 176 212 264 330 390
#
# _framework density 20.671828000000001
#
# number of rings (size 3 to 8) (size 9 to 14) (size 15 to 20)
#    0.000    1.250    5.000    1.875    1.750    1.000 
#    4.500    1.250    2.750    0.000    0.000    0.000 
#    0.000    0.000    0.000    0.000    0.000    0.000 
#
# Total GULP energy -396919.766204 kJ/mol
# GULP energy per Si atom -12403.742694 kJ/mol
# Density = 2.062478 g / cm^3
# Si number density = 20.671828 Si / 1000 Ang^3
#
#
#
# Elastic Constant Matrix: (Units=GPa)
#
#
# Indices 1 2 3 4 5 6 
#
# 1 73.6867 10.4778 24.7332 -0.0012 20.0325 0.0007
# 2 10.4778 75.9752 32.4643 0.0001 5.0379 0.0000
# 3 24.7332 32.4643 84.4003 -0.0005 17.3203 0.0030
# 4 -0.0012 0.0001 -0.0005 29.2507 0.0018 3.0045
# 5 20.0325 5.0379 17.3203 0.0018 38.7072 -0.0004
# 6 0.0007 0.0000 0.0030 3.0045 -0.0004 25.2989
#
#
#
# Elastic Compliance Matrix: (Units=1/GPa)
#
#
# Indices 1 2 3 4 5 6 
#
# 1 0.016658 -0.000435 -0.003256 0.000001 -0.007108 0.000000
# 2 -0.000435 0.015781 -0.006130 0.000000 0.000914 0.000001
# 3 -0.003256 -0.006130 0.016132 0.000001 -0.004736 -0.000002
# 4 0.000001 0.000000 0.000001 0.034609 -0.000002 -0.004110
# 5 -0.007108 0.000914 -0.004736 -0.000002 0.031514 0.000002
# 6 0.000000 0.000001 -0.000002 -0.004110 0.000002 0.040016
#
#
# Mechanical properties :
#
#
# Convention : Reuss Voigt Hill
#
# Bulk Modulus (GPa) = 34.56674 41.04586 37.80630
# Shear Modulus (GPa) = 27.17473 29.74384 28.45929
#
# Velocity S-wave (km/s) = 3.62964 3.79734 3.71444
# Velocity P-wave (km/s) = 5.85865 6.25504 6.06008
#
# Compressibility (1/GPa) = 0.02892955
#
# Stress axis : x y z
#
# Youngs Moduli (GPa) = 60.03170 63.36725 61.98770
#
# Poissons Ratio (x) = 0.02755 0.20181
# Poissons Ratio (y) = 0.02610 0.38000
# Poissons Ratio (z) = 0.19544 0.38846
#
# Static dielectric constant tensor:
#      x y z
#    x 3.895590 0.000000 0.131370 
#    y 0.000000 3.470640 0.000000 
#    z 0.131370 0.000000 3.940890 
# 
# 
# High freq. dielectric constant tensor:
#      x y z
#    x 1.816360 0.000000 0.005200 
#    y 0.000000 1.783690 0.000000 
#    z 0.005200 0.000000 1.819390 
# 
# From -- ./inp_files/311177.got.cif
#   From: 2010.06.25/outbox.cif.g09.slc.cpg/sg15_156_cif.got.tgz:311177.got - 2010.06.28 07:06:18.
