data_PCOD8140059
_publ_section_title
;
Structure prediction by ZEFSAII (Michael W. Deem and Ramdas Pophale) SiO2 
 PCOD8140059
Probable space group: C 2/C
;
_chemical_formula_sum "Si O2"
_cell_formula_units_Z 56
_cell_length_a 19.298683
_cell_length_b 11.988118
_cell_length_c 11.376152
_cell_angle_alpha 90.000000
_cell_angle_beta 93.786940
_cell_angle_gamma 90.000000
_cell_volume 2626.181697
_symmetry_space_group_name_H-M "C 2/C"
_symmetry_group_IT_number 15
_symmetry_cell_setting 'monoclinic'
loop_
_space_group_symop_operation_xyz
x,y,z
-x,y,1/2-z
-x,-y,-z
x,-y,1/2+z
1/2+x,1/2+y,z
1/2-x,1/2+y,1/2-z
1/2-x,1/2-y,-z
1/2+x,1/2-y,1/2+z
loop_
_atom_site_type_symbol
_atom_site_label
_atom_site_fract_x
_atom_site_fract_y
_atom_site_fract_z
Si Si1 0.946549 0.209882 0.110863
Si Si2 0.000000 0.985159 0.750000
Si Si3 0.439718 0.792070 0.541209
Si Si4 0.804450 0.883335 0.564657
Si Si5 0.868455 0.103700 0.675159
Si Si6 0.605517 0.871178 0.197479
Si Si7 0.500000 0.056266 0.250000
Si Si8 0.751294 0.321424 0.180374
O O1 0.985904 0.092539 0.135629
O O2 0.873297 0.186639 0.041580
O O3 0.934808 0.273729 0.234580
O O4 0.988516 0.280300 0.021672
O O5 0.069116 0.058334 0.734620
O O6 0.404870 0.677092 0.578807
O O7 0.386661 0.843870 0.440307
O O8 0.458477 0.869963 0.651727
O O9 0.763898 0.810330 0.658468
O O10 0.759946 0.890987 0.440976
O O11 0.822558 0.004974 0.614574
O O12 0.816716 0.177343 0.746297
O O13 0.683645 0.884082 0.252884
O O14 0.561035 0.983871 0.199199
#
# Coordination Sequence:
#
# PCOD8140059 Si02
#       8
#     8   4   8   8   8   8   4   8
#     4  10  20  41  71  96 132 176 232 275 339 402
#     4  10  20  40  66 100 134 176 214 278 342 386
#     4  12  25  41  67 104 132 173 232 288 332 404
#     4   9  23  43  69  94 136 187 217 284 335 403
#     4  11  26  39  67 104 135 175 221 282 339 402
#     4  11  23  46  69  92 133 187 224 282 335 408
#     4  12  26  42  68 102 132 178 226 288 348 394
#     4  10  24  45  65  97 137 180 233 266 341 414
#
# _framework density 21.323734000000002
#
# number of rings (size 3 to 8) (size 9 to 14) (size 15 to 20)
#    0.000    1.429    2.857    0.857    6.000    4.000 
#    2.571    0.000    0.000    0.000    0.000    0.000 
#    0.000    0.000    0.000    0.000    0.000    0.000 
#
# Total GULP energy -347147.658058 kJ/mol
# GULP energy per Si atom -12398.130645 kJ/mol
# Density = 2.127520 g / cm^3
# Si number density = 21.323734 Si / 1000 Ang^3
#
#
#
# Elastic Constant Matrix: (Units=GPa)
#
#
# Indices 1 2 3 4 5 6 
#
# 1 122.9099 46.7380 53.5141 0.0000 17.4536 0.0000
# 2 46.7380 109.3891 54.9448 0.0000 8.1593 0.0000
# 3 53.5141 54.9448 105.7484 0.0000 17.9105 0.0000
# 4 0.0000 0.0000 0.0000 22.9035 0.0000 0.1062
# 5 17.4536 8.1593 17.9105 0.0000 40.8722 0.0000
# 6 0.0000 0.0000 0.0000 0.1062 0.0000 37.0457
#
#
#
# Elastic Compliance Matrix: (Units=1/GPa)
#
#
# Indices 1 2 3 4 5 6 
#
# 1 0.011184 -0.002656 -0.003846 0.000000 -0.002560 0.000000
# 2 -0.002656 0.013006 -0.005580 0.000000 0.000983 0.000000
# 3 -0.003846 -0.005580 0.014944 0.000000 -0.003792 0.000000
# 4 0.000000 0.000000 0.000000 0.043662 0.000000 -0.000125
# 5 -0.002560 0.000983 -0.003792 0.000000 0.027025 0.000000
# 6 0.000000 0.000000 0.000000 -0.000125 0.000000 0.026994
#
#
# Mechanical properties :
#
#
# Convention : Reuss Voigt Hill
#
# Bulk Modulus (GPa) = 66.79916 72.04903 69.42410
# Shear Modulus (GPa) = 30.12588 32.35433 31.24010
#
# Velocity S-wave (km/s) = 3.76278 3.89947 3.83174
# Velocity P-wave (km/s) = 7.09029 7.35772 7.22524
#
# Compressibility (1/GPa) = 0.01497025
#
# Stress axis : x y z
#
# Youngs Moduli (GPa) = 89.41272 76.88828 66.91437
#
# Poissons Ratio (x) = 0.20419 0.25737
# Poissons Ratio (y) = 0.23745 0.37340
# Poissons Ratio (z) = 0.34390 0.42905
#
# Static dielectric constant tensor:
#      x y z
#    x 4.054810 0.000000 0.189260 
#    y 0.000000 3.767070 0.000000 
#    z 0.189260 0.000000 3.736470 
# 
# 
# High freq. dielectric constant tensor:
#      x y z
#    x 1.850110 0.000000 0.016980 
#    y 0.000000 1.829390 0.000000 
#    z 0.016980 0.000000 1.829510 
# 
# From -- ./inp_files/111105.got.cif
#   From: 2010.06.25/outbox.cif.g09.slc.cpg/sg15_56_cif.got.tgz:111105.got - 2010.06.28 07:06:18.
