data_PCOD8140146
_publ_section_title
;
Structure prediction by ZEFSAII (Michael W. Deem and Ramdas Pophale) SiO2 
 PCOD8140146
Probable space group: C 2/C
;
_chemical_formula_sum "Si O2"
_cell_formula_units_Z 60
_cell_length_a 11.818793
_cell_length_b 28.532188
_cell_length_c 9.516421
_cell_angle_alpha 90.000000
_cell_angle_beta 74.335095
_cell_angle_gamma 90.000000
_cell_volume 3089.895444
_symmetry_space_group_name_H-M "C 2/C"
_symmetry_group_IT_number 15
_symmetry_cell_setting 'monoclinic'
loop_
_space_group_symop_operation_xyz
x,y,z
-x,y,1/2-z
-x,-y,-z
x,-y,1/2+z
1/2+x,1/2+y,z
1/2-x,1/2+y,1/2-z
1/2-x,1/2-y,-z
1/2+x,1/2-y,1/2+z
loop_
_atom_site_type_symbol
_atom_site_label
_atom_site_fract_x
_atom_site_fract_y
_atom_site_fract_z
Si Si1 0.222974 0.081368 0.694212
Si Si2 0.500000 0.216869 0.750000
Si Si3 0.085952 0.496362 0.347455
Si Si4 0.273025 0.156304 0.901480
Si Si5 0.378658 0.615998 0.061729
Si Si6 0.475408 0.693983 0.411823
Si Si7 0.923902 0.954181 0.020508
Si Si8 0.757067 0.419875 0.632276
O O1 0.338490 0.050154 0.655555
O O2 0.237232 0.129483 0.772985
O O3 0.187991 0.094546 0.548441
O O4 0.123608 0.050835 0.805179
O O5 0.383264 0.187118 0.815808
O O6 0.493441 0.250510 0.613050
O O7 0.155379 0.545464 0.315510
O O8 0.000000 0.487862 0.250000
O O9 0.000000 0.500000 0.500000
O O10 0.159845 0.186554 0.991388
O O11 0.313270 0.118747 0.007545
O O12 0.425354 0.669479 0.021603
O O13 0.301384 0.610537 0.226176
O O14 0.500043 0.589756 0.049872
O O15 0.500000 0.670455 0.250000
O O16 0.822593 0.955225 0.935740
O O17 0.000000 0.000000 0.000000
#
# Coordination Sequence:
#
# PCOD8140146 Si02
#       8
#     8   4   8   8   8   8   8   8
#     4  11  25  37  60  94 127 168 217 267 324 386
#     4  10  24  40  72  96 122 170 226 270 322 408
#     4  12  25  42  57  83 127 177 223 264 304 372
#     4  11  22  42  67  97 125 169 224 266 322 399
#     4  12  20  38  59  94 129 160 198 271 337 387
#     4  10  20  40  67  98 126 161 208 271 342 385
#     4  11  21  36  59  89 127 165 210 257 320 389
#     4  11  22  38  61  88 124 172 218 260 319 383
#
# _framework density 19.418133000000001
#
# number of rings (size 3 to 8) (size 9 to 14) (size 15 to 20)
#    0.400    0.533    4.000    5.200    2.800    1.067 
#    0.000    0.667    0.000    1.600    0.000    0.000 
#    0.000    0.000    0.000    0.000    0.000    0.000 
#
# Total GULP energy -371651.397605 kJ/mol
# GULP energy per Si atom -12388.379920 kJ/mol
# Density = 1.937394 g / cm^3
# Si number density = 19.418133 Si / 1000 Ang^3
#
#
#
# Elastic Constant Matrix: (Units=GPa)
#
#
# Indices 1 2 3 4 5 6 
#
# 1 110.4833 62.8803 50.1503 0.0000 -11.9561 0.0000
# 2 62.8803 89.2943 49.8996 0.0000 -12.9700 0.0000
# 3 50.1503 49.8996 104.4817 0.0000 -12.7377 0.0000
# 4 0.0000 0.0000 0.0000 32.0851 0.0000 -5.2567
# 5 -11.9561 -12.9700 -12.7377 0.0000 40.6327 0.0000
# 6 0.0000 0.0000 0.0000 -5.2567 0.0000 14.7695
#
#
#
# Elastic Compliance Matrix: (Units=1/GPa)
#
#
# Indices 1 2 3 4 5 6 
#
# 1 0.015827 -0.009336 -0.003050 0.000000 0.000721 0.000000
# 2 -0.009336 0.021072 -0.005300 0.000000 0.002318 0.000000
# 3 -0.003050 -0.005300 0.013777 0.000000 0.001730 0.000000
# 4 0.000000 0.000000 0.000000 0.033097 0.000000 0.011780
# 5 0.000721 0.002318 0.001730 0.000000 0.026105 0.000000
# 6 0.000000 0.000000 0.000000 0.011780 0.000000 0.071900
#
#
# Mechanical properties :
#
#
# Convention : Reuss Voigt Hill
#
# Bulk Modulus (GPa) = 65.34382 70.01331 67.67857
# Shear Modulus (GPa) = 22.49703 26.91940 24.70822
#
# Velocity S-wave (km/s) = 3.40745 3.72735 3.57098
# Velocity P-wave (km/s) = 7.01462 7.39311 7.20635
#
# Compressibility (1/GPa) = 0.01530367
#
# Stress axis : x y z
#
# Youngs Moduli (GPa) = 63.18201 47.45701 72.58398
#
# Poissons Ratio (x) = 0.44307 0.22139
# Poissons Ratio (y) = 0.58988 0.38468
# Poissons Ratio (z) = 0.19272 0.25151
#
# Static dielectric constant tensor:
#      x y z
#    x 3.468920 0.000000 -0.203620 
#    y 0.000000 3.281960 0.000000 
#    z -0.203620 0.000000 3.710500 
# 
# 
# High freq. dielectric constant tensor:
#      x y z
#    x 1.746340 0.000000 -0.015070 
#    y 0.000000 1.753860 0.000000 
#    z -0.015070 0.000000 1.767490 
# 
# From -- ./inp_files/35654.got.cif
#   From: 2010.06.25/outbox.cif.g09.slc.cpg/sg15_18_cif.got.tgz:35654.got - 2010.06.28 07:06:18.
