data_PCOD8140228
_publ_section_title
;
Structure prediction by ZEFSAII (Michael W. Deem and Ramdas Pophale) SiO2 
 PCOD8140228
Probable space group: C 2/C
;
_chemical_formula_sum "Si O2"
_cell_formula_units_Z 52
_cell_length_a 10.418305
_cell_length_b 26.906140
_cell_length_c 11.326188
_cell_angle_alpha 90.000000
_cell_angle_beta 49.167397
_cell_angle_gamma 90.000000
_cell_volume 2402.214795
_symmetry_space_group_name_H-M "C 2/C"
_symmetry_group_IT_number 15
_symmetry_cell_setting 'monoclinic'
loop_
_space_group_symop_operation_xyz
x,y,z
-x,y,1/2-z
-x,-y,-z
x,-y,1/2+z
1/2+x,1/2+y,z
1/2-x,1/2+y,1/2-z
1/2-x,1/2-y,-z
1/2+x,1/2-y,1/2+z
loop_
_atom_site_type_symbol
_atom_site_label
_atom_site_fract_x
_atom_site_fract_y
_atom_site_fract_z
Si Si1 0.177358 0.291280 0.190525
Si Si2 0.350590 0.785886 0.720382
Si Si3 0.027139 0.058011 0.974286
Si Si4 0.819781 0.609317 0.917556
Si Si5 0.500000 0.382553 0.250000
Si Si6 0.209669 0.696413 0.927912
Si Si7 0.340534 0.375893 0.759678
O O1 0.322430 0.248937 0.119448
O O2 0.252962 0.334926 0.063652
O O3 0.137069 0.316537 0.341889
O O4 0.000000 0.268794 0.250000
O O5 0.296114 0.752310 0.868430
O O6 0.217317 0.830104 0.786955
O O7 0.454320 0.804460 0.886276
O O8 0.207296 0.067314 0.926019
O O9 0.033406 0.080835 0.839208
O O10 0.879552 0.081869 0.141576
O O11 0.000000 0.000000 0.000000
O O12 0.000000 0.603815 0.750000
O O13 0.814032 0.604588 0.063652
O O14 0.655744 0.346276 0.119210
O O15 0.500000 0.364056 0.750000
#
# Coordination Sequence:
#
# PCOD8140228 Si02
#       7
#     8   8   8   8   4   8   8
#     4   9  18  32  60  95 138 176 219 260 325 384
#     4  10  21  37  61  99 142 184 226 263 333 399
#     4  11  26  48  73  98 127 179 233 288 366 405
#     4  10  20  40  71 100 138 169 226 294 341 397
#     4  12  26  48  72  88 144 180 232 284 340 424
#     4  10  24  38  61  96 139 189 227 268 327 409
#     4  10  23  38  66 101 140 170 230 286 333 398
#
# _framework density 21.64669
#
# number of rings (size 3 to 8) (size 9 to 14) (size 15 to 20)
#    0.923    0.923    1.538    2.308    9.692    1.846 
#    0.000    2.308    0.000    0.000    0.000    0.000 
#    0.000    0.000    0.000    0.000    0.000    0.000 
#
# Total GULP energy -322151.555998 kJ/mol
# GULP energy per Si atom -12390.444461 kJ/mol
# Density = 2.159742 g / cm^3
# Si number density = 21.646690 Si / 1000 Ang^3
#
#
#
# Elastic Constant Matrix: (Units=GPa)
#
#
# Indices 1 2 3 4 5 6 
#
# 1 54.9867 42.2306 15.7408 0.0000 -4.6495 0.0000
# 2 42.2306 162.0120 52.3595 0.0000 -9.7536 0.0000
# 3 15.7408 52.3595 146.1620 0.0000 -1.7856 0.0000
# 4 0.0000 0.0000 0.0000 21.6088 0.0000 -6.9231
# 5 -4.6495 -9.7536 -1.7856 0.0000 31.7538 0.0000
# 6 0.0000 0.0000 0.0000 -6.9231 0.0000 17.5051
#
#
#
# Elastic Compliance Matrix: (Units=1/GPa)
#
#
# Indices 1 2 3 4 5 6 
#
# 1 0.022831 -0.005733 -0.000386 0.000000 0.001560 0.000000
# 2 -0.005733 0.008550 -0.002425 0.000000 0.001650 0.000000
# 3 -0.000386 -0.002425 0.007748 0.000000 -0.000366 0.000000
# 4 0.000000 0.000000 0.000000 0.052992 0.000000 0.020958
# 5 0.001560 0.001650 -0.000366 0.000000 0.032207 0.000000
# 6 0.000000 0.000000 0.000000 0.020958 0.000000 0.065415
#
#
# Mechanical properties :
#
#
# Convention : Reuss Voigt Hill
#
# Bulk Modulus (GPa) = 45.37027 64.86916 55.11972
# Shear Modulus (GPa) = 23.34504 31.02884 27.18694
#
# Velocity S-wave (km/s) = 3.28755 3.79016 3.54777
# Velocity P-wave (km/s) = 5.95110 7.01328 6.50391
#
# Compressibility (1/GPa) = 0.02204087
#
# Stress axis : x y z
#
# Youngs Moduli (GPa) = 43.79930 116.96151 129.07145
#
# Poissons Ratio (x) = 0.67049 0.04984
# Poissons Ratio (y) = 0.25108 0.31303
# Poissons Ratio (z) = 0.01691 0.28366
#
# Static dielectric constant tensor:
#      x y z
#    x 3.992420 0.000000 0.145720 
#    y 0.000000 3.640360 0.000000 
#    z 0.145720 0.000000 4.041380 
# 
# 
# High freq. dielectric constant tensor:
#      x y z
#    x 1.857080 0.000000 0.012850 
#    y 0.000000 1.815360 0.000000 
#    z 0.012850 0.000000 1.865510 
# 
# From -- ./inp_files/92003.got.cif
#   From: 2010.06.25/outbox.cif.g09.slc.cpg/sg15_47_cif.got.tgz:92003.got - 2010.06.28 07:06:18.
