data_PCOD8140724
_publ_section_title
;
Structure prediction by ZEFSAII (Michael W. Deem and Ramdas Pophale) SiO2 
 PCOD8140724
Probable space group: C 2/C
;
_chemical_formula_sum "Si O2"
_cell_formula_units_Z 60
_cell_length_a 24.971406
_cell_length_b 9.948781
_cell_length_c 21.298190
_cell_angle_alpha 90.000000
_cell_angle_beta 148.722120
_cell_angle_gamma 90.000000
_cell_volume 2747.142636
_symmetry_space_group_name_H-M "C 2/C"
_symmetry_group_IT_number 15
_symmetry_cell_setting 'monoclinic'
loop_
_space_group_symop_operation_xyz
x,y,z
-x,y,1/2-z
-x,-y,-z
x,-y,1/2+z
1/2+x,1/2+y,z
1/2-x,1/2+y,1/2-z
1/2-x,1/2-y,-z
1/2+x,1/2-y,1/2+z
loop_
_atom_site_type_symbol
_atom_site_label
_atom_site_fract_x
_atom_site_fract_y
_atom_site_fract_z
Si Si1 0.242775 0.963867 0.838420
Si Si2 0.884535 0.291026 0.251758
Si Si3 0.000000 0.658813 0.750000
Si Si4 0.549356 0.873496 0.517274
Si Si5 0.233094 0.563240 0.388588
Si Si6 0.356393 0.933641 0.566234
Si Si7 0.380097 0.292412 0.300229
Si Si8 0.044727 0.155452 0.861613
O O1 0.170290 0.837429 0.775738
O O2 0.340561 0.915057 0.898588
O O3 0.188195 0.081920 0.743969
O O4 0.264007 0.035264 0.926451
O O5 0.803541 0.413989 0.166552
O O6 0.930535 0.254622 0.228520
O O7 0.979538 0.324881 0.390813
O O8 0.927614 0.564512 0.635410
O O9 0.557425 0.756226 0.576614
O O10 0.500000 0.000000 0.500000
O O11 0.187380 0.605159 0.409969
O O12 0.191339 0.670822 0.296712
O O13 0.357401 0.565783 0.518265
O O14 0.424404 0.811119 0.610227
O O15 0.456656 0.354347 0.325349
O O16 0.000000 0.104075 0.750000
#
# Coordination Sequence:
#
# PCOD8140724 Si02
#       8
#     8   8   4   8   8   8   8   8
#     4  12  28  46  72 106 143 181 241 300 353 423
#     4  11  26  49  71 104 143 195 234 290 360 436
#     4  10  20  42  72  98 138 190 232 272 364 440
#     4  12  27  49  76  97 140 196 243 287 360 426
#     4  11  23  40  73 103 143 187 235 281 358 426
#     4  11  19  40  69 102 138 188 230 279 349 434
#     4  12  26  43  74 109 134 187 241 300 345 418
#     4  12  21  39  71 111 146 174 237 308 351 410
#
# _framework density 21.840876999999999
#
# number of rings (size 3 to 8) (size 9 to 14) (size 15 to 20)
#    0.000    0.533    6.000    2.800    1.867    3.733 
#    3.600    0.000    0.000    0.000    0.000    0.000 
#    0.000    0.000    0.000    0.000    0.000    0.000 
#
# Total GULP energy -372114.252436 kJ/mol
# GULP energy per Si atom -12403.808415 kJ/mol
# Density = 2.179117 g / cm^3
# Si number density = 21.840877 Si / 1000 Ang^3
#
#
#
# Elastic Constant Matrix: (Units=GPa)
#
#
# Indices 1 2 3 4 5 6 
#
# 1 87.5533 41.4932 44.4366 0.0000 -1.1847 0.0000
# 2 41.4932 96.3851 36.4835 0.0000 3.3727 0.0000
# 3 44.4366 36.4835 118.3810 0.0000 4.4871 0.0000
# 4 0.0000 0.0000 0.0000 315.2417 0.0000 -353.6212
# 5 -1.1847 3.3727 4.4871 0.0000 31.5132 0.0000
# 6 0.0000 0.0000 0.0000 -353.6212 0.0000 482.9712
#
#
#
# Elastic Compliance Matrix: (Units=1/GPa)
#
#
# Indices 1 2 3 4 5 6 
#
# 1 0.016286 -0.005360 -0.004531 0.000000 0.001831 0.000000
# 2 -0.005360 0.013527 -0.002106 0.000000 -0.001349 0.000000
# 3 -0.004531 -0.002106 0.010853 0.000000 -0.001490 0.000000
# 4 0.000000 0.000000 0.000000 0.017753 0.000000 0.012999
# 5 0.001831 -0.001349 -0.001490 0.000000 0.032158 0.000000
# 6 0.000000 0.000000 0.000000 0.012999 0.000000 0.011588
#
#
# Mechanical properties :
#
#
# Convention : Reuss Voigt Hill
#
# Bulk Modulus (GPa) = 59.97621 60.79400 60.38510
# Shear Modulus (GPa) = 37.96027 177.93896 107.94962
#
# Velocity S-wave (km/s) = 4.17350 9.03590 7.03795
# Velocity P-wave (km/s) = 7.12350 11.69439 9.68254
#
# Compressibility (1/GPa) = 0.01667328
#
# Stress axis : x y z
#
# Youngs Moduli (GPa) = 61.40148 73.92733 92.13670
#
# Poissons Ratio (x) = 0.39627 0.41745
# Poissons Ratio (y) = 0.32912 0.19400
# Poissons Ratio (z) = 0.27820 0.15566
#
# Static dielectric constant tensor:
#      x y z
#    x 3.515280 0.000000 -0.247400 
#    y 0.000000 3.861160 0.000000 
#    z -0.247400 0.000000 4.075510 
# 
# 
# High freq. dielectric constant tensor:
#      x y z
#    x 1.859670 0.000000 0.003690 
#    y 0.000000 1.851890 0.000000 
#    z 0.003690 0.000000 1.873830 
# 
# From -- ./inp_files/283420.got.cif
#   From: 2010.06.25/outbox.cif.g09.slc.cpg/sg15_142_cif.got.tgz:283420.got - 2010.06.28 07:06:18.
