data_PCOD8140053
_publ_section_title
;
Structure prediction by ZEFSAII (Michael W. Deem and Ramdas Pophale) SiO2 
 PCOD8140053
Probable space group: C 2/C
;
_chemical_formula_sum "Si O2"
_cell_formula_units_Z 40
_cell_length_a 21.727746
_cell_length_b 14.195615
_cell_length_c 8.856919
_cell_angle_alpha 90.000000
_cell_angle_beta 143.316006
_cell_angle_gamma 90.000000
_cell_volume 1631.990435
_symmetry_space_group_name_H-M "C 2/C"
_symmetry_group_IT_number 15
_symmetry_cell_setting 'monoclinic'
loop_
_space_group_symop_operation_xyz
x,y,z
-x,y,1/2-z
-x,-y,-z
x,-y,1/2+z
1/2+x,1/2+y,z
1/2-x,1/2+y,1/2-z
1/2-x,1/2-y,-z
1/2+x,1/2-y,1/2+z
loop_
_atom_site_type_symbol
_atom_site_label
_atom_site_fract_x
_atom_site_fract_y
_atom_site_fract_z
Si Si1 0.008191 0.727477 0.534571
Si Si2 0.911825 0.929083 0.288601
Si Si3 0.296461 0.799455 0.238794
Si Si4 0.346169 0.832405 0.915319
Si Si5 0.276116 0.490689 0.283459
O O1 0.960200 0.828131 0.407997
O O2 0.077980 0.697568 0.526969
O O3 0.909038 0.660633 0.379306
O O4 0.082523 0.724888 0.826681
O O5 0.810799 0.946353 0.193512
O O6 0.128556 0.949293 0.459734
O O7 0.000000 0.000000 0.500000
O O8 0.257747 0.733133 0.302844
O O9 0.256813 0.905937 0.171458
O O10 0.250000 0.750000 0.000000
O O11 0.319634 0.936957 0.923302
#
# Coordination Sequence:
#
# PCOD8140053 Si02
#       5
#     8   8   8   8   8
#     4  10  21  40  68  92 141 192 224 285 351 419
#     4  12  24  40  73 107 137 180 242 291 351 409
#     4  10  20  40  65  95 136 183 223 283 347 407
#     4  10  21  40  66  95 139 178 233 280 353 409
#     4  12  25  43  71 107 138 184 234 292 349 427
#
# _framework density 24.509947
#
# number of rings (size 3 to 8) (size 9 to 14) (size 15 to 20)
#    0.000    1.200    2.000    6.600    2.800    1.600 
#    0.000    0.000    0.000    0.000    0.000    0.000 
#    0.000    0.000    0.000    0.000    0.000    0.000 
#
# Total GULP energy -247778.816859 kJ/mol
# GULP energy per Si atom -12388.940843 kJ/mol
# Density = 2.445416 g / cm^3
# Si number density = 24.509947 Si / 1000 Ang^3
#
#
#
# Elastic Constant Matrix: (Units=GPa)
#
#
# Indices 1 2 3 4 5 6 
#
# 1 75.5103 5.4552 20.1691 0.0000 57.4055 0.0000
# 2 5.4552 129.9126 18.9132 0.0000 21.4735 0.0000
# 3 20.1691 18.9132 56.0681 0.0000 25.8891 0.0000
# 4 0.0000 0.0000 0.0000 46.4399 0.0000 19.2776
# 5 57.4055 21.4735 25.8891 0.0000 54.8140 0.0000
# 6 0.0000 0.0000 0.0000 19.2776 0.0000 39.1792
#
#
#
# Elastic Compliance Matrix: (Units=1/GPa)
#
#
# Indices 1 2 3 4 5 6 
#
# 1 0.081653 0.010668 0.010799 0.000000 -0.094793 0.000000
# 2 0.010668 0.009745 -0.000260 0.000000 -0.014867 0.000000
# 3 0.010799 -0.000260 0.024572 0.000000 -0.022814 0.000000
# 4 0.000000 0.000000 0.000000 0.027060 0.000000 -0.013315
# 5 -0.094793 -0.014867 -0.022814 0.000000 0.134117 0.000000
# 6 0.000000 0.000000 0.000000 -0.013315 0.000000 0.032075
#
#
# Mechanical properties :
#
#
# Convention : Reuss Voigt Hill
#
# Bulk Modulus (GPa) = 6.31380 38.95179 22.63279
# Shear Modulus (GPa) = 15.64437 42.55017 29.09727
#
# Velocity S-wave (km/s) = 2.52917 4.17110 3.44926
# Velocity P-wave (km/s) = 3.33325 6.25493 5.01172
#
# Compressibility (1/GPa) = 0.15838334
#
# Stress axis : x y z
#
# Youngs Moduli (GPa) = 12.24696 102.61971 40.69590
#
# Poissons Ratio (x) = -1.09471 -0.43947
# Poissons Ratio (y) = -0.13065 0.01058
# Poissons Ratio (z) = -0.13225 0.02668
#
# Static dielectric constant tensor:
#      x y z
#    x 5.906950 0.000000 1.199940 
#    y 0.000000 4.367440 0.000000 
#    z 1.199940 0.000000 4.728070 
# 
# 
# High freq. dielectric constant tensor:
#      x y z
#    x 1.987030 0.000000 0.038880 
#    y 0.000000 1.968420 0.000000 
#    z 0.038880 0.000000 1.959490 
# 
# From -- ./inp_files/172810.got.cif
#   From: 2010.06.25/outbox.cif.g09.slc.cpg/sg15_87_cif.got.tgz:172810.got - 2010.06.28 07:06:18.
