data_PCOD8140191
_publ_section_title
;
Structure prediction by ZEFSAII (Michael W. Deem and Ramdas Pophale) SiO2 
 PCOD8140191
Probable space group: C 2/C
;
_chemical_formula_sum "Si O2"
_cell_formula_units_Z 36
_cell_length_a 8.188943
_cell_length_b 21.494801
_cell_length_c 9.969037
_cell_angle_alpha 90.000000
_cell_angle_beta 110.859010
_cell_angle_gamma 90.000000
_cell_volume 1639.739826
_symmetry_space_group_name_H-M "C 2/C"
_symmetry_group_IT_number 15
_symmetry_cell_setting 'monoclinic'
loop_
_space_group_symop_operation_xyz
x,y,z
-x,y,1/2-z
-x,-y,-z
x,-y,1/2+z
1/2+x,1/2+y,z
1/2-x,1/2+y,1/2-z
1/2-x,1/2-y,-z
1/2+x,1/2-y,1/2+z
loop_
_atom_site_type_symbol
_atom_site_label
_atom_site_fract_x
_atom_site_fract_y
_atom_site_fract_z
Si Si1 0.145119 0.806154 0.033285
Si Si2 0.830558 0.586865 0.488563
Si Si3 0.135796 0.454508 0.913456
Si Si4 0.805414 0.852233 0.819010
Si Si5 0.500000 0.756185 0.750000
O O1 0.045486 0.788732 0.139879
O O2 0.250000 0.750000 0.000000
O O3 0.284724 0.863478 0.093792
O O4 0.997787 0.824208 0.881848
O O5 0.768115 0.518297 0.515284
O O6 0.727533 0.617196 0.334522
O O7 0.034112 0.577413 0.509631
O O8 0.291053 0.408162 0.921687
O O9 0.000000 0.464908 0.750000
O O10 0.666156 0.799959 0.822303
#
# Coordination Sequence:
#
# PCOD8140191 Si02
#       5
#     8   8   8   8   4
#     4  12  25  42  64  99 134 182 227 271 339 399
#     4  10  20  40  68  99 128 178 219 273 346 393
#     4   9  19  41  68  99 131 169 222 278 341 400
#     4  11  21  44  69  92 137 173 222 285 333 399
#     4  12  24  44  64 100 132 180 228 276 338 392
#
# _framework density 21.954702999999999
#
# number of rings (size 3 to 8) (size 9 to 14) (size 15 to 20)
#    0.000    1.333    5.556    1.333    0.000    0.889 
#   16.000    0.000    0.000    0.000    0.000    0.000 
#    0.000    0.000    0.000    0.000    0.000    0.000 
#
# Total GULP energy -223003.956139 kJ/mol
# GULP energy per Si atom -12389.108674 kJ/mol
# Density = 2.190473 g / cm^3
# Si number density = 21.954703 Si / 1000 Ang^3
#
#
#
# Elastic Constant Matrix: (Units=GPa)
#
#
# Indices 1 2 3 4 5 6 
#
# 1 102.3333 82.3341 37.2069 0.0000 -0.3883 0.0000
# 2 82.3341 180.4400 53.1336 0.0000 -0.5168 0.0000
# 3 37.2069 53.1336 56.7361 0.0000 -18.6024 0.0000
# 4 0.0000 0.0000 0.0000 46.2178 0.0000 -17.8717
# 5 -0.3883 -0.5168 -18.6024 0.0000 30.8062 0.0000
# 6 0.0000 0.0000 0.0000 -17.8717 0.0000 42.2951
#
#
#
# Elastic Compliance Matrix: (Units=1/GPa)
#
#
# Indices 1 2 3 4 5 6 
#
# 1 0.016878 -0.005584 -0.007232 0.000000 -0.004248 0.000000
# 2 -0.005584 0.010243 -0.007353 0.000000 -0.004339 0.000000
# 3 -0.007232 -0.007353 0.036388 0.000000 0.021758 0.000000
# 4 0.000000 0.000000 0.000000 0.025862 0.000000 0.010928
# 5 -0.004248 -0.004339 0.021758 0.000000 0.045474 0.000000
# 6 0.000000 0.000000 0.000000 0.010928 0.000000 0.028261
#
#
# Mechanical properties :
#
#
# Convention : Reuss Voigt Hill
#
# Bulk Modulus (GPa) = 43.15653 76.09538 59.62595
# Shear Modulus (GPa) = 23.67796 34.98615 29.33205
#
# Velocity S-wave (km/s) = 3.28760 3.99627 3.65913
# Velocity P-wave (km/s) = 5.84045 7.48525 6.71341
#
# Compressibility (1/GPa) = 0.02317146
#
# Stress axis : x y z
#
# Youngs Moduli (GPa) = 59.24901 97.62995 27.48155
#
# Poissons Ratio (x) = 0.54517 0.19874
# Poissons Ratio (y) = 0.33085 0.20207
# Poissons Ratio (z) = 0.42847 0.71787
#
# Static dielectric constant tensor:
#      x y z
#    x 4.330190 0.000000 -0.491770 
#    y 0.000000 4.479250 0.000000 
#    z -0.491770 0.000000 3.934040 
# 
# 
# High freq. dielectric constant tensor:
#      x y z
#    x 1.877740 0.000000 -0.031230 
#    y 0.000000 1.881310 0.000000 
#    z -0.031230 0.000000 1.826490 
# 
# From -- ./inp_files/76591.got.cif
#   From: 2010.06.25/outbox.cif.g09.slc.cpg/sg15_39_cif.got.tgz:76591.got - 2010.06.28 07:06:18.
