data_PCOD8140894
_publ_section_title
;
Structure prediction by ZEFSAII (Michael W. Deem and Ramdas Pophale) SiO2 
 PCOD8140894
Probable space group: C 2/C
;
_chemical_formula_sum "Si O2"
_cell_formula_units_Z 56
_cell_length_a 30.870519
_cell_length_b 8.623963
_cell_length_c 22.484604
_cell_angle_alpha 90.000000
_cell_angle_beta 154.111525
_cell_angle_gamma 90.000000
_cell_volume 2613.608379
_symmetry_space_group_name_H-M "C 2/C"
_symmetry_group_IT_number 15
_symmetry_cell_setting 'monoclinic'
loop_
_space_group_symop_operation_xyz
x,y,z
-x,y,1/2-z
-x,-y,-z
x,-y,1/2+z
1/2+x,1/2+y,z
1/2-x,1/2+y,1/2-z
1/2-x,1/2-y,-z
1/2+x,1/2-y,1/2+z
loop_
_atom_site_type_symbol
_atom_site_label
_atom_site_fract_x
_atom_site_fract_y
_atom_site_fract_z
Si Si1 0.788108 0.856844 0.235293
Si Si2 0.000000 0.505422 0.250000
Si Si3 0.706759 0.207247 0.132277
Si Si4 0.036081 0.296156 0.606584
Si Si5 0.395583 0.859671 0.325424
Si Si6 0.500000 0.497594 0.750000
Si Si7 0.486955 0.760592 0.322042
Si Si8 0.905557 0.247809 0.559317
O O1 0.817354 0.784052 0.334347
O O2 0.886712 0.839254 0.316504
O O3 0.752307 0.034512 0.196217
O O4 0.701742 0.748335 0.102601
O O5 0.056784 0.402027 0.270781
O O6 0.914578 0.605394 0.113497
O O7 0.780330 0.319062 0.187317
O O8 0.605233 0.207204 0.970202
O O9 0.092282 0.460760 0.676363
O O10 0.944285 0.312043 0.448115
O O11 0.992422 0.251989 0.616831
O O12 0.442669 0.752636 0.332762
O O13 0.544274 0.394599 0.751253
O O14 0.414607 0.599280 0.613308
#
# Coordination Sequence:
#
# PCOD8140894 Si02
#       8
#     8   4   8   8   8   4   8   8
#     4  12  25  41  69 103 136 172 219 280 340 396
#     4  10  20  46  70  82 128 204 212 256 318 410
#     4  12  25  41  69 103 136 172 219 280 340 396
#     4  11  23  41  69 102 135 173 218 277 343 398
#     4  11  23  41  69 102 135 173 218 277 343 398
#     4  10  28  42  74  94 132 188 228 276 314 394
#     4  11  23  47  68  95 138 177 228 266 335 394
#     4  11  23  47  68  95 138 177 228 266 335 394
#
# _framework density 21.426316
#
# number of rings (size 3 to 8) (size 9 to 14) (size 15 to 20)
#    0.000    0.857    5.714    0.857    6.000    0.571 
#    0.000    8.571    0.000    0.000    0.000    0.000 
#    0.000    0.000    0.000    0.000    0.000    0.000 
#
# Total GULP energy -347192.090546 kJ/mol
# GULP energy per Si atom -12399.717520 kJ/mol
# Density = 2.137755 g / cm^3
# Si number density = 21.426316 Si / 1000 Ang^3
#
#
#
# Elastic Constant Matrix: (Units=GPa)
#
#
# Indices 1 2 3 4 5 6 
#
# 1 93.0270 39.0157 59.0916 0.0000 0.2589 0.0000
# 2 39.0157 101.2389 25.6827 0.0000 -16.6957 0.0000
# 3 59.0916 25.6827 61.9346 0.0000 -1.4355 0.0000
# 4 0.0000 0.0000 0.0000 22.9114 0.0000 4.0057
# 5 0.2589 -16.6957 -1.4355 0.0000 36.3005 0.0000
# 6 0.0000 0.0000 0.0000 4.0057 0.0000 19.8834
#
#
#
# Elastic Compliance Matrix: (Units=1/GPa)
#
#
# Indices 1 2 3 4 5 6 
#
# 1 0.029592 -0.005403 -0.026079 0.000000 -0.003727 0.000000
# 2 -0.005403 0.012971 -0.000085 0.000000 0.006001 0.000000
# 3 -0.026079 -0.000085 0.041104 0.000000 0.001772 0.000000
# 4 0.000000 0.000000 0.000000 0.045240 0.000000 -0.009114
# 5 -0.003727 0.006001 0.001772 0.000000 0.030404 0.000000
# 6 0.000000 0.000000 0.000000 -0.009114 0.000000 0.052129
#
#
# Mechanical properties :
#
#
# Convention : Reuss Voigt Hill
#
# Bulk Modulus (GPa) = 48.70158 55.97561 52.33859
# Shear Modulus (GPa) = 17.76710 24.64644 21.20677
#
# Velocity S-wave (km/s) = 2.88274 3.39527 3.14945
# Velocity P-wave (km/s) = 5.81888 6.44608 6.14049
#
# Compressibility (1/GPa) = 0.02053322
#
# Stress axis : x y z
#
# Youngs Moduli (GPa) = 33.79323 77.09545 24.32825
#
# Poissons Ratio (x) = 0.41654 0.63446
# Poissons Ratio (y) = 0.18258 0.00206
# Poissons Ratio (z) = 0.88130 0.00653
#
# Static dielectric constant tensor:
#      x y z
#    x 3.847000 0.000000 -0.209180 
#    y 0.000000 4.043100 0.000000 
#    z -0.209180 0.000000 3.805870 
# 
# 
# High freq. dielectric constant tensor:
#      x y z
#    x 1.837310 0.000000 -0.020710 
#    y 0.000000 1.851880 0.000000 
#    z -0.020710 0.000000 1.834720 
# 
# From -- ./inp_files/259047.got.cif
#   From: 2010.06.25/outbox.cif.g09.slc.cpg/sg15_130_cif.got.tgz:259047.got - 2010.06.28 07:06:18.
