data_PCOD8140265
_publ_section_title
;
Structure prediction by ZEFSAII (Michael W. Deem and Ramdas Pophale) SiO2 
 PCOD8140265
Probable space group: C 2/C
;
_chemical_formula_sum "Si O2"
_cell_formula_units_Z 56
_cell_length_a 9.146604
_cell_length_b 13.199138
_cell_length_c 23.431085
_cell_angle_alpha 90.000000
_cell_angle_beta 68.408461
_cell_angle_gamma 90.000000
_cell_volume 2630.278840
_symmetry_space_group_name_H-M "C 2/C"
_symmetry_group_IT_number 15
_symmetry_cell_setting 'monoclinic'
loop_
_space_group_symop_operation_xyz
x,y,z
-x,y,1/2-z
-x,-y,-z
x,-y,1/2+z
1/2+x,1/2+y,z
1/2-x,1/2+y,1/2-z
1/2-x,1/2-y,-z
1/2+x,1/2-y,1/2+z
loop_
_atom_site_type_symbol
_atom_site_label
_atom_site_fract_x
_atom_site_fract_y
_atom_site_fract_z
Si Si1 0.874121 0.866511 0.217757
Si Si2 0.696250 0.018947 0.831033
Si Si3 0.271854 0.011138 0.490324
Si Si4 0.173116 0.157324 0.406659
Si Si5 0.960026 0.976632 0.873702
Si Si6 0.490097 0.159624 0.186703
Si Si7 0.539836 0.864711 0.452282
O O1 0.722182 0.921255 0.267428
O O2 0.928787 0.926976 0.154122
O O3 0.858888 0.749275 0.200385
O O4 0.000000 0.865275 0.250000
O O5 0.647924 0.100824 0.884488
O O6 0.850143 0.960531 0.833722
O O7 0.560832 0.935893 0.843699
O O8 0.197294 0.060601 0.444679
O O9 0.402222 0.088829 0.496125
O O10 0.134079 0.993703 0.554776
O O11 0.360227 0.902602 0.466552
O O12 0.341211 0.199154 0.360699
O O13 0.067282 0.243843 0.452558
O O14 0.073217 0.120033 0.366164
O O15 0.500000 0.121706 0.250000
#
# Coordination Sequence:
#
# PCOD8140265 Si02
#       7
#     8   8   8   8   8   8   8
#     4   9  19  37  61  83 115 158 200 243 301 364
#     4  10  20  41  60  86 122 156 198 254 304 366
#     4  10  21  40  58  87 123 160 205 244 302 369
#     4  12  22  38  62  92 118 160 203 252 309 364
#     4  10  22  39  57  86 125 159 194 253 310 359
#     4  11  21  37  63  91 113 158 211 247 300 374
#     4  10  21  38  63  87 121 158 204 253 298 363
#
# _framework density 21.290517999999999
#
# number of rings (size 3 to 8) (size 9 to 14) (size 15 to 20)
#    0.000    1.714    1.429    5.143    0.000    0.571 
#    2.571    0.000    0.000    0.000    0.000    0.000 
#    0.000    0.000    0.000    0.000    0.000    0.000 
#
# Total GULP energy -347062.060408 kJ/mol
# GULP energy per Si atom -12395.073586 kJ/mol
# Density = 2.124206 g / cm^3
# Si number density = 21.290518 Si / 1000 Ang^3
#
#
#
# Elastic Constant Matrix: (Units=GPa)
#
#
# Indices 1 2 3 4 5 6 
#
# 1 52.4072 33.7443 26.2807 0.0000 -1.3486 0.0000
# 2 33.7443 85.2462 18.8266 0.0000 -0.5374 0.0000
# 3 26.2807 18.8266 80.9084 0.0000 -18.1842 0.0000
# 4 0.0000 0.0000 0.0000 31.2718 0.0000 -2.8649
# 5 -1.3486 -0.5374 -18.1842 0.0000 23.3678 0.0000
# 6 0.0000 0.0000 0.0000 -2.8649 0.0000 33.9192
#
#
#
# Elastic Compliance Matrix: (Units=1/GPa)
#
#
# Indices 1 2 3 4 5 6 
#
# 1 0.029531 -0.009857 -0.008443 0.000000 -0.005093 0.000000
# 2 -0.009857 0.015766 -0.000622 0.000000 -0.000690 0.000000
# 3 -0.008443 -0.000622 0.018342 0.000000 0.013772 0.000000
# 4 0.000000 0.000000 0.000000 0.032227 0.000000 0.002722
# 5 -0.005093 -0.000690 0.013772 0.000000 0.053201 0.000000
# 6 0.000000 0.000000 0.000000 0.002722 0.000000 0.029712
#
#
# Mechanical properties :
#
#
# Convention : Reuss Voigt Hill
#
# Bulk Modulus (GPa) = 38.76805 41.80720 40.28763
# Shear Modulus (GPa) = 22.20037 27.02577 24.61307
#
# Velocity S-wave (km/s) = 3.23264 3.56670 3.40377
# Velocity P-wave (km/s) = 5.67291 6.05318 5.86613
#
# Compressibility (1/GPa) = 0.02579444
#
# Stress axis : x y z
#
# Youngs Moduli (GPa) = 33.86241 63.42907 54.51942
#
# Poissons Ratio (x) = 0.62523 0.46032
# Poissons Ratio (y) = 0.33379 0.03390
# Poissons Ratio (z) = 0.28591 0.03944
#
# Static dielectric constant tensor:
#      x y z
#    x 3.785090 0.000000 -0.111230 
#    y 0.000000 3.837750 0.000000 
#    z -0.111230 0.000000 3.856870 
# 
# 
# High freq. dielectric constant tensor:
#      x y z
#    x 1.811040 0.000000 -0.010100 
#    y 0.000000 1.824650 0.000000 
#    z -0.010100 0.000000 1.841320 
# 
# From -- ./inp_files/264237.got.cif
#   From: 2010.06.25/outbox.cif.g09.slc.cpg/sg15_133_cif.got.tgz:264237.got - 2010.06.28 07:06:18.
