data_PCOD8140642
_publ_section_title
;
Structure prediction by ZEFSAII (Michael W. Deem and Ramdas Pophale) SiO2 
 PCOD8140642
Probable space group: C 2/C
;
_chemical_formula_sum "Si O2"
_cell_formula_units_Z 36
_cell_length_a 31.845286
_cell_length_b 10.786038
_cell_length_c 15.651302
_cell_angle_alpha 90.000000
_cell_angle_beta 162.790544
_cell_angle_gamma 90.000000
_cell_volume 1590.567837
_symmetry_space_group_name_H-M "C 2/C"
_symmetry_group_IT_number 15
_symmetry_cell_setting 'monoclinic'
loop_
_space_group_symop_operation_xyz
x,y,z
-x,y,1/2-z
-x,-y,-z
x,-y,1/2+z
1/2+x,1/2+y,z
1/2-x,1/2+y,1/2-z
1/2-x,1/2-y,-z
1/2+x,1/2-y,1/2+z
loop_
_atom_site_type_symbol
_atom_site_label
_atom_site_fract_x
_atom_site_fract_y
_atom_site_fract_z
Si Si1 0.435930 0.280599 0.217287
Si Si2 0.566178 0.933550 0.048246
Si Si3 0.121531 0.060707 0.389207
Si Si4 0.000000 0.421651 0.250000
Si Si5 0.353977 0.698691 0.898054
O O1 0.500000 0.246664 0.250000
O O2 0.525617 0.211708 0.465215
O O3 0.445440 0.425719 0.252738
O O4 0.277736 0.222045 0.919543
O O5 0.495971 0.995550 0.827298
O O6 0.500000 0.000000 0.000000
O O7 0.736248 0.936114 0.390357
O O8 0.170597 0.085535 0.582959
O O9 0.998192 0.161958 0.125226
O O10 0.132552 0.326910 0.521109
#
# Coordination Sequence:
#
# PCOD8140642 Si02
#       5
#     8   8   8   4   8
#     4  12  21  38  71  92 124 173 213 267 324 379
#     4  12  25  41  67  99 132 175 218 263 324 388
#     4  10  21  40  62  97 129 163 223 261 319 388
#     4  10  20  42  68  88 138 164 214 276 318 378
#     4  10  21  38  70  96 124 172 217 266 329 382
#
# _framework density 22.633426
#
# number of rings (size 3 to 8) (size 9 to 14) (size 15 to 20)
#    0.000    1.333    7.778    0.000    0.000    0.889 
#    0.000    5.556    0.000    0.000    0.000    0.000 
#    0.000    0.000    0.000    0.000    0.000    0.000 
#
# Total GULP energy -223007.772760 kJ/mol
# GULP energy per Si atom -12389.320709 kJ/mol
# Density = 2.258191 g / cm^3
# Si number density = 22.633426 Si / 1000 Ang^3
#
#
#
# Elastic Constant Matrix: (Units=GPa)
#
#
# Indices 1 2 3 4 5 6 
#
# 1 69.0476 6.7212 31.8754 0.0000 12.9719 0.0000
# 2 6.7212 116.4961 26.4866 0.0000 -2.7013 0.0000
# 3 31.8754 26.4866 96.3776 0.0000 31.9388 0.0000
# 4 0.0000 0.0000 0.0000 36.6273 0.0000 4.9924
# 5 12.9719 -2.7013 31.9388 0.0000 33.5574 0.0000
# 6 0.0000 0.0000 0.0000 4.9924 0.0000 8.2253
#
#
#
# Elastic Compliance Matrix: (Units=1/GPa)
#
#
# Indices 1 2 3 4 5 6 
#
# 1 0.017169 0.000139 -0.005143 0.000000 -0.001731 0.000000
# 2 0.000139 0.009665 -0.004297 0.000000 0.004815 0.000000
# 3 -0.005143 -0.004297 0.018571 0.000000 -0.016033 0.000000
# 4 0.000000 0.000000 0.000000 0.029764 0.000000 -0.018066
# 5 -0.001731 0.004815 -0.016033 0.000000 0.046116 0.000000
# 6 0.000000 0.000000 0.000000 -0.018066 0.000000 0.132542
#
#
# Mechanical properties :
#
#
# Convention : Reuss Voigt Hill
#
# Bulk Modulus (GPa) = 37.31180 45.78752 41.54966
# Shear Modulus (GPa) = 17.77060 30.13787 23.95423
#
# Velocity S-wave (km/s) = 2.80509 3.65302 3.25677
# Velocity P-wave (km/s) = 5.19735 6.16982 5.70435
#
# Compressibility (1/GPa) = 0.02680117
#
# Stress axis : x y z
#
# Youngs Moduli (GPa) = 58.24606 103.46949 53.84723
#
# Poissons Ratio (x) = -0.01434 0.27692
# Poissons Ratio (y) = -0.00807 0.23140
# Poissons Ratio (z) = 0.29954 0.44465
#
# Static dielectric constant tensor:
#      x y z
#    x 3.555050 0.000000 0.245550 
#    y 0.000000 4.351470 0.000000 
#    z 0.245550 0.000000 4.305640 
# 
# 
# High freq. dielectric constant tensor:
#      x y z
#    x 1.832010 0.000000 0.022910 
#    y 0.000000 1.916110 0.000000 
#    z 0.022910 0.000000 1.895850 
# 
# From -- ./inp_files/181861.got.cif
#   From: 2010.06.25/outbox.cif.g09.slc.cpg/sg15_91_cif.got.tgz:181861.got - 2010.06.28 07:06:18.
