data_PCOD8140561
_publ_section_title
;
Structure prediction by ZEFSAII (Michael W. Deem and Ramdas Pophale) SiO2 
 PCOD8140561
Probable space group: C 2/C
;
_chemical_formula_sum "Si O2"
_cell_formula_units_Z 40
_cell_length_a 15.973418
_cell_length_b 24.335068
_cell_length_c 13.483968
_cell_angle_alpha 90.000000
_cell_angle_beta 160.532038
_cell_angle_gamma 90.000000
_cell_volume 1746.855617
_symmetry_space_group_name_H-M "C 2/C"
_symmetry_group_IT_number 15
_symmetry_cell_setting 'monoclinic'
loop_
_space_group_symop_operation_xyz
x,y,z
-x,y,1/2-z
-x,-y,-z
x,-y,1/2+z
1/2+x,1/2+y,z
1/2-x,1/2+y,1/2-z
1/2-x,1/2-y,-z
1/2+x,1/2-y,1/2+z
loop_
_atom_site_type_symbol
_atom_site_label
_atom_site_fract_x
_atom_site_fract_y
_atom_site_fract_z
Si Si1 0.000000 0.854563 0.750000
Si Si2 0.500000 0.390866 0.250000
Si Si3 0.404612 0.868901 0.838957
Si Si4 0.242667 0.455054 0.137710
Si Si5 0.713121 0.216531 0.781923
Si Si6 0.827628 0.924438 0.738575
O O1 0.784422 0.816820 0.460283
O O2 0.863440 0.892888 0.676392
O O3 0.679013 0.349698 0.513977
O O4 0.362061 0.431392 0.171856
O O5 0.315155 0.881772 0.850145
O O6 0.483577 0.924797 0.871968
O O7 0.628161 0.824300 0.097623
O O8 0.410114 0.443447 0.421759
O O9 0.174149 0.519319 0.048101
O O10 0.467297 0.253482 0.529387
#
# Coordination Sequence:
#
# PCOD8140561 Si02
#       6
#     4   4   8   8   8   8
#     4  12  23  48  72 110 146 192 238 297 364 450
#     4  10  23  40  72  94 140 186 238 291 370 422
#     4  11  23  45  68 100 142 189 241 309 356 431
#     4  10  20  42  65 104 143 189 232 286 360 435
#     4  12  28  49  76 105 143 194 250 314 372 426
#     4  10  22  38  69 103 148 188 232 280 363 444
#
# _framework density 22.898285999999999
#
# number of rings (size 3 to 8) (size 9 to 14) (size 15 to 20)
#    0.000    1.200    2.000    3.600    2.800    2.400 
#    7.200    1.000    0.000    0.000    0.000    0.000 
#    0.000    0.000    0.000    0.000    0.000    0.000 
#
# Total GULP energy -247927.415156 kJ/mol
# GULP energy per Si atom -12396.370758 kJ/mol
# Density = 2.284617 g / cm^3
# Si number density = 22.898286 Si / 1000 Ang^3
#
#
#
# Elastic Constant Matrix: (Units=GPa)
#
#
# Indices 1 2 3 4 5 6 
#
# 1 116.8386 40.1934 45.4011 -0.0008 -4.4694 -0.0033
# 2 40.1934 120.4971 68.1010 -0.0091 -7.7387 -0.0075
# 3 45.4011 68.1010 130.7199 -0.0014 -13.7726 -0.0065
# 4 -0.0008 -0.0091 -0.0014 78.8901 -0.0034 41.4955
# 5 -4.4694 -7.7387 -13.7726 -0.0034 40.4901 -0.0042
# 6 -0.0033 -0.0075 -0.0065 41.4955 -0.0042 59.5087
#
#
#
# Elastic Compliance Matrix: (Units=1/GPa)
#
#
# Indices 1 2 3 4 5 6 
#
# 1 0.010220 -0.001989 -0.002525 0.000000 -0.000111 0.000000
# 2 -0.001989 0.012150 -0.005619 0.000001 0.000191 0.000000
# 3 -0.002525 -0.005619 0.011732 -0.000001 0.002638 0.000001
# 4 0.000000 0.000001 -0.000001 0.020018 0.000000 -0.013958
# 5 -0.000111 0.000191 0.002638 0.000000 0.025619 0.000002
# 6 0.000000 0.000000 0.000001 -0.013958 0.000002 0.026537
#
#
# Mechanical properties :
#
#
# Convention : Reuss Voigt Hill
#
# Bulk Modulus (GPa) = 72.27295 75.04963 73.66129
# Shear Modulus (GPa) = 38.12277 50.06847 44.09562
#
# Velocity S-wave (km/s) = 4.08471 4.68114 4.39306
# Velocity P-wave (km/s) = 7.34014 7.87806 7.61385
#
# Compressibility (1/GPa) = 0.01383644
#
# Stress axis : x y z
#
# Youngs Moduli (GPa) = 97.84739 82.30192 85.23579
#
# Poissons Ratio (x) = 0.16371 0.21522
# Poissons Ratio (y) = 0.19463 0.47894
# Poissons Ratio (z) = 0.24707 0.46245
#
# Static dielectric constant tensor:
#      x y z
#    x 4.017460 0.000000 -0.116530 
#    y 0.000000 4.213030 -0.000010 
#    z -0.116530 -0.000010 4.422560 
# 
# 
# High freq. dielectric constant tensor:
#      x y z
#    x 1.905020 0.000000 -0.007560 
#    y 0.000000 1.892850 0.000000 
#    z -0.007560 0.000000 1.920490 
# 
# From -- ./inp_files/164151.got.cif
#   From: 2010.06.25/outbox.cif.g09.slc.cpg/sg15_83_cif.got.tgz:164151.got - 2010.06.28 07:06:18.
