data_PCOD8140638
_publ_section_title
;
Structure prediction by ZEFSAII (Michael W. Deem and Ramdas Pophale) SiO2 
 PCOD8140638
Probable space group: C 2/C
;
_chemical_formula_sum "Si O2"
_cell_formula_units_Z 60
_cell_length_a 12.345014
_cell_length_b 13.162549
_cell_length_c 18.893671
_cell_angle_alpha 90.000000
_cell_angle_beta 64.446348
_cell_angle_gamma 90.000000
_cell_volume 2769.758967
_symmetry_space_group_name_H-M "C 2/C"
_symmetry_group_IT_number 15
_symmetry_cell_setting 'monoclinic'
loop_
_space_group_symop_operation_xyz
x,y,z
-x,y,1/2-z
-x,-y,-z
x,-y,1/2+z
1/2+x,1/2+y,z
1/2-x,1/2+y,1/2-z
1/2-x,1/2-y,-z
1/2+x,1/2-y,1/2+z
loop_
_atom_site_type_symbol
_atom_site_label
_atom_site_fract_x
_atom_site_fract_y
_atom_site_fract_z
Si Si1 0.327686 0.295222 0.379865
Si Si2 0.584904 0.692525 0.009632
Si Si3 0.356159 0.880684 0.421112
Si Si4 0.287503 0.265690 0.726151
Si Si5 0.500000 0.825626 0.250000
Si Si6 0.261829 0.086046 0.468079
Si Si7 0.611473 0.445657 0.878401
Si Si8 0.927634 0.827547 0.142053
O O1 0.249921 0.305093 0.330322
O O2 0.316881 0.185687 0.418432
O O3 0.288603 0.388252 0.440690
O O4 0.470437 0.307557 0.327738
O O5 0.570211 0.803278 0.049810
O O6 0.517415 0.611332 0.079293
O O7 0.721260 0.662177 0.955778
O O8 0.519917 0.698049 0.951224
O O9 0.413633 0.890174 0.326142
O O10 0.358745 0.995162 0.451138
O O11 0.416514 0.241397 0.722669
O O12 0.295629 0.381188 0.696114
O O13 0.184213 0.248238 0.813262
O O14 0.159398 0.040872 0.444983
O O15 0.606800 0.554202 0.842559
#
# Coordination Sequence:
#
# PCOD8140638 Si02
#       8
#     8   8   8   8   4   8   8   8
#     4  10  23  41  68  94 137 167 224 276 323 398
#     4  11  21  38  68 102 124 165 229 276 313 390
#     4  11  23  39  66 100 134 174 221 271 334 393
#     4  11  25  44  62  97 134 175 213 276 339 391
#     4  12  22  46  64  90 144 174 210 280 338 392
#     4  10  20  42  67  98 128 179 215 268 333 395
#     4  11  21  42  73  91 132 176 222 266 337 395
#     4  12  22  44  69 100 130 178 221 275 331 406
#
# _framework density 21.662535999999999
#
# number of rings (size 3 to 8) (size 9 to 14) (size 15 to 20)
#    0.000    1.067    5.333    1.600    0.000    0.000 
#   12.000    1.333    0.000    0.000    0.000    0.000 
#    0.000    0.000    0.000    0.000    0.000    0.000 
#
# Total GULP energy -371873.428744 kJ/mol
# GULP energy per Si atom -12395.780958 kJ/mol
# Density = 2.161323 g / cm^3
# Si number density = 21.662536 Si / 1000 Ang^3
#
#
#
# Elastic Constant Matrix: (Units=GPa)
#
#
# Indices 1 2 3 4 5 6 
#
# 1 107.1854 30.0135 26.5391 0.0000 10.2457 0.0000
# 2 30.0135 99.1064 40.5977 0.0000 -1.4468 0.0000
# 3 26.5391 40.5977 93.2320 0.0000 -9.7797 0.0000
# 4 0.0000 0.0000 0.0000 26.6034 0.0000 1.2295
# 5 10.2457 -1.4468 -9.7797 0.0000 37.9206 0.0000
# 6 0.0000 0.0000 0.0000 1.2295 0.0000 24.5588
#
#
#
# Elastic Compliance Matrix: (Units=1/GPa)
#
#
# Indices 1 2 3 4 5 6 
#
# 1 0.010956 -0.002356 -0.002480 0.000000 -0.003690 0.000000
# 2 -0.002356 0.012820 -0.004927 0.000000 -0.000145 0.000000
# 3 -0.002480 -0.004927 0.014007 0.000000 0.004094 0.000000
# 4 0.000000 0.000000 0.000000 0.037676 0.000000 -0.001886
# 5 -0.003690 -0.000145 0.004094 0.000000 0.028418 0.000000
# 6 0.000000 0.000000 0.000000 -0.001886 0.000000 0.040813
#
#
# Mechanical properties :
#
#
# Convention : Reuss Voigt Hill
#
# Bulk Modulus (GPa) = 54.77317 54.86938 54.82128
# Shear Modulus (GPa) = 29.35974 31.30812 30.33393
#
# Velocity S-wave (km/s) = 3.68547 3.80579 3.74611
# Velocity P-wave (km/s) = 6.59165 6.68552 6.63875
#
# Compressibility (1/GPa) = 0.01825711
#
# Stress axis : x y z
#
# Youngs Moduli (GPa) = 91.27403 78.00440 71.39424
#
# Poissons Ratio (x) = 0.18378 0.17705
# Poissons Ratio (y) = 0.21504 0.35175
# Poissons Ratio (z) = 0.22634 0.38432
#
# Static dielectric constant tensor:
#      x y z
#    x 3.959550 0.000000 0.061510 
#    y 0.000000 3.905540 0.000000 
#    z 0.061510 0.000000 3.985780 
# 
# 
# High freq. dielectric constant tensor:
#      x y z
#    x 1.847550 0.000000 -0.004200 
#    y 0.000000 1.840910 0.000000 
#    z -0.004200 0.000000 1.851480 
# 
# From -- ./inp_files/198277.got.cif
#   From: 2010.06.25/outbox.cif.g09.slc.cpg/sg15_100_cif.got.tgz:198277.got - 2010.06.28 07:06:18.
