data_PCOD8140523
_publ_section_title
;
Structure prediction by ZEFSAII (Michael W. Deem and Ramdas Pophale) SiO2 
 PCOD8140523
Probable space group: C 2/C
;
_chemical_formula_sum "Si O2"
_cell_formula_units_Z 56
_cell_length_a 22.954566
_cell_length_b 9.240568
_cell_length_c 17.320962
_cell_angle_alpha 90.000000
_cell_angle_beta 127.573700
_cell_angle_gamma 90.000000
_cell_volume 2911.904911
_symmetry_space_group_name_H-M "C 2/C"
_symmetry_group_IT_number 15
_symmetry_cell_setting 'monoclinic'
loop_
_space_group_symop_operation_xyz
x,y,z
-x,y,1/2-z
-x,-y,-z
x,-y,1/2+z
1/2+x,1/2+y,z
1/2-x,1/2+y,1/2-z
1/2-x,1/2-y,-z
1/2+x,1/2-y,1/2+z
loop_
_atom_site_type_symbol
_atom_site_label
_atom_site_fract_x
_atom_site_fract_y
_atom_site_fract_z
Si Si1 0.809553 0.299911 0.335078
Si Si2 0.189126 0.826714 0.500271
Si Si3 0.980600 0.665465 0.986618
Si Si4 0.545027 0.844641 0.865126
Si Si5 0.315888 0.638041 0.064065
Si Si6 0.244466 0.599072 0.156995
Si Si7 0.907857 0.664612 0.548284
O O1 0.795031 0.205584 0.398413
O O2 0.896785 0.313571 0.392721
O O3 0.768456 0.452489 0.307253
O O4 0.770942 0.225885 0.232707
O O5 0.250000 0.750000 0.500000
O O6 0.114096 0.758197 0.408648
O O7 0.191308 0.999616 0.496850
O O8 0.033947 0.737365 0.965205
O O9 0.994651 0.714095 0.087697
O O10 0.000000 0.500000 0.000000
O O11 0.500000 0.829288 0.750000
O O12 0.566546 0.012408 0.894995
O O13 0.310037 0.579917 0.147030
O O14 0.392518 0.720904 0.105516
O O15 0.250000 0.750000 0.000000
O O16 0.167922 0.643025 0.057290
#
# Coordination Sequence:
#
# PCOD8140523 Si02
#       7
#     8   8   8   8   8   8   8
#     4  11  23  38  64  96 125 165 217 265 322 379
#     4  11  20  42  63  85 127 167 205 269 314 377
#     4   9  18  40  62  85 127 167 212 265 306 387
#     4  10  21  38  63  93 120 170 222 254 319 383
#     4  10  22  38  62  91 124 162 211 264 321 374
#     4  11  22  40  58  98 127 157 218 262 318 388
#     4  10  20  42  63  88 131 166 214 269 316 381
#
# _framework density 19.231397000000001
#
# number of rings (size 3 to 8) (size 9 to 14) (size 15 to 20)
#    0.000    1.714    5.714    0.857    4.000    3.429 
#    0.000    5.000    0.000    0.000    0.000    0.000 
#    0.000    0.000    0.000    0.000    0.000    0.000 
#
# Total GULP energy -346946.341363 kJ/mol
# GULP energy per Si atom -12390.940763 kJ/mol
# Density = 1.918763 g / cm^3
# Si number density = 19.231397 Si / 1000 Ang^3
#
#
#
# Elastic Constant Matrix: (Units=GPa)
#
#
# Indices 1 2 3 4 5 6 
#
# 1 156.8428 41.1431 23.3864 0.0000 -11.4246 0.0000
# 2 41.1431 88.1722 5.5863 0.0000 -0.0980 0.0000
# 3 23.3864 5.5863 78.6124 0.0000 -6.3260 0.0000
# 4 0.0000 0.0000 0.0000 34.6574 0.0000 -3.0214
# 5 -11.4246 -0.0980 -6.3260 0.0000 12.8107 0.0000
# 6 0.0000 0.0000 0.0000 -3.0214 0.0000 37.9604
#
#
#
# Elastic Compliance Matrix: (Units=1/GPa)
#
#
# Indices 1 2 3 4 5 6 
#
# 1 0.008034 -0.003639 -0.001621 0.000000 0.006336 0.000000
# 2 -0.003639 0.013042 -0.000101 0.000000 -0.003195 0.000000
# 3 -0.001621 -0.000101 0.013636 0.000000 0.005287 0.000000
# 4 0.000000 0.000000 0.000000 0.029055 0.000000 0.002313
# 5 0.006336 -0.003195 0.005287 0.000000 0.086296 0.000000
# 6 0.000000 0.000000 0.000000 0.002313 0.000000 0.026527
#
#
# Mechanical properties :
#
#
# Convention : Reuss Voigt Hill
#
# Bulk Modulus (GPa) = 41.68753 51.53990 46.61371
# Shear Modulus (GPa) = 25.60032 33.98648 29.79340
#
# Velocity S-wave (km/s) = 3.65248 4.20841 3.94027
# Velocity P-wave (km/s) = 6.28581 7.10439 6.70760
#
# Compressibility (1/GPa) = 0.02398799
#
# Stress axis : x y z
#
# Youngs Moduli (GPa) = 124.47622 76.67353 73.33724
#
# Poissons Ratio (x) = 0.27901 0.11892
# Poissons Ratio (y) = 0.45296 0.00744
# Poissons Ratio (z) = 0.20184 0.00777
#
# Static dielectric constant tensor:
#      x y z
#    x 10.658500 0.000000 -1.050550 
#    y 0.000000 3.771330 0.000000 
#    z -1.050550 0.000000 3.276670 
# 
# 
# High freq. dielectric constant tensor:
#      x y z
#    x 1.771710 0.000000 -0.014820 
#    y 0.000000 1.741790 0.000000 
#    z -0.014820 0.000000 1.727390 
# 
# From -- ./inp_files/218660.got.cif
#   From: 2010.06.25/outbox.cif.g09.slc.cpg/sg15_110_cif.got.tgz:218660.got - 2010.06.28 07:06:18.
