data_PCOD8140421
_publ_section_title
;
Structure prediction by ZEFSAII (Michael W. Deem and Ramdas Pophale) SiO2 
 PCOD8140421
Probable space group: C 2/C
;
_chemical_formula_sum "Si O2"
_cell_formula_units_Z 32
_cell_length_a 9.734523
_cell_length_b 10.316937
_cell_length_c 14.721624
_cell_angle_alpha 90.000000
_cell_angle_beta 66.836832
_cell_angle_gamma 90.000000
_cell_volume 1359.315256
_symmetry_space_group_name_H-M "C 2/C"
_symmetry_group_IT_number 15
_symmetry_cell_setting 'monoclinic'
loop_
_space_group_symop_operation_xyz
x,y,z
-x,y,1/2-z
-x,-y,-z
x,-y,1/2+z
1/2+x,1/2+y,z
1/2-x,1/2+y,1/2-z
1/2-x,1/2-y,-z
1/2+x,1/2-y,1/2+z
loop_
_atom_site_type_symbol
_atom_site_label
_atom_site_fract_x
_atom_site_fract_y
_atom_site_fract_z
Si Si1 0.950601 0.011010 0.410188
Si Si2 0.340691 0.863843 0.525771
Si Si3 0.062956 0.290304 0.328862
Si Si4 0.102387 0.240486 0.798014
O O1 0.768693 0.011860 0.450000
O O2 0.017656 0.140643 0.349525
O O3 0.000000 0.000000 0.500000
O O4 0.011250 0.889316 0.341109
O O5 0.250000 0.750000 0.500000
O O6 0.494387 0.880237 0.428339
O O7 0.377872 0.830597 0.619818
O O8 0.240411 0.301571 0.285754
O O9 0.000000 0.344248 0.250000
O O10 0.000000 0.316003 0.750000
#
# Coordination Sequence:
#
# PCOD8140421 Si02
#       4
#     8   8   8   8
#     4  11  20  42  73  99 135 185 230 283 353 399
#     4  10  20  41  68 100 142 180 229 291 338 411
#     4  11  20  41  70  96 140 184 232 280 340 418
#     4  12  25  40  69 106 140 181 232 289 344 411
#
# _framework density 23.541264000000002
#
# number of rings (size 3 to 8) (size 9 to 14) (size 15 to 20)
#    0.000    1.000   10.000    0.750    0.000    1.000 
#    0.000    5.000    0.000    0.000    0.000    0.000 
#    0.000    0.000    0.000    0.000    0.000    0.000 
#
# Total GULP energy -198386.585468 kJ/mol
# GULP energy per Si atom -12399.161592 kJ/mol
# Density = 2.348768 g / cm^3
# Si number density = 23.541264 Si / 1000 Ang^3
#
#
#
# Elastic Constant Matrix: (Units=GPa)
#
#
# Indices 1 2 3 4 5 6 
#
# 1 214.2480 23.0770 111.6137 0.0000 -0.8472 0.0000
# 2 23.0770 45.2497 22.2931 0.0000 -6.5883 0.0000
# 3 111.6137 22.2931 185.4067 0.0000 -5.7817 0.0000
# 4 0.0000 0.0000 0.0000 24.7948 0.0000 -11.9272
# 5 -0.8472 -6.5883 -5.7817 0.0000 58.2820 0.0000
# 6 0.0000 0.0000 0.0000 -11.9272 0.0000 46.0533
#
#
#
# Elastic Compliance Matrix: (Units=1/GPa)
#
#
# Indices 1 2 3 4 5 6 
#
# 1 0.006916 -0.001635 -0.003982 0.000000 -0.000479 0.000000
# 2 -0.001635 0.024212 -0.001848 0.000000 0.002530 0.000000
# 3 -0.003982 -0.001848 0.008029 0.000000 0.000530 0.000000
# 4 0.000000 0.000000 0.000000 0.046071 0.000000 0.011932
# 5 -0.000479 0.002530 0.000530 0.000000 0.017490 0.000000
# 6 0.000000 0.000000 0.000000 0.011932 0.000000 0.024804
#
#
# Mechanical properties :
#
#
# Convention : Reuss Voigt Hill
#
# Bulk Modulus (GPa) = 41.27503 84.31913 62.79708
# Shear Modulus (GPa) = 33.21647 45.02073 39.11860
#
# Velocity S-wave (km/s) = 3.76039 4.37786 4.08082
# Velocity P-wave (km/s) = 6.03532 7.83898 6.99553
#
# Compressibility (1/GPa) = 0.02422773
#
# Stress axis : x y z
#
# Youngs Moduli (GPa) = 144.59153 41.30125 124.54467
#
# Poissons Ratio (x) = 0.06754 0.49590
# Poissons Ratio (y) = 0.23644 0.23016
# Poissons Ratio (z) = 0.57573 0.07632
#
# Static dielectric constant tensor:
#      x y z
#    x 5.466530 0.000000 -0.172840 
#    y 0.000000 4.326560 0.000000 
#    z -0.172840 0.000000 4.860660 
# 
# 
# High freq. dielectric constant tensor:
#      x y z
#    x 1.949820 0.000000 0.000640 
#    y 0.000000 1.895520 0.000000 
#    z 0.000640 0.000000 1.956660 
# 
# From -- ./inp_files/131927.got.cif
#   From: 2010.06.25/outbox.cif.g09.slc.cpg/sg15_66_cif.got.tgz:131927.got - 2010.06.28 07:06:18.
