data_PCOD8140419
_publ_section_title
;
Structure prediction by ZEFSAII (Michael W. Deem and Ramdas Pophale) SiO2 
 PCOD8140419
Probable space group: C 2/C
;
_chemical_formula_sum "Si O2"
_cell_formula_units_Z 56
_cell_length_a 14.281744
_cell_length_b 19.839373
_cell_length_c 12.001729
_cell_angle_alpha 90.000000
_cell_angle_beta 49.272622
_cell_angle_gamma 90.000000
_cell_volume 2577.036598
_symmetry_space_group_name_H-M "C 2/C"
_symmetry_group_IT_number 15
_symmetry_cell_setting 'monoclinic'
loop_
_space_group_symop_operation_xyz
x,y,z
-x,y,1/2-z
-x,-y,-z
x,-y,1/2+z
1/2+x,1/2+y,z
1/2-x,1/2+y,1/2-z
1/2-x,1/2-y,-z
1/2+x,1/2-y,1/2+z
loop_
_atom_site_type_symbol
_atom_site_label
_atom_site_fract_x
_atom_site_fract_y
_atom_site_fract_z
Si Si1 0.137888 0.907242 0.120025
Si Si2 0.109532 0.191976 0.435924
Si Si3 0.364417 0.729055 0.525592
Si Si4 0.957173 0.444115 0.118745
Si Si5 0.810382 0.157036 0.362191
Si Si6 0.702828 0.035319 0.558574
Si Si7 0.790635 0.668087 0.679738
O O1 0.183927 0.869385 0.194059
O O2 0.000000 0.937064 0.250000
O O3 0.128748 0.855969 0.024932
O O4 0.242450 0.962344 0.012163
O O5 0.133263 0.148870 0.304644
O O6 0.193692 0.257995 0.387324
O O7 0.972718 0.222152 0.530957
O O8 0.323212 0.807042 0.549328
O O9 0.395639 0.703898 0.376224
O O10 0.252651 0.681746 0.659416
O O11 0.830178 0.464725 0.283823
O O12 0.918959 0.374725 0.085117
O O13 0.075342 0.438953 0.104653
O O14 0.000000 0.500000 0.000000
O O15 0.804740 0.086197 0.431176
#
# Coordination Sequence:
#
# PCOD8140419 Si02
#       7
#     8   8   8   8   8   8   8
#     4  12  26  45  65  94 143 186 230 275 336 415
#     4  11  24  40  68  97 131 178 230 280 338 409
#     4  10  20  41  67  98 131 170 218 287 343 402
#     4  11  23  44  70  94 136 175 228 283 337 413
#     4  10  22  40  67  98 134 164 225 275 345 404
#     4  11  25  43  66 103 132 177 224 279 347 404
#     4  11  22  45  67  96 134 179 229 283 339 400
#
# _framework density 21.730385999999999
#
# number of rings (size 3 to 8) (size 9 to 14) (size 15 to 20)
#    0.000    1.143    4.286    1.714    2.000    1.143 
#    0.000    2.143    0.000    0.000    0.000    0.000 
#    0.000    0.000    0.000    0.000    0.000    0.000 
#
# Total GULP energy -346898.142513 kJ/mol
# GULP energy per Si atom -12389.219375 kJ/mol
# Density = 2.168093 g / cm^3
# Si number density = 21.730386 Si / 1000 Ang^3
#
#
#
# Elastic Constant Matrix: (Units=GPa)
#
#
# Indices 1 2 3 4 5 6 
#
# 1 98.1765 22.8698 10.0235 0.0000 1.0702 0.0000
# 2 22.8698 97.6451 38.9836 0.0000 0.9356 0.0000
# 3 10.0235 38.9836 91.5364 0.0000 7.7510 0.0000
# 4 0.0000 0.0000 0.0000 26.2588 0.0000 2.9313
# 5 1.0702 0.9356 7.7510 0.0000 31.6476 0.0000
# 6 0.0000 0.0000 0.0000 2.9313 0.0000 23.2217
#
#
#
# Elastic Compliance Matrix: (Units=1/GPa)
#
#
# Indices 1 2 3 4 5 6 
#
# 1 0.010777 -0.002481 -0.000101 0.000000 -0.000266 0.000000
# 2 -0.002481 0.012938 -0.005323 0.000000 0.001005 0.000000
# 3 -0.000101 -0.005323 0.013469 0.000000 -0.003138 0.000000
# 4 0.000000 0.000000 0.000000 0.038627 0.000000 -0.004876
# 5 -0.000266 0.001005 -0.003138 0.000000 0.032346 0.000000
# 6 0.000000 0.000000 0.000000 -0.004876 0.000000 0.043679
#
#
# Mechanical properties :
#
#
# Convention : Reuss Voigt Hill
#
# Bulk Modulus (GPa) = 46.78950 47.90133 47.34542
# Shear Modulus (GPa) = 28.60905 30.59104 29.60004
#
# Velocity S-wave (km/s) = 3.63236 3.75608 3.69474
# Velocity P-wave (km/s) = 6.25864 6.39548 6.32743
#
# Compressibility (1/GPa) = 0.02137232
#
# Stress axis : x y z
#
# Youngs Moduli (GPa) = 92.79074 77.29152 74.24722
#
# Poissons Ratio (x) = 0.19178 0.00748
# Poissons Ratio (y) = 0.23024 0.39525
# Poissons Ratio (z) = 0.00935 0.41146
#
# Static dielectric constant tensor:
#      x y z
#    x 3.217160 0.000000 -0.103730 
#    y 0.000000 3.793720 0.000000 
#    z -0.103730 0.000000 4.014370 
# 
# 
# High freq. dielectric constant tensor:
#      x y z
#    x 1.850460 0.000000 0.002520 
#    y 0.000000 1.847630 0.000000 
#    z 0.002520 0.000000 1.858200 
# 
# From -- ./inp_files/98665.got.cif
#   From: 2010.06.25/outbox.cif.g09.slc.cpg/sg15_50_cif.got.tgz:98665.got - 2010.06.28 07:06:18.
