data_PCOD8140762
_publ_section_title
;
Structure prediction by ZEFSAII (Michael W. Deem and Ramdas Pophale) SiO2 
 PCOD8140762
Probable space group: C 2/C
;
_chemical_formula_sum "Si O2"
_cell_formula_units_Z 44
_cell_length_a 18.906012
_cell_length_b 10.885939
_cell_length_c 30.116580
_cell_angle_alpha 90.000000
_cell_angle_beta 159.816737
_cell_angle_gamma 90.000000
_cell_volume 2138.556993
_symmetry_space_group_name_H-M "C 2/C"
_symmetry_group_IT_number 15
_symmetry_cell_setting 'monoclinic'
loop_
_space_group_symop_operation_xyz
x,y,z
-x,y,1/2-z
-x,-y,-z
x,-y,1/2+z
1/2+x,1/2+y,z
1/2-x,1/2+y,1/2-z
1/2-x,1/2-y,-z
1/2+x,1/2-y,1/2+z
loop_
_atom_site_type_symbol
_atom_site_label
_atom_site_fract_x
_atom_site_fract_y
_atom_site_fract_z
Si Si1 0.084639 0.459867 0.003565
Si Si2 0.154888 0.627028 0.404250
Si Si3 0.550917 0.230861 0.137736
Si Si4 0.000000 0.169012 0.750000
Si Si5 0.613683 0.147389 0.861319
Si Si6 0.003681 0.309318 0.395930
O O1 0.315775 0.422877 0.149845
O O2 0.076809 0.565813 0.961846
O O3 0.000000 0.500000 0.000000
O O4 0.956253 0.338421 0.913773
O O5 0.399492 0.651564 0.551018
O O6 0.127689 0.499151 0.363234
O O7 0.041371 0.623879 0.384711
O O8 0.040671 0.742534 0.315202
O O9 0.780184 0.274261 0.283077
O O10 0.500000 0.198883 0.750000
O O11 0.494196 0.179115 0.836621
O O12 0.841612 0.201806 0.998447
#
# Coordination Sequence:
#
# PCOD8140762 Si02
#       6
#     8   8   8   4   8   8
#     4  11  24  40  64  95 128 168 216 262 315 383
#     4  10  20  43  66  92 126 166 213 265 315 379
#     4  10  23  41  65  93 126 171 213 263 318 378
#     4  10  22  40  66  92 124 166 214 260 314 372
#     4  11  25  44  66  93 132 169 213 267 326 380
#     4  11  26  43  65  97 131 170 214 266 324 380
#
# _framework density 20.574622000000002
#
# number of rings (size 3 to 8) (size 9 to 14) (size 15 to 20)
#    0.000    1.455    2.727    1.091    6.364    1.455 
#    0.000    1.818    0.000    0.000    0.000    0.000 
#    0.000    0.000    0.000    0.000    0.000    0.000 
#
# Total GULP energy -272725.155583 kJ/mol
# GULP energy per Si atom -12396.597981 kJ/mol
# Density = 2.052779 g / cm^3
# Si number density = 20.574622 Si / 1000 Ang^3
#
#
#
# Elastic Constant Matrix: (Units=GPa)
#
#
# Indices 1 2 3 4 5 6 
#
# 1 111.8910 42.5464 54.0070 -0.0003 -6.7377 0.0055
# 2 42.5464 96.5225 65.3178 0.0139 10.2494 0.0009
# 3 54.0070 65.3178 155.3977 0.0494 9.6129 0.0083
# 4 -0.0003 0.0139 0.0494 27.2059 -0.0178 -7.3908
# 5 -6.7377 10.2494 9.6129 -0.0178 32.2898 -0.0016
# 6 0.0055 0.0009 0.0083 -7.3908 -0.0016 27.3275
#
#
#
# Elastic Compliance Matrix: (Units=1/GPa)
#
#
# Indices 1 2 3 4 5 6 
#
# 1 0.012063 -0.003879 -0.002846 0.000011 0.004596 0.000002
# 2 -0.003879 0.015986 -0.005101 -0.000001 -0.004365 0.000001
# 3 -0.002846 -0.005101 0.009683 -0.000018 -0.001857 -0.000007
# 4 0.000011 -0.000001 -0.000018 0.039672 0.000031 0.010729
# 5 0.004596 -0.004365 -0.001857 0.000031 0.033867 0.000010
# 6 0.000002 0.000001 -0.000007 0.010729 0.000010 0.039495
#
#
# Mechanical properties :
#
#
# Convention : Reuss Voigt Hill
#
# Bulk Modulus (GPa) = 71.02736 76.39486 73.71111
# Shear Modulus (GPa) = 27.91569 30.82731 29.37150
#
# Velocity S-wave (km/s) = 3.68748 3.87501 3.78240
# Velocity P-wave (km/s) = 7.26132 7.56519 7.41481
#
# Compressibility (1/GPa) = 0.01407908
#
# Stress axis : x y z
#
# Youngs Moduli (GPa) = 82.89940 62.55630 103.27163
#
# Poissons Ratio (x) = 0.24267 0.29392
# Poissons Ratio (y) = 0.32159 0.52678
# Poissons Ratio (z) = 0.23594 0.31910
#
# Static dielectric constant tensor:
#      x y z
#    x 3.847660 0.000030 -0.191030 
#    y 0.000030 3.718620 0.000000 
#    z -0.191030 0.000000 3.628260 
# 
# 
# High freq. dielectric constant tensor:
#      x y z
#    x 1.809430 0.000000 -0.009000 
#    y 0.000000 1.809200 0.000000 
#    z -0.009000 0.000000 1.805810 
# 
# From -- ./inp_files/104101.got.cif
#   From: 2010.06.25/outbox.cif.g09.slc.cpg/sg15_53_cif.got.tgz:104101.got - 2010.06.28 07:06:18.
