data_PCOD8140582
_publ_section_title
;
Structure prediction by ZEFSAII (Michael W. Deem and Ramdas Pophale) SiO2 
 PCOD8140582
Probable space group: C 2/C
;
_chemical_formula_sum "Si O2"
_cell_formula_units_Z 60
_cell_length_a 30.267904
_cell_length_b 11.647502
_cell_length_c 8.542422
_cell_angle_alpha 90.000000
_cell_angle_beta 62.473969
_cell_angle_gamma 90.000000
_cell_volume 2670.682844
_symmetry_space_group_name_H-M "C 2/C"
_symmetry_group_IT_number 15
_symmetry_cell_setting 'monoclinic'
loop_
_space_group_symop_operation_xyz
x,y,z
-x,y,1/2-z
-x,-y,-z
x,-y,1/2+z
1/2+x,1/2+y,z
1/2-x,1/2+y,1/2-z
1/2-x,1/2-y,-z
1/2+x,1/2-y,1/2+z
loop_
_atom_site_type_symbol
_atom_site_label
_atom_site_fract_x
_atom_site_fract_y
_atom_site_fract_z
Si Si1 0.498427 0.271943 0.933132
Si Si2 0.677802 0.461396 0.788425
Si Si3 0.606906 0.281986 0.757309
Si Si4 0.259398 0.618437 0.032083
Si Si5 0.000000 0.626287 0.250000
Si Si6 0.602731 0.061401 0.977793
Si Si7 0.391268 0.332283 0.080948
Si Si8 0.650053 0.122182 0.206978
O O1 0.500000 0.217798 0.750000
O O2 0.551350 0.338793 0.870492
O O3 0.493007 0.190603 0.094641
O O4 0.449622 0.353233 0.026394
O O5 0.652371 0.365047 0.724669
O O6 0.721234 0.535709 0.637246
O O7 0.701245 0.392615 0.893557
O O8 0.633134 0.544890 0.913126
O O9 0.614691 0.253617 0.562812
O O10 0.607254 0.162154 0.844575
O O11 0.204345 0.579231 0.174094
O O12 0.250000 0.750000 0.000000
O O13 0.049382 0.550567 0.150045
O O14 0.645155 0.086684 0.035083
O O15 0.609853 0.940802 0.881114
O O16 0.361037 0.260119 0.263062
#
# Coordination Sequence:
#
# PCOD8140582 Si02
#       8
#     8   8   8   8   4   8   8   8
#     4   9  20  39  68 100 144 188 234 288 364 434
#     4  12  25  44  73 102 135 181 240 295 361 425
#     4  10  23  43  66 101 140 180 234 290 355 438
#     4  12  26  47  70 102 139 188 241 300 365 433
#     4  10  20  42  66 108 140 196 244 292 364 436
#     4  11  24  42  69 103 139 188 237 294 358 435
#     4  11  22  44  68  99 138 183 230 296 354 434
#     4  12  24  44  68  97 141 185 239 296 360 426
#
# _framework density 22.466166000000001
#
# number of rings (size 3 to 8) (size 9 to 14) (size 15 to 20)
#    0.000    1.067    4.000    2.400    0.000    1.067 
#    3.600    2.000    1.467    0.000    0.000    0.000 
#    0.000    0.000    0.000    0.000    0.000    0.000 
#
# Total GULP energy -371641.824030 kJ/mol
# GULP energy per Si atom -12388.060801 kJ/mol
# Density = 2.241503 g / cm^3
# Si number density = 22.466166 Si / 1000 Ang^3
#
#
#
# Elastic Constant Matrix: (Units=GPa)
#
#
# Indices 1 2 3 4 5 6 
#
# 1 130.2396 35.4570 23.1069 0.0000 -3.4199 0.0000
# 2 35.4570 80.4762 15.9629 0.0000 -2.0377 0.0000
# 3 23.1069 15.9629 85.2074 0.0000 3.1512 0.0000
# 4 0.0000 0.0000 0.0000 30.5223 0.0000 -3.8722
# 5 -3.4199 -2.0377 3.1512 0.0000 45.3072 0.0000
# 6 0.0000 0.0000 0.0000 -3.8722 0.0000 33.8409
#
#
#
# Elastic Compliance Matrix: (Units=1/GPa)
#
#
# Indices 1 2 3 4 5 6 
#
# 1 0.008990 -0.003590 -0.001789 0.000000 0.000642 0.000000
# 2 -0.003590 0.014364 -0.001736 0.000000 0.000496 0.000000
# 3 -0.001789 -0.001736 0.012587 0.000000 -0.001089 0.000000
# 4 0.000000 0.000000 0.000000 0.033246 0.000000 0.003804
# 5 0.000642 0.000496 -0.001089 0.000000 0.022218 0.000000
# 6 0.000000 0.000000 0.000000 0.003804 0.000000 0.029985
#
#
# Mechanical properties :
#
#
# Convention : Reuss Voigt Hill
#
# Bulk Modulus (GPa) = 46.05853 49.44188 47.75021
# Shear Modulus (GPa) = 35.00022 36.69385 35.84703
#
# Velocity S-wave (km/s) = 3.95132 4.04579 3.99883
# Velocity P-wave (km/s) = 6.43141 6.62417 6.52850
#
# Compressibility (1/GPa) = 0.02171150
#
# Stress axis : x y z
#
# Youngs Moduli (GPa) = 111.23867 69.61617 79.44878
#
# Poissons Ratio (x) = 0.24990 0.14214
# Poissons Ratio (y) = 0.39931 0.13792
# Poissons Ratio (z) = 0.19902 0.12085
#
# Static dielectric constant tensor:
#      x y z
#    x 4.699270 0.000000 -0.119600 
#    y 0.000000 3.654550 0.000000 
#    z -0.119600 0.000000 4.264340 
# 
# 
# High freq. dielectric constant tensor:
#      x y z
#    x 1.911120 0.000000 -0.001530 
#    y 0.000000 1.852830 0.000000 
#    z -0.001530 0.000000 1.897660 
# 
# From -- ./inp_files/69336.got.cif
#   From: 2010.06.25/outbox.cif.g09.slc.cpg/sg15_35_cif.got.tgz:69336.got - 2010.06.28 07:06:18.
