data_PCOD8140772
_publ_section_title
;
Structure prediction by ZEFSAII (Michael W. Deem and Ramdas Pophale) SiO2 
 PCOD8140772
Probable space group: C 2/C
;
_chemical_formula_sum "Si O2"
_cell_formula_units_Z 56
_cell_length_a 8.583698
_cell_length_b 26.079418
_cell_length_c 12.014505
_cell_angle_alpha 90.000000
_cell_angle_beta 103.767092
_cell_angle_gamma 90.000000
_cell_volume 2612.273734
_symmetry_space_group_name_H-M "C 2/C"
_symmetry_group_IT_number 15
_symmetry_cell_setting 'monoclinic'
loop_
_space_group_symop_operation_xyz
x,y,z
-x,y,1/2-z
-x,-y,-z
x,-y,1/2+z
1/2+x,1/2+y,z
1/2-x,1/2+y,1/2-z
1/2-x,1/2-y,-z
1/2+x,1/2-y,1/2+z
loop_
_atom_site_type_symbol
_atom_site_label
_atom_site_fract_x
_atom_site_fract_y
_atom_site_fract_z
Si Si1 0.645453 0.553879 0.361346
Si Si2 0.836501 0.467626 0.486494
Si Si3 0.675625 0.100192 0.294684
Si Si4 0.815077 0.199480 0.229137
Si Si5 0.738004 0.351158 0.001420
Si Si6 0.327746 0.693625 0.770523
Si Si7 0.430175 0.118195 0.853865
O O1 0.500000 0.546981 0.250000
O O2 0.681934 0.504249 0.442999
O O3 0.798659 0.564626 0.309079
O O4 0.622343 0.601597 0.442955
O O5 0.807744 0.436198 0.595359
O O6 0.826142 0.427513 0.385174
O O7 0.000000 0.500000 0.500000
O O8 0.500000 0.123778 0.250000
O O9 0.794708 0.149842 0.307969
O O10 0.708673 0.246570 0.253609
O O11 0.000000 0.215333 0.250000
O O12 0.755287 0.190283 0.094242
O O13 0.672094 0.325406 0.102069
O O14 0.921517 0.369383 0.041152
O O15 0.500000 0.679977 0.750000
O O16 0.186151 0.666430 0.678539
O O17 0.500000 0.098357 0.750000
#
# Coordination Sequence:
#
# PCOD8140772 Si02
#       7
#     8   8   8   8   8   8   8
#     4  11  25  42  65  98 135 176 227 280 340 400
#     4  12  23  41  68  98 130 182 224 282 339 399
#     4  11  22  39  67  98 132 173 234 277 332 405
#     4  11  23  44  69  98 137 180 227 282 341 406
#     4  10  20  43  67  93 129 182 219 269 343 410
#     4  11  25  42  67 101 136 172 225 289 343 405
#     4  10  23  41  67  93 132 175 228 272 342 412
#
# _framework density 21.437263000000002
#
# number of rings (size 3 to 8) (size 9 to 14) (size 15 to 20)
#    0.000    1.143    2.857    4.714    2.000    3.429 
#    0.000    3.571    0.000    0.857    0.000    0.000 
#    0.000    0.000    0.000    0.000    0.000    0.000 
#
# Total GULP energy -347071.749866 kJ/mol
# GULP energy per Si atom -12395.419638 kJ/mol
# Density = 2.138847 g / cm^3
# Si number density = 21.437263 Si / 1000 Ang^3
#
#
#
# Elastic Constant Matrix: (Units=GPa)
#
#
# Indices 1 2 3 4 5 6 
#
# 1 79.5554 27.9793 36.4528 0.0000 -5.6445 0.0000
# 2 27.9793 134.0653 65.0491 0.0000 -12.0710 0.0000
# 3 36.4528 65.0491 110.9457 0.0000 7.4630 0.0000
# 4 0.0000 0.0000 0.0000 33.7785 0.0000 -14.4576
# 5 -5.6445 -12.0710 7.4630 0.0000 35.5062 0.0000
# 6 0.0000 0.0000 0.0000 -14.4576 0.0000 -20.0449
#
#
#
# Elastic Compliance Matrix: (Units=1/GPa)
#
#
# Indices 1 2 3 4 5 6 
#
# 1 0.015240 -0.000484 -0.004945 0.000000 0.003298 0.000000
# 2 -0.000484 0.011353 -0.006849 0.000000 0.005222 0.000000
# 3 -0.004945 -0.006849 0.015077 0.000000 -0.006283 0.000000
# 4 0.000000 0.000000 0.000000 0.022621 0.000000 -0.016316
# 5 0.003298 0.005222 -0.006283 0.000000 0.031784 0.000000
# 6 0.000000 0.000000 0.000000 -0.016316 0.000000 -0.038120
#
#
# Mechanical properties :
#
#
# Convention : Reuss Voigt Hill
#
# Bulk Modulus (GPa) = 58.43408 64.83655 61.63532
# Shear Modulus (GPa) = 56.67856 22.85365 39.76610
#
# Velocity S-wave (km/s) = 5.14749 3.26862 4.31164
# Velocity P-wave (km/s) = 7.91494 6.67500 7.32126
#
# Compressibility (1/GPa) = 0.01711330
#
# Stress axis : x y z
#
# Youngs Moduli (GPa) = 65.61649 88.07913 66.32833
#
# Poissons Ratio (x) = 0.04265 0.32801
# Poissons Ratio (y) = 0.03177 0.45427
# Poissons Ratio (z) = 0.32449 0.60324
#
# Static dielectric constant tensor:
#      x y z
#    x 4.194020 0.000000 0.176050 
#    y 0.000000 3.947960 0.000000 
#    z 0.176050 0.000000 4.035840 
# 
# 
# High freq. dielectric constant tensor:
#      x y z
#    x 1.838370 0.000000 0.003280 
#    y 0.000000 1.846340 0.000000 
#    z 0.003280 0.000000 1.846240 
# 
# From -- ./inp_files/81446.got.cif
#   From: 2010.06.25/outbox.cif.g09.slc.cpg/sg15_41_cif.got.tgz:81446.got - 2010.06.28 07:06:18.
