data_PCOD8140321
_publ_section_title
;
Structure prediction by ZEFSAII (Michael W. Deem and Ramdas Pophale) SiO2 
 PCOD8140321
Probable space group: C 2/C
;
_chemical_formula_sum "Si O2"
_cell_formula_units_Z 48
_cell_length_a 21.767570
_cell_length_b 18.032248
_cell_length_c 9.719129
_cell_angle_alpha 90.000000
_cell_angle_beta 139.878896
_cell_angle_gamma 90.000000
_cell_volume 2458.364601
_symmetry_space_group_name_H-M "C 2/C"
_symmetry_group_IT_number 15
_symmetry_cell_setting 'monoclinic'
loop_
_space_group_symop_operation_xyz
x,y,z
-x,y,1/2-z
-x,-y,-z
x,-y,1/2+z
1/2+x,1/2+y,z
1/2-x,1/2+y,1/2-z
1/2-x,1/2-y,-z
1/2+x,1/2-y,1/2+z
loop_
_atom_site_type_symbol
_atom_site_label
_atom_site_fract_x
_atom_site_fract_y
_atom_site_fract_z
Si Si1 0.883352 0.058146 0.676237
Si Si2 0.222368 0.321994 0.873945
Si Si3 0.049719 0.405928 0.702172
Si Si4 0.745929 0.817998 0.600103
Si Si5 0.423295 0.070026 0.732175
Si Si6 0.408061 0.425240 0.907973
O O1 0.797020 0.114728 0.543349
O O2 0.892406 0.039115 0.531044
O O3 0.864810 0.981156 0.721619
O O4 0.979168 0.092313 0.910308
O O5 0.119873 0.348881 0.749334
O O6 0.217376 0.296808 0.706475
O O7 0.250000 0.250000 0.000000
O O8 0.101664 0.483066 0.836772
O O9 0.000000 0.368331 0.750000
O O10 0.964110 0.423730 0.453685
O O11 0.750000 0.750000 0.500000
O O12 0.672505 0.881917 0.430916
O O13 0.853505 0.848488 0.790942
O O14 0.500000 0.097889 0.750000
#
# Coordination Sequence:
#
# PCOD8140321 Si02
#       6
#     8   8   8   8   8   8
#     4   9  19  38  62  84 115 148 196 246 289 342
#     4  11  24  40  55  89 124 158 200 244 296 360
#     4  10  22  39  66  92 115 155 203 255 306 355
#     4  11  24  39  58  86 125 163 197 240 299 358
#     4  10  20  41  64  88 119 155 203 255 301 352
#     4   9  19  38  61  87 112 151 195 243 291 343
#
# _framework density 19.525175999999998
#
# number of rings (size 3 to 8) (size 9 to 14) (size 15 to 20)
#    0.000    2.000    1.667    1.000    2.333    2.667 
#    3.000    0.000    0.000    0.000    0.000    0.000 
#    0.000    0.000    0.000    0.000    0.000    0.000 
#
# Total GULP energy -297491.040915 kJ/mol
# GULP energy per Si atom -12395.460038 kJ/mol
# Density = 1.948074 g / cm^3
# Si number density = 19.525176 Si / 1000 Ang^3
#
#
#
# Elastic Constant Matrix: (Units=GPa)
#
#
# Indices 1 2 3 4 5 6 
#
# 1 117.3774 45.2619 41.2644 0.0000 -13.8674 0.0000
# 2 45.2619 71.8089 38.6431 0.0000 -12.7350 0.0000
# 3 41.2644 38.6431 87.7194 0.0000 -16.9407 0.0000
# 4 0.0000 0.0000 0.0000 31.1164 0.0000 -9.2452
# 5 -13.8674 -12.7350 -16.9407 0.0000 31.8657 0.0000
# 6 0.0000 0.0000 0.0000 -9.2452 0.0000 27.7257
#
#
#
# Elastic Compliance Matrix: (Units=1/GPa)
#
#
# Indices 1 2 3 4 5 6 
#
# 1 0.011878 -0.005738 -0.002791 0.000000 0.001392 0.000000
# 2 -0.005738 0.021355 -0.006176 0.000000 0.002754 0.000000
# 3 -0.002791 -0.006176 0.016407 0.000000 0.005040 0.000000
# 4 0.000000 0.000000 0.000000 0.035672 0.000000 0.011895
# 5 0.001392 0.002754 0.005040 0.000000 0.035767 0.000000
# 6 0.000000 0.000000 0.000000 0.011895 0.000000 0.040034
#
#
# Mechanical properties :
#
#
# Convention : Reuss Voigt Hill
#
# Bulk Modulus (GPa) = 49.43384 58.58270 54.00827
# Shear Modulus (GPa) = 25.34657 28.25731 26.80194
#
# Velocity S-wave (km/s) = 3.60689 3.80837 3.70900
# Velocity P-wave (km/s) = 6.53599 7.02901 6.78698
#
# Compressibility (1/GPa) = 0.02022906
#
# Stress axis : x y z
#
# Youngs Moduli (GPa) = 84.19114 46.82829 60.94962
#
# Poissons Ratio (x) = 0.26870 0.17010
# Poissons Ratio (y) = 0.48308 0.37645
# Poissons Ratio (z) = 0.23497 0.28923
#
# Static dielectric constant tensor:
#      x y z
#    x 3.660470 0.000000 -0.046500 
#    y 0.000000 3.488890 0.000000 
#    z -0.046500 0.000000 3.650900 
# 
# 
# High freq. dielectric constant tensor:
#      x y z
#    x 1.768460 0.000000 -0.004530 
#    y 0.000000 1.738640 0.000000 
#    z -0.004530 0.000000 1.773600 
# 
# From -- ./inp_files/57960.got.cif
#   From: 2010.06.25/outbox.cif.g09.slc.cpg/sg15_29_cif.got.tgz:57960.got - 2010.06.28 07:06:18.
