data_PCOD8140173
_publ_section_title
;
Structure prediction by ZEFSAII (Michael W. Deem and Ramdas Pophale) SiO2 
 PCOD8140173
Probable space group: C 2/C
;
_chemical_formula_sum "Si O2"
_cell_formula_units_Z 52
_cell_length_a 11.831331
_cell_length_b 25.139775
_cell_length_c 9.220273
_cell_angle_alpha 90.000000
_cell_angle_beta 74.294932
_cell_angle_gamma 90.000000
_cell_volume 2640.068649
_symmetry_space_group_name_H-M "C 2/C"
_symmetry_group_IT_number 15
_symmetry_cell_setting 'monoclinic'
loop_
_space_group_symop_operation_xyz
x,y,z
-x,y,1/2-z
-x,-y,-z
x,-y,1/2+z
1/2+x,1/2+y,z
1/2-x,1/2+y,1/2-z
1/2-x,1/2-y,-z
1/2+x,1/2-y,1/2+z
loop_
_atom_site_type_symbol
_atom_site_label
_atom_site_fract_x
_atom_site_fract_y
_atom_site_fract_z
Si Si1 0.126165 0.038307 0.152656
Si Si2 0.207492 0.852715 0.723212
Si Si3 0.380488 0.098024 0.380021
Si Si4 0.377711 0.118842 0.718703
Si Si5 0.500000 0.726452 0.250000
Si Si6 0.229132 0.508887 0.653585
Si Si7 0.164548 0.297685 0.055899
O O1 0.135112 0.101556 0.165258
O O2 0.231283 0.012243 0.205682
O O3 0.000000 0.017648 0.250000
O O4 0.152235 0.019224 0.980579
O O5 0.264999 0.872867 0.853233
O O6 0.320686 0.836067 0.587894
O O7 0.109595 0.806761 0.778152
O O8 0.500000 0.110443 0.250000
O O9 0.388457 0.118854 0.541750
O O10 0.357787 0.034458 0.388888
O O11 0.500000 0.132424 0.750000
O O12 0.300633 0.168178 0.809788
O O13 0.338302 0.063374 0.800228
O O14 0.539639 0.767047 0.108106
O O15 0.250000 0.250000 0.000000
#
# Coordination Sequence:
#
# PCOD8140173 Si02
#       7
#     8   8   8   8   4   8   8
#     4  11  21  38  60  90 126 168 203 253 308 380
#     4  10  21  40  65  92 127 160 210 260 313 376
#     4  11  25  40  63  97 132 167 207 263 324 378
#     4  12  23  39  66  90 126 166 211 261 316 384
#     4  10  20  40  68  94 118 166 212 260 320 372
#     4  11  23  38  60  94 129 164 210 250 317 384
#     4  10  21  38  66  92 120 162 214 257 314 383
#
# _framework density 19.696458
#
# number of rings (size 3 to 8) (size 9 to 14) (size 15 to 20)
#    0.000    1.231    4.615    1.846    2.154    1.231 
#    0.000    3.077    3.385    0.000    0.000    0.000 
#    0.000    0.000    0.000    0.000    0.000    0.000 
#
# Total GULP energy -322110.498597 kJ/mol
# GULP energy per Si atom -12388.865331 kJ/mol
# Density = 1.965163 g / cm^3
# Si number density = 19.696458 Si / 1000 Ang^3
#
#
#
# Elastic Constant Matrix: (Units=GPa)
#
#
# Indices 1 2 3 4 5 6 
#
# 1 72.0950 33.2433 35.7909 0.0000 -8.0718 0.0000
# 2 33.2433 118.7879 53.5992 0.0000 -1.5453 0.0000
# 3 35.7909 53.5992 131.6990 0.0000 -5.1225 0.0000
# 4 0.0000 0.0000 0.0000 32.0229 0.0000 -8.8602
# 5 -8.0718 -1.5453 -5.1225 0.0000 29.8878 0.0000
# 6 0.0000 0.0000 0.0000 -8.8602 0.0000 25.8315
#
#
#
# Elastic Compliance Matrix: (Units=1/GPa)
#
#
# Indices 1 2 3 4 5 6 
#
# 1 0.017476 -0.003388 -0.003215 0.000000 0.003994 0.000000
# 2 -0.003388 0.010970 -0.003581 0.000000 -0.000962 0.000000
# 3 -0.003215 -0.003581 0.009950 0.000000 0.000652 0.000000
# 4 0.000000 0.000000 0.000000 0.034502 0.000000 0.011834
# 5 0.003994 -0.000962 0.000652 0.000000 0.034599 0.000000
# 6 0.000000 0.000000 0.000000 0.011834 0.000000 0.042772
#
#
# Mechanical properties :
#
#
# Convention : Reuss Voigt Hill
#
# Bulk Modulus (GPa) = 55.47286 63.09429 59.28358
# Shear Modulus (GPa) = 28.30519 30.87834 29.59176
#
# Velocity S-wave (km/s) = 3.79498 3.96373 3.88027
# Velocity P-wave (km/s) = 6.88677 7.28361 7.08797
#
# Compressibility (1/GPa) = 0.01802683
#
# Stress axis : x y z
#
# Youngs Moduli (GPa) = 57.22103 91.15820 100.50587
#
# Poissons Ratio (x) = 0.30885 0.32314
# Poissons Ratio (y) = 0.19387 0.35993
# Poissons Ratio (z) = 0.18397 0.32646
#
# Static dielectric constant tensor:
#      x y z
#    x 1.819840 0.000000 0.753130 
#    y 0.000000 4.031320 0.000000 
#    z 0.753130 0.000000 3.387950 
# 
# 
# High freq. dielectric constant tensor:
#      x y z
#    x 1.744650 0.000000 -0.026210 
#    y 0.000000 1.788000 0.000000 
#    z -0.026210 0.000000 1.771110 
# 
# From -- ./inp_files/33478.got.cif
#   From: 2010.06.25/outbox.cif.g09.slc.cpg/sg15_17_cif.got.tgz:33478.got - 2010.06.28 07:06:18.
