data_PCOD8140982
_publ_section_title
;
Structure prediction by ZEFSAII (Michael W. Deem and Ramdas Pophale) SiO2 
 PCOD8140982
Probable space group: C 2/C
;
_chemical_formula_sum "Si O2"
_cell_formula_units_Z 56
_cell_length_a 13.170285
_cell_length_b 17.231568
_cell_length_c 14.001754
_cell_angle_alpha 90.000000
_cell_angle_beta 122.539711
_cell_angle_gamma 90.000000
_cell_volume 2678.796351
_symmetry_space_group_name_H-M "C 2/C"
_symmetry_group_IT_number 15
_symmetry_cell_setting 'monoclinic'
loop_
_space_group_symop_operation_xyz
x,y,z
-x,y,1/2-z
-x,-y,-z
x,-y,1/2+z
1/2+x,1/2+y,z
1/2-x,1/2+y,1/2-z
1/2-x,1/2-y,-z
1/2+x,1/2-y,1/2+z
loop_
_atom_site_type_symbol
_atom_site_label
_atom_site_fract_x
_atom_site_fract_y
_atom_site_fract_z
Si Si1 0.688288 0.143679 0.953770
Si Si2 0.871497 0.532779 0.071543
Si Si3 0.708613 0.338371 0.801565
Si Si4 0.847129 0.190924 0.861447
Si Si5 0.856547 0.535424 0.281086
Si Si6 0.475927 0.747349 0.408990
Si Si7 0.703428 0.884699 0.147291
O O1 0.744905 0.153304 0.878567
O O2 0.584582 0.207731 0.913143
O O3 0.632299 0.059517 0.945517
O O4 0.794628 0.159840 0.084627
O O5 0.826573 0.550473 0.155133
O O6 0.007969 0.563393 0.125243
O O7 0.785859 0.577794 0.952824
O O8 0.811760 0.279049 0.818943
O O9 0.752308 0.421860 0.786883
O O10 0.579732 0.313421 0.694863
O O11 0.835704 0.140384 0.757516
O O12 0.977502 0.194246 0.977757
O O13 0.854221 0.445335 0.307861
O O14 0.377786 0.807649 0.398120
#
# Coordination Sequence:
#
# PCOD8140982 Si02
#       7
#     8   8   8   8   8   8   8
#     4  11  19  34  58  89 115 144 187 246 288 342
#     4  11  21  34  61  86 114 141 194 241 287 328
#     4  10  21  34  55  81 120 148 189 231 289 342
#     4  10  22  35  55  88 119 150 190 233 291 346
#     4  11  21  35  56  87 114 145 190 239 283 343
#     4  10  21  36  56  85 118 156 187 235 291 344
#     4  11  20  36  60  82 116 152 185 238 288 337
#
# _framework density 20.904910999999998
#
# number of rings (size 3 to 8) (size 9 to 14) (size 15 to 20)
#    0.000    1.429    4.286    3.857    0.000    5.143 
#    0.000    3.571    0.000    4.286    0.000    0.000 
#    0.000    0.000    0.000    0.000    0.000    0.000 
#
# Total GULP energy -347018.170486 kJ/mol
# GULP energy per Si atom -12393.506089 kJ/mol
# Density = 2.085733 g / cm^3
# Si number density = 20.904911 Si / 1000 Ang^3
#
#
#
# Elastic Constant Matrix: (Units=GPa)
#
#
# Indices 1 2 3 4 5 6 
#
# 1 27.6251 19.2855 25.6664 0.0000 2.2386 0.0000
# 2 19.2855 74.3989 50.0444 0.0000 3.4101 0.0000
# 3 25.6664 50.0444 156.3346 0.0000 11.1810 0.0000
# 4 0.0000 0.0000 0.0000 47.3419 0.0000 -2.1469
# 5 2.2386 3.4101 11.1810 0.0000 25.5077 0.0000
# 6 0.0000 0.0000 0.0000 -2.1469 0.0000 14.7551
#
#
#
# Elastic Compliance Matrix: (Units=1/GPa)
#
#
# Indices 1 2 3 4 5 6 
#
# 1 0.046938 -0.008902 -0.004797 0.000000 -0.000826 0.000000
# 2 -0.008902 0.018818 -0.004582 0.000000 0.000274 0.000000
# 3 -0.004797 -0.004582 0.008855 0.000000 -0.002848 0.000000
# 4 0.000000 0.000000 0.000000 0.021263 0.000000 0.003094
# 5 -0.000826 0.000274 -0.002848 0.000000 0.040488 0.000000
# 6 0.000000 0.000000 0.000000 0.003094 0.000000 0.068224
#
#
# Mechanical properties :
#
#
# Convention : Reuss Voigt Hill
#
# Bulk Modulus (GPa) = 26.28294 49.81681 38.04988
# Shear Modulus (GPa) = 19.69815 28.41175 24.05495
#
# Velocity S-wave (km/s) = 3.07298 3.69059 3.39585
# Velocity P-wave (km/s) = 5.01905 6.48402 5.79799
#
# Compressibility (1/GPa) = 0.03804749
#
# Stress axis : x y z
#
# Youngs Moduli (GPa) = 21.30479 53.14009 112.93667
#
# Poissons Ratio (x) = 0.47307 0.54178
# Poissons Ratio (y) = 0.18966 0.51747
# Poissons Ratio (z) = 0.10220 0.24349
#
# Static dielectric constant tensor:
#      x y z
#    x 3.070200 0.000000 0.006400 
#    y 0.000000 3.786730 0.000000 
#    z 0.006400 0.000000 4.359030 
# 
# 
# High freq. dielectric constant tensor:
#      x y z
#    x 1.750870 0.000000 -0.006920 
#    y 0.000000 1.817480 0.000000 
#    z -0.006920 0.000000 1.845800 
# 
# From -- ./inp_files/155253.got.cif
#   From: 2010.06.25/outbox.cif.g09.slc.cpg/sg15_78_cif.got.tgz:155253.got - 2010.06.28 07:06:18.
