data_PCOD8140900
_publ_section_title
;
Structure prediction by ZEFSAII (Michael W. Deem and Ramdas Pophale) SiO2 
 PCOD8140900
Probable space group: C 2/C
;
_chemical_formula_sum "Si O2"
_cell_formula_units_Z 64
_cell_length_a 28.694991
_cell_length_b 14.594167
_cell_length_c 9.426956
_cell_angle_alpha 90.000000
_cell_angle_beta 46.269375
_cell_angle_gamma 90.000000
_cell_volume 2852.682882
_symmetry_space_group_name_H-M "C 2/C"
_symmetry_group_IT_number 15
_symmetry_cell_setting 'monoclinic'
loop_
_space_group_symop_operation_xyz
x,y,z
-x,y,1/2-z
-x,-y,-z
x,-y,1/2+z
1/2+x,1/2+y,z
1/2-x,1/2+y,1/2-z
1/2-x,1/2-y,-z
1/2+x,1/2-y,1/2+z
loop_
_atom_site_type_symbol
_atom_site_label
_atom_site_fract_x
_atom_site_fract_y
_atom_site_fract_z
Si Si1 0.857374 0.892926 0.487294
Si Si2 0.047324 0.531433 0.278825
Si Si3 0.234379 0.658563 0.615060
Si Si4 0.534792 0.704255 0.321303
Si Si5 0.863648 0.941823 0.787443
Si Si6 0.632676 0.861976 0.098674
Si Si7 0.947666 0.267047 0.741091
Si Si8 0.242769 0.722497 0.180916
O O1 0.872510 0.945951 0.600423
O O2 0.889094 0.792859 0.422953
O O3 0.782109 0.870232 0.630393
O O4 0.879898 0.957292 0.311285
O O5 0.107109 0.463723 0.115491
O O6 0.077303 0.632016 0.252828
O O7 0.000000 0.540955 0.250000
O O8 0.000000 0.500000 0.500000
O O9 0.250000 0.750000 0.500000
O O10 0.290378 0.583631 0.481499
O O11 0.168937 0.625204 0.675151
O O12 0.230381 0.688413 0.788892
O O13 0.500000 0.678733 0.250000
O O14 0.587483 0.628410 0.245181
O O15 0.568366 0.803044 0.254671
O O16 0.476956 0.706924 0.553765
O O17 0.672386 0.810596 0.887675
O O18 0.000000 0.279951 0.750000
O O19 0.250000 0.750000 0.000000
#
# Coordination Sequence:
#
# PCOD8140900 Si02
#       8
#     8   8   8   8   8   8   8   8
#     4  12  28  48  71 106 152 188 251 308 364 441
#     4  11  25  45  72 110 150 190 244 309 370 448
#     4  10  20  46  78  96 141 203 233 300 373 434
#     4  12  25  43  76 105 145 193 242 301 376 435
#     4  12  26  49  73 105 148 192 251 304 369 440
#     4  11  22  47  73 108 148 195 245 299 384 441
#     4  11  26  47  71 102 144 197 244 298 367 445
#     4  11  25  45  75 108 145 194 248 302 367 438
#
# _framework density 22.435022
#
# number of rings (size 3 to 8) (size 9 to 14) (size 15 to 20)
#    0.000    0.750    7.500    0.375    5.250    1.000 
#    6.750    0.000    0.000    0.000    0.000    0.000 
#    0.000    0.000    0.000    0.000    0.000    0.000 
#
# Total GULP energy -396630.966194 kJ/mol
# GULP energy per Si atom -12394.717694 kJ/mol
# Density = 2.238396 g / cm^3
# Si number density = 22.435022 Si / 1000 Ang^3
#
#
#
# Elastic Constant Matrix: (Units=GPa)
#
#
# Indices 1 2 3 4 5 6 
#
# 1 107.3115 30.2177 32.8621 0.0000 16.1758 0.0000
# 2 30.2177 128.8303 29.2397 0.0000 1.8422 0.0000
# 3 32.8621 29.2397 105.8740 0.0000 24.8508 0.0000
# 4 0.0000 0.0000 0.0000 39.4875 0.0000 -1.1458
# 5 16.1758 1.8422 24.8508 0.0000 37.7266 0.0000
# 6 0.0000 0.0000 0.0000 -1.1458 0.0000 29.1892
#
#
#
# Elastic Compliance Matrix: (Units=1/GPa)
#
#
# Indices 1 2 3 4 5 6 
#
# 1 0.011031 -0.002067 -0.002090 0.000000 -0.003252 0.000000
# 2 -0.002067 0.008723 -0.002219 0.000000 0.001922 0.000000
# 3 -0.002090 -0.002219 0.012386 0.000000 -0.007154 0.000000
# 4 0.000000 0.000000 0.000000 0.025353 0.000000 0.000995
# 5 -0.003252 0.001922 -0.007154 0.000000 0.032520 0.000000
# 6 0.000000 0.000000 0.000000 0.000995 0.000000 0.034298
#
#
# Mechanical properties :
#
#
# Convention : Reuss Voigt Hill
#
# Bulk Modulus (GPa) = 51.57389 58.51719 55.04554
# Shear Modulus (GPa) = 34.83739 37.92707 36.38223
#
# Velocity S-wave (km/s) = 3.94485 4.11607 4.03137
# Velocity P-wave (km/s) = 6.61719 6.98061 6.80133
#
# Compressibility (1/GPa) = 0.01938966
#
# Stress axis : x y z
#
# Youngs Moduli (GPa) = 90.65579 114.64032 80.73746
#
# Poissons Ratio (x) = 0.23690 0.16872
# Poissons Ratio (y) = 0.18734 0.17913
# Poissons Ratio (z) = 0.18945 0.25435
#
# Static dielectric constant tensor:
#      x y z
#    x 4.530170 0.000000 0.226870 
#    y 0.000000 4.649650 0.000000 
#    z 0.226870 0.000000 3.952850 
# 
# 
# High freq. dielectric constant tensor:
#      x y z
#    x 1.890360 0.000000 0.003770 
#    y 0.000000 1.882420 0.000000 
#    z 0.003770 0.000000 1.885080 
# 
# From -- ./inp_files/70125.got.cif
#   From: 2010.06.25/outbox.cif.g09.slc.cpg/sg15_36_cif.got.tgz:70125.got - 2010.06.28 07:06:18.
