data_PCOD8140633
_publ_section_title
;
Structure prediction by ZEFSAII (Michael W. Deem and Ramdas Pophale) SiO2 
 PCOD8140633
Probable space group: C 2/C
;
_chemical_formula_sum "Si O2"
_cell_formula_units_Z 40
_cell_length_a 10.076893
_cell_length_b 12.498715
_cell_length_c 14.703560
_cell_angle_alpha 90.000000
_cell_angle_beta 61.194938
_cell_angle_gamma 90.000000
_cell_volume 1622.742224
_symmetry_space_group_name_H-M "C 2/C"
_symmetry_group_IT_number 15
_symmetry_cell_setting 'monoclinic'
loop_
_space_group_symop_operation_xyz
x,y,z
-x,y,1/2-z
-x,-y,-z
x,-y,1/2+z
1/2+x,1/2+y,z
1/2-x,1/2+y,1/2-z
1/2-x,1/2-y,-z
1/2+x,1/2-y,1/2+z
loop_
_atom_site_type_symbol
_atom_site_label
_atom_site_fract_x
_atom_site_fract_y
_atom_site_fract_z
Si Si1 0.785575 0.463531 0.422253
Si Si2 0.387090 0.367138 0.863984
Si Si3 0.893780 0.683049 0.427516
Si Si4 0.046326 0.677793 0.894277
Si Si5 0.687777 0.699816 0.819734
O O1 0.701042 0.457334 0.548763
O O2 0.835188 0.585425 0.383660
O O3 0.677898 0.412425 0.379671
O O4 0.942992 0.398972 0.367540
O O5 0.500000 0.417346 0.750000
O O6 0.482502 0.298449 0.905929
O O7 0.266144 0.289829 0.856116
O O8 0.750000 0.750000 0.500000
O O9 0.961457 0.637839 0.499782
O O10 0.024142 0.757313 0.339996
O O11 0.218578 0.675828 0.802268
#
# Coordination Sequence:
#
# PCOD8140633 Si02
#       5
#     8   8   8   8   8
#     4  11  20  42  71  91 121 173 225 260 327 392
#     4   9  17  35  70  96 119 163 224 272 318 381
#     4  12  26  42  60  95 137 173 209 269 330 386
#     4  10  20  42  67  93 125 166 217 273 318 385
#     4  10  21  42  66  95 128 165 221 275 316 387
#
# _framework density 24.649633000000001
#
# number of rings (size 3 to 8) (size 9 to 14) (size 15 to 20)
#    0.000    1.600    4.000    3.600    0.000    1.600 
#   10.800    0.000    0.000    0.000    0.000    0.000 
#    0.000    0.000    0.000    0.000    0.000    0.000 
#
# Total GULP energy -247927.274382 kJ/mol
# GULP energy per Si atom -12396.363719 kJ/mol
# Density = 2.459353 g / cm^3
# Si number density = 24.649633 Si / 1000 Ang^3
#
#
#
# Elastic Constant Matrix: (Units=GPa)
#
#
# Indices 1 2 3 4 5 6 
#
# 1 42.9196 23.3841 16.7073 0.0000 -19.4898 0.0000
# 2 23.3841 104.7553 35.5731 0.0000 -26.0027 0.0000
# 3 16.7073 35.5731 130.5293 0.0000 -40.4292 0.0000
# 4 0.0000 0.0000 0.0000 20.3701 0.0000 -10.3001
# 5 -19.4898 -26.0027 -40.4292 0.0000 44.1087 0.0000
# 6 0.0000 0.0000 0.0000 -10.3001 0.0000 26.9460
#
#
#
# Elastic Compliance Matrix: (Units=1/GPa)
#
#
# Indices 1 2 3 4 5 6 
#
# 1 0.030632 -0.004193 0.000906 0.000000 0.011893 0.000000
# 2 -0.004193 0.011944 -0.001552 0.000000 0.003766 0.000000
# 3 0.000906 -0.001552 0.010904 0.000000 0.009480 0.000000
# 4 0.000000 0.000000 0.000000 0.060854 0.000000 0.023261
# 5 0.011893 0.003766 0.009480 0.000000 0.038836 0.000000
# 6 0.000000 0.000000 0.000000 0.023261 0.000000 0.046003
#
#
# Mechanical properties :
#
#
# Convention : Reuss Voigt Hill
#
# Bulk Modulus (GPa) = 22.83029 47.72592 35.27810
# Shear Modulus (GPa) = 22.37613 31.78762 27.08188
#
# Velocity S-wave (km/s) = 3.01619 3.59497 3.31822
# Velocity P-wave (km/s) = 4.62730 6.05272 5.38736
#
# Compressibility (1/GPa) = 0.04380145
#
# Stress axis : x y z
#
# Youngs Moduli (GPa) = 32.64536 83.72507 91.70578
#
# Poissons Ratio (x) = 0.35108 -0.08306
# Poissons Ratio (y) = 0.13689 0.14232
# Poissons Ratio (z) = -0.02957 0.12994
#
# Static dielectric constant tensor:
#      x y z
#    x 5.196880 0.000000 0.139860 
#    y 0.000000 4.249330 0.000000 
#    z 0.139860 0.000000 4.751280 
# 
# 
# High freq. dielectric constant tensor:
#      x y z
#    x 1.963440 0.000000 -0.014130 
#    y 0.000000 1.943180 0.000000 
#    z -0.014130 0.000000 1.993300 
# 
# From -- ./inp_files/141905.got.cif
#   From: 2010.06.25/outbox.cif.g09.slc.cpg/sg15_71_cif.got.tgz:141905.got - 2010.06.28 07:06:18.
