data_PCOD8140477
_publ_section_title
;
Structure prediction by ZEFSAII (Michael W. Deem and Ramdas Pophale) SiO2 
 PCOD8140477
Probable space group: C 2/C
;
_chemical_formula_sum "Si O2"
_cell_formula_units_Z 64
_cell_length_a 27.640551
_cell_length_b 9.198276
_cell_length_c 15.213968
_cell_angle_alpha 90.000000
_cell_angle_beta 126.944530
_cell_angle_gamma 90.000000
_cell_volume 3091.439593
_symmetry_space_group_name_H-M "C 2/C"
_symmetry_group_IT_number 15
_symmetry_cell_setting 'monoclinic'
loop_
_space_group_symop_operation_xyz
x,y,z
-x,y,1/2-z
-x,-y,-z
x,-y,1/2+z
1/2+x,1/2+y,z
1/2-x,1/2+y,1/2-z
1/2-x,1/2-y,-z
1/2+x,1/2-y,1/2+z
loop_
_atom_site_type_symbol
_atom_site_label
_atom_site_fract_x
_atom_site_fract_y
_atom_site_fract_z
Si Si1 0.847597 0.475326 0.972351
Si Si2 0.345506 0.765947 0.341033
Si Si3 0.283755 0.599511 0.428944
Si Si4 0.020218 0.356161 0.366179
Si Si5 0.469224 0.839899 0.809632
Si Si6 0.020529 0.164799 0.024431
Si Si7 0.742140 0.274547 0.093984
Si Si8 0.166108 0.309159 0.884946
O O1 0.911107 0.405964 0.066600
O O2 0.826946 0.570636 0.032128
O O3 0.854446 0.573377 0.892365
O O4 0.797930 0.350243 0.903609
O O5 0.309535 0.665072 0.368396
O O6 0.408085 0.687294 0.384722
O O7 0.308153 0.779479 0.210338
O O8 0.291390 0.427349 0.428917
O O9 0.214172 0.652248 0.361761
O O10 0.320430 0.653127 0.555508
O O11 0.000000 0.291839 0.250000
O O12 0.977714 0.492357 0.346483
O O13 0.015311 0.233857 0.433796
O O14 0.500000 0.810791 0.750000
O O15 0.398773 0.802511 0.731324
O O16 0.502418 0.736486 0.913373
O O17 0.000000 0.000000 0.000000
O O18 0.750000 0.250000 0.000000
#
# Coordination Sequence:
#
# PCOD8140477 Si02
#       8
#     8   8   8   8   8   8   8   8
#     4  11  22  45  70 101 131 173 233 282 338 416
#     4  11  26  47  67  93 139 181 231 281 346 421
#     4  10  23  43  65  99 137 181 218 283 344 404
#     4  11  24  45  75 102 129 179 239 285 350 415
#     4  11  21  44  76 101 130 183 232 285 346 421
#     4  12  29  46  65 104 141 180 229 292 361 422
#     4  12  26  40  68 101 135 179 231 285 338 399
#     4  10  20  41  72  98 135 172 228 277 345 411
#
# _framework density 20.70233
#
# number of rings (size 3 to 8) (size 9 to 14) (size 15 to 20)
#    0.000    1.000    5.000    1.875    5.250    2.500 
#    0.000    0.000    0.000    0.000    0.000    0.000 
#    0.000    0.000    0.000    0.000    0.000    0.000 
#
# Total GULP energy -396968.279784 kJ/mol
# GULP energy per Si atom -12405.258743 kJ/mol
# Density = 2.065521 g / cm^3
# Si number density = 20.702330 Si / 1000 Ang^3
#
#
#
# Elastic Constant Matrix: (Units=GPa)
#
#
# Indices 1 2 3 4 5 6 
#
# 1 61.4580 30.4318 12.2324 0.0000 13.3441 0.0000
# 2 30.4318 133.6882 43.8320 0.0000 -2.6901 0.0000
# 3 12.2324 43.8320 111.6831 0.0000 10.7571 0.0000
# 4 0.0000 0.0000 0.0000 169.3868 0.0000 -92.4671
# 5 13.3441 -2.6901 10.7571 0.0000 45.3965 0.0000
# 6 0.0000 0.0000 0.0000 -92.4671 0.0000 85.1491
#
#
#
# Elastic Compliance Matrix: (Units=1/GPa)
#
#
# Indices 1 2 3 4 5 6 
#
# 1 0.019914 -0.004750 0.000280 0.000000 -0.006201 0.000000
# 2 -0.004750 0.009798 -0.003598 0.000000 0.002829 0.000000
# 3 0.000280 -0.003598 0.010606 0.000000 -0.002809 0.000000
# 4 0.000000 0.000000 0.000000 0.014498 0.000000 0.015745
# 5 -0.006201 0.002829 -0.002809 0.000000 0.024684 0.000000
# 6 0.000000 0.000000 0.000000 0.015745 0.000000 0.028842
#
#
# Mechanical properties :
#
#
# Convention : Reuss Voigt Hill
#
# Bulk Modulus (GPa) = 41.35088 53.31351 47.33220
# Shear Modulus (GPa) = 37.72534 74.67535 56.20034
#
# Velocity S-wave (km/s) = 4.27344 6.01243 5.21592
# Velocity P-wave (km/s) = 6.66087 8.60275 7.69333
#
# Compressibility (1/GPa) = 0.02418328
#
# Stress axis : x y z
#
# Youngs Moduli (GPa) = 50.21622 102.06427 94.28927
#
# Poissons Ratio (x) = 0.48478 -0.02643
# Poissons Ratio (y) = 0.23851 0.33921
# Poissons Ratio (z) = -0.01408 0.36718
#
# Static dielectric constant tensor:
#      x y z
#    x 1.948600 0.000000 0.467300 
#    y 0.000000 4.125030 0.000000 
#    z 0.467300 0.000000 3.772920 
# 
# 
# High freq. dielectric constant tensor:
#      x y z
#    x 1.816710 0.000000 0.003710 
#    y 0.000000 1.808340 0.000000 
#    z 0.003710 0.000000 1.818010 
# 
# From -- ./inp_files/181181.got.cif
#   From: 2010.06.25/outbox.cif.g09.slc.cpg/sg15_91_cif.got.tgz:181181.got - 2010.06.28 07:06:18.
