data_PCOD8140483
_publ_section_title
;
Structure prediction by ZEFSAII (Michael W. Deem and Ramdas Pophale) SiO2 
 PCOD8140483
Probable space group: C 2/C
;
_chemical_formula_sum "Si O2"
_cell_formula_units_Z 40
_cell_length_a 8.571431
_cell_length_b 11.257206
_cell_length_c 19.486792
_cell_angle_alpha 90.000000
_cell_angle_beta 84.905570
_cell_angle_gamma 90.000000
_cell_volume 1872.859967
_symmetry_space_group_name_H-M "C 2/C"
_symmetry_group_IT_number 15
_symmetry_cell_setting 'monoclinic'
loop_
_space_group_symop_operation_xyz
x,y,z
-x,y,1/2-z
-x,-y,-z
x,-y,1/2+z
1/2+x,1/2+y,z
1/2-x,1/2+y,1/2-z
1/2-x,1/2-y,-z
1/2+x,1/2-y,1/2+z
loop_
_atom_site_type_symbol
_atom_site_label
_atom_site_fract_x
_atom_site_fract_y
_atom_site_fract_z
Si Si1 0.124194 0.083853 0.031128
Si Si2 0.649026 0.669355 0.379028
Si Si3 0.689842 0.941478 0.098968
Si Si4 0.336710 0.481446 0.228452
Si Si5 0.323261 0.065665 0.629646
O O1 0.024176 0.181040 0.078235
O O2 0.229557 0.008988 0.078580
O O3 0.236704 0.137454 0.966485
O O4 0.000000 0.000000 0.000000
O O5 0.761871 0.580060 0.417411
O O6 0.629338 0.613896 0.302979
O O7 0.731050 0.796956 0.371440
O O8 0.505410 0.937234 0.107016
O O9 0.766899 0.900459 0.168753
O O10 0.500000 0.426409 0.250000
O O11 0.209319 0.487018 0.293732
#
# Coordination Sequence:
#
# PCOD8140483 Si02
#       5
#     8   8   8   8   8
#     4  10  20  42  63  91 132 156 201 258 302 367
#     4   9  23  40  62  89 119 167 198 246 315 358
#     4   9  22  39  60  95 122 153 207 256 293 366
#     4  10  20  42  58  88 125 158 205 254 303 361
#     4  12  21  41  67  87 123 165 205 254 305 362
#
# _framework density 21.357709
#
# number of rings (size 3 to 8) (size 9 to 14) (size 15 to 20)
#    1.200    0.800    2.000    1.200    0.000    5.600 
#    3.600    4.000    0.000    0.000    0.000    0.000 
#    0.000    0.000    0.000    0.000    0.000    0.000 
#
# Total GULP energy -247772.909368 kJ/mol
# GULP energy per Si atom -12388.645468 kJ/mol
# Density = 2.130910 g / cm^3
# Si number density = 21.357709 Si / 1000 Ang^3
#
#
#
# Elastic Constant Matrix: (Units=GPa)
#
#
# Indices 1 2 3 4 5 6 
#
# 1 80.8241 4.3214 36.0073 0.0000 -14.5753 0.0000
# 2 4.3214 13.5895 9.1551 0.0000 3.6462 0.0000
# 3 36.0073 9.1551 154.8239 0.0000 -18.7393 0.0000
# 4 0.0000 0.0000 0.0000 9.8176 0.0000 -2.0750
# 5 -14.5753 3.6462 -18.7393 0.0000 49.9344 0.0000
# 6 0.0000 0.0000 0.0000 -2.0750 0.0000 16.7881
#
#
#
# Elastic Compliance Matrix: (Units=1/GPa)
#
#
# Indices 1 2 3 4 5 6 
#
# 1 0.014401 -0.003678 -0.002714 0.000000 0.003454 0.000000
# 2 -0.003678 0.080469 -0.004970 0.000000 -0.008815 0.000000
# 3 -0.002714 -0.004970 0.007681 0.000000 0.002453 0.000000
# 4 0.000000 0.000000 0.000000 0.104590 0.000000 0.012927
# 5 0.003454 -0.008815 0.002453 0.000000 0.022599 0.000000
# 6 0.000000 0.000000 0.000000 0.012927 0.000000 0.061164
#
#
# Mechanical properties :
#
#
# Convention : Reuss Voigt Hill
#
# Bulk Modulus (GPa) = 12.52693 38.68945 25.60819
# Shear Modulus (GPa) = 14.69569 28.62493 21.66031
#
# Velocity S-wave (km/s) = 2.62596 3.66493 3.18806
# Velocity P-wave (km/s) = 3.88230 6.00527 5.05646
#
# Compressibility (1/GPa) = 0.07982799
#
# Stress axis : x y z
#
# Youngs Moduli (GPa) = 69.43974 12.42714 130.19322
#
# Poissons Ratio (x) = 0.04571 0.35331
# Poissons Ratio (y) = 0.25539 0.64704
# Poissons Ratio (z) = 0.18844 0.06176
#
# Static dielectric constant tensor:
#      x y z
#    x 3.921180 0.000000 -0.277760 
#    y 0.000000 3.542910 0.000000 
#    z -0.277760 0.000000 4.267720 
# 
# 
# High freq. dielectric constant tensor:
#      x y z
#    x 1.846110 0.000000 -0.013720 
#    y 0.000000 1.791290 0.000000 
#    z -0.013720 0.000000 1.856100 
# 
# From -- ./inp_files/229913.got.cif
#   From: 2010.06.25/outbox.cif.g09.slc.cpg/sg15_115_cif.got.tgz:229913.got - 2010.06.28 07:06:18.
