data_PCOD8140445
_publ_section_title
;
Structure prediction by ZEFSAII (Michael W. Deem and Ramdas Pophale) SiO2 
 PCOD8140445
Probable space group: C 2/C
;
_chemical_formula_sum "Si O2"
_cell_formula_units_Z 64
_cell_length_a 28.958466
_cell_length_b 13.739089
_cell_length_c 12.899587
_cell_angle_alpha 90.000000
_cell_angle_beta 150.316613
_cell_angle_gamma 90.000000
_cell_volume 2541.533761
_symmetry_space_group_name_H-M "C 2/C"
_symmetry_group_IT_number 15
_symmetry_cell_setting 'monoclinic'
loop_
_space_group_symop_operation_xyz
x,y,z
-x,y,1/2-z
-x,-y,-z
x,-y,1/2+z
1/2+x,1/2+y,z
1/2-x,1/2+y,1/2-z
1/2-x,1/2-y,-z
1/2+x,1/2-y,1/2+z
loop_
_atom_site_type_symbol
_atom_site_label
_atom_site_fract_x
_atom_site_fract_y
_atom_site_fract_z
Si Si1 0.676240 0.336914 0.271162
Si Si2 0.848962 0.675556 0.980644
Si Si3 0.674228 0.990088 0.212039
Si Si4 0.918993 0.349098 0.842372
Si Si5 0.483044 0.419054 0.825091
Si Si6 0.566972 0.793355 0.288289
Si Si7 0.678928 0.526313 0.358790
Si Si8 0.269455 0.365817 0.740237
O O1 0.739902 0.336494 0.294399
O O2 0.662572 0.227593 0.284394
O O3 0.721693 0.414521 0.439509
O O4 0.580127 0.391466 0.064232
O O5 0.880552 0.589327 0.964442
O O6 0.845845 0.784114 0.925278
O O7 0.917369 0.659121 0.213690
O O8 0.601241 0.045807 0.145262
O O9 0.739620 0.063120 0.274166
O O10 0.744664 0.923329 0.418125
O O11 0.020088 0.317929 0.084858
O O12 0.500000 0.477691 0.750000
O O13 0.425626 0.321941 0.683074
O O14 0.423640 0.479057 0.791731
O O15 0.500000 0.836590 0.250000
O O16 0.671926 0.830705 0.499554
O O17 0.673664 0.576028 0.236492
#
# Coordination Sequence:
#
# PCOD8140445 Si02
#       8
#     8   8   8   8   8   8   8   8
#     4  11  20  39  67  93 131 173 226 275 341 417
#     4  12  23  41  69 104 134 183 231 288 346 409
#     4  12  22  40  65  94 138 174 233 282 339 410
#     4  11  22  42  70  97 133 183 238 283 337 415
#     4  10  22  39  63  97 134 178 222 280 348 416
#     4  10  20  41  68  96 133 184 235 279 339 411
#     4  12  25  40  66 103 137 176 231 286 348 414
#     4  12  24  42  70 101 137 180 232 289 346 409
#
# _framework density 25.181643999999999
#
# number of rings (size 3 to 8) (size 9 to 14) (size 15 to 20)
#    0.000    0.750    5.000    4.500    0.000    2.000 
#    0.000    3.750    0.000    3.000    0.000    0.000 
#    0.000    0.000    0.000    0.000    0.000    0.000 
#
# Total GULP energy -396490.630082 kJ/mol
# GULP energy per Si atom -12390.332190 kJ/mol
# Density = 2.512433 g / cm^3
# Si number density = 25.181644 Si / 1000 Ang^3
#
#
#
# Elastic Constant Matrix: (Units=GPa)
#
#
# Indices 1 2 3 4 5 6 
#
# 1 86.9767 31.2151 26.4547 0.0000 -18.7402 0.0000
# 2 31.2151 98.4006 15.9105 0.0000 -21.8290 0.0000
# 3 26.4547 15.9105 97.1330 0.0000 -35.3556 0.0000
# 4 0.0000 0.0000 0.0000 30.0871 0.0000 -12.0728
# 5 -18.7402 -21.8290 -35.3556 0.0000 40.9656 0.0000
# 6 0.0000 0.0000 0.0000 -12.0728 0.0000 18.7769
#
#
#
# Elastic Compliance Matrix: (Units=1/GPa)
#
#
# Indices 1 2 3 4 5 6 
#
# 1 0.014007 -0.003505 -0.002316 0.000000 0.002541 0.000000
# 2 -0.003505 0.012419 0.001087 0.000000 0.005952 0.000000
# 3 -0.002316 0.001087 0.015416 0.000000 0.012825 0.000000
# 4 0.000000 0.000000 0.000000 0.044793 0.000000 0.028800
# 5 0.002541 0.005952 0.012825 0.000000 0.039813 0.000000
# 6 0.000000 0.000000 0.000000 0.028800 0.000000 0.071775
#
#
# Mechanical properties :
#
#
# Convention : Reuss Voigt Hill
#
# Bulk Modulus (GPa) = 30.88873 47.74121 39.31497
# Shear Modulus (GPa) = 22.88508 31.89458 27.38983
#
# Velocity S-wave (km/s) = 3.01790 3.56277 3.30159
# Velocity P-wave (km/s) = 4.94334 5.99369 5.49368
#
# Compressibility (1/GPa) = 0.03237427
#
# Stress axis : x y z
#
# Youngs Moduli (GPa) = 71.39158 80.52063 64.86828
#
# Poissons Ratio (x) = 0.28224 0.15022
# Poissons Ratio (y) = 0.25024 -0.07051
# Poissons Ratio (z) = 0.16533 -0.08752
#
# Static dielectric constant tensor:
#      x y z
#    x 4.373200 0.000000 -0.340050 
#    y 0.000000 4.850370 0.000000 
#    z -0.340050 0.000000 4.561500 
# 
# 
# High freq. dielectric constant tensor:
#      x y z
#    x 1.987450 0.000000 -0.017450 
#    y 0.000000 1.997300 0.000000 
#    z -0.017450 0.000000 2.021250 
# 
# From -- ./inp_files/123560.got.cif
#   From: 2010.06.25/outbox.cif.g09.slc.cpg/sg15_62_cif.got.tgz:123560.got - 2010.06.28 07:06:18.
