data_PCOD8140944
_publ_section_title
;
Structure prediction by ZEFSAII (Michael W. Deem and Ramdas Pophale) SiO2 
 PCOD8140944
Probable space group: C 2/C
;
_chemical_formula_sum "Si O2"
_cell_formula_units_Z 56
_cell_length_a 14.621532
_cell_length_b 13.516668
_cell_length_c 13.907837
_cell_angle_alpha 90.000000
_cell_angle_beta 95.789206
_cell_angle_gamma 90.000000
_cell_volume 2734.647988
_symmetry_space_group_name_H-M "C 2/C"
_symmetry_group_IT_number 15
_symmetry_cell_setting 'monoclinic'
loop_
_space_group_symop_operation_xyz
x,y,z
-x,y,1/2-z
-x,-y,-z
x,-y,1/2+z
1/2+x,1/2+y,z
1/2-x,1/2+y,1/2-z
1/2-x,1/2-y,-z
1/2+x,1/2-y,1/2+z
loop_
_atom_site_type_symbol
_atom_site_label
_atom_site_fract_x
_atom_site_fract_y
_atom_site_fract_z
Si Si1 0.274439 0.584904 0.013088
Si Si2 0.278110 0.540768 0.698411
Si Si3 0.958120 0.776056 0.955320
Si Si4 0.556405 0.341163 0.341723
Si Si5 0.094557 0.358648 0.219273
Si Si6 0.646726 0.777460 0.411407
Si Si7 0.909513 0.992422 0.876215
O O1 0.255150 0.506907 0.093611
O O2 0.282140 0.689139 0.069233
O O3 0.187436 0.611474 0.935522
O O4 0.360458 0.548181 0.959572
O O5 0.341256 0.636798 0.685847
O O6 0.178892 0.565393 0.731703
O O7 0.337077 0.476370 0.781109
O O8 0.908978 0.691273 0.886651
O O9 0.943910 0.884740 0.909881
O O10 0.064280 0.747907 0.974264
O O11 0.926560 0.773081 0.063139
O O12 0.500000 0.285375 0.250000
O O13 0.499224 0.442594 0.358667
O O14 0.112520 0.271578 0.297963
O O15 0.000000 0.410004 0.250000
#
# Coordination Sequence:
#
# PCOD8140944 Si02
#       7
#     8   8   8   8   8   8   8
#     4  11  20  35  64  89 120 164 198 250 309 373
#     4  11  22  38  60  89 123 161 200 251 314 364
#     4  11  20  37  60  88 120 158 202 253 299 366
#     4  10  21  33  57  88 121 153 190 256 312 359
#     4  10  23  40  59  84 121 164 210 255 297 365
#     4  10  21  37  61  90 122 155 205 249 308 363
#     4  11  20  37  61  94 126 149 201 256 314 373
#
# _framework density 20.477955999999999
#
# number of rings (size 3 to 8) (size 9 to 14) (size 15 to 20)
#    0.000    1.429    4.286    2.143    0.000    4.571 
#    0.000    2.857    0.000    0.000    0.000    0.000 
#    0.000    0.000    0.000    0.000    0.000    0.000 
#
# Total GULP energy -346880.807609 kJ/mol
# GULP energy per Si atom -12388.600272 kJ/mol
# Density = 2.043135 g / cm^3
# Si number density = 20.477956 Si / 1000 Ang^3
#
#
#
# Elastic Constant Matrix: (Units=GPa)
#
#
# Indices 1 2 3 4 5 6 
#
# 1 116.8604 18.6530 24.5452 0.0000 -2.9327 0.0000
# 2 18.6530 19.1571 3.2772 0.0000 3.7707 0.0000
# 3 24.5452 3.2772 114.9806 0.0000 5.2389 0.0000
# 4 0.0000 0.0000 0.0000 23.0665 0.0000 0.8751
# 5 -2.9327 3.7707 5.2389 0.0000 31.0140 0.0000
# 6 0.0000 0.0000 0.0000 0.8751 0.0000 21.2514
#
#
#
# Elastic Compliance Matrix: (Units=1/GPa)
#
#
# Indices 1 2 3 4 5 6 
#
# 1 0.010769 -0.010649 -0.002117 0.000000 0.002671 0.000000
# 2 -0.010649 0.064185 0.000852 0.000000 -0.008954 0.000000
# 3 -0.002117 0.000852 0.009209 0.000000 -0.001859 0.000000
# 4 0.000000 0.000000 0.000000 0.043421 0.000000 -0.001788
# 5 0.002671 -0.008954 -0.001859 0.000000 0.033899 0.000000
# 6 0.000000 0.000000 0.000000 -0.001788 0.000000 0.047129
#
#
# Mechanical properties :
#
#
# Convention : Reuss Voigt Hill
#
# Bulk Modulus (GPa) = 16.57398 38.21653 27.39526
# Shear Modulus (GPa) = 19.79792 28.70123 24.24957
#
# Velocity S-wave (km/s) = 3.11270 3.74781 3.44492
# Velocity P-wave (km/s) = 4.58581 6.11808 5.40651
#
# Compressibility (1/GPa) = 0.06033552
#
# Stress axis : x y z
#
# Youngs Moduli (GPa) = 92.86252 15.57992 108.58376
#
# Poissons Ratio (x) = 0.16591 0.22987
# Poissons Ratio (y) = 0.98887 -0.09249
# Poissons Ratio (z) = 0.19659 -0.01327
#
# Static dielectric constant tensor:
#      x y z
#    x 3.930600 0.000000 0.237280 
#    y 0.000000 3.308580 0.000000 
#    z 0.237280 0.000000 4.223540 
# 
# 
# High freq. dielectric constant tensor:
#      x y z
#    x 1.802020 0.000000 0.012640 
#    y 0.000000 1.745470 0.000000 
#    z 0.012640 0.000000 1.826950 
# 
# From -- ./inp_files/153444.got.cif
#   From: 2010.06.25/outbox.cif.g09.slc.cpg/sg15_77_cif.got.tgz:153444.got - 2010.06.28 07:06:18.
