data_PCOD8140447
_publ_section_title
;
Structure prediction by ZEFSAII (Michael W. Deem and Ramdas Pophale) SiO2 
 PCOD8140447
Probable space group: C 2/C
;
_chemical_formula_sum "Si O2"
_cell_formula_units_Z 56
_cell_length_a 19.694238
_cell_length_b 19.342390
_cell_length_c 15.253182
_cell_angle_alpha 90.000000
_cell_angle_beta 25.962741
_cell_angle_gamma 90.000000
_cell_volume 2543.737016
_symmetry_space_group_name_H-M "C 2/C"
_symmetry_group_IT_number 15
_symmetry_cell_setting 'monoclinic'
loop_
_space_group_symop_operation_xyz
x,y,z
-x,y,1/2-z
-x,-y,-z
x,-y,1/2+z
1/2+x,1/2+y,z
1/2-x,1/2+y,1/2-z
1/2-x,1/2-y,-z
1/2+x,1/2-y,1/2+z
loop_
_atom_site_type_symbol
_atom_site_label
_atom_site_fract_x
_atom_site_fract_y
_atom_site_fract_z
Si Si1 0.000000 0.831567 0.250000
Si Si2 0.778218 0.339121 0.643690
Si Si3 0.295575 0.998689 0.669666
Si Si4 0.129762 0.487816 0.226747
Si Si5 0.719718 0.419399 0.096076
Si Si6 0.818341 0.711472 0.546515
Si Si7 0.000000 0.376543 0.250000
Si Si8 0.991550 0.248075 0.519250
O O1 0.058685 0.883180 0.257023
O O2 0.862208 0.782118 0.445193
O O3 0.765572 0.416995 0.694572
O O4 0.606327 0.306146 0.837491
O O5 0.856424 0.333790 0.456727
O O6 0.895798 0.296674 0.567014
O O7 0.469572 0.023504 0.442306
O O8 0.265966 0.022003 0.805564
O O9 0.188184 0.039000 0.723739
O O10 0.079388 0.417486 0.237909
O O11 0.223352 0.531853 0.047808
O O12 0.850014 0.358687 0.955680
O O13 0.903107 0.704282 0.540935
O O14 0.632037 0.708954 0.776136
#
# Coordination Sequence:
#
# PCOD8140447 Si02
#       8
#     4   8   8   8   8   8   4   8
#     4  12  28  41  64 101 146 184 220 296 330 428
#     4  10  22  43  69 101 136 177 232 292 344 411
#     4  10  23  39  70 101 137 175 229 287 337 417
#     4  10  21  38  66 103 131 182 218 284 340 411
#     4  12  24  42  68 101 135 184 231 277 357 401
#     4  11  25  42  64 105 138 181 228 275 349 426
#     4  10  20  41  68  99 136 168 244 280 338 402
#     4  10  24  42  66  94 140 182 223 285 350 417
#
# _framework density 22.014854
#
# number of rings (size 3 to 8) (size 9 to 14) (size 15 to 20)
#    0.000    1.429    4.286    0.429   12.000    0.571 
#    0.000    2.857    0.000    0.000    0.000    0.000 
#    0.000    0.000    0.000    0.000    0.000    0.000 
#
# Total GULP energy -346933.344273 kJ/mol
# GULP energy per Si atom -12390.476581 kJ/mol
# Density = 2.196475 g / cm^3
# Si number density = 22.014854 Si / 1000 Ang^3
#
#
#
# Elastic Constant Matrix: (Units=GPa)
#
#
# Indices 1 2 3 4 5 6 
#
# 1 134.6534 66.3088 40.3866 0.0099 12.8028 0.0002
# 2 66.3088 110.8822 41.8195 -0.0017 -5.2685 0.0052
# 3 40.3866 41.8195 118.2310 0.0114 5.6345 0.0164
# 4 0.0099 -0.0017 0.0114 24.8350 0.0007 1.1974
# 5 12.8028 -5.2685 5.6345 0.0007 35.9957 -0.0069
# 6 0.0002 0.0052 0.0164 1.1974 -0.0069 23.2847
#
#
#
# Elastic Compliance Matrix: (Units=1/GPa)
#
#
# Indices 1 2 3 4 5 6 
#
# 1 0.011566 -0.006630 -0.001374 -0.000004 -0.004869 0.000001
# 2 -0.006630 0.014370 -0.003053 0.000005 0.004939 0.000000
# 3 -0.001374 -0.003053 0.010080 -0.000004 -0.001536 -0.000007
# 4 -0.000004 0.000005 -0.000004 0.040366 0.000002 -0.002076
# 5 -0.004869 0.004939 -0.001536 0.000002 0.030476 0.000009
# 6 0.000001 0.000000 -0.000007 -0.002076 0.000009 0.043053
#
#
# Mechanical properties :
#
#
# Convention : Reuss Voigt Hill
#
# Bulk Modulus (GPa) = 71.93104 73.42182 72.67643
# Shear Modulus (GPa) = 28.30285 31.17319 29.73802
#
# Velocity S-wave (km/s) = 3.58945 3.76707 3.67933
# Velocity P-wave (km/s) = 7.06567 7.23495 7.15081
#
# Compressibility (1/GPa) = 0.01390220
#
# Stress axis : x y z
#
# Youngs Moduli (GPa) = 86.45742 69.59095 99.20147
#
# Poissons Ratio (x) = 0.46139 0.13628
# Poissons Ratio (y) = 0.57322 0.30289
# Poissons Ratio (z) = 0.11878 0.21248
#
# Static dielectric constant tensor:
#      x y z
#    x 4.354910 -0.000020 0.209930 
#    y -0.000020 3.915610 0.000040 
#    z 0.209930 0.000040 4.145520 
# 
# 
# High freq. dielectric constant tensor:
#      x y z
#    x 1.878170 0.000000 0.006100 
#    y 0.000000 1.857250 0.000000 
#    z 0.006100 0.000000 1.850750 
# 
# From -- ./inp_files/163793.got.cif
#   From: 2010.06.25/outbox.cif.g09.slc.cpg/sg15_82_cif.got.tgz:163793.got - 2010.06.28 07:06:18.
