data_PCOD8140001
_publ_section_title
;
Structure prediction by ZEFSAII (Michael W. Deem and Ramdas Pophale) SiO2 
 PCOD8140001
Probable space group: C 2/C
;
_chemical_formula_sum "Si O2"
_cell_formula_units_Z 48
_cell_length_a 12.348880
_cell_length_b 6.775015
_cell_length_c 28.137823
_cell_angle_alpha 90.000000
_cell_angle_beta 129.367210
_cell_angle_gamma 90.000000
_cell_volume 1819.961261
_symmetry_space_group_name_H-M "C 2/C"
_symmetry_group_IT_number 15
_symmetry_cell_setting 'monoclinic'
loop_
_space_group_symop_operation_xyz
x,y,z
-x,y,1/2-z
-x,-y,-z
x,-y,1/2+z
1/2+x,1/2+y,z
1/2-x,1/2+y,1/2-z
1/2-x,1/2-y,-z
1/2+x,1/2-y,1/2+z
loop_
_atom_site_type_symbol
_atom_site_label
_atom_site_fract_x
_atom_site_fract_y
_atom_site_fract_z
Si Si1 0.888356 0.439024 0.757673
Si Si2 0.835984 0.783316 0.429813
Si Si3 0.087359 0.759575 0.563798
Si Si4 0.959343 0.361713 0.124321
Si Si5 0.832072 0.211107 0.571462
Si Si6 0.625752 0.658318 0.659548
O O1 0.743010 0.487440 0.690403
O O2 0.855943 0.265304 0.785415
O O3 0.000000 0.362799 0.750000
O O4 0.950039 0.635085 0.801615
O O5 0.684737 0.738187 0.410931
O O6 0.846930 0.698539 0.378968
O O7 0.950998 0.689321 0.496418
O O8 0.868699 0.016626 0.434304
O O9 0.221815 0.635913 0.580903
O O10 0.058947 0.717045 0.610592
O O11 0.917110 0.590441 0.106850
O O12 0.750000 0.250000 0.500000
O O13 0.967115 0.061026 0.607748
#
# Coordination Sequence:
#
# PCOD8140001 Si02
#       6
#     8   8   8   8   8   8
#     4  11  25  46  66  90 136 178 220 277 328 393
#     4  10  20  40  64  97 134 167 217 275 330 400
#     4  10  21  38  67  97 134 174 212 272 347 391
#     4  10  22  39  65  94 126 177 220 268 333 394
#     4  10  21  41  62  94 136 170 214 279 331 390
#     4  11  24  44  70  96 130 179 225 268 335 397
#
# _framework density 26.374189000000001
#
# number of rings (size 3 to 8) (size 9 to 14) (size 15 to 20)
#    0.000    1.667    3.333    0.500    2.333    0.667 
#    0.000    5.833    0.000    0.000    0.000    0.000 
#    0.000    0.000    0.000    0.000    0.000    0.000 
#
# Total GULP energy -297440.555829 kJ/mol
# GULP energy per Si atom -12393.356493 kJ/mol
# Density = 2.631416 g / cm^3
# Si number density = 26.374189 Si / 1000 Ang^3
#
#
#
# Elastic Constant Matrix: (Units=GPa)
#
#
# Indices 1 2 3 4 5 6 
#
# 1 237.2385 22.0365 51.5613 0.0000 -0.3297 0.0000
# 2 22.0365 9.9531 -0.8593 0.0000 9.5439 0.0000
# 3 51.5613 -0.8593 127.7116 0.0000 8.7073 0.0000
# 4 0.0000 0.0000 0.0000 26.0508 0.0000 -2.7103
# 5 -0.3297 9.5439 8.7073 0.0000 64.6453 0.0000
# 6 0.0000 0.0000 0.0000 -2.7103 0.0000 35.5855
#
#
#
# Elastic Compliance Matrix: (Units=1/GPa)
#
#
# Indices 1 2 3 4 5 6 
#
# 1 0.006484 -0.017498 -0.002941 0.000000 0.003013 0.000000
# 2 -0.017498 0.164763 0.009929 0.000000 -0.025751 0.000000
# 3 -0.002941 0.009929 0.009270 0.000000 -0.002729 0.000000
# 4 0.000000 0.000000 0.000000 0.038693 0.000000 0.002947
# 5 0.003013 -0.025751 -0.002729 0.000000 0.019654 0.000000
# 6 0.000000 0.000000 0.000000 0.002947 0.000000 0.028326
#
#
# Mechanical properties :
#
#
# Convention : Reuss Voigt Hill
#
# Bulk Modulus (GPa) = 6.26973 57.82002 32.04487
# Shear Modulus (GPa) = 14.64663 45.40063 30.02363
#
# Velocity S-wave (km/s) = 2.35912 4.15348 3.37764
# Velocity P-wave (km/s) = 3.13097 6.70615 5.23333
#
# Compressibility (1/GPa) = 0.15949662
#
# Stress axis : x y z
#
# Youngs Moduli (GPa) = 154.22892 6.06933 107.87065
#
# Poissons Ratio (x) = 0.10620 0.31723
# Poissons Ratio (y) = 2.69871 -1.07102
# Poissons Ratio (z) = 0.45357 -0.06026
#
# Static dielectric constant tensor:
#      x y z
#    x 5.676670 0.000000 0.498030 
#    y 0.000000 4.435440 0.000000 
#    z 0.498030 0.000000 5.332930 
# 
# 
# High freq. dielectric constant tensor:
#      x y z
#    x 2.088620 0.000000 0.010310 
#    y 0.000000 2.031890 0.000000 
#    z 0.010310 0.000000 2.066920 
# 
# From -- ./inp_files/291285.got.cif
#   From: 2010.06.25/outbox.cif.g09.slc.cpg/sg15_146_cif.got.tgz:291285.got - 2010.06.28 07:06:18.
