data_PCOD8140828
_publ_section_title
;
Structure prediction by ZEFSAII (Michael W. Deem and Ramdas Pophale) SiO2 
 PCOD8140828
Probable space group: C 2/C
;
_chemical_formula_sum "Si O2"
_cell_formula_units_Z 48
_cell_length_a 22.108039
_cell_length_b 8.233196
_cell_length_c 11.974963
_cell_angle_alpha 90.000000
_cell_angle_beta 95.301926
_cell_angle_gamma 90.000000
_cell_volume 2170.355027
_symmetry_space_group_name_H-M "C 2/C"
_symmetry_group_IT_number 15
_symmetry_cell_setting 'monoclinic'
loop_
_space_group_symop_operation_xyz
x,y,z
-x,y,1/2-z
-x,-y,-z
x,-y,1/2+z
1/2+x,1/2+y,z
1/2-x,1/2+y,1/2-z
1/2-x,1/2-y,-z
1/2+x,1/2-y,1/2+z
loop_
_atom_site_type_symbol
_atom_site_label
_atom_site_fract_x
_atom_site_fract_y
_atom_site_fract_z
Si Si1 0.855825 0.714252 0.994982
Si Si2 0.091660 0.036123 0.841690
Si Si3 0.805848 0.173546 0.252294
Si Si4 0.313995 0.978172 0.693987
Si Si5 0.929546 0.470847 0.353884
Si Si6 0.500000 0.787194 0.750000
Si Si7 0.500000 0.300030 0.750000
O O1 0.814085 0.627644 0.080455
O O2 0.882526 0.888782 0.039156
O O3 0.818608 0.752489 0.877051
O O4 0.907713 0.578020 0.974363
O O5 0.145296 0.960300 0.777073
O O6 0.036602 0.907758 0.848736
O O7 0.061634 0.187930 0.773100
O O8 0.804904 0.328598 0.167937
O O9 0.741153 0.085789 0.239328
O O10 0.375978 0.949370 0.771560
O O11 0.986394 0.595898 0.356208
O O12 0.948406 0.299296 0.303616
#
# Coordination Sequence:
#
# PCOD8140828 Si02
#       7
#     8   8   8   8   8   4   4
#     4  11  23  43  68 102 129 175 225 263 341 391
#     4  11  22  42  67 101 132 175 214 277 326 391
#     4  11  25  46  68  97 138 169 221 282 324 395
#     4  11  22  44  68  93 134 174 215 279 329 383
#     4  10  22  44  65  97 132 175 216 278 321 390
#     4  10  22  42  70  92 138 174 222 268 332 392
#     4  10  20  44  66  90 142 170 216 270 332 378
#
# _framework density 22.116195999999999
#
# number of rings (size 3 to 8) (size 9 to 14) (size 15 to 20)
#    0.000    1.333    5.000    1.500    0.000    2.667 
#    3.000    4.167    0.000    0.000    0.000    0.000 
#    0.000    0.000    0.000    0.000    0.000    0.000 
#
# Total GULP energy -297372.031325 kJ/mol
# GULP energy per Si atom -12390.501305 kJ/mol
# Density = 2.206586 g / cm^3
# Si number density = 22.116196 Si / 1000 Ang^3
#
#
#
# Elastic Constant Matrix: (Units=GPa)
#
#
# Indices 1 2 3 4 5 6 
#
# 1 122.4473 58.2315 25.7962 0.0000 -8.3121 0.0000
# 2 58.2315 127.1091 30.0068 0.0000 2.6735 0.0000
# 3 25.7962 30.0068 61.8466 0.0000 -2.7538 0.0000
# 4 0.0000 0.0000 0.0000 13.4034 0.0000 1.8531
# 5 -8.3121 2.6735 -2.7538 0.0000 17.5177 0.0000
# 6 0.0000 0.0000 0.0000 1.8531 0.0000 44.8010
#
#
#
# Elastic Compliance Matrix: (Units=1/GPa)
#
#
# Indices 1 2 3 4 5 6 
#
# 1 0.011282 -0.004787 -0.002127 0.000000 0.005750 0.000000
# 2 -0.004787 0.010990 -0.003536 0.000000 -0.004505 0.000000
# 3 -0.002127 -0.003536 0.018883 0.000000 0.002499 0.000000
# 4 0.000000 0.000000 0.000000 0.075037 0.000000 -0.003104
# 5 0.005750 -0.004505 0.002499 0.000000 0.060894 0.000000
# 6 0.000000 0.000000 0.000000 -0.003104 0.000000 0.022449
#
#
# Mechanical properties :
#
#
# Convention : Reuss Voigt Hill
#
# Bulk Modulus (GPa) = 49.37182 59.94134 54.65658
# Shear Modulus (GPa) = 22.00838 28.30232 25.15535
#
# Velocity S-wave (km/s) = 3.15798 3.58118 3.37622
# Velocity P-wave (km/s) = 5.97239 6.65294 6.32183
#
# Compressibility (1/GPa) = 0.02025447
#
# Stress axis : x y z
#
# Youngs Moduli (GPa) = 88.63817 90.99269 52.95773
#
# Poissons Ratio (x) = 0.43561 0.11264
# Poissons Ratio (y) = 0.42434 0.18725
# Poissons Ratio (z) = 0.18853 0.32174
#
# Static dielectric constant tensor:
#      x y z
#    x 4.132660 0.000000 -0.091930 
#    y 0.000000 4.307590 0.000000 
#    z -0.091930 0.000000 3.589210 
# 
# 
# High freq. dielectric constant tensor:
#      x y z
#    x 1.891110 0.000000 -0.004620 
#    y 0.000000 1.891860 0.000000 
#    z -0.004620 0.000000 1.822290 
# 
# From -- ./inp_files/116411.got.cif
#   From: 2010.06.25/outbox.cif.g09.slc.cpg/sg15_59_cif.got.tgz:116411.got - 2010.06.28 07:06:18.
