data_PCOD8140104
_publ_section_title
;
Structure prediction by ZEFSAII (Michael W. Deem and Ramdas Pophale) SiO2 
 PCOD8140104
Probable space group: C 2/C
;
_chemical_formula_sum "Si O2"
_cell_formula_units_Z 44
_cell_length_a 13.095936
_cell_length_b 12.308805
_cell_length_c 16.128943
_cell_angle_alpha 90.000000
_cell_angle_beta 56.070781
_cell_angle_gamma 90.000000
_cell_volume 2157.217602
_symmetry_space_group_name_H-M "C 2/C"
_symmetry_group_IT_number 15
_symmetry_cell_setting 'monoclinic'
loop_
_space_group_symop_operation_xyz
x,y,z
-x,y,1/2-z
-x,-y,-z
x,-y,1/2+z
1/2+x,1/2+y,z
1/2-x,1/2+y,1/2-z
1/2-x,1/2-y,-z
1/2+x,1/2-y,1/2+z
loop_
_atom_site_type_symbol
_atom_site_label
_atom_site_fract_x
_atom_site_fract_y
_atom_site_fract_z
Si Si1 0.238680 0.354905 0.706759
Si Si2 0.500000 0.055808 0.250000
Si Si3 0.656426 0.203283 0.973398
Si Si4 0.654661 0.973209 0.032634
Si Si5 0.621510 0.214429 0.419034
Si Si6 0.139099 0.038641 0.935787
O O1 0.314103 0.257739 0.628462
O O2 0.223538 0.332943 0.810515
O O3 0.302890 0.472221 0.667256
O O4 0.105381 0.360284 0.726392
O O5 0.547175 0.982358 0.151355
O O6 0.750000 0.250000 0.000000
O O7 0.513962 0.227930 0.059582
O O8 0.655974 0.072449 0.966416
O O9 0.789599 0.988787 0.011741
O O10 0.627736 0.860178 0.998315
O O11 0.664961 0.334992 0.417438
O O12 0.000000 0.000000 0.000000
#
# Coordination Sequence:
#
# PCOD8140104 Si02
#       6
#     8   4   8   8   8   8
#     4  11  23  39  67  96 130 175 219 270 332 389
#     4  10  20  40  66  96 130 166 228 266 326 394
#     4  12  21  41  68  95 129 173 223 277 325 394
#     4  11  24  41  67  98 130 173 226 276 334 398
#     4  12  25  41  67  97 136 169 225 274 337 403
#     4  11  23  46  64  91 135 175 216 278 334 395
#
# _framework density 20.396644999999999
#
# number of rings (size 3 to 8) (size 9 to 14) (size 15 to 20)
#    0.000    0.727    7.273    1.091    2.545    1.455 
#    0.000    0.909    0.000    0.000    0.000    0.000 
#    0.000    0.000    0.000    0.000    0.000    0.000 
#
# Total GULP energy -272632.399092 kJ/mol
# GULP energy per Si atom -12392.381777 kJ/mol
# Density = 2.035022 g / cm^3
# Si number density = 20.396645 Si / 1000 Ang^3
#
#
#
# Elastic Constant Matrix: (Units=GPa)
#
#
# Indices 1 2 3 4 5 6 
#
# 1 66.6946 16.2575 30.6828 0.0000 -16.2095 0.0000
# 2 16.2575 162.0289 75.0207 0.0000 3.8671 0.0000
# 3 30.6828 75.0207 128.6678 0.0000 3.6114 0.0000
# 4 0.0000 0.0000 0.0000 36.8335 0.0000 0.9412
# 5 -16.2095 3.8671 3.6114 0.0000 28.9117 0.0000
# 6 0.0000 0.0000 0.0000 0.9412 0.0000 29.0589
#
#
#
# Elastic Compliance Matrix: (Units=1/GPa)
#
#
# Indices 1 2 3 4 5 6 
#
# 1 0.020300 0.000101 -0.005237 0.000000 0.012022 0.000000
# 2 0.000101 0.008462 -0.004945 0.000000 -0.000457 0.000000
# 3 -0.005237 -0.004945 0.012010 0.000000 -0.003775 0.000000
# 4 0.000000 0.000000 0.000000 0.027172 0.000000 -0.000880
# 5 0.012022 -0.000457 -0.003775 0.000000 0.041861 0.000000
# 6 0.000000 0.000000 0.000000 -0.000880 0.000000 0.034441
#
#
# Mechanical properties :
#
#
# Convention : Reuss Voigt Hill
#
# Bulk Modulus (GPa) = 48.52041 66.81260 57.66651
# Shear Modulus (GPa) = 29.19202 34.65618 31.92410
#
# Velocity S-wave (km/s) = 3.78725 4.12650 3.96051
# Velocity P-wave (km/s) = 6.55472 7.45196 7.01770
#
# Compressibility (1/GPa) = 0.02060988
#
# Stress axis : x y z
#
# Youngs Moduli (GPa) = 49.26020 118.17281 83.26283
#
# Poissons Ratio (x) = -0.01195 0.43607
# Poissons Ratio (y) = -0.00498 0.41175
# Poissons Ratio (z) = 0.25799 0.58439
#
# Static dielectric constant tensor:
#      x y z
#    x 3.810020 0.000000 -0.152040 
#    y 0.000000 3.926970 0.000000 
#    z -0.152040 0.000000 4.023870 
# 
# 
# High freq. dielectric constant tensor:
#      x y z
#    x 1.795420 0.000000 -0.014790 
#    y 0.000000 1.807380 0.000000 
#    z -0.014790 0.000000 1.790640 
# 
# From -- ./inp_files/151332.got.cif
#   From: 2010.06.25/outbox.cif.g09.slc.cpg/sg15_76_cif.got.tgz:151332.got - 2010.06.28 07:06:18.
