data_PCOD8140891
_publ_section_title
;
Structure prediction by ZEFSAII (Michael W. Deem and Ramdas Pophale) SiO2 
 PCOD8140891
Probable space group: C 2/C
;
_chemical_formula_sum "Si O2"
_cell_formula_units_Z 36
_cell_length_a 7.740124
_cell_length_b 14.357872
_cell_length_c 14.978096
_cell_angle_alpha 90.000000
_cell_angle_beta 76.028813
_cell_angle_gamma 90.000000
_cell_volume 1615.299723
_symmetry_space_group_name_H-M "C 2/C"
_symmetry_group_IT_number 15
_symmetry_cell_setting 'monoclinic'
loop_
_space_group_symop_operation_xyz
x,y,z
-x,y,1/2-z
-x,-y,-z
x,-y,1/2+z
1/2+x,1/2+y,z
1/2-x,1/2+y,1/2-z
1/2-x,1/2-y,-z
1/2+x,1/2-y,1/2+z
loop_
_atom_site_type_symbol
_atom_site_label
_atom_site_fract_x
_atom_site_fract_y
_atom_site_fract_z
Si Si1 0.974310 0.890006 0.852613
Si Si2 0.000000 0.524386 0.750000
Si Si3 0.058475 0.771374 0.485711
Si Si4 0.378877 0.589180 0.682070
Si Si5 0.442301 0.075883 0.077814
O O1 0.769573 0.915314 0.894336
O O2 0.000000 0.847659 0.750000
O O3 0.048331 0.817245 0.917607
O O4 0.087047 0.983210 0.850442
O O5 0.170029 0.593381 0.733898
O O6 0.985715 0.455488 0.835713
O O7 0.250000 0.750000 0.500000
O O8 0.073185 0.843513 0.403869
O O9 0.969818 0.675352 0.461733
O O10 0.500000 0.619583 0.750000
O O11 0.500000 0.000000 0.000000
#
# Coordination Sequence:
#
# PCOD8140891 Si02
#       5
#     8   4   8   8   8
#     4  10  20  46  69 100 139 184 231 287 348 409
#     4  12  22  44  72  98 146 182 230 294 344 414
#     4  10  23  43  71 102 142 184 235 284 350 422
#     4  11  23  45  73 103 139 185 230 287 351 415
#     4  11  24  45  67 107 139 183 235 282 350 414
#
# _framework density 22.286885999999999
#
# number of rings (size 3 to 8) (size 9 to 14) (size 15 to 20)
#    0.000    1.333    4.444    3.333    1.556    0.000 
#   18.000    4.444    0.000    0.000    0.000    0.000 
#    0.000    0.000    0.000    0.000    0.000    0.000 
#
# Total GULP energy -223174.728209 kJ/mol
# GULP energy per Si atom -12398.596012 kJ/mol
# Density = 2.223616 g / cm^3
# Si number density = 22.286886 Si / 1000 Ang^3
#
#
#
# Elastic Constant Matrix: (Units=GPa)
#
#
# Indices 1 2 3 4 5 6 
#
# 1 91.9098 16.3969 46.5024 0.0000 3.6703 0.0000
# 2 16.3969 115.6655 110.6615 0.0000 15.2183 0.0000
# 3 46.5024 110.6615 219.8462 0.0000 22.9315 0.0000
# 4 0.0000 0.0000 0.0000 0.7393 0.0000 2.4578
# 5 3.6703 15.2183 22.9315 0.0000 40.1317 0.0000
# 6 0.0000 0.0000 0.0000 2.4578 0.0000 10.2268
#
#
#
# Elastic Compliance Matrix: (Units=1/GPa)
#
#
# Indices 1 2 3 4 5 6 
#
# 1 0.012309 0.001424 -0.003346 0.000000 0.000246 0.000000
# 2 0.001424 0.016942 -0.008662 0.000000 -0.001605 0.000000
# 3 -0.003346 -0.008662 0.009828 0.000000 -0.002025 0.000000
# 4 0.000000 0.000000 0.000000 6.729975 0.000000 -1.617394
# 5 0.000246 -0.001605 -0.002025 0.000000 0.026661 0.000000
# 6 0.000000 0.000000 0.000000 -1.617394 0.000000 0.486485
#
#
# Mechanical properties :
#
#
# Convention : Reuss Voigt Hill
#
# Bulk Modulus (GPa) = 55.83079 86.06037 70.94558
# Shear Modulus (GPa) = 0.68406 27.14360 13.91383
#
# Velocity S-wave (km/s) = 0.55462 3.49365 2.50132
# Velocity P-wave (km/s) = 5.05128 7.41436 6.34383
#
# Compressibility (1/GPa) = 0.01791126
#
# Stress axis : x y z
#
# Youngs Moduli (GPa) = 81.23889 59.02549 101.75505
#
# Poissons Ratio (x) = -0.08405 0.34049
# Poissons Ratio (y) = -0.11569 0.88136
# Poissons Ratio (z) = 0.27184 0.51125
#
# Static dielectric constant tensor:
#      x y z
#    x 3.921210 0.000000 -0.044120 
#    y 0.000000 4.624510 0.000000 
#    z -0.044120 0.000000 5.065670 
# 
# 
# High freq. dielectric constant tensor:
#      x y z
#    x 1.868120 0.000000 0.009270 
#    y 0.000000 1.876580 0.000000 
#    z 0.009270 0.000000 1.896960 
# 
# From -- ./inp_files/132609.got.cif
#   From: 2010.06.25/outbox.cif.g09.slc.cpg/sg15_67_cif.got.tgz:132609.got - 2010.06.28 07:06:18.
