data_PCOD8140783
_publ_section_title
;
Structure prediction by ZEFSAII (Michael W. Deem and Ramdas Pophale) SiO2 
 PCOD8140783
Probable space group: C 2/C
;
_chemical_formula_sum "Si O2"
_cell_formula_units_Z 52
_cell_length_a 6.226813
_cell_length_b 29.653307
_cell_length_c 14.203795
_cell_angle_alpha 90.000000
_cell_angle_beta 108.091743
_cell_angle_gamma 90.000000
_cell_volume 2493.004794
_symmetry_space_group_name_H-M "C 2/C"
_symmetry_group_IT_number 15
_symmetry_cell_setting 'monoclinic'
loop_
_space_group_symop_operation_xyz
x,y,z
-x,y,1/2-z
-x,-y,-z
x,-y,1/2+z
1/2+x,1/2+y,z
1/2-x,1/2+y,1/2-z
1/2-x,1/2-y,-z
1/2+x,1/2-y,1/2+z
loop_
_atom_site_type_symbol
_atom_site_label
_atom_site_fract_x
_atom_site_fract_y
_atom_site_fract_z
Si Si1 0.557114 0.552443 0.154289
Si Si2 0.184006 0.659447 0.852356
Si Si3 0.907152 0.107244 0.521451
Si Si4 0.500000 0.003562 0.250000
Si Si5 0.808176 0.477321 0.412308
Si Si6 0.995236 0.757667 0.354480
Si Si7 0.099603 0.312676 0.014304
O O1 0.500000 0.572577 0.250000
O O2 0.410128 0.508513 0.113801
O O3 0.815311 0.537058 0.180595
O O4 0.508966 0.589694 0.068509
O O5 0.376206 0.620916 0.885884
O O6 0.292441 0.706953 0.837700
O O7 0.000000 0.644450 0.750000
O O8 0.073490 0.663317 0.939560
O O9 0.760276 0.071275 0.559016
O O10 0.749447 0.150278 0.480602
O O11 0.395693 0.971933 0.317021
O O12 0.000000 0.500000 0.500000
O O13 0.955734 0.715765 0.419072
O O14 0.238425 0.779848 0.405114
O O15 0.000000 0.738296 0.250000
#
# Coordination Sequence:
#
# PCOD8140783 Si02
#       7
#     8   8   8   4   8   8   8
#     4  10  23  44  66  92 128 180 224 268 328 394
#     4  11  23  43  67  97 135 170 206 272 334 390
#     4  11  25  42  63  99 134 168 223 275 329 385
#     4  10  22  42  66  94 120 180 232 266 328 386
#     4  11  23  43  67  89 132 180 223 272 325 389
#     4  10  20  43  69  92 125 168 216 253 326 404
#     4  10  23  41  65  95 128 168 209 271 322 387
#
# _framework density 20.858362
#
# number of rings (size 3 to 8) (size 9 to 14) (size 15 to 20)
#    0.000    1.538    3.077    0.923    2.154    0.000 
#   15.231    0.000    0.000    0.000    0.000    0.000 
#    0.000    0.000    0.000    0.000    0.000    0.000 
#
# Total GULP energy -322514.992107 kJ/mol
# GULP energy per Si atom -12404.422773 kJ/mol
# Density = 2.081089 g / cm^3
# Si number density = 20.858362 Si / 1000 Ang^3
#
#
#
# Elastic Constant Matrix: (Units=GPa)
#
#
# Indices 1 2 3 4 5 6 
#
# 1 101.2485 39.3967 48.4376 0.0000 4.9454 0.0000
# 2 39.3967 98.4642 66.4854 0.0000 0.4575 0.0000
# 3 48.4376 66.4854 134.0198 0.0000 -4.3140 0.0000
# 4 0.0000 0.0000 0.0000 29.2711 0.0000 -0.5451
# 5 4.9454 0.4575 -4.3140 0.0000 44.5270 0.0000
# 6 0.0000 0.0000 0.0000 -0.5451 0.0000 21.2930
#
#
#
# Elastic Compliance Matrix: (Units=1/GPa)
#
#
# Indices 1 2 3 4 5 6 
#
# 1 0.012602 -0.002891 -0.003175 0.000000 -0.001678 0.000000
# 2 -0.002891 0.015970 -0.006894 0.000000 -0.000511 0.000000
# 3 -0.003175 -0.006894 0.012080 0.000000 0.001594 0.000000
# 4 0.000000 0.000000 0.000000 0.034180 0.000000 0.000875
# 5 -0.001678 -0.000511 0.001594 0.000000 0.022804 0.000000
# 6 0.000000 0.000000 0.000000 0.000875 0.000000 0.046986
#
#
# Mechanical properties :
#
#
# Convention : Reuss Voigt Hill
#
# Bulk Modulus (GPa) = 67.87314 71.37466 69.62390
# Shear Modulus (GPa) = 28.49758 30.97906 29.73832
#
# Velocity S-wave (km/s) = 3.70028 3.85802 3.77998
# Velocity P-wave (km/s) = 7.13209 7.35791 7.24588
#
# Compressibility (1/GPa) = 0.01473337
#
# Stress axis : x y z
#
# Youngs Moduli (GPa) = 79.35091 62.61664 82.77903
#
# Poissons Ratio (x) = 0.18102 0.26279
# Poissons Ratio (y) = 0.22940 0.57069
# Poissons Ratio (z) = 0.25190 0.43169
#
# Static dielectric constant tensor:
#      x y z
#    x 3.909640 0.000000 0.020170 
#    y 0.000000 3.581850 0.000000 
#    z 0.020170 0.000000 3.863150 
# 
# 
# High freq. dielectric constant tensor:
#      x y z
#    x 1.829970 0.000000 -0.000690 
#    y 0.000000 1.799340 0.000000 
#    z -0.000690 0.000000 1.825470 
# 
# From -- ./inp_files/130854.got.cif
#   From: 2010.06.25/outbox.cif.g09.slc.cpg/sg15_66_cif.got.tgz:130854.got - 2010.06.28 07:06:18.
