data_PCOD8140482
_publ_section_title
;
Structure prediction by ZEFSAII (Michael W. Deem and Ramdas Pophale) SiO2 
 PCOD8140482
Probable space group: C 2/C
;
_chemical_formula_sum "Si O2"
_cell_formula_units_Z 60
_cell_length_a 19.968712
_cell_length_b 13.738862
_cell_length_c 11.860161
_cell_angle_alpha 90.000000
_cell_angle_beta 66.332053
_cell_angle_gamma 90.000000
_cell_volume 2980.117871
_symmetry_space_group_name_H-M "C 2/C"
_symmetry_group_IT_number 15
_symmetry_cell_setting 'monoclinic'
loop_
_space_group_symop_operation_xyz
x,y,z
-x,y,1/2-z
-x,-y,-z
x,-y,1/2+z
1/2+x,1/2+y,z
1/2-x,1/2+y,1/2-z
1/2-x,1/2-y,-z
1/2+x,1/2-y,1/2+z
loop_
_atom_site_type_symbol
_atom_site_label
_atom_site_fract_x
_atom_site_fract_y
_atom_site_fract_z
Si Si1 0.765605 0.894770 0.427499
Si Si2 0.546376 0.637168 0.960139
Si Si3 0.864612 0.750215 0.475560
Si Si4 0.317767 0.473458 0.180178
Si Si5 0.000000 0.210490 0.750000
Si Si6 0.631630 0.257425 0.575196
Si Si7 0.237294 0.593535 0.535761
Si Si8 0.597789 0.655766 0.329661
O O1 0.826693 0.854910 0.472795
O O2 0.691468 0.837056 0.498358
O O3 0.801903 0.886035 0.279872
O O4 0.747030 0.009647 0.436901
O O5 0.607478 0.554740 0.935236
O O6 0.527018 0.648520 0.840400
O O7 0.578698 0.734968 0.001062
O O8 0.476755 0.601845 0.080924
O O9 0.890146 0.757992 0.587135
O O10 0.931656 0.726852 0.344301
O O11 0.248042 0.470314 0.143536
O O12 0.333473 0.580973 0.220357
O O13 0.702070 0.323964 0.509255
O O14 0.658337 0.145580 0.575809
O O15 0.588528 0.293769 0.715099
#
# Coordination Sequence:
#
# PCOD8140482 Si02
#       8
#     8   8   8   8   4   8   8   8
#     4  11  20  38  57  90 112 154 199 248 290 351
#     4  10  22  36  59  85 120 158 195 238 302 362
#     4  10  22  36  62  83 117 153 200 239 300 347
#     4  11  20  35  55  89 121 152 193 249 295 359
#     4  10  20  42  58  84 118 158 188 250 296 360
#     4  10  21  38  57  85 116 160 194 243 293 356
#     4  10  21  37  57  83 120 150 201 243 298 344
#     4  11  20  36  58  85 120 159 191 242 297 363
#
# _framework density 20.133431999999999
#
# number of rings (size 3 to 8) (size 9 to 14) (size 15 to 20)
#    0.000    1.600    4.000    1.600    0.000    0.000 
#    4.800    0.000    2.933    1.600    0.000    0.000 
#    0.000    0.000    0.000    0.000    0.000    0.000 
#
# Total GULP energy -371654.958117 kJ/mol
# GULP energy per Si atom -12388.498604 kJ/mol
# Density = 2.008761 g / cm^3
# Si number density = 20.133432 Si / 1000 Ang^3
#
#
#
# Elastic Constant Matrix: (Units=GPa)
#
#
# Indices 1 2 3 4 5 6 
#
# 1 80.0852 31.3234 30.9331 0.0000 6.3514 0.0000
# 2 31.3234 67.3731 17.0422 0.0000 -3.7053 0.0000
# 3 30.9331 17.0422 96.6140 0.0000 2.7110 0.0000
# 4 0.0000 0.0000 0.0000 19.8351 0.0000 -3.6937
# 5 6.3514 -3.7053 2.7110 0.0000 35.2238 0.0000
# 6 0.0000 0.0000 0.0000 -3.6937 0.0000 29.8273
#
#
#
# Elastic Compliance Matrix: (Units=1/GPa)
#
#
# Indices 1 2 3 4 5 6 
#
# 1 0.017148 -0.007120 -0.004136 0.000000 -0.003523 0.000000
# 2 -0.007120 0.018614 -0.001097 0.000000 0.003326 0.000000
# 3 -0.004136 -0.001097 0.011876 0.000000 -0.000284 0.000000
# 4 0.000000 0.000000 0.000000 0.051606 0.000000 0.006391
# 5 -0.003523 0.003326 -0.000284 0.000000 0.029397 0.000000
# 6 0.000000 0.000000 0.000000 0.006391 0.000000 0.034318
#
#
# Mechanical properties :
#
#
# Convention : Reuss Voigt Hill
#
# Bulk Modulus (GPa) = 43.60674 44.74107 44.17391
# Shear Modulus (GPa) = 25.60055 27.96214 26.78135
#
# Velocity S-wave (km/s) = 3.56974 3.73076 3.65114
# Velocity P-wave (km/s) = 6.22066 6.38973 6.30576
#
# Compressibility (1/GPa) = 0.02293223
#
# Stress axis : x y z
#
# Youngs Moduli (GPa) = 58.31435 53.72425 84.20326
#
# Poissons Ratio (x) = 0.38254 0.34823
# Poissons Ratio (y) = 0.41522 0.09237
# Poissons Ratio (z) = 0.24116 0.05893
#
# Static dielectric constant tensor:
#      x y z
#    x 3.847280 0.000000 0.039630 
#    y 0.000000 3.345070 0.000000 
#    z 0.039630 0.000000 3.756980 
# 
# 
# High freq. dielectric constant tensor:
#      x y z
#    x 1.781860 0.000000 0.007530 
#    y 0.000000 1.743040 0.000000 
#    z 0.007530 0.000000 1.797460 
# 
# From -- ./inp_files/112700.got.cif
#   From: 2010.06.25/outbox.cif.g09.slc.cpg/sg15_57_cif.got.tgz:112700.got - 2010.06.28 07:06:18.
