data_PCOD8140370
_publ_section_title
;
Structure prediction by ZEFSAII (Michael W. Deem and Ramdas Pophale) SiO2 
 PCOD8140370
Probable space group: C 2/C
;
_chemical_formula_sum "Si O2"
_cell_formula_units_Z 64
_cell_length_a 30.233228
_cell_length_b 8.893690
_cell_length_c 19.147699
_cell_angle_alpha 90.000000
_cell_angle_beta 38.704255
_cell_angle_gamma 90.000000
_cell_volume 3219.377856
_symmetry_space_group_name_H-M "C 2/C"
_symmetry_group_IT_number 15
_symmetry_cell_setting 'monoclinic'
loop_
_space_group_symop_operation_xyz
x,y,z
-x,y,1/2-z
-x,-y,-z
x,-y,1/2+z
1/2+x,1/2+y,z
1/2-x,1/2+y,1/2-z
1/2-x,1/2-y,-z
1/2+x,1/2-y,1/2+z
loop_
_atom_site_type_symbol
_atom_site_label
_atom_site_fract_x
_atom_site_fract_y
_atom_site_fract_z
Si Si1 0.188077 0.322519 0.620243
Si Si2 0.200075 0.668969 0.767647
Si Si3 0.458786 0.678385 0.730464
Si Si4 0.053515 0.333902 0.503938
Si Si5 0.811979 0.320441 0.377643
Si Si6 0.534419 0.163798 0.522312
Si Si7 0.458153 0.670348 0.232071
Si Si8 0.685372 0.817098 0.780803
O O1 0.250000 0.250000 0.500000
O O2 0.112365 0.274710 0.683332
O O3 0.192384 0.501106 0.611024
O O4 0.198820 0.261137 0.685564
O O5 0.195570 0.730983 0.693889
O O6 0.270521 0.727488 0.716621
O O7 0.203885 0.490686 0.763102
O O8 0.134369 0.722204 0.897069
O O9 0.500000 0.719841 0.750000
O O10 0.509555 0.715513 0.602851
O O11 0.437948 0.504259 0.752885
O O12 0.046583 0.501895 0.545247
O O13 0.028816 0.348997 0.454653
O O14 0.750000 0.250000 0.500000
O O15 0.886828 0.266751 0.315729
O O16 0.512838 0.289647 0.603840
O O17 0.604053 0.217762 0.396787
O O18 0.500000 0.711265 0.250000
#
# Coordination Sequence:
#
# PCOD8140370 Si02
#       8
#     8   8   8   8   8   8   8   8
#     4  11  24  44  65  90 126 165 206 254 306 367
#     4  10  23  41  63  91 124 160 202 252 306 364
#     4  11  25  42  62  93 127 162 206 256 307 364
#     4  10  20  41  66  89 119 159 206 255 307 363
#     4  11  24  44  65  90 126 165 206 254 306 367
#     4  10  20  41  66  89 119 159 206 255 307 363
#     4  11  25  42  62  93 127 162 206 256 307 364
#     4  10  23  41  63  91 124 160 202 252 306 364
#
# _framework density 19.879617
#
# number of rings (size 3 to 8) (size 9 to 14) (size 15 to 20)
#    0.000    1.500    2.500    1.500    3.500    5.500 
#    0.000    0.000    0.000    0.000    0.000    0.000 
#    0.000    0.000    0.000    0.000    0.000    0.000 
#
# Total GULP energy -396899.455472 kJ/mol
# GULP energy per Si atom -12403.107984 kJ/mol
# Density = 1.983437 g / cm^3
# Si number density = 19.879617 Si / 1000 Ang^3
#
#
#
# Elastic Constant Matrix: (Units=GPa)
#
#
# Indices 1 2 3 4 5 6 
#
# 1 107.1785 45.9969 41.5944 0.0174 1.7386 -0.0049
# 2 45.9969 62.2577 44.7850 0.0444 1.7533 -0.0338
# 3 41.5944 44.7850 125.4825 0.0269 2.5688 -0.0277
# 4 0.0174 0.0444 0.0269 38.6372 -0.0178 -3.4512
# 5 1.7386 1.7533 2.5688 -0.0178 27.9839 0.0081
# 6 -0.0049 -0.0338 -0.0277 -3.4512 0.0081 32.3343
#
#
#
# Elastic Compliance Matrix: (Units=1/GPa)
#
#
# Indices 1 2 3 4 5 6 
#
# 1 0.013809 -0.009294 -0.001257 0.000005 -0.000160 -0.000008
# 2 -0.009294 0.027877 -0.006858 -0.000022 -0.000540 0.000020
# 3 -0.001257 -0.006858 0.010843 0.000001 -0.000488 0.000002
# 4 0.000005 -0.000022 0.000001 0.026131 0.000017 0.002789
# 5 -0.000160 -0.000540 -0.000488 0.000017 0.035823 -0.000008
# 6 -0.000008 0.000020 0.000002 0.002789 -0.000008 0.031225
#
#
# Mechanical properties :
#
#
# Convention : Reuss Voigt Hill
#
# Bulk Modulus (GPa) = 56.45709 62.18570 59.32140
# Shear Modulus (GPa) = 26.81980 30.62723 28.72351
#
# Velocity S-wave (km/s) = 3.67701 3.92935 3.80527
# Velocity P-wave (km/s) = 6.81824 7.20662 7.01512
#
# Compressibility (1/GPa) = 0.01771257
#
# Stress axis : x y z
#
# Youngs Moduli (GPa) = 72.41562 35.87220 92.22139
#
# Poissons Ratio (x) = 0.33338 0.11595
# Poissons Ratio (y) = 0.67300 0.63242
# Poissons Ratio (z) = 0.09104 0.24600
#
# Static dielectric constant tensor:
#      x y z
#    x 3.867330 -0.000010 -0.128100 
#    y -0.000010 3.564580 0.000030 
#    z -0.128100 0.000030 3.813670 
# 
# 
# High freq. dielectric constant tensor:
#      x y z
#    x 1.781590 0.000000 -0.004440 
#    y 0.000000 1.772540 0.000000 
#    z -0.004440 0.000000 1.788970 
# 
# From -- ./inp_files/224591.got.cif
#   From: 2010.06.25/outbox.cif.g09.slc.cpg/sg15_113_cif.got.tgz:224591.got - 2010.06.28 07:06:18.
