data_PCOD8140194
_publ_section_title
;
Structure prediction by ZEFSAII (Michael W. Deem and Ramdas Pophale) SiO2 
 PCOD8140194
Probable space group: C 2/C
;
_chemical_formula_sum "Si O2"
_cell_formula_units_Z 40
_cell_length_a 25.684437
_cell_length_b 9.737366
_cell_length_c 18.346550
_cell_angle_alpha 90.000000
_cell_angle_beta 21.697561
_cell_angle_gamma 90.000000
_cell_volume 1696.382830
_symmetry_space_group_name_H-M "C 2/C"
_symmetry_group_IT_number 15
_symmetry_cell_setting 'monoclinic'
loop_
_space_group_symop_operation_xyz
x,y,z
-x,y,1/2-z
-x,-y,-z
x,-y,1/2+z
1/2+x,1/2+y,z
1/2-x,1/2+y,1/2-z
1/2-x,1/2-y,-z
1/2+x,1/2-y,1/2+z
loop_
_atom_site_type_symbol
_atom_site_label
_atom_site_fract_x
_atom_site_fract_y
_atom_site_fract_z
Si Si1 0.851546 0.561308 0.170429
Si Si2 0.156728 0.961511 0.048634
Si Si3 0.138782 0.137896 0.878318
Si Si4 0.839350 0.268372 0.458084
Si Si5 0.356292 0.506003 0.273015
O O1 0.765012 0.615168 0.354525
O O2 0.863060 0.698069 0.105185
O O3 0.779832 0.437656 0.219817
O O4 0.000000 0.500000 0.000000
O O5 0.207179 0.952189 0.067281
O O6 0.000000 0.897160 0.250000
O O7 0.156812 0.116101 0.013146
O O8 0.121513 0.114746 0.813760
O O9 0.007412 0.074522 0.093401
O O10 0.750000 0.250000 0.500000
O O11 0.750122 0.378449 0.621248
O O12 0.000000 0.324325 0.250000
#
# Coordination Sequence:
#
# PCOD8140194 Si02
#       5
#     8   8   8   8   8
#     4  12  28  46  73 107 145 189 243 302 367 435
#     4  10  20  40  68  99 138 188 237 293 356 431
#     4  11  27  44  71 103 146 190 239 298 369 432
#     4   9  19  34  63  98 129 172 232 288 342 421
#     4  10  22  43  70  97 140 190 237 295 361 426
#
# _framework density 23.579583
#
# number of rings (size 3 to 8) (size 9 to 14) (size 15 to 20)
#    0.000    1.600    2.000    1.200    8.400    4.000 
#    0.000    1.000    0.000    0.000    0.000    0.000 
#    0.000    0.000    0.000    0.000    0.000    0.000 
#
# Total GULP energy -247862.625548 kJ/mol
# GULP energy per Si atom -12393.131277 kJ/mol
# Density = 2.352591 g / cm^3
# Si number density = 23.579583 Si / 1000 Ang^3
#
#
#
# Elastic Constant Matrix: (Units=GPa)
#
#
# Indices 1 2 3 4 5 6 
#
# 1 83.6613 24.4708 27.3311 0.0000 -19.8468 0.0000
# 2 24.4708 93.2777 14.7206 0.0003 -21.9350 -0.0001
# 3 27.3311 14.7206 112.5756 0.0002 -31.0853 0.0000
# 4 0.0000 0.0003 0.0002 30.7434 0.0000 -0.4033
# 5 -19.8468 -21.9350 -31.0853 0.0000 52.5174 0.0000
# 6 0.0000 -0.0001 0.0000 -0.4033 0.0000 31.6221
#
#
#
# Elastic Compliance Matrix: (Units=1/GPa)
#
#
# Indices 1 2 3 4 5 6 
#
# 1 0.014169 -0.002678 -0.002295 0.000000 0.002877 0.000000
# 2 -0.002678 0.012399 0.000214 0.000000 0.004294 0.000000
# 3 -0.002295 0.000214 0.010994 0.000000 0.005730 0.000000
# 4 0.000000 0.000000 0.000000 0.032533 0.000000 0.000415
# 5 0.002877 0.004294 0.005730 0.000000 0.025313 0.000000
# 6 0.000000 0.000000 0.000000 0.000415 0.000000 0.031629
#
#
# Mechanical properties :
#
#
# Convention : Reuss Voigt Hill
#
# Bulk Modulus (GPa) = 35.65790 46.95105 41.30447
# Shear Modulus (GPa) = 34.26935 37.84271 36.05603
#
# Velocity S-wave (km/s) = 3.81642 4.01046 3.91464
# Velocity P-wave (km/s) = 5.88007 6.43428 6.16341
#
# Compressibility (1/GPa) = 0.02804428
#
# Stress axis : x y z
#
# Youngs Moduli (GPa) = 70.57799 80.65092 90.95668
#
# Poissons Ratio (x) = 0.21600 0.20876
# Poissons Ratio (y) = 0.18902 -0.01951
# Poissons Ratio (z) = 0.16199 -0.01730
#
# Static dielectric constant tensor:
#      x y z
#    x 4.105870 0.000000 -0.012760 
#    y 0.000000 4.149790 0.000000 
#    z -0.012760 0.000000 4.369050 
# 
# 
# High freq. dielectric constant tensor:
#      x y z
#    x 1.949000 0.000000 -0.000690 
#    y 0.000000 1.903600 0.000000 
#    z -0.000690 0.000000 1.935810 
# 
# From -- ./inp_files/258920.got.cif
#   From: 2010.06.25/outbox.cif.g09.slc.cpg/sg15_130_cif.got.tgz:258920.got - 2010.06.28 07:06:18.
