data_PCOD8140694
_publ_section_title
;
Structure prediction by ZEFSAII (Michael W. Deem and Ramdas Pophale) SiO2 
 PCOD8140694
Probable space group: C 2/C
;
_chemical_formula_sum "Si O2"
_cell_formula_units_Z 64
_cell_length_a 23.887311
_cell_length_b 19.659839
_cell_length_c 17.820993
_cell_angle_alpha 90.000000
_cell_angle_beta 21.130539
_cell_angle_gamma 90.000000
_cell_volume 3017.013084
_symmetry_space_group_name_H-M "C 2/C"
_symmetry_group_IT_number 15
_symmetry_cell_setting 'monoclinic'
loop_
_space_group_symop_operation_xyz
x,y,z
-x,y,1/2-z
-x,-y,-z
x,-y,1/2+z
1/2+x,1/2+y,z
1/2-x,1/2+y,1/2-z
1/2-x,1/2-y,-z
1/2+x,1/2-y,1/2+z
loop_
_atom_site_type_symbol
_atom_site_label
_atom_site_fract_x
_atom_site_fract_y
_atom_site_fract_z
Si Si1 0.982716 0.509294 0.433488
Si Si2 0.588208 0.846268 0.827301
Si Si3 0.370962 0.901560 0.350433
Si Si4 0.036286 0.292196 0.056745
Si Si5 0.857339 0.042635 0.149278
Si Si6 0.672820 0.332684 0.715828
Si Si7 0.581546 0.399123 0.077908
Si Si8 0.575189 0.735338 0.732972
O O1 0.812578 0.486079 0.616527
O O2 0.000000 0.500000 0.500000
O O3 0.996396 0.589960 0.406562
O O4 0.119481 0.467942 0.217005
O O5 0.768553 0.857060 0.581829
O O6 0.515633 0.781029 0.877016
O O7 0.577235 0.834559 0.930484
O O8 0.500000 0.916865 0.250000
O O9 0.400093 0.834255 0.265868
O O10 0.213831 0.882091 0.592836
O O11 0.971025 0.216487 0.124357
O O12 0.182063 0.288982 0.932318
O O13 0.881008 0.118251 0.150460
O O14 0.871633 0.044828 0.041320
O O15 0.000000 0.000000 0.000000
O O16 0.500000 0.437594 0.250000
O O17 0.459987 0.342532 0.200454
O O18 0.500000 0.759028 0.750000
O O19 0.750000 0.750000 0.500000
#
# Coordination Sequence:
#
# PCOD8140694 Si02
#       8
#     8   8   8   8   8   8   8   8
#     4  12  22  45  72  92 134 181 228 268 329 414
#     4  12  23  40  71  97 131 183 227 271 338 408
#     4  10  20  42  70  95 132 171 219 273 333 390
#     4  11  22  40  71  98 134 172 222 275 337 395
#     4  12  26  46  64  98 140 173 222 282 331 398
#     4  11  23  44  68 102 134 175 220 279 339 400
#     4  11  22  44  66  92 137 177 216 284 340 390
#     4  11  23  41  64  98 133 167 224 280 332 399
#
# _framework density 21.213034
#
# number of rings (size 3 to 8) (size 9 to 14) (size 15 to 20)
#    0.000    0.750    8.750    1.125    0.000    3.500 
#    0.000    0.000    0.000    0.000    0.000    0.000 
#    0.000    0.000    0.000    0.000    0.000    0.000 
#
# Total GULP energy -396527.167272 kJ/mol
# GULP energy per Si atom -12391.473977 kJ/mol
# Density = 2.116475 g / cm^3
# Si number density = 21.213034 Si / 1000 Ang^3
#
#
#
# Elastic Constant Matrix: (Units=GPa)
#
#
# Indices 1 2 3 4 5 6 
#
# 1 86.1604 23.0089 28.9558 -0.0046 10.3877 0.0010
# 2 23.0089 86.3191 33.2881 -0.0108 -2.6485 0.0038
# 3 28.9558 33.2881 94.7908 -0.0090 3.1916 0.0048
# 4 -0.0046 -0.0108 -0.0090 34.2768 0.0044 1.4368
# 5 10.3877 -2.6485 3.1916 0.0044 41.8054 -0.0006
# 6 0.0010 0.0038 0.0048 1.4368 -0.0006 43.8926
#
#
#
# Elastic Compliance Matrix: (Units=1/GPa)
#
#
# Indices 1 2 3 4 5 6 
#
# 1 0.013761 -0.002536 -0.003201 0.000001 -0.003336 0.000000
# 2 -0.002536 0.013928 -0.004178 0.000003 0.001832 -0.000001
# 3 -0.003201 -0.004178 0.013010 0.000002 -0.000463 -0.000001
# 4 0.000001 0.000003 0.000002 0.029214 -0.000003 -0.000956
# 5 -0.003336 0.001832 -0.000463 -0.000003 0.024901 0.000000
# 6 0.000000 -0.000001 -0.000001 -0.000956 0.000000 0.022814
#
#
# Mechanical properties :
#
#
# Convention : Reuss Voigt Hill
#
# Bulk Modulus (GPa) = 47.91655 48.64176 48.27916
# Shear Modulus (GPa) = 34.62222 36.12947 35.37584
#
# Velocity S-wave (km/s) = 4.04433 4.13143 4.08811
# Velocity P-wave (km/s) = 6.66679 6.76300 6.71507
#
# Compressibility (1/GPa) = 0.02086961
#
# Stress axis : x y z
#
# Youngs Moduli (GPa) = 72.66722 71.79544 76.86312
#
# Poissons Ratio (x) = 0.18209 0.24602
# Poissons Ratio (y) = 0.18430 0.32115
# Poissons Ratio (z) = 0.23259 0.29998
#
# Static dielectric constant tensor:
#      x y z
#    x 4.161640 -0.000060 0.262790 
#    y -0.000060 4.188790 0.000030 
#    z 0.262790 0.000030 4.012450 
# 
# 
# High freq. dielectric constant tensor:
#      x y z
#    x 1.833550 0.000000 0.021750 
#    y 0.000000 1.822670 0.000000 
#    z 0.021750 0.000000 1.829760 
# 
# From -- ./inp_files/220262.got.cif
#   From: 2010.06.25/outbox.cif.g09.slc.cpg/sg15_111_cif.got.tgz:220262.got - 2010.06.28 07:06:18.
