data_PCOD8140686
_publ_section_title
;
Structure prediction by ZEFSAII (Michael W. Deem and Ramdas Pophale) SiO2 
 PCOD8140686
Probable space group: C 2/C
;
_chemical_formula_sum "Si O2"
_cell_formula_units_Z 64
_cell_length_a 9.313777
_cell_length_b 27.608904
_cell_length_c 18.201340
_cell_angle_alpha 90.000000
_cell_angle_beta 139.864107
_cell_angle_gamma 90.000000
_cell_volume 3016.966427
_symmetry_space_group_name_H-M "C 2/C"
_symmetry_group_IT_number 15
_symmetry_cell_setting 'monoclinic'
loop_
_space_group_symop_operation_xyz
x,y,z
-x,y,1/2-z
-x,-y,-z
x,-y,1/2+z
1/2+x,1/2+y,z
1/2-x,1/2+y,1/2-z
1/2-x,1/2-y,-z
1/2+x,1/2-y,1/2+z
loop_
_atom_site_type_symbol
_atom_site_label
_atom_site_fract_x
_atom_site_fract_y
_atom_site_fract_z
Si Si1 0.571025 0.162646 0.106851
Si Si2 0.582367 0.692327 0.951369
Si Si3 0.422865 0.451678 0.512512
Si Si4 0.949723 0.476162 0.316491
Si Si5 0.252085 0.887850 0.178247
Si Si6 0.869429 0.738108 0.265576
Si Si7 0.045464 0.263376 0.471681
Si Si8 0.314981 0.563828 0.237531
O O1 0.726512 0.196003 0.219682
O O2 0.672731 0.109514 0.153269
O O3 0.588021 0.186261 0.032130
O O4 0.318612 0.164735 0.040207
O O5 0.384740 0.657269 0.845396
O O6 0.573720 0.734674 0.887236
O O7 0.513696 0.716040 0.002383
O O8 0.500000 0.500000 0.500000
O O9 0.402775 0.407099 0.448831
O O10 0.581605 0.433097 0.640148
O O11 0.176525 0.462574 0.447472
O O12 0.779464 0.430435 0.249976
O O13 0.853409 0.519397 0.326313
O O14 0.000000 0.489200 0.250000
O O15 0.500000 0.872030 0.250000
O O16 0.667235 0.773059 0.163831
O O17 0.000000 0.713190 0.250000
O O18 0.250000 0.250000 0.500000
O O19 0.500000 0.552574 0.250000
#
# Coordination Sequence:
#
# PCOD8140686 Si02
#       8
#     8   8   8   8   8   8   8   8
#     4  11  26  42  62 101 137 169 227 271 336 407
#     4  11  23  41  67  98 126 173 229 271 319 409
#     4  10  20  42  70  91 129 175 225 262 324 407
#     4   9  20  44  68  93 126 177 228 269 322 407
#     4   9  21  39  64  98 122 163 232 271 308 388
#     4  11  21  44  66  88 131 181 216 266 330 398
#     4  11  25  43  68  94 135 178 217 278 341 394
#     4  12  27  41  65 106 142 167 216 293 350 385
#
# _framework density 21.213360999999999
#
# number of rings (size 3 to 8) (size 9 to 14) (size 15 to 20)
#    0.000    1.750    5.000    0.750    7.000    2.000 
#    2.250    0.625    0.000    0.000    0.000    0.000 
#    0.000    0.000    0.000    0.000    0.000    0.000 
#
# Total GULP energy -396481.405032 kJ/mol
# GULP energy per Si atom -12390.043907 kJ/mol
# Density = 2.116508 g / cm^3
# Si number density = 21.213361 Si / 1000 Ang^3
#
#
#
# Elastic Constant Matrix: (Units=GPa)
#
#
# Indices 1 2 3 4 5 6 
#
# 1 94.1604 33.2998 23.6712 0.0005 6.3545 0.0002
# 2 33.2998 94.5116 24.5388 -0.0001 6.8978 -0.0001
# 3 23.6712 24.5388 102.5366 0.0012 5.4116 0.0010
# 4 0.0005 -0.0001 0.0012 38.6692 0.0006 2.5879
# 5 6.3545 6.8978 5.4116 0.0006 23.0790 0.0003
# 6 0.0002 -0.0001 0.0010 2.5879 0.0003 24.3266
#
#
#
# Elastic Compliance Matrix: (Units=1/GPa)
#
#
# Indices 1 2 3 4 5 6 
#
# 1 0.012566 -0.003799 -0.001893 0.000000 -0.001881 0.000000
# 2 -0.003799 0.012608 -0.002022 0.000000 -0.002248 0.000000
# 3 -0.001893 -0.002022 0.010747 0.000000 -0.001395 0.000000
# 4 0.000000 0.000000 0.000000 0.026046 -0.000001 -0.002771
# 5 -0.001881 -0.002248 -0.001395 -0.000001 0.044846 0.000000
# 6 0.000000 0.000000 0.000000 -0.002771 0.000000 0.041402
#
#
# Mechanical properties :
#
#
# Convention : Reuss Voigt Hill
#
# Bulk Modulus (GPa) = 48.79219 50.46979 49.63099
# Shear Modulus (GPa) = 29.33006 31.19492 30.26249
#
# Velocity S-wave (km/s) = 3.72240 3.83891 3.78110
# Velocity P-wave (km/s) = 6.44404 6.59491 6.51991
#
# Compressibility (1/GPa) = 0.02049508
#
# Stress axis : x y z
#
# Youngs Moduli (GPa) = 79.57750 79.31348 93.04957
#
# Poissons Ratio (x) = 0.30130 0.17611
# Poissons Ratio (y) = 0.30231 0.18812
# Poissons Ratio (z) = 0.15061 0.16035
#
# Static dielectric constant tensor:
#      x y z
#    x 3.661510 0.000000 0.100610 
#    y 0.000000 3.762080 0.000000 
#    z 0.100610 0.000000 4.219370 
# 
# 
# High freq. dielectric constant tensor:
#      x y z
#    x 1.813390 0.000000 0.011370 
#    y 0.000000 1.821620 0.000000 
#    z 0.011370 0.000000 1.849970 
# 
# From -- ./inp_files/194273.got.cif
#   From: 2010.06.25/outbox.cif.g09.slc.cpg/sg15_98_cif.got.tgz:194273.got - 2010.06.28 07:06:18.
