data_PCOD8140758
_publ_section_title
;
Structure prediction by ZEFSAII (Michael W. Deem and Ramdas Pophale) SiO2 
 PCOD8140758
Probable space group: C 2/C
;
_chemical_formula_sum "Si O2"
_cell_formula_units_Z 48
_cell_length_a 10.576788
_cell_length_b 15.876514
_cell_length_c 18.195677
_cell_angle_alpha 90.000000
_cell_angle_beta 45.114782
_cell_angle_gamma 90.000000
_cell_volume 2164.863225
_symmetry_space_group_name_H-M "C 2/C"
_symmetry_group_IT_number 15
_symmetry_cell_setting 'monoclinic'
loop_
_space_group_symop_operation_xyz
x,y,z
-x,y,1/2-z
-x,-y,-z
x,-y,1/2+z
1/2+x,1/2+y,z
1/2-x,1/2+y,1/2-z
1/2-x,1/2-y,-z
1/2+x,1/2-y,1/2+z
loop_
_atom_site_type_symbol
_atom_site_label
_atom_site_fract_x
_atom_site_fract_y
_atom_site_fract_z
Si Si1 0.690338 0.877398 0.177606
Si Si2 0.208090 0.350648 0.593511
Si Si3 0.744228 0.453652 0.792174
Si Si4 0.199737 0.115930 0.153713
Si Si5 0.533760 0.246520 0.412868
Si Si6 0.663665 0.527329 0.017618
O O1 0.500000 0.828835 0.250000
O O2 0.834603 0.822768 0.164505
O O3 0.642844 0.961590 0.243208
O O4 0.764242 0.901159 0.066678
O O5 0.174612 0.376933 0.692175
O O6 0.366377 0.282150 0.526648
O O7 0.254175 0.434871 0.528485
O O8 0.032541 0.306744 0.630596
O O9 0.756762 0.435193 0.702034
O O10 0.549334 0.475241 0.904809
O O11 0.342608 0.190509 0.083474
O O12 0.211145 0.053308 0.080896
O O13 0.000000 0.151439 0.250000
#
# Coordination Sequence:
#
# PCOD8140758 Si02
#       6
#     8   8   8   8   8   8
#     4  11  22  39  68  95 123 166 218 258 314 378
#     4  10  21  40  69  88 124 171 207 259 321 367
#     4  10  20  43  65  94 123 170 213 255 306 388
#     4  10  24  40  64  92 132 164 208 261 317 366
#     4  11  22  40  60  96 127 156 212 263 319 366
#     4  10  20  44  67  88 125 171 210 257 308 383
#
# _framework density 22.1723
#
# number of rings (size 3 to 8) (size 9 to 14) (size 15 to 20)
#    0.000    1.667    3.333    1.500    4.667    1.333 
#    3.000    3.333    0.000    0.000    0.000    0.000 
#    0.000    0.000    0.000    0.000    0.000    0.000 
#
# Total GULP energy -297518.923753 kJ/mol
# GULP energy per Si atom -12396.621823 kJ/mol
# Density = 2.212184 g / cm^3
# Si number density = 22.172300 Si / 1000 Ang^3
#
#
#
# Elastic Constant Matrix: (Units=GPa)
#
#
# Indices 1 2 3 4 5 6 
#
# 1 144.0826 61.5177 44.9241 0.0005 -4.0801 -0.0001
# 2 61.5177 102.2805 32.0549 0.0008 2.3976 0.0000
# 3 44.9241 32.0549 61.9776 0.0035 -4.3359 -0.0005
# 4 0.0005 0.0008 0.0035 13.0911 -0.0008 -13.2443
# 5 -4.0801 2.3976 -4.3359 -0.0008 43.3011 0.0002
# 6 -0.0001 0.0000 -0.0005 -13.2443 0.0002 44.2783
#
#
#
# Elastic Compliance Matrix: (Units=1/GPa)
#
#
# Indices 1 2 3 4 5 6 
#
# 1 0.010615 -0.004782 -0.005169 0.000002 0.000747 0.000001
# 2 -0.004782 0.013891 -0.003830 0.000000 -0.001603 0.000000
# 3 -0.005169 -0.003830 0.021997 -0.000007 0.001928 -0.000002
# 4 0.000002 0.000000 -0.000007 0.109534 0.000001 0.032763
# 5 0.000747 -0.001603 0.001928 0.000001 0.023446 0.000000
# 6 0.000001 0.000000 -0.000002 0.032763 0.000000 0.032384
#
#
# Mechanical properties :
#
#
# Convention : Reuss Voigt Hill
#
# Bulk Modulus (GPa) = 52.79502 65.03713 58.91607
# Shear Modulus (GPa) = 20.34631 31.45705 25.90168
#
# Velocity S-wave (km/s) = 3.03255 3.77072 3.42160
# Velocity P-wave (km/s) = 6.01039 6.95371 6.49919
#
# Compressibility (1/GPa) = 0.01894118
#
# Stress axis : x y z
#
# Youngs Moduli (GPa) = 94.20675 71.98707 45.46024
#
# Poissons Ratio (x) = 0.34425 0.23496
# Poissons Ratio (y) = 0.45051 0.17413
# Poissons Ratio (z) = 0.48691 0.27575
#
# Static dielectric constant tensor:
#      x y z
#    x 4.195300 0.000000 -0.338060 
#    y 0.000000 4.033930 0.000000 
#    z -0.338060 0.000000 3.885790 
# 
# 
# High freq. dielectric constant tensor:
#      x y z
#    x 1.884900 0.000000 -0.025590 
#    y 0.000000 1.870350 0.000000 
#    z -0.025590 0.000000 1.863980 
# 
# From -- ./inp_files/238955.got.cif
#   From: 2010.06.25/outbox.cif.g09.slc.cpg/sg15_120_cif.got.tgz:238955.got - 2010.06.28 07:06:18.
