data_PCOD8140889
_publ_section_title
;
Structure prediction by ZEFSAII (Michael W. Deem and Ramdas Pophale) SiO2 
 PCOD8140889
Probable space group: C 2/C
;
_chemical_formula_sum "Si O2"
_cell_formula_units_Z 52
_cell_length_a 31.325233
_cell_length_b 7.530028
_cell_length_c 13.342633
_cell_angle_alpha 90.000000
_cell_angle_beta 52.446372
_cell_angle_gamma 90.000000
_cell_volume 2495.093821
_symmetry_space_group_name_H-M "C 2/C"
_symmetry_group_IT_number 15
_symmetry_cell_setting 'monoclinic'
loop_
_space_group_symop_operation_xyz
x,y,z
-x,y,1/2-z
-x,-y,-z
x,-y,1/2+z
1/2+x,1/2+y,z
1/2-x,1/2+y,1/2-z
1/2-x,1/2-y,-z
1/2+x,1/2-y,1/2+z
loop_
_atom_site_type_symbol
_atom_site_label
_atom_site_fract_x
_atom_site_fract_y
_atom_site_fract_z
Si Si1 0.314850 0.790427 0.639305
Si Si2 0.589140 0.949931 0.485397
Si Si3 0.329547 0.409228 0.919386
Si Si4 0.250604 0.428335 0.383583
Si Si5 0.590892 0.120320 0.758500
Si Si6 0.000000 0.411553 0.250000
Si Si7 0.140017 0.718200 0.087975
O O1 0.375155 0.868901 0.568480
O O2 0.314743 0.639862 0.554160
O O3 0.294927 0.702688 0.771297
O O4 0.274767 0.949066 0.666796
O O5 0.532711 0.972286 0.622953
O O6 0.573633 0.880961 0.398168
O O7 0.622857 0.799420 0.496037
O O8 0.276434 0.446351 0.930812
O O9 0.357642 0.243283 0.826664
O O10 0.369275 0.580608 0.862137
O O11 0.204141 0.315313 0.505103
O O12 0.542768 0.198560 0.756760
O O13 0.605746 0.920859 0.702511
#
# Coordination Sequence:
#
# PCOD8140889 Si02
#       7
#     8   8   8   8   8   4   8
#     4  11  23  39  61  96 130 169 214 256 306 383
#     4  10  22  42  69  90 127 165 208 266 321 378
#     4  12  23  39  63  91 131 171 208 262 310 371
#     4  11  23  37  61  92 133 179 208 255 308 374
#     4  11  23  42  68  93 124 165 213 265 325 374
#     4  10  20  46  68  96 120 162 212 272 326 370
#     4  10  23  41  59  96 133 167 214 257 303 382
#
# _framework density 20.840900000000001
#
# number of rings (size 3 to 8) (size 9 to 14) (size 15 to 20)
#    0.000    1.231    4.615    3.231    6.462    0.000 
#    0.000    3.077    0.000    6.462    0.000    0.000 
#    0.000    0.000    0.000    0.000    0.000    0.000 
#
# Total GULP energy -322383.896100 kJ/mol
# GULP energy per Si atom -12399.380619 kJ/mol
# Density = 2.079347 g / cm^3
# Si number density = 20.840900 Si / 1000 Ang^3
#
#
#
# Elastic Constant Matrix: (Units=GPa)
#
#
# Indices 1 2 3 4 5 6 
#
# 1 91.1933 -5.9472 26.9403 -0.0001 7.8435 -0.0001
# 2 -5.9472 62.1877 0.6265 -0.0003 -0.2387 -0.0003
# 3 26.9403 0.6265 102.1086 0.0000 5.2799 0.0000
# 4 -0.0001 -0.0003 0.0000 21.3684 0.0000 6.2982
# 5 7.8435 -0.2387 5.2799 0.0000 37.7592 0.0000
# 6 -0.0001 -0.0003 0.0000 6.2982 0.0000 14.5071
#
#
#
# Elastic Compliance Matrix: (Units=1/GPa)
#
#
# Indices 1 2 3 4 5 6 
#
# 1 0.012138 0.001184 -0.003102 0.000000 -0.002080 0.000000
# 2 0.001184 0.016197 -0.000407 0.000000 -0.000087 0.000000
# 3 -0.003102 -0.000407 0.010658 0.000000 -0.000849 0.000000
# 4 0.000000 0.000000 0.000000 0.053665 0.000000 -0.023299
# 5 -0.002080 -0.000087 -0.000849 0.000000 0.027034 0.000000
# 6 0.000000 0.000000 0.000000 -0.023299 0.000000 0.079047
#
#
# Mechanical properties :
#
#
# Convention : Reuss Voigt Hill
#
# Bulk Modulus (GPa) = 29.11796 33.19208 31.15502
# Shear Modulus (GPa) = 23.27327 30.31827 26.79577
#
# Velocity S-wave (km/s) = 3.34535 3.81825 3.58960
# Velocity P-wave (km/s) = 5.37807 5.94977 5.67113
#
# Compressibility (1/GPa) = 0.03434307
#
# Stress axis : x y z
#
# Youngs Moduli (GPa) = 82.38369 61.73850 93.82296
#
# Poissons Ratio (x) = -0.07310 0.29106
# Poissons Ratio (y) = -0.09755 0.03821
# Poissons Ratio (z) = 0.25558 0.02515
#
# Static dielectric constant tensor:
#      x y z
#    x 3.965110 0.000000 0.110130 
#    y 0.000000 3.620400 0.000000 
#    z 0.110130 0.000000 3.735770 
# 
# 
# High freq. dielectric constant tensor:
#      x y z
#    x 1.822540 0.000000 0.013120 
#    y 0.000000 1.795130 0.000000 
#    z 0.013120 0.000000 1.818070 
# 
# From -- ./inp_files/125498.got.cif
#   From: 2010.06.25/outbox.cif.g09.slc.cpg/sg15_63_cif.got.tgz:125498.got - 2010.06.28 07:06:18.
