data_PCOD8140600
_publ_section_title
;
Structure prediction by ZEFSAII (Michael W. Deem and Ramdas Pophale) SiO2 
 PCOD8140600
Probable space group: C 2/C
;
_chemical_formula_sum "Si O2"
_cell_formula_units_Z 60
_cell_length_a 4.983692
_cell_length_b 19.124972
_cell_length_c 28.488818
_cell_angle_alpha 90.000000
_cell_angle_beta 82.570443
_cell_angle_gamma 90.000000
_cell_volume 2692.557343
_symmetry_space_group_name_H-M "C 2/C"
_symmetry_group_IT_number 15
_symmetry_cell_setting 'monoclinic'
loop_
_space_group_symop_operation_xyz
x,y,z
-x,y,1/2-z
-x,-y,-z
x,-y,1/2+z
1/2+x,1/2+y,z
1/2-x,1/2+y,1/2-z
1/2-x,1/2-y,-z
1/2+x,1/2-y,1/2+z
loop_
_atom_site_type_symbol
_atom_site_label
_atom_site_fract_x
_atom_site_fract_y
_atom_site_fract_z
Si Si1 0.883227 0.460406 0.124041
Si Si2 0.762930 0.812429 0.400724
Si Si3 0.500000 0.122712 0.750000
Si Si4 0.241274 0.125096 0.328854
Si Si5 0.161297 0.974874 0.313559
Si Si6 0.304109 0.111801 0.108784
Si Si7 0.297269 0.273461 0.297335
Si Si8 0.721469 0.245159 0.445508
O O1 0.829795 0.393120 0.092834
O O2 0.656361 0.464706 0.170042
O O3 0.872214 0.531392 0.092746
O O4 0.172908 0.454791 0.142906
O O5 0.900884 0.793064 0.347249
O O6 0.502263 0.763433 0.413616
O O7 0.986920 0.798682 0.435172
O O8 0.756350 0.074262 0.731539
O O9 0.448869 0.172915 0.706261
O O10 0.529004 0.132207 0.348357
O O11 0.200787 0.192928 0.296976
O O12 0.012623 0.118713 0.373563
O O13 0.228414 0.055106 0.297471
O O14 0.369934 0.166069 0.065623
O O15 0.500000 0.288212 0.250000
O O16 0.750000 0.250000 0.500000
#
# Coordination Sequence:
#
# PCOD8140600 Si02
#       8
#     8   8   4   8   8   8   8   8
#     4  10  21  40  65  89 122 169 211 255 327 384
#     4  12  24  44  67  96 133 171 215 270 330 386
#     4  12  26  38  60  92 134 166 222 270 314 378
#     4  10  22  40  63  89 128 174 217 259 317 375
#     4  10  22  39  59  87 126 172 214 258 314 379
#     4  10  20  42  66  92 124 169 211 267 320 390
#     4  12  26  38  63  97 134 170 218 267 319 381
#     4  12  25  44  70  99 130 170 218 274 339 396
#
# _framework density 22.283646999999998
#
# number of rings (size 3 to 8) (size 9 to 14) (size 15 to 20)
#    0.000    1.067    4.000    2.000    4.667    0.000 
#    0.000    1.333    0.000    0.000    0.000    0.000 
#    0.000    0.000    0.000    0.000    0.000    0.000 
#
# Total GULP energy -372011.711993 kJ/mol
# GULP energy per Si atom -12400.390400 kJ/mol
# Density = 2.223293 g / cm^3
# Si number density = 22.283647 Si / 1000 Ang^3
#
#
#
# Elastic Constant Matrix: (Units=GPa)
#
#
# Indices 1 2 3 4 5 6 
#
# 1 67.7002 6.9557 8.1516 0.0000 6.3180 0.0000
# 2 6.9557 170.2272 49.9553 0.0000 9.3241 0.0000
# 3 8.1516 49.9553 78.4277 0.0000 8.1574 0.0000
# 4 0.0000 0.0000 0.0000 18.7683 0.0000 5.9074
# 5 6.3180 9.3241 8.1574 0.0000 20.9711 0.0000
# 6 0.0000 0.0000 0.0000 5.9074 0.0000 28.5256
#
#
#
# Elastic Compliance Matrix: (Units=1/GPa)
#
#
# Indices 1 2 3 4 5 6 
#
# 1 0.015299 -0.000071 -0.001114 0.000000 -0.004144 0.000000
# 2 -0.000071 0.007270 -0.004470 0.000000 -0.001472 0.000000
# 3 -0.001114 -0.004470 0.016124 0.000000 -0.003949 0.000000
# 4 0.000000 0.000000 0.000000 0.056996 0.000000 -0.011803
# 5 -0.004144 -0.001472 -0.003949 0.000000 0.051124 0.000000
# 6 0.000000 0.000000 0.000000 -0.011803 0.000000 0.037501
#
#
# Mechanical properties :
#
#
# Convention : Reuss Voigt Hill
#
# Bulk Modulus (GPa) = 36.51871 49.60894 43.06382
# Shear Modulus (GPa) = 24.41978 30.40584 27.41281
#
# Velocity S-wave (km/s) = 3.31397 3.69791 3.51119
# Velocity P-wave (km/s) = 5.57377 6.36738 5.98375
#
# Compressibility (1/GPa) = 0.02738322
#
# Stress axis : x y z
#
# Youngs Moduli (GPa) = 65.36292 137.55449 62.01790
#
# Poissons Ratio (x) = 0.00981 0.06907
# Poissons Ratio (y) = 0.00466 0.27723
# Poissons Ratio (z) = 0.07279 0.61488
#
# Static dielectric constant tensor:
#      x y z
#    x 4.041880 0.000000 0.097600 
#    y 0.000000 4.628360 0.000000 
#    z 0.097600 0.000000 3.427810 
# 
# 
# High freq. dielectric constant tensor:
#      x y z
#    x 1.886050 0.000000 0.011100 
#    y 0.000000 1.909110 0.000000 
#    z 0.011100 0.000000 1.818830 
# 
# From -- ./inp_files/286058.got.cif
#   From: 2010.06.25/outbox.cif.g09.slc.cpg/sg15_144_cif.got.tgz:286058.got - 2010.06.28 07:06:18.
