data_PCOD8140628
_publ_section_title
;
Structure prediction by ZEFSAII (Michael W. Deem and Ramdas Pophale) SiO2 
 PCOD8140628
Probable space group: C 2/C
;
_chemical_formula_sum "Si O2"
_cell_formula_units_Z 56
_cell_length_a 16.258557
_cell_length_b 8.845772
_cell_length_c 23.766448
_cell_angle_alpha 90.000000
_cell_angle_beta 53.383456
_cell_angle_gamma 90.000000
_cell_volume 2743.504498
_symmetry_space_group_name_H-M "C 2/C"
_symmetry_group_IT_number 15
_symmetry_cell_setting 'monoclinic'
loop_
_space_group_symop_operation_xyz
x,y,z
-x,y,1/2-z
-x,-y,-z
x,-y,1/2+z
1/2+x,1/2+y,z
1/2-x,1/2+y,1/2-z
1/2-x,1/2-y,-z
1/2+x,1/2-y,1/2+z
loop_
_atom_site_type_symbol
_atom_site_label
_atom_site_fract_x
_atom_site_fract_y
_atom_site_fract_z
Si Si1 0.391567 0.855600 0.805251
Si Si2 0.247217 0.669683 0.942906
Si Si3 0.970743 0.601557 0.461077
Si Si4 0.706317 0.675776 0.074070
Si Si5 0.691252 0.033044 0.759976
Si Si6 0.535749 0.897197 0.140957
Si Si7 0.811876 0.289038 0.650399
O O1 0.500000 0.769241 0.750000
O O2 0.317434 0.748954 0.869216
O O3 0.331030 0.894775 0.773155
O O4 0.421622 0.011325 0.823340
O O5 0.290726 0.502376 0.932190
O O6 0.250000 0.750000 0.000000
O O7 0.128289 0.687856 0.974042
O O8 0.931526 0.494044 0.426849
O O9 0.000000 0.500000 0.500000
O O10 0.063484 0.711549 0.404276
O O11 0.588676 0.733189 0.123640
O O12 0.765764 0.725902 0.106730
O O13 0.750000 0.750000 0.000000
O O14 0.586478 0.129184 0.809714
O O15 0.779506 0.144639 0.701422
O O16 0.722417 0.948440 0.805885
#
# Coordination Sequence:
#
# PCOD8140628 Si02
#       7
#     8   8   8   8   8   8   8
#     4  10  21  42  66  92 131 176 216 280 342 397
#     4  12  24  41  67  99 132 173 231 278 334 401
#     4  11  21  41  66  93 133 175 219 269 344 397
#     4  12  22  41  69  98 129 173 234 278 325 407
#     4  10  24  42  66  92 137 175 222 274 351 401
#     4  10  20  42  67  91 125 181 223 267 333 402
#     4  11  24  42  68  96 133 180 223 278 343 413
#
# _framework density 20.411849
#
# number of rings (size 3 to 8) (size 9 to 14) (size 15 to 20)
#    0.000    1.143    5.714    0.000    2.000    0.000 
#    5.143    0.714    0.000    0.000    0.000    0.000 
#    0.000    0.000    0.000    0.000    0.000    0.000 
#
# Total GULP energy -347027.187485 kJ/mol
# GULP energy per Si atom -12393.828124 kJ/mol
# Density = 2.036539 g / cm^3
# Si number density = 20.411849 Si / 1000 Ang^3
#
#
#
# Elastic Constant Matrix: (Units=GPa)
#
#
# Indices 1 2 3 4 5 6 
#
# 1 105.1851 42.7130 61.7598 0.0000 -12.3283 0.0001
# 2 42.7130 88.3430 63.8951 0.0000 -26.9813 0.0002
# 3 61.7598 63.8951 149.5105 0.0000 -24.0088 0.0000
# 4 0.0000 0.0000 0.0000 47.8479 0.0000 -8.0306
# 5 -12.3283 -26.9813 -24.0088 0.0000 49.1113 0.0000
# 6 0.0001 0.0002 0.0000 -8.0306 0.0000 28.9542
#
#
#
# Elastic Compliance Matrix: (Units=1/GPa)
#
#
# Indices 1 2 3 4 5 6 
#
# 1 0.013297 -0.003740 -0.004003 0.000000 -0.000673 0.000000
# 2 -0.003740 0.019280 -0.005583 0.000000 0.006924 0.000000
# 3 -0.004003 -0.005583 0.010932 0.000000 0.001272 0.000000
# 4 0.000000 0.000000 0.000000 0.021920 0.000000 0.006080
# 5 -0.000673 0.006924 0.001272 0.000000 0.024619 0.000000
# 6 0.000000 0.000000 0.000000 0.006080 0.000000 0.036223
#
#
# Mechanical properties :
#
#
# Convention : Reuss Voigt Hill
#
# Bulk Modulus (GPa) = 59.31585 75.53050 67.42317
# Shear Modulus (GPa) = 31.53740 36.82740 34.18240
#
# Velocity S-wave (km/s) = 3.93498 4.25222 4.09667
# Velocity P-wave (km/s) = 7.05465 7.82253 7.44849
#
# Compressibility (1/GPa) = 0.01685890
#
# Stress axis : x y z
#
# Youngs Moduli (GPa) = 75.20582 51.86623 91.47312
#
# Poissons Ratio (x) = 0.19396 0.36613
# Poissons Ratio (y) = 0.28124 0.51069
# Poissons Ratio (z) = 0.30102 0.28957
#
# Static dielectric constant tensor:
#      x y z
#    x 3.684400 0.000000 -0.065790 
#    y 0.000000 3.526620 0.000000 
#    z -0.065790 0.000000 4.122210 
# 
# 
# High freq. dielectric constant tensor:
#      x y z
#    x 1.801310 0.000000 0.005310 
#    y 0.000000 1.769650 0.000000 
#    z 0.005310 0.000000 1.826040 
# 
# From -- ./inp_files/273046.got.cif
#   From: 2010.06.25/outbox.cif.g09.slc.cpg/sg15_137_cif.got.tgz:273046.got - 2010.06.28 07:06:18.
