data_PCOD8140208
_publ_section_title
;
Structure prediction by ZEFSAII (Michael W. Deem and Ramdas Pophale) SiO2 
 PCOD8140208
Probable space group: C 2/C
;
_chemical_formula_sum "Si O2"
_cell_formula_units_Z 44
_cell_length_a 9.753197
_cell_length_b 22.660038
_cell_length_c 8.664492
_cell_angle_alpha 90.000000
_cell_angle_beta 85.817340
_cell_angle_gamma 90.000000
_cell_volume 1909.820236
_symmetry_space_group_name_H-M "C 2/C"
_symmetry_group_IT_number 15
_symmetry_cell_setting 'monoclinic'
loop_
_space_group_symop_operation_xyz
x,y,z
-x,y,1/2-z
-x,-y,-z
x,-y,1/2+z
1/2+x,1/2+y,z
1/2-x,1/2+y,1/2-z
1/2-x,1/2-y,-z
1/2+x,1/2-y,1/2+z
loop_
_atom_site_type_symbol
_atom_site_label
_atom_site_fract_x
_atom_site_fract_y
_atom_site_fract_z
Si Si1 0.500000 0.903798 0.250000
Si Si2 0.714487 0.576404 0.250768
Si Si3 0.500000 0.621650 0.750000
Si Si4 0.274861 0.453617 0.106413
Si Si5 0.585203 0.193020 0.963991
Si Si6 0.000000 0.634295 0.250000
Si Si7 0.615263 0.679854 0.441328
O O1 0.611050 0.943839 0.150200
O O2 0.407661 0.860112 0.156523
O O3 0.683003 0.520967 0.363838
O O4 0.870272 0.591927 0.277413
O O5 0.610256 0.629388 0.308943
O O6 0.690122 0.561478 0.073487
O O7 0.633404 0.583966 0.783839
O O8 0.536698 0.662013 0.602215
O O9 0.549477 0.257145 0.892437
O O10 0.472644 0.175746 0.103061
O O11 0.727366 0.194492 0.041878
#
# Coordination Sequence:
#
# PCOD8140208 Si02
#       7
#     4   8   4   8   8   4   8
#     4  12  23  44  69 107 132 183 226 294 336 418
#     4  11  25  43  67 101 135 187 224 289 336 417
#     4  12  25  46  67  99 136 189 226 284 344 412
#     4  12  27  43  70  99 143 176 239 277 349 405
#     4  10  21  41  68 100 134 174 224 288 335 413
#     4  10  20  40  70 100 134 172 228 276 360 390
#     4  10  23  43  66  96 139 178 227 275 349 399
#
# _framework density 23.038817000000002
#
# number of rings (size 3 to 8) (size 9 to 14) (size 15 to 20)
#    0.000    1.091    3.636    2.182    2.545    6.545 
#    0.000    1.818    0.000    0.000    0.000    0.000 
#    0.000    0.000    0.000    0.000    0.000    0.000 
#
# Total GULP energy -272692.029917 kJ/mol
# GULP energy per Si atom -12395.092269 kJ/mol
# Density = 2.298638 g / cm^3
# Si number density = 23.038817 Si / 1000 Ang^3
#
#
#
# Elastic Constant Matrix: (Units=GPa)
#
#
# Indices 1 2 3 4 5 6 
#
# 1 52.6088 13.6771 14.9737 0.0000 -0.6604 0.0000
# 2 13.6771 134.1593 40.0124 0.0000 -6.2657 0.0000
# 3 14.9737 40.0124 126.3231 0.0000 -12.3277 0.0000
# 4 0.0000 0.0000 0.0000-1244.7480 0.0000 -322.7821
# 5 -0.6604 -6.2657 -12.3277 0.0000 33.7146 0.0000
# 6 0.0000 0.0000 0.0000 -322.7821 0.0000 -63.8926
#
#
#
# Elastic Compliance Matrix: (Units=1/GPa)
#
#
# Indices 1 2 3 4 5 6 
#
# 1 0.019941 -0.001478 -0.001954 0.000000 -0.000599 0.000000
# 2 -0.001478 0.008353 -0.002408 0.000000 0.000643 0.000000
# 3 -0.001954 -0.002408 0.009191 0.000000 0.002875 0.000000
# 4 0.000000 0.000000 0.000000 0.002591 0.000000 -0.013090
# 5 -0.000599 0.000643 0.002875 0.000000 0.030820 0.000000
# 6 0.000000 0.000000 0.000000 -0.013090 0.000000 0.050480
#
#
# Mechanical properties :
#
#
# Convention : Reuss Voigt Hill
#
# Bulk Modulus (GPa) = 38.75188 50.04641 44.39915
# Shear Modulus (GPa) = 35.29643 -238.69001 -101.69679
#
# Velocity S-wave (km/s) = 3.91838 -10.18962 -6.65111
# Velocity P-wave (km/s) = 6.10969 10.80129 6.29840
#
# Compressibility (1/GPa) = 0.02580520
#
# Stress axis : x y z
#
# Youngs Moduli (GPa) = 50.14761 119.72279 108.80195
#
# Poissons Ratio (x) = 0.17697 0.21259
# Poissons Ratio (y) = 0.07412 0.26196
# Poissons Ratio (z) = 0.09799 0.28826
#
# Static dielectric constant tensor:
#      x y z
#    x 4.316040 0.000000 -0.129740 
#    y 0.000000 4.583100 0.000000 
#    z -0.129740 0.000000 4.208040 
# 
# 
# High freq. dielectric constant tensor:
#      x y z
#    x 1.901390 0.000000 -0.006700 
#    y 0.000000 1.923670 0.000000 
#    z -0.006700 0.000000 1.913020 
# 
# From -- ./inp_files/30799.got.cif
#   From: 2010.06.25/outbox.cif.g09.slc.cpg/sg15_16_cif.got.tgz:30799.got - 2010.06.28 07:06:18.
