data_PCOD8140942
_publ_section_title
;
Structure prediction by ZEFSAII (Michael W. Deem and Ramdas Pophale) SiO2 
 PCOD8140942
Probable space group: C 2/C
;
_chemical_formula_sum "Si O2"
_cell_formula_units_Z 56
_cell_length_a 27.895354
_cell_length_b 15.440473
_cell_length_c 8.579917
_cell_angle_alpha 90.000000
_cell_angle_beta 56.756708
_cell_angle_gamma 90.000000
_cell_volume 3090.749467
_symmetry_space_group_name_H-M "C 2/C"
_symmetry_group_IT_number 15
_symmetry_cell_setting 'monoclinic'
loop_
_space_group_symop_operation_xyz
x,y,z
-x,y,1/2-z
-x,-y,-z
x,-y,1/2+z
1/2+x,1/2+y,z
1/2-x,1/2+y,1/2-z
1/2-x,1/2-y,-z
1/2+x,1/2-y,1/2+z
loop_
_atom_site_type_symbol
_atom_site_label
_atom_site_fract_x
_atom_site_fract_y
_atom_site_fract_z
Si Si1 0.603948 0.510524 0.283822
Si Si2 0.937439 0.881280 0.368809
Si Si3 0.778816 0.463939 0.570254
Si Si4 0.290864 0.874322 0.852121
Si Si5 0.326533 0.722612 0.977643
Si Si6 0.266944 0.819412 0.344449
Si Si7 0.820245 0.064474 0.619881
O O1 0.558532 0.467491 0.246775
O O2 0.576382 0.589321 0.430115
O O3 0.626489 0.432353 0.356032
O O4 0.658306 0.548014 0.093372
O O5 0.888675 0.819456 0.386829
O O6 0.000000 0.835833 0.250000
O O7 0.813644 0.414421 0.646551
O O8 0.801602 0.558016 0.475288
O O9 0.782213 0.408200 0.405782
O O10 0.716717 0.480626 0.759196
O O11 0.327146 0.788448 0.829176
O O12 0.223145 0.849373 0.957166
O O13 0.316826 0.779037 0.151759
O O14 0.250000 0.750000 0.500000
O O15 0.214683 0.844769 0.319727
#
# Coordination Sequence:
#
# PCOD8140942 Si02
#       7
#     8   8   8   8   8   8   8
#     4  10  21  33  57  77 105 147 190 223 262 323
#     4  11  23  40  56  77 107 152 198 234 269 315
#     4  12  19  32  52  75 116 153 176 212 267 356
#     4  11  21  34  51  80 111 144 181 218 285 338
#     4  11  23  34  51  80 115 144 181 230 276 330
#     4  12  22  30  48  81 118 148 178 220 277 340
#     4  11  18  32  51  80 112 147 176 212 275 332
#
# _framework density 18.118583000000001
#
# number of rings (size 3 to 8) (size 9 to 14) (size 15 to 20)
#    0.000    0.857    5.714    3.857    2.000    0.000 
#    0.000    0.000    0.000    0.000    0.000    4.000 
#    0.000    0.000    0.000    0.000    0.000    0.000 
#
# Total GULP energy -346940.946834 kJ/mol
# GULP energy per Si atom -12390.748101 kJ/mol
# Density = 1.807734 g / cm^3
# Si number density = 18.118583 Si / 1000 Ang^3
#
#
#
# Elastic Constant Matrix: (Units=GPa)
#
#
# Indices 1 2 3 4 5 6 
#
# 1 71.4019 32.3703 36.6631 0.0000 -5.2505 0.0000
# 2 32.3703 83.0542 28.3668 0.0000 2.9906 0.0000
# 3 36.6631 28.3668 83.5040 0.0000 12.7579 0.0000
# 4 0.0000 0.0000 0.0000 35.3377 0.0000 13.1262
# 5 -5.2505 2.9906 12.7579 0.0000 27.7727 0.0000
# 6 0.0000 0.0000 0.0000 13.1262 0.0000 29.0783
#
#
#
# Elastic Compliance Matrix: (Units=1/GPa)
#
#
# Indices 1 2 3 4 5 6 
#
# 1 0.021911 -0.005781 -0.009017 0.000000 0.008907 0.000000
# 2 -0.005781 0.015159 -0.002361 0.000000 -0.001641 0.000000
# 3 -0.009017 -0.002361 0.018238 0.000000 -0.009829 0.000000
# 4 0.000000 0.000000 0.000000 0.033999 0.000000 -0.015348
# 5 0.008907 -0.001641 -0.009829 0.000000 0.042382 0.000000
# 6 0.000000 0.000000 0.000000 -0.015348 0.000000 0.041318
#
#
# Mechanical properties :
#
#
# Convention : Reuss Voigt Hill
#
# Bulk Modulus (GPa) = 47.64085 48.08449 47.86267
# Shear Modulus (GPa) = 23.32940 27.80842 25.56891
#
# Velocity S-wave (km/s) = 3.59220 3.92190 3.76067
# Velocity P-wave (km/s) = 6.59971 6.86330 6.73279
#
# Compressibility (1/GPa) = 0.02099039
#
# Stress axis : x y z
#
# Youngs Moduli (GPa) = 45.63899 65.96852 54.83000
#
# Poissons Ratio (x) = 0.38135 0.49442
# Poissons Ratio (y) = 0.26383 0.12944
# Poissons Ratio (z) = 0.41154 0.15574
#
# Static dielectric constant tensor:
#      x y z
#    x 3.211210 0.000000 0.546000 
#    y 0.000000 3.533110 0.000000 
#    z 0.546000 0.000000 3.623150 
# 
# 
# High freq. dielectric constant tensor:
#      x y z
#    x 1.661370 0.000000 0.055740 
#    y 0.000000 1.700480 0.000000 
#    z 0.055740 0.000000 1.701710 
# 
# From -- ./inp_files/66156.got.cif
#   From: 2010.06.25/outbox.cif.g09.slc.cpg/sg15_34_cif.got.tgz:66156.got - 2010.06.28 07:06:18.
