data_PCOD8140457
_publ_section_title
;
Structure prediction by ZEFSAII (Michael W. Deem and Ramdas Pophale) SiO2 
 PCOD8140457
Probable space group: C 2/C
;
_chemical_formula_sum "Si O2"
_cell_formula_units_Z 64
_cell_length_a 8.472323
_cell_length_b 28.406464
_cell_length_c 12.062387
_cell_angle_alpha 90.000000
_cell_angle_beta 87.646196
_cell_angle_gamma 90.000000
_cell_volume 2900.590074
_symmetry_space_group_name_H-M "C 2/C"
_symmetry_group_IT_number 15
_symmetry_cell_setting 'monoclinic'
loop_
_space_group_symop_operation_xyz
x,y,z
-x,y,1/2-z
-x,-y,-z
x,-y,1/2+z
1/2+x,1/2+y,z
1/2-x,1/2+y,1/2-z
1/2-x,1/2-y,-z
1/2+x,1/2-y,1/2+z
loop_
_atom_site_type_symbol
_atom_site_label
_atom_site_fract_x
_atom_site_fract_y
_atom_site_fract_z
Si Si1 0.700931 0.381241 0.588006
Si Si2 0.149981 0.126945 0.669943
Si Si3 0.097637 0.170968 0.441175
Si Si4 0.680452 0.193500 0.252068
Si Si5 0.930972 0.456600 0.637714
Si Si6 0.140648 0.642070 0.635502
Si Si7 0.375201 0.246004 0.899670
Si Si8 0.399461 0.937571 0.088888
O O1 0.514990 0.369938 0.610971
O O2 0.812450 0.347002 0.655484
O O3 0.757696 0.434191 0.616114
O O4 0.725747 0.370825 0.457467
O O5 0.120242 0.163777 0.571737
O O6 0.281157 0.148391 0.747052
O O7 0.218658 0.079562 0.609593
O O8 0.000000 0.114184 0.750000
O O9 0.261161 0.171934 0.367582
O O10 0.022206 0.222053 0.428313
O O11 0.500000 0.210992 0.250000
O O12 0.793415 0.236510 0.287204
O O13 0.914360 0.512459 0.648216
O O14 0.000000 0.436497 0.750000
O O15 0.058562 0.442033 0.541554
O O16 0.062029 0.692671 0.612445
O O17 0.012977 0.600573 0.642937
O O18 0.250000 0.250000 0.000000
#
# Coordination Sequence:
#
# PCOD8140457 Si02
#       8
#     8   8   8   8   8   8   8   8
#     4  10  20  41  69  93 131 176 211 284 342 395
#     4  12  24  43  66  96 136 179 226 273 338 409
#     4  11  25  43  65  98 141 178 221 285 344 398
#     4  11  25  42  64  97 137 175 229 288 333 403
#     4  10  21  42  73 105 131 170 230 280 337 407
#     4  11  22  43  70  92 130 183 226 274 339 392
#     4  11  21  43  66  94 134 181 226 278 339 403
#     4  10  25  43  69 101 136 176 224 281 337 407
#
# _framework density 22.064475999999999
#
# number of rings (size 3 to 8) (size 9 to 14) (size 15 to 20)
#    0.000    1.250    3.750    3.000    5.250    3.500 
#    0.000    3.750    0.000    0.000    0.000    0.000 
#    0.000    0.000    0.000    0.000    0.000    0.000 
#
# Total GULP energy -396701.859776 kJ/mol
# GULP energy per Si atom -12396.933118 kJ/mol
# Density = 2.201426 g / cm^3
# Si number density = 22.064476 Si / 1000 Ang^3
#
#
#
# Elastic Constant Matrix: (Units=GPa)
#
#
# Indices 1 2 3 4 5 6 
#
# 1 95.4748 59.7183 48.7118 0.0000 -8.1485 0.0000
# 2 59.7183 153.5083 44.0306 0.0000 9.1637 0.0000
# 3 48.7118 44.0306 131.9787 0.0000 6.2377 0.0000
# 4 0.0000 0.0000 0.0000 23.5335 0.0000 -4.7483
# 5 -8.1485 9.1637 6.2377 0.0000 42.8511 0.0000
# 6 0.0000 0.0000 0.0000 -4.7483 0.0000 24.2689
#
#
#
# Elastic Compliance Matrix: (Units=1/GPa)
#
#
# Indices 1 2 3 4 5 6 
#
# 1 0.016644 -0.005467 -0.004556 0.000000 0.004997 0.000000
# 2 -0.005467 0.009061 -0.000870 0.000000 -0.002850 0.000000
# 3 -0.004556 -0.000870 0.009647 0.000000 -0.002084 0.000000
# 4 0.000000 0.000000 0.000000 0.044239 0.000000 0.008656
# 5 0.004997 -0.002850 -0.002084 0.000000 0.025200 0.000000
# 6 0.000000 0.000000 0.000000 0.008656 0.000000 0.042899
#
#
# Mechanical properties :
#
#
# Convention : Reuss Voigt Hill
#
# Bulk Modulus (GPa) = 73.70874 76.20924 74.95899
# Shear Modulus (GPa) = 28.73616 33.36411 31.05014
#
# Velocity S-wave (km/s) = 3.61275 3.89282 3.75540
# Velocity P-wave (km/s) = 7.13311 7.40403 7.26983
#
# Compressibility (1/GPa) = 0.01356691
#
# Stress axis : x y z
#
# Youngs Moduli (GPa) = 60.08187 110.36607 103.65598
#
# Poissons Ratio (x) = 0.60332 0.47221
# Poissons Ratio (y) = 0.32844 0.09023
# Poissons Ratio (z) = 0.27370 0.09607
#
# Static dielectric constant tensor:
#      x y z
#    x 3.923090 0.000000 -0.191030 
#    y 0.000000 4.027540 0.000000 
#    z -0.191030 0.000000 4.315030 
# 
# 
# High freq. dielectric constant tensor:
#      x y z
#    x 1.853810 0.000000 -0.010280 
#    y 0.000000 1.855140 0.000000 
#    z -0.010280 0.000000 1.891370 
# 
# From -- ./inp_files/82613.got.cif
#   From: 2010.06.25/outbox.cif.g09.slc.cpg/sg15_42_cif.got.tgz:82613.got - 2010.06.28 07:06:18.
