data_PCOD8140656
_publ_section_title
;
Structure prediction by ZEFSAII (Michael W. Deem and Ramdas Pophale) SiO2 
 PCOD8140656
Probable space group: C 2/C
;
_chemical_formula_sum "Si O2"
_cell_formula_units_Z 52
_cell_length_a 11.951222
_cell_length_b 29.318979
_cell_length_c 9.119433
_cell_angle_alpha 90.000000
_cell_angle_beta 123.686288
_cell_angle_gamma 90.000000
_cell_volume 2658.873461
_symmetry_space_group_name_H-M "C 2/C"
_symmetry_group_IT_number 15
_symmetry_cell_setting 'monoclinic'
loop_
_space_group_symop_operation_xyz
x,y,z
-x,y,1/2-z
-x,-y,-z
x,-y,1/2+z
1/2+x,1/2+y,z
1/2-x,1/2+y,1/2-z
1/2-x,1/2-y,-z
1/2+x,1/2-y,1/2+z
loop_
_atom_site_type_symbol
_atom_site_label
_atom_site_fract_x
_atom_site_fract_y
_atom_site_fract_z
Si Si1 0.678659 0.966526 0.635550
Si Si2 0.355177 0.196186 0.201989
Si Si3 0.356699 0.699919 0.707413
Si Si4 0.194859 0.871008 0.773914
Si Si5 0.105035 0.128425 0.533624
Si Si6 0.416298 0.467304 0.333213
Si Si7 0.000000 0.508457 0.750000
O O1 0.761334 0.921714 0.736902
O O2 0.594092 0.960166 0.422859
O O3 0.780245 0.008246 0.683175
O O4 0.584420 0.975628 0.705745
O O5 0.500000 0.179795 0.250000
O O6 0.360698 0.247911 0.265885
O O7 0.306326 0.164705 0.299847
O O8 0.255300 0.191992 0.994507
O O9 0.500000 0.684831 0.750000
O O10 0.322800 0.666624 0.816332
O O11 0.052724 0.860475 0.595021
O O12 0.183000 0.867838 0.938661
O O13 0.126174 0.078202 0.613348
O O14 0.500000 0.454317 0.250000
O O15 0.500000 0.500000 0.500000
#
# Coordination Sequence:
#
# PCOD8140656 Si02
#       7
#     8   8   8   8   8   8   4
#     4  11  23  41  60  84 123 161 212 251 308 370
#     4  10  23  41  66  94 124 162 206 267 313 382
#     4  10  20  42  68  93 122 161 216 256 318 375
#     4  11  23  40  62  92 128 158 206 262 314 376
#     4  11  23  39  65  94 123 165 206 262 319 376
#     4  12  23  38  65  96 123 156 205 269 316 360
#     4  10  24  42  58  78 120 178 202 248 304 380
#
# _framework density 19.557155000000002
#
# number of rings (size 3 to 8) (size 9 to 14) (size 15 to 20)
#    0.000    1.231    3.077    3.231    1.077    0.615 
#    5.538    0.000    0.000    0.000    0.000    0.000 
#    0.000    0.000    0.000    0.000    0.000    0.000 
#
# Total GULP energy -322521.941564 kJ/mol
# GULP energy per Si atom -12404.690060 kJ/mol
# Density = 1.951264 g / cm^3
# Si number density = 19.557155 Si / 1000 Ang^3
#
#
#
# Elastic Constant Matrix: (Units=GPa)
#
#
# Indices 1 2 3 4 5 6 
#
# 1 127.7612 56.0344 42.1663 0.0000 -3.5721 0.0000
# 2 56.0344 121.2606 40.5018 0.0000 -16.2998 0.0000
# 3 42.1663 40.5018 83.9525 0.0000 -7.7839 0.0000
# 4 0.0000 0.0000 0.0000 35.8063 0.0000 0.1563
# 5 -3.5721 -16.2998 -7.7839 0.0000 30.6374 0.0000
# 6 0.0000 0.0000 0.0000 0.1563 0.0000 30.7832
#
#
#
# Elastic Compliance Matrix: (Units=1/GPa)
#
#
# Indices 1 2 3 4 5 6 
#
# 1 0.010722 -0.003983 -0.003630 0.000000 -0.001791 0.000000
# 2 -0.003983 0.011847 -0.003250 0.000000 0.005013 0.000000
# 3 -0.003630 -0.003250 0.015467 0.000000 0.001777 0.000000
# 4 0.000000 0.000000 0.000000 0.027929 0.000000 -0.000142
# 5 -0.001791 0.005013 0.001777 0.000000 0.035549 0.000000
# 6 0.000000 0.000000 0.000000 -0.000142 0.000000 0.032486
#
#
# Mechanical properties :
#
#
# Convention : Reuss Voigt Hill
#
# Bulk Modulus (GPa) = 61.31075 67.81990 64.56533
# Shear Modulus (GPa) = 31.02473 32.39684 31.71079
#
# Velocity S-wave (km/s) = 3.98724 4.07445 4.03108
# Velocity P-wave (km/s) = 7.25362 7.54241 7.39942
#
# Compressibility (1/GPa) = 0.01631035
#
# Stress axis : x y z
#
# Youngs Moduli (GPa) = 93.26741 84.41310 64.65260
#
# Poissons Ratio (x) = 0.33621 0.23467
# Poissons Ratio (y) = 0.37148 0.21012
# Poissons Ratio (z) = 0.33854 0.27434
#
# Static dielectric constant tensor:
#      x y z
#    x 3.564840 0.000000 -0.024190 
#    y 0.000000 3.559860 0.000000 
#    z -0.024190 0.000000 3.591090 
# 
# 
# High freq. dielectric constant tensor:
#      x y z
#    x 1.770220 0.000000 0.000130 
#    y 0.000000 1.757940 0.000000 
#    z 0.000130 0.000000 1.767490 
# 
# From -- ./inp_files/34452.got.cif
#   From: 2010.06.25/outbox.cif.g09.slc.cpg/sg15_18_cif.got.tgz:34452.got - 2010.06.28 07:06:18.
