data_PCOD8140018
_publ_section_title
;
Structure prediction by ZEFSAII (Michael W. Deem and Ramdas Pophale) SiO2 
 PCOD8140018
Probable space group: C 2/C
;
_chemical_formula_sum "Si O2"
_cell_formula_units_Z 48
_cell_length_a 11.950323
_cell_length_b 13.999378
_cell_length_c 20.773604
_cell_angle_alpha 90.000000
_cell_angle_beta 135.963618
_cell_angle_gamma 90.000000
_cell_volume 2415.777285
_symmetry_space_group_name_H-M "C 2/C"
_symmetry_group_IT_number 15
_symmetry_cell_setting 'monoclinic'
loop_
_space_group_symop_operation_xyz
x,y,z
-x,y,1/2-z
-x,-y,-z
x,-y,1/2+z
1/2+x,1/2+y,z
1/2-x,1/2+y,1/2-z
1/2-x,1/2-y,-z
1/2+x,1/2-y,1/2+z
loop_
_atom_site_type_symbol
_atom_site_label
_atom_site_fract_x
_atom_site_fract_y
_atom_site_fract_z
Si Si1 0.390476 0.108582 0.840749
Si Si2 0.671259 0.352920 0.135017
Si Si3 0.190907 0.495802 0.078658
Si Si4 0.869344 0.507518 0.144876
Si Si5 0.694380 0.357755 0.482441
Si Si6 0.663517 0.801511 0.523253
O O1 0.291295 0.164062 0.745028
O O2 0.271013 0.036837 0.831373
O O3 0.543231 0.051983 0.874797
O O4 0.476076 0.183476 0.925227
O O5 0.731178 0.444562 0.120684
O O6 0.672831 0.260699 0.091115
O O7 0.494947 0.370617 0.088484
O O8 0.254296 0.599641 0.081757
O O9 0.259670 0.413906 0.062304
O O10 0.000000 0.500000 0.000000
O O11 0.784913 0.600465 0.081818
O O12 0.000000 0.543650 0.250000
O O13 0.750000 0.250000 0.500000
O O14 0.750000 0.750000 0.500000
#
# Coordination Sequence:
#
# PCOD8140018 Si02
#       6
#     8   8   8   8   8   8
#     4  10  21  42  65  90 135 171 217 261 327 390
#     4  11  24  40  65  99 130 167 221 269 324 395
#     4  10  20  40  65  86 128 172 209 260 332 383
#     4  10  21  42  67  90 125 172 216 267 323 388
#     4  12  23  41  64  93 129 168 215 269 329 396
#     4  11  20  39  69  97 127 170 221 270 322 384
#
# _framework density 19.869381000000001
#
# number of rings (size 3 to 8) (size 9 to 14) (size 15 to 20)
#    0.000    1.333    5.000    2.500    0.000    0.667 
#    6.000    5.000    0.000    0.000    0.000    0.000 
#    0.000    0.000    0.000    0.000    0.000    0.000 
#
# Total GULP energy -297513.335979 kJ/mol
# GULP energy per Si atom -12396.388999 kJ/mol
# Density = 1.982416 g / cm^3
# Si number density = 19.869381 Si / 1000 Ang^3
#
#
#
# Elastic Constant Matrix: (Units=GPa)
#
#
# Indices 1 2 3 4 5 6 
#
# 1 144.4782 70.1863 48.2042 0.0000 -3.9162 0.0000
# 2 70.1863 138.3767 78.2210 0.0000 -6.0167 0.0000
# 3 48.2042 78.2210 128.4359 0.0000 -13.6480 0.0000
# 4 0.0000 0.0000 0.0000 36.5011 0.0000 -12.0330
# 5 -3.9162 -6.0167 -13.6480 0.0000 36.1330 0.0000
# 6 0.0000 0.0000 0.0000 -12.0330 0.0000 39.7306
#
#
#
# Elastic Compliance Matrix: (Units=1/GPa)
#
#
# Indices 1 2 3 4 5 6 
#
# 1 0.009258 -0.004165 -0.000943 0.000000 -0.000046 0.000000
# 2 -0.004165 0.012913 -0.006377 0.000000 -0.000710 0.000000
# 3 -0.000943 -0.006377 0.012397 0.000000 0.003519 0.000000
# 4 0.000000 0.000000 0.000000 0.030435 0.000000 0.009218
# 5 -0.000046 -0.000710 0.003519 0.000000 0.028881 0.000000
# 6 0.000000 0.000000 0.000000 0.009218 0.000000 0.027961
#
#
# Mechanical properties :
#
#
# Convention : Reuss Voigt Hill
#
# Bulk Modulus (GPa) = 86.21223 89.39042 87.80133
# Shear Modulus (GPa) = 33.62906 36.78490 35.20698
#
# Velocity S-wave (km/s) = 4.11847 4.30738 4.21399
# Velocity P-wave (km/s) = 8.13016 8.35612 8.24391
#
# Compressibility (1/GPa) = 0.01159928
#
# Stress axis : x y z
#
# Youngs Moduli (GPa) = 108.01422 77.44377 80.66215
#
# Poissons Ratio (x) = 0.32252 0.07609
# Poissons Ratio (y) = 0.44983 0.51434
# Poissons Ratio (z) = 0.10189 0.49382
#
# Static dielectric constant tensor:
#      x y z
#    x 3.501710 0.000000 -0.512120 
#    y 0.000000 3.521140 0.000000 
#    z -0.512120 0.000000 3.629490 
# 
# 
# High freq. dielectric constant tensor:
#      x y z
#    x 1.791940 0.000000 -0.018490 
#    y 0.000000 1.769640 0.000000 
#    z -0.018490 0.000000 1.768210 
# 
# From -- ./inp_files/143414.got.cif
#   From: 2010.06.25/outbox.cif.g09.slc.cpg/sg15_72_cif.got.tgz:143414.got - 2010.06.28 07:06:18.
