data_PCOD8140398
_publ_section_title
;
Structure prediction by ZEFSAII (Michael W. Deem and Ramdas Pophale) SiO2 
 PCOD8140398
Probable space group: C 2/C
;
_chemical_formula_sum "Si O2"
_cell_formula_units_Z 40
_cell_length_a 21.498632
_cell_length_b 10.217282
_cell_length_c 23.350242
_cell_angle_alpha 90.000000
_cell_angle_beta 160.844828
_cell_angle_gamma 90.000000
_cell_volume 1682.985778
_symmetry_space_group_name_H-M "C 2/C"
_symmetry_group_IT_number 15
_symmetry_cell_setting 'monoclinic'
loop_
_space_group_symop_operation_xyz
x,y,z
-x,y,1/2-z
-x,-y,-z
x,-y,1/2+z
1/2+x,1/2+y,z
1/2-x,1/2+y,1/2-z
1/2-x,1/2-y,-z
1/2+x,1/2-y,1/2+z
loop_
_atom_site_type_symbol
_atom_site_label
_atom_site_fract_x
_atom_site_fract_y
_atom_site_fract_z
Si Si1 0.918029 0.890963 0.348581
Si Si2 0.317585 0.201457 0.629263
Si Si3 0.713286 0.532895 0.442306
Si Si4 0.255611 0.432275 0.324526
Si Si5 0.086772 0.382425 0.972063
O O1 0.761052 0.925819 0.164438
O O2 0.054576 0.014020 0.479400
O O3 0.050721 0.771717 0.444050
O O4 0.810460 0.855667 0.314344
O O5 0.500000 0.237958 0.750000
O O6 0.210116 0.339940 0.527885
O O7 0.232097 0.069346 0.525990
O O8 0.341232 0.172949 0.716926
O O9 0.500000 0.483622 0.250000
O O10 0.852826 0.418419 0.540984
O O11 0.107836 0.546110 0.179763
#
# Coordination Sequence:
#
# PCOD8140398 Si02
#       5
#     8   8   8   8   8
#     4  11  26  44  68 100 137 184 235 276 344 412
#     4  10  20  41  67 100 130 174 227 284 346 394
#     4  10  22  40  69 101 135 175 230 284 339 413
#     4  11  24  45  70  98 139 179 231 291 335 412
#     4  12  23  47  70  98 143 180 229 287 341 408
#
# _framework density 23.767284
#
# number of rings (size 3 to 8) (size 9 to 14) (size 15 to 20)
#    0.000    1.200    4.000    1.800    0.000    3.200 
#    0.000    5.000    0.000    0.000    0.000    0.000 
#    0.000    0.000    0.000    0.000    0.000    0.000 
#
# Total GULP energy -247854.632642 kJ/mol
# GULP energy per Si atom -12392.731632 kJ/mol
# Density = 2.371319 g / cm^3
# Si number density = 23.767284 Si / 1000 Ang^3
#
#
#
# Elastic Constant Matrix: (Units=GPa)
#
#
# Indices 1 2 3 4 5 6 
#
# 1 117.1431 28.0641 0.5309 -0.0100 14.5036 -0.0178
# 2 28.0641 55.5038 -9.0161 0.0798 8.8490 -0.0039
# 3 0.5309 -9.0161 95.6124 0.1054 -1.8192 0.0122
# 4 -0.0100 0.0798 0.1054 27.3724 0.0210 6.0575
# 5 14.5036 8.8490 -1.8192 0.0210 34.8850 -0.0003
# 6 -0.0178 -0.0039 0.0122 6.0575 -0.0003 36.6276
#
#
#
# Elastic Compliance Matrix: (Units=1/GPa)
#
#
# Indices 1 2 3 4 5 6 
#
# 1 0.010034 -0.004683 -0.000555 0.000022 -0.003013 0.000001
# 2 -0.004683 0.021236 0.001965 -0.000071 -0.003337 0.000011
# 3 -0.000555 0.001965 0.010653 -0.000048 0.000288 0.000004
# 4 0.000022 -0.000071 -0.000048 0.037921 -0.000016 -0.006271
# 5 -0.003013 -0.003337 0.000288 -0.000016 0.030780 0.000001
# 6 0.000001 0.000011 0.000004 -0.006271 0.000001 0.028339
#
#
# Mechanical properties :
#
#
# Convention : Reuss Voigt Hill
#
# Bulk Modulus (GPa) = 28.26671 34.15745 31.21208
# Shear Modulus (GPa) = 31.78614 36.35569 34.07091
#
# Velocity S-wave (km/s) = 3.66100 3.91532 3.79030
# Velocity P-wave (km/s) = 5.45798 5.90275 5.68472
#
# Compressibility (1/GPa) = 0.03537731
#
# Stress axis : x y z
#
# Youngs Moduli (GPa) = 99.66050 47.08951 93.87199
#
# Poissons Ratio (x) = 0.22053 0.05207
# Poissons Ratio (y) = 0.46674 -0.18447
# Poissons Ratio (z) = 0.05528 -0.09254
#
# Static dielectric constant tensor:
#      x y z
#    x 4.293990 0.000020 -0.017410 
#    y 0.000020 3.881050 -0.000160 
#    z -0.017410 -0.000160 4.479370 
# 
# 
# High freq. dielectric constant tensor:
#      x y z
#    x 1.941410 0.000000 0.009340 
#    y 0.000000 1.913180 -0.000010 
#    z 0.009340 -0.000010 1.957590 
# 
# From -- ./inp_files/280054.got.cif
#   From: 2010.06.25/outbox.cif.g09.slc.cpg/sg15_141_cif.got.tgz:280054.got - 2010.06.28 07:06:18.
