data_PCOD8140995
_publ_section_title
;
Structure prediction by ZEFSAII (Michael W. Deem and Ramdas Pophale) SiO2 
 PCOD8140995
Probable space group: C 2/C
;
_chemical_formula_sum "Si O2"
_cell_formula_units_Z 36
_cell_length_a 12.811009
_cell_length_b 21.926173
_cell_length_c 8.781825
_cell_angle_alpha 90.000000
_cell_angle_beta 44.170366
_cell_angle_gamma 90.000000
_cell_volume 1718.840143
_symmetry_space_group_name_H-M "C 2/C"
_symmetry_group_IT_number 15
_symmetry_cell_setting 'monoclinic'
loop_
_space_group_symop_operation_xyz
x,y,z
-x,y,1/2-z
-x,-y,-z
x,-y,1/2+z
1/2+x,1/2+y,z
1/2-x,1/2+y,1/2-z
1/2-x,1/2-y,-z
1/2+x,1/2-y,1/2+z
loop_
_atom_site_type_symbol
_atom_site_label
_atom_site_fract_x
_atom_site_fract_y
_atom_site_fract_z
Si Si1 0.660346 0.934955 0.997150
Si Si2 0.827265 0.314240 0.391104
Si Si3 0.500000 0.740423 0.750000
Si Si4 0.332333 0.055123 0.369110
Si Si5 0.749081 0.328515 0.134954
O O1 0.500000 0.928993 0.250000
O O2 0.739493 0.868729 0.933024
O O3 0.744340 0.992415 0.988645
O O4 0.657351 0.947157 0.822143
O O5 0.750000 0.250000 0.500000
O O6 0.790630 0.342716 0.264446
O O7 0.000000 0.303337 0.250000
O O8 0.417068 0.699966 0.707704
O O9 0.624375 0.780744 0.541650
O O10 0.500000 0.059461 0.250000
O O11 0.245292 0.112615 0.529421
#
# Coordination Sequence:
#
# PCOD8140995 Si02
#       5
#     8   8   4   8   8
#     4  10  21  34  56  89 116 156 200 246 298 349
#     4  11  23  38  60  89 123 154 195 245 299 352
#     4  10  24  36  62  86 122 158 202 234 298 352
#     4  11  19  35  60  85 119 154 201 251 294 351
#     4  11  22  39  61  88 121 159 199 243 296 356
#
# _framework density 20.944354000000001
#
# number of rings (size 3 to 8) (size 9 to 14) (size 15 to 20)
#    0.000    1.333    1.111    8.000    6.222    0.000 
#    0.000    0.000    2.444    2.667    0.000    0.000 
#    0.000    0.000    0.000    0.000    0.000    0.000 
#
# Total GULP energy -223003.862567 kJ/mol
# GULP energy per Si atom -12389.103476 kJ/mol
# Density = 2.089668 g / cm^3
# Si number density = 20.944354 Si / 1000 Ang^3
#
#
#
# Elastic Constant Matrix: (Units=GPa)
#
#
# Indices 1 2 3 4 5 6 
#
# 1 132.6899 61.4907 52.3530 0.0000 27.3162 0.0000
# 2 61.4907 202.4237 56.8091 0.0000 13.3380 0.0000
# 3 52.3530 56.8091 68.7086 0.0000 31.7978 0.0000
# 4 0.0000 0.0000 0.0000 25.6803 0.0000 10.9517
# 5 27.3162 13.3380 31.7978 0.0000 51.5158 0.0000
# 6 0.0000 0.0000 0.0000 10.9517 0.0000 35.8343
#
#
#
# Elastic Compliance Matrix: (Units=1/GPa)
#
#
# Indices 1 2 3 4 5 6 
#
# 1 0.011102 -0.001419 -0.006623 0.000000 -0.001431 0.000000
# 2 -0.001419 0.006809 -0.005712 0.000000 0.002516 0.000000
# 3 -0.006623 -0.005712 0.030817 0.000000 -0.014031 0.000000
# 4 0.000000 0.000000 0.000000 0.044776 0.000000 -0.013685
# 5 -0.001431 0.002516 -0.014031 0.000000 0.028179 0.000000
# 6 0.000000 0.000000 0.000000 -0.013685 0.000000 0.032089
#
#
# Mechanical properties :
#
#
# Convention : Reuss Voigt Hill
#
# Bulk Modulus (GPa) = 47.12997 82.79198 64.96097
# Shear Modulus (GPa) = 26.54570 38.15071 32.34820
#
# Velocity S-wave (km/s) = 3.56397 4.27257 3.93425
# Velocity P-wave (km/s) = 6.28388 7.99719 7.19174
#
# Compressibility (1/GPa) = 0.02121792
#
# Stress axis : x y z
#
# Youngs Moduli (GPa) = 90.07371 146.87267 32.44946
#
# Poissons Ratio (x) = 0.20846 0.21493
# Poissons Ratio (y) = 0.12785 0.18536
# Poissons Ratio (z) = 0.59660 0.83896
#
# Static dielectric constant tensor:
#      x y z
#    x 4.048850 0.000000 0.162730 
#    y 0.000000 5.052540 0.000000 
#    z 0.162730 0.000000 3.309000 
# 
# 
# High freq. dielectric constant tensor:
#      x y z
#    x 1.815790 0.000000 0.032800 
#    y 0.000000 1.854580 0.000000 
#    z 0.032800 0.000000 1.785980 
# 
# From -- ./inp_files/31691.got.cif
#   From: 2010.06.25/outbox.cif.g09.slc.cpg/sg15_16_cif.got.tgz:31691.got - 2010.06.28 07:06:18.
