data_PCOD8140836
_publ_section_title
;
Structure prediction by ZEFSAII (Michael W. Deem and Ramdas Pophale) SiO2 
 PCOD8140836
Probable space group: C 2/C
;
_chemical_formula_sum "Si O2"
_cell_formula_units_Z 60
_cell_length_a 11.118565
_cell_length_b 29.570162
_cell_length_c 8.984902
_cell_angle_alpha 90.000000
_cell_angle_beta 107.175904
_cell_angle_gamma 90.000000
_cell_volume 2822.293816
_symmetry_space_group_name_H-M "C 2/C"
_symmetry_group_IT_number 15
_symmetry_cell_setting 'monoclinic'
loop_
_space_group_symop_operation_xyz
x,y,z
-x,y,1/2-z
-x,-y,-z
x,-y,1/2+z
1/2+x,1/2+y,z
1/2-x,1/2+y,1/2-z
1/2-x,1/2-y,-z
1/2+x,1/2-y,1/2+z
loop_
_atom_site_type_symbol
_atom_site_label
_atom_site_fract_x
_atom_site_fract_y
_atom_site_fract_z
Si Si1 0.819845 0.284732 0.128747
Si Si2 0.260490 0.874335 0.678731
Si Si3 0.028338 0.839608 0.435972
Si Si4 0.698056 0.376098 0.991021
Si Si5 0.093521 0.546276 0.406359
Si Si6 0.000000 0.316437 0.750000
Si Si7 0.054237 0.739488 0.547483
Si Si8 0.908967 0.552497 0.579762
O O1 0.820910 0.265045 0.300981
O O2 0.957173 0.289140 0.109339
O O3 0.750000 0.250000 0.000000
O O4 0.755433 0.332994 0.096223
O O5 0.174045 0.851609 0.520545
O O6 0.185214 0.875503 0.807112
O O7 0.295655 0.923085 0.621380
O O8 0.387610 0.847687 0.767540
O O9 0.006594 0.790461 0.502350
O O10 0.000000 0.838838 0.250000
O O11 0.941902 0.877385 0.488043
O O12 0.783835 0.418655 0.065413
O O13 0.142906 0.497789 0.487944
O O14 0.000000 0.527941 0.250000
O O15 0.001413 0.573312 0.486263
O O16 0.930943 0.285360 0.603336
O O17 0.000000 0.554081 0.750000
#
# Coordination Sequence:
#
# PCOD8140836 Si02
#       8
#     8   8   8   8   8   4   8   8
#     4  11  23  40  66  93 130 180 229 274 322 397
#     4  12  25  43  71  96 136 172 223 278 330 407
#     4  12  29  45  63  94 136 182 226 272 330 400
#     4  12  24  44  65  98 133 179 224 266 341 398
#     4  10  20  44  67 106 133 166 213 276 337 392
#     4  12  24  40  70 102 126 174 224 288 342 384
#     4  11  25  41  62  93 135 173 226 282 333 389
#     4  10  23  38  73 102 138 169 211 275 336 395
#
# _framework density 21.259304
#
# number of rings (size 3 to 8) (size 9 to 14) (size 15 to 20)
#    0.000    0.800    5.333    1.200    7.467    0.533 
#    0.000    0.667    0.000    0.000    0.000    0.000 
#    0.000    0.000    0.000    0.000    0.000    0.000 
#
# Total GULP energy -371673.291474 kJ/mol
# GULP energy per Si atom -12389.109716 kJ/mol
# Density = 2.121092 g / cm^3
# Si number density = 21.259304 Si / 1000 Ang^3
#
#
#
# Elastic Constant Matrix: (Units=GPa)
#
#
# Indices 1 2 3 4 5 6 
#
# 1 80.6374 34.4488 30.9281 0.0000 -3.3629 0.0000
# 2 34.4488 101.1922 33.9590 0.0000 3.9008 0.0000
# 3 30.9281 33.9590 150.4315 0.0000 0.8234 0.0000
# 4 0.0000 0.0000 0.0000 28.8155 0.0000 1.4864
# 5 -3.3629 3.9008 0.8234 0.0000 35.8214 0.0000
# 6 0.0000 0.0000 0.0000 1.4864 0.0000 29.6308
#
#
#
# Elastic Compliance Matrix: (Units=1/GPa)
#
#
# Indices 1 2 3 4 5 6 
#
# 1 0.015241 -0.004554 -0.002116 0.000000 0.001975 0.000000
# 2 -0.004554 0.012097 -0.001785 0.000000 -0.001704 0.000000
# 3 -0.002116 -0.001785 0.007487 0.000000 -0.000176 0.000000
# 4 0.000000 0.000000 0.000000 0.034794 0.000000 -0.001745
# 5 0.001975 -0.001704 -0.000176 0.000000 0.028291 0.000000
# 6 0.000000 0.000000 0.000000 -0.001745 0.000000 0.033836
#
#
# Mechanical properties :
#
#
# Convention : Reuss Voigt Hill
#
# Bulk Modulus (GPa) = 55.82443 58.99253 57.40848
# Shear Modulus (GPa) = 32.33551 34.38188 33.35869
#
# Velocity S-wave (km/s) = 3.90424 4.02588 3.96553
# Velocity P-wave (km/s) = 6.82934 7.02991 6.93035
#
# Compressibility (1/GPa) = 0.01791330
#
# Stress axis : x y z
#
# Youngs Moduli (GPa) = 65.61292 82.66213 133.57230
#
# Poissons Ratio (x) = 0.37648 0.28266
# Poissons Ratio (y) = 0.29883 0.23846
# Poissons Ratio (z) = 0.13885 0.14757
#
# Static dielectric constant tensor:
#      x y z
#    x 4.159750 0.000000 0.131600 
#    y 0.000000 4.283920 0.000000 
#    z 0.131600 0.000000 3.815050 
# 
# 
# High freq. dielectric constant tensor:
#      x y z
#    x 1.819930 0.000000 -0.003760 
#    y 0.000000 1.822170 0.000000 
#    z -0.003760 0.000000 1.851970 
# 
# From -- ./inp_files/35729.got.cif
#   From: 2010.06.25/outbox.cif.g09.slc.cpg/sg15_18_cif.got.tgz:35729.got - 2010.06.28 07:06:18.
