data_PCOD8140402
_publ_section_title
;
Structure prediction by ZEFSAII (Michael W. Deem and Ramdas Pophale) SiO2 
 PCOD8140402
Probable space group: C 2/C
;
_chemical_formula_sum "Si O2"
_cell_formula_units_Z 60
_cell_length_a 16.759627
_cell_length_b 12.159274
_cell_length_c 18.202893
_cell_angle_alpha 90.000000
_cell_angle_beta 125.852185
_cell_angle_gamma 90.000000
_cell_volume 3006.643114
_symmetry_space_group_name_H-M "C 2/C"
_symmetry_group_IT_number 15
_symmetry_cell_setting 'monoclinic'
loop_
_space_group_symop_operation_xyz
x,y,z
-x,y,1/2-z
-x,-y,-z
x,-y,1/2+z
1/2+x,1/2+y,z
1/2-x,1/2+y,1/2-z
1/2-x,1/2-y,-z
1/2+x,1/2-y,1/2+z
loop_
_atom_site_type_symbol
_atom_site_label
_atom_site_fract_x
_atom_site_fract_y
_atom_site_fract_z
Si Si1 0.410880 0.758543 0.585928
Si Si2 0.504401 0.455864 0.421491
Si Si3 0.301203 0.498989 0.246869
Si Si4 0.319930 0.063079 0.681114
Si Si5 0.883959 0.199527 0.199091
Si Si6 0.000000 0.593601 0.250000
Si Si7 0.684735 0.583256 0.471044
Si Si8 0.749936 0.119016 0.578358
O O1 0.458284 0.668206 0.559165
O O2 0.492462 0.829461 0.673675
O O3 0.355401 0.830418 0.495610
O O4 0.336878 0.704121 0.605206
O O5 0.500000 0.500000 0.500000
O O6 0.400595 0.446469 0.327872
O O7 0.574091 0.537377 0.414415
O O8 0.225844 0.502827 0.274581
O O9 0.328422 0.616372 0.225177
O O10 0.255394 0.411077 0.166408
O O11 0.371806 0.179329 0.727711
O O12 0.234079 0.098098 0.577209
O O13 0.402140 0.980598 0.695037
O O14 0.827659 0.190271 0.088831
O O15 0.000000 0.173517 0.250000
O O16 0.750431 0.492511 0.467492
#
# Coordination Sequence:
#
# PCOD8140402 Si02
#       8
#     8   8   8   8   8   4   8   8
#     4  10  21  37  64  93 129 175 209 262 327 390
#     4  11  21  37  63  97 129 167 219 271 321 380
#     4  11  24  40  66  97 131 161 222 280 318 384
#     4  12  25  43  64  95 130 172 217 270 330 391
#     4  11  23  42  68  94 127 176 217 265 332 392
#     4  12  24  42  66  92 132 176 222 260 332 408
#     4  10  20  41  67  89 123 171 219 261 316 401
#     4   9  20  39  63  95 125 165 212 264 323 381
#
# _framework density 19.95581
#
# number of rings (size 3 to 8) (size 9 to 14) (size 15 to 20)
#    0.000    1.333    4.667    1.200    0.000    3.200 
#    0.000    0.667    0.000    0.000    0.000    0.000 
#    0.000    0.000    0.000    0.000    0.000    0.000 
#
# Total GULP energy -371791.160317 kJ/mol
# GULP energy per Si atom -12393.038677 kJ/mol
# Density = 1.991039 g / cm^3
# Si number density = 19.955810 Si / 1000 Ang^3
#
#
#
# Elastic Constant Matrix: (Units=GPa)
#
#
# Indices 1 2 3 4 5 6 
#
# 1 85.8357 35.7978 38.0030 0.0000 -6.8058 0.0000
# 2 35.7978 97.9844 36.7327 0.0000 -7.4420 0.0000
# 3 38.0030 36.7327 124.0033 0.0000 -4.6186 0.0000
# 4 0.0000 0.0000 0.0000 30.9546 0.0000 -1.5007
# 5 -6.8058 -7.4420 -4.6186 0.0000 29.2117 0.0000
# 6 0.0000 0.0000 0.0000 -1.5007 0.0000 26.6477
#
#
#
# Elastic Compliance Matrix: (Units=1/GPa)
#
#
# Indices 1 2 3 4 5 6 
#
# 1 0.014970 -0.004083 -0.003306 0.000000 0.001925 0.000000
# 2 -0.004083 0.012764 -0.002458 0.000000 0.001912 0.000000
# 3 -0.003306 -0.002458 0.009812 0.000000 0.000155 0.000000
# 4 0.000000 0.000000 0.000000 0.032394 0.000000 0.001824
# 5 0.001925 0.001912 0.000155 0.000000 0.035193 0.000000
# 6 0.000000 0.000000 0.000000 0.001824 0.000000 0.037629
#
#
# Mechanical properties :
#
#
# Convention : Reuss Voigt Hill
#
# Bulk Modulus (GPa) = 56.02524 58.76562 57.39543
# Shear Modulus (GPa) = 29.68984 30.51547 30.10266
#
# Velocity S-wave (km/s) = 3.86136 3.91468 3.88811
# Velocity P-wave (km/s) = 6.92934 7.06716 6.99859
#
# Compressibility (1/GPa) = 0.01784910
#
# Stress axis : x y z
#
# Youngs Moduli (GPa) = 66.80197 78.34307 101.91966
#
# Poissons Ratio (x) = 0.31990 0.33699
# Poissons Ratio (y) = 0.27277 0.25057
# Poissons Ratio (z) = 0.22088 0.19261
#
# Static dielectric constant tensor:
#      x y z
#    x 3.389590 0.000000 0.252960 
#    y 0.000000 3.591930 0.000000 
#    z 0.252960 0.000000 3.379640 
# 
# 
# High freq. dielectric constant tensor:
#      x y z
#    x 1.762240 0.000000 0.008650 
#    y 0.000000 1.781960 0.000000 
#    z 0.008650 0.000000 1.788970 
# 
# From -- ./inp_files/210637.got.cif
#   From: 2010.06.25/outbox.cif.g09.slc.cpg/sg15_106_cif.got.tgz:210637.got - 2010.06.28 07:06:18.
