data_PCOD8140048
_publ_section_title
;
Structure prediction by ZEFSAII (Michael W. Deem and Ramdas Pophale) SiO2 
 PCOD8140048
Probable space group: C 2/C
;
_chemical_formula_sum "Si O2"
_cell_formula_units_Z 60
_cell_length_a 20.830951
_cell_length_b 22.835070
_cell_length_c 12.842894
_cell_angle_alpha 90.000000
_cell_angle_beta 26.858954
_cell_angle_gamma 90.000000
_cell_volume 2760.046859
_symmetry_space_group_name_H-M "C 2/C"
_symmetry_group_IT_number 15
_symmetry_cell_setting 'monoclinic'
loop_
_space_group_symop_operation_xyz
x,y,z
-x,y,1/2-z
-x,-y,-z
x,-y,1/2+z
1/2+x,1/2+y,z
1/2-x,1/2+y,1/2-z
1/2-x,1/2-y,-z
1/2+x,1/2-y,1/2+z
loop_
_atom_site_type_symbol
_atom_site_label
_atom_site_fract_x
_atom_site_fract_y
_atom_site_fract_z
Si Si1 0.500000 0.243405 0.750000
Si Si2 0.026349 0.159587 0.362634
Si Si3 0.064125 0.675969 0.052327
Si Si4 0.592090 0.863772 0.911697
Si Si5 0.149242 0.463197 0.983608
Si Si6 0.782330 0.786966 0.758880
Si Si7 0.797477 0.612849 0.899576
Si Si8 0.266589 0.421013 0.230764
O O1 0.539974 0.280916 0.587882
O O2 0.652674 0.209027 0.533574
O O3 0.087782 0.172693 0.388440
O O4 0.928419 0.101944 0.503341
O O5 0.157042 0.151805 0.092128
O O6 0.000000 0.704209 0.250000
O O7 0.941002 0.643373 0.162830
O O8 0.151784 0.723672 0.859973
O O9 0.174726 0.626405 0.927233
O O10 0.718143 0.817781 0.749462
O O11 0.630869 0.928342 0.900289
O O12 0.443902 0.848828 0.188244
O O13 0.224047 0.423608 0.962941
O O14 0.000000 0.484248 0.250000
O O15 0.252084 0.517339 0.810162
O O16 0.795589 0.573065 0.797141
#
# Coordination Sequence:
#
# PCOD8140048 Si02
#       8
#     4   8   8   8   8   8   8   8
#     4  12  20  36  64  96 128 166 210 264 322 382
#     4  12  21  38  60  93 132 161 206 264 323 384
#     4  11  25  43  65  90 128 175 220 262 316 386
#     4  10  22  42  64  95 123 162 224 261 315 383
#     4  10  22  40  69  94 124 170 216 273 317 377
#     4  12  23  39  64  97 127 172 209 266 327 379
#     4  10  20  40  65  93 129 165 205 275 324 373
#     4  11  23  41  62  97 127 165 219 262 327 381
#
# _framework density 21.738762000000001
#
# number of rings (size 3 to 8) (size 9 to 14) (size 15 to 20)
#    0.000    1.067    4.000    3.200    0.933    6.933 
#    0.000    0.000    0.000    0.000    0.000    0.000 
#    0.000    0.000    0.000    0.000    0.000    0.000 
#
# Total GULP energy -371676.933640 kJ/mol
# GULP energy per Si atom -12389.231121 kJ/mol
# Density = 2.168928 g / cm^3
# Si number density = 21.738762 Si / 1000 Ang^3
#
#
#
# Elastic Constant Matrix: (Units=GPa)
#
#
# Indices 1 2 3 4 5 6 
#
# 1 102.0888 19.6053 35.1306 -0.0021 -9.5903 0.0053
# 2 19.6053 57.8687 13.5019 0.0003 -11.6095 0.0007
# 3 35.1306 13.5019 56.7936 0.0125 -4.0982 -0.0047
# 4 -0.0021 0.0003 0.0125 41.4166 -0.0039 -1.7232
# 5 -9.5903 -11.6095 -4.0982 -0.0039 33.3325 -0.0017
# 6 0.0053 0.0007 -0.0047 -1.7232 -0.0017 22.8464
#
#
#
# Elastic Compliance Matrix: (Units=1/GPa)
#
#
# Indices 1 2 3 4 5 6 
#
# 1 0.012941 -0.002269 -0.007319 0.000003 0.002033 -0.000004
# 2 -0.002269 0.019916 -0.002904 0.000001 0.005927 0.000000
# 3 -0.007319 -0.002904 0.022802 -0.000007 -0.000313 0.000006
# 4 0.000003 0.000001 -0.000007 0.024221 0.000003 0.001827
# 5 0.002033 0.005927 -0.000313 0.000003 0.032611 0.000002
# 6 -0.000004 0.000000 0.000006 0.001827 0.000002 0.043908
#
#
# Mechanical properties :
#
#
# Convention : Reuss Voigt Hill
#
# Bulk Modulus (GPa) = 32.59800 39.24741 35.92271
# Shear Modulus (GPa) = 26.09517 29.41998 27.75758
#
# Velocity S-wave (km/s) = 3.46843 3.68277 3.57721
# Velocity P-wave (km/s) = 5.57386 6.01474 5.79849
#
# Compressibility (1/GPa) = 0.03067673
#
# Stress axis : x y z
#
# Youngs Moduli (GPa) = 77.27668 50.21196 43.85523
#
# Poissons Ratio (x) = 0.11391 0.32096
# Poissons Ratio (y) = 0.17531 0.12734
# Poissons Ratio (z) = 0.56555 0.14580
#
# Static dielectric constant tensor:
#      x y z
#    x 3.978550 -0.000010 -0.243000 
#    y -0.000010 3.649470 0.000010 
#    z -0.243000 0.000010 3.701760 
# 
# 
# High freq. dielectric constant tensor:
#      x y z
#    x 1.864250 0.000000 -0.017350 
#    y 0.000000 1.840440 0.000000 
#    z -0.017350 0.000000 1.827190 
# 
# From -- ./inp_files/114814.got.cif
#   From: 2010.06.25/outbox.cif.g09.slc.cpg/sg15_58_cif.got.tgz:114814.got - 2010.06.28 07:06:18.
