data_PCOD8140719
_publ_section_title
;
Structure prediction by ZEFSAII (Michael W. Deem and Ramdas Pophale) SiO2 
 PCOD8140719
Probable space group: C 2/C
;
_chemical_formula_sum "Si O2"
_cell_formula_units_Z 44
_cell_length_a 10.952230
_cell_length_b 19.322804
_cell_length_c 12.048290
_cell_angle_alpha 90.000000
_cell_angle_beta 128.013279
_cell_angle_gamma 90.000000
_cell_volume 2008.868936
_symmetry_space_group_name_H-M "C 2/C"
_symmetry_group_IT_number 15
_symmetry_cell_setting 'monoclinic'
loop_
_space_group_symop_operation_xyz
x,y,z
-x,y,1/2-z
-x,-y,-z
x,-y,1/2+z
1/2+x,1/2+y,z
1/2-x,1/2+y,1/2-z
1/2-x,1/2-y,-z
1/2+x,1/2-y,1/2+z
loop_
_atom_site_type_symbol
_atom_site_label
_atom_site_fract_x
_atom_site_fract_y
_atom_site_fract_z
Si Si1 0.359777 0.798334 0.871012
Si Si2 0.642737 0.067412 0.246443
Si Si3 0.618104 0.596583 0.942517
Si Si4 0.000000 0.777780 0.250000
Si Si5 0.727783 0.567949 0.777929
Si Si6 0.591411 0.201820 0.695231
O O1 0.372724 0.881994 0.868972
O O2 0.400325 0.771375 0.771422
O O3 0.187441 0.768386 0.794814
O O4 0.473689 0.773898 0.032677
O O5 0.500000 0.070416 0.250000
O O6 0.797026 0.094037 0.393624
O O7 0.663130 0.989742 0.214451
O O8 0.607535 0.674569 0.888799
O O9 0.719110 0.555236 0.906151
O O10 0.447945 0.564181 0.866081
O O11 0.792784 0.643475 0.784985
O O12 0.500000 0.171743 0.750000
#
# Coordination Sequence:
#
# PCOD8140719 Si02
#       6
#     8   8   8   4   8   8
#     4  12  25  42  70 100 132 172 228 277 334 392
#     4  12  25  38  66 103 130 170 225 276 335 403
#     4  10  21  44  67  92 132 174 221 281 331 389
#     4  10  20  42  72  94 126 168 216 288 324 388
#     4  10  23  43  66  91 133 179 222 274 334 393
#     4  12  26  46  66  95 139 183 218 273 335 399
#
# _framework density 21.902871999999999
#
# number of rings (size 3 to 8) (size 9 to 14) (size 15 to 20)
#    0.000    1.091    4.545    3.818    0.000    5.818 
#    3.273    0.000    0.000    0.000    0.000    0.000 
#    0.000    0.000    0.000    0.000    0.000    0.000 
#
# Total GULP energy -272784.791590 kJ/mol
# GULP energy per Si atom -12399.308709 kJ/mol
# Density = 2.185302 g / cm^3
# Si number density = 21.902872 Si / 1000 Ang^3
#
#
#
# Elastic Constant Matrix: (Units=GPa)
#
#
# Indices 1 2 3 4 5 6 
#
# 1 96.5898 29.6302 25.4212 0.0000 4.4746 0.0000
# 2 29.6302 100.3094 15.5497 0.0000 6.2459 0.0000
# 3 25.4212 15.5497 88.1672 0.0000 11.1580 0.0000
# 4 0.0000 0.0000 0.0000 18.9582 0.0000 -8.7102
# 5 4.4746 6.2459 11.1580 0.0000 21.8056 0.0000
# 6 0.0000 0.0000 0.0000 -8.7102 0.0000 31.9052
#
#
#
# Elastic Compliance Matrix: (Units=1/GPa)
#
#
# Indices 1 2 3 4 5 6 
#
# 1 0.012081 -0.003110 -0.002923 0.000000 -0.000093 0.000000
# 2 -0.003110 0.011145 -0.000797 0.000000 -0.002146 0.000000
# 3 -0.002923 -0.000797 0.013067 0.000000 -0.005858 0.000000
# 4 0.000000 0.000000 0.000000 0.060313 0.000000 0.016465
# 5 -0.000093 -0.002146 -0.005858 0.000000 0.049491 0.000000
# 6 0.000000 0.000000 0.000000 0.016465 0.000000 0.035838
#
#
# Mechanical properties :
#
#
# Convention : Reuss Voigt Hill
#
# Bulk Modulus (GPa) = 44.18449 47.36317 45.77383
# Shear Modulus (GPa) = 24.61379 28.83149 26.72264
#
# Velocity S-wave (km/s) = 3.35590 3.63207 3.49671
# Velocity P-wave (km/s) = 5.93573 6.26581 6.10300
#
# Compressibility (1/GPa) = 0.02263238
#
# Stress axis : x y z
#
# Youngs Moduli (GPa) = 82.77769 89.72694 76.52921
#
# Poissons Ratio (x) = 0.27901 0.22370
# Poissons Ratio (y) = 0.25740 0.06102
# Poissons Ratio (z) = 0.24196 0.07155
#
# Static dielectric constant tensor:
#      x y z
#    x 4.045720 0.000000 0.035170 
#    y 0.000000 3.844870 0.000000 
#    z 0.035170 0.000000 3.883760 
# 
# 
# High freq. dielectric constant tensor:
#      x y z
#    x 1.867620 0.000000 0.005890 
#    y 0.000000 1.849420 0.000000 
#    z 0.005890 0.000000 1.860220 
# 
# From -- ./inp_files/87938.got.cif
#   From: 2010.06.25/outbox.cif.g09.slc.cpg/sg15_44_cif.got.tgz:87938.got - 2010.06.28 07:06:18.
