data_PCOD8140721
_publ_section_title
;
Structure prediction by ZEFSAII (Michael W. Deem and Ramdas Pophale) SiO2 
 PCOD8140721
Probable space group: C 2/C
;
_chemical_formula_sum "Si O2"
_cell_formula_units_Z 52
_cell_length_a 20.041306
_cell_length_b 11.997019
_cell_length_c 11.156707
_cell_angle_alpha 90.000000
_cell_angle_beta 58.679944
_cell_angle_gamma 90.000000
_cell_volume 2291.574962
_symmetry_space_group_name_H-M "C 2/C"
_symmetry_group_IT_number 15
_symmetry_cell_setting 'monoclinic'
loop_
_space_group_symop_operation_xyz
x,y,z
-x,y,1/2-z
-x,-y,-z
x,-y,1/2+z
1/2+x,1/2+y,z
1/2-x,1/2+y,1/2-z
1/2-x,1/2-y,-z
1/2+x,1/2-y,1/2+z
loop_
_atom_site_type_symbol
_atom_site_label
_atom_site_fract_x
_atom_site_fract_y
_atom_site_fract_z
Si Si1 0.720683 0.373141 0.013593
Si Si2 0.160020 0.891450 0.322639
Si Si3 0.000000 0.224898 0.750000
Si Si4 0.084315 0.334181 0.875705
Si Si5 0.952289 0.706348 0.675671
Si Si6 0.680834 0.032624 0.707059
Si Si7 0.591038 0.391816 0.958000
O O1 0.789604 0.465108 0.938338
O O2 0.677805 0.370247 0.925845
O O3 0.750000 0.250000 0.000000
O O4 0.663564 0.405000 0.175448
O O5 0.132780 0.768704 0.387291
O O6 0.246269 0.911320 0.293706
O O7 0.090794 0.975459 0.430365
O O8 0.063383 0.305199 0.755471
O O9 0.030519 0.144340 0.616550
O O10 0.136683 0.444561 0.834363
O O11 0.006217 0.354679 0.026179
O O12 0.879537 0.627500 0.776899
O O13 0.920701 0.822698 0.652581
O O14 0.000000 0.733533 0.750000
#
# Coordination Sequence:
#
# PCOD8140721 Si02
#       7
#     8   8   4   8   8   8   8
#     4  11  20  42  71  96 132 177 236 280 334 415
#     4  11  24  42  72 104 133 178 237 291 344 404
#     4  10  20  42  72  96 136 184 240 284 334 414
#     4  11  24  46  69 102 136 188 240 281 339 425
#     4  11  27  45  65 102 148 184 221 287 361 418
#     4  11  25  41  72  99 140 181 236 288 345 415
#     4  10  23  43  68 102 133 179 231 285 343 414
#
# _framework density 22.691818000000001
#
# number of rings (size 3 to 8) (size 9 to 14) (size 15 to 20)
#    0.000    1.231    3.077    1.385    5.385    6.154 
#    2.769    1.538    0.000    0.000    0.000    0.000 
#    0.000    0.000    0.000    0.000    0.000    0.000 
#
# Total GULP energy -322357.538648 kJ/mol
# GULP energy per Si atom -12398.366871 kJ/mol
# Density = 2.264017 g / cm^3
# Si number density = 22.691818 Si / 1000 Ang^3
#
#
#
# Elastic Constant Matrix: (Units=GPa)
#
#
# Indices 1 2 3 4 5 6 
#
# 1 108.1302 52.2192 20.7241 0.0000 10.0009 0.0000
# 2 52.2192 103.7507 19.2244 0.0000 2.5574 0.0000
# 3 20.7241 19.2244 81.7885 0.0000 3.6961 0.0000
# 4 0.0000 0.0000 0.0000 41.8364 0.0000 -9.5118
# 5 10.0009 2.5574 3.6961 0.0000 36.8367 0.0000
# 6 0.0000 0.0000 0.0000 -9.5118 0.0000 30.9086
#
#
#
# Elastic Compliance Matrix: (Units=1/GPa)
#
#
# Indices 1 2 3 4 5 6 
#
# 1 0.012751 -0.006035 -0.001682 0.000000 -0.002874 0.000000
# 2 -0.006035 0.012942 -0.001553 0.000000 0.000896 0.000000
# 3 -0.001682 -0.001553 0.013052 0.000000 -0.000745 0.000000
# 4 0.000000 0.000000 0.000000 0.025701 0.000000 0.007909
# 5 -0.002874 0.000896 -0.000745 0.000000 0.027940 0.000000
# 6 0.000000 0.000000 0.000000 0.007909 0.000000 0.034787
#
#
# Mechanical properties :
#
#
# Convention : Reuss Voigt Hill
#
# Bulk Modulus (GPa) = 49.49820 53.11165 51.30492
# Shear Modulus (GPa) = 32.79803 35.34980 34.07392
#
# Velocity S-wave (km/s) = 3.80592 3.95121 3.87925
# Velocity P-wave (km/s) = 6.41670 6.65376 6.53630
#
# Compressibility (1/GPa) = 0.02020276
#
# Stress axis : x y z
#
# Youngs Moduli (GPa) = 78.42572 77.26921 76.61816
#
# Poissons Ratio (x) = 0.46633 0.12891
# Poissons Ratio (y) = 0.47331 0.11901
# Poissons Ratio (z) = 0.13195 0.12002
#
# Static dielectric constant tensor:
#      x y z
#    x 4.317240 0.000000 0.030740 
#    y 0.000000 4.117130 0.000000 
#    z 0.030740 0.000000 4.628420 
# 
# 
# High freq. dielectric constant tensor:
#      x y z
#    x 1.904970 0.000000 -0.014230 
#    y 0.000000 1.895510 0.000000 
#    z -0.014230 0.000000 1.887680 
# 
# From -- ./inp_files/111507.got.cif
#   From: 2010.06.25/outbox.cif.g09.slc.cpg/sg15_56_cif.got.tgz:111507.got - 2010.06.28 07:06:18.
