data_PCOD8140236
_publ_section_title
;
Structure prediction by ZEFSAII (Michael W. Deem and Ramdas Pophale) SiO2 
 PCOD8140236
Probable space group: C 2/C
;
_chemical_formula_sum "Si O2"
_cell_formula_units_Z 44
_cell_length_a 8.479212
_cell_length_b 12.741732
_cell_length_c 16.278328
_cell_angle_alpha 90.000000
_cell_angle_beta 80.143846
_cell_angle_gamma 90.000000
_cell_volume 1732.750602
_symmetry_space_group_name_H-M "C 2/C"
_symmetry_group_IT_number 15
_symmetry_cell_setting 'monoclinic'
loop_
_space_group_symop_operation_xyz
x,y,z
-x,y,1/2-z
-x,-y,-z
x,-y,1/2+z
1/2+x,1/2+y,z
1/2-x,1/2+y,1/2-z
1/2-x,1/2-y,-z
1/2+x,1/2-y,1/2+z
loop_
_atom_site_type_symbol
_atom_site_label
_atom_site_fract_x
_atom_site_fract_y
_atom_site_fract_z
Si Si1 0.049539 0.095890 0.830196
Si Si2 0.478658 0.735941 0.386807
Si Si3 0.152044 0.543088 0.593914
Si Si4 0.500000 0.948310 0.750000
Si Si5 0.827592 0.136280 0.995425
Si Si6 0.253541 0.286716 0.762545
O O1 0.188156 0.037605 0.865937
O O2 0.111068 0.209460 0.798069
O O3 0.000000 0.034922 0.750000
O O4 0.895274 0.107219 0.901170
O O5 0.397351 0.840983 0.435791
O O6 0.525656 0.648554 0.451487
O O7 0.634966 0.764018 0.318248
O O8 0.350785 0.683779 0.336639
O O9 0.189784 0.452561 0.523617
O O10 0.003227 0.516631 0.666680
O O11 0.667812 0.887717 0.733508
O O12 0.750000 0.250000 0.000000
#
# Coordination Sequence:
#
# PCOD8140236 Si02
#       6
#     8   8   8   4   8   8
#     4  11  23  43  70 102 142 183 235 303 362 427
#     4  10  23  45  68 102 144 185 242 299 361 428
#     4  11  25  42  69 106 142 186 241 299 356 445
#     4  12  20  40  72 108 142 192 242 282 366 438
#     4  12  25  45  72 100 144 188 243 299 364 437
#     4  10  20  40  72 101 143 190 232 291 360 427
#
# _framework density 25.393152000000001
#
# number of rings (size 3 to 8) (size 9 to 14) (size 15 to 20)
#    0.000    1.091    2.727    4.909    0.000    5.091 
#    0.000    3.636    0.000    0.000    0.000    0.000 
#    0.000    0.000    0.000    0.000    0.000    0.000 
#
# Total GULP energy -272653.573501 kJ/mol
# GULP energy per Si atom -12393.344250 kJ/mol
# Density = 2.533536 g / cm^3
# Si number density = 25.393152 Si / 1000 Ang^3
#
#
#
# Elastic Constant Matrix: (Units=GPa)
#
#
# Indices 1 2 3 4 5 6 
#
# 1 71.0310 9.7201 19.5518 0.0000 -5.7013 0.0000
# 2 9.7201 84.4106 21.3926 0.0000 -15.5705 0.0000
# 3 19.5518 21.3926 138.2396 0.0000 -24.1768 0.0000
# 4 0.0000 0.0000 0.0000 30.8779 0.0000 -6.0628
# 5 -5.7013 -15.5705 -24.1768 0.0000 41.2369 0.0000
# 6 0.0000 0.0000 0.0000 -6.0628 0.0000 45.3788
#
#
#
# Elastic Compliance Matrix: (Units=1/GPa)
#
#
# Indices 1 2 3 4 5 6 
#
# 1 0.014779 -0.001140 -0.001818 0.000000 0.000547 0.000000
# 2 -0.001140 0.013021 -0.001138 0.000000 0.004092 0.000000
# 3 -0.001818 -0.001138 0.008410 0.000000 0.004250 0.000000
# 4 0.000000 0.000000 0.000000 0.033258 0.000000 0.004443
# 5 0.000547 0.004092 0.004250 0.000000 0.028362 0.000000
# 6 0.000000 0.000000 0.000000 0.004443 0.000000 0.022630
#
#
# Mechanical properties :
#
#
# Convention : Reuss Voigt Hill
#
# Bulk Modulus (GPa) = 35.69206 43.89001 39.79104
# Shear Modulus (GPa) = 36.23362 39.69982 37.96672
#
# Velocity S-wave (km/s) = 3.78154 3.95828 3.87092
# Velocity P-wave (km/s) = 5.75786 6.18162 5.97350
#
# Compressibility (1/GPa) = 0.02801744
#
# Stress axis : x y z
#
# Youngs Moduli (GPa) = 67.66478 76.79683 118.90127
#
# Poissons Ratio (x) = 0.08756 0.21618
# Poissons Ratio (y) = 0.07715 0.13533
# Poissons Ratio (z) = 0.12302 0.08741
#
# Static dielectric constant tensor:
#      x y z
#    x 4.874840 0.000000 0.535670 
#    y 0.000000 4.486610 0.000000 
#    z 0.535670 0.000000 2.246470 
# 
# 
# High freq. dielectric constant tensor:
#      x y z
#    x 2.021090 0.000000 -0.003860 
#    y 0.000000 2.004450 0.000000 
#    z -0.003860 0.000000 2.010550 
# 
# From -- ./inp_files/188740.got.cif
#   From: 2010.06.25/outbox.cif.g09.slc.cpg/sg15_95_cif.got.tgz:188740.got - 2010.06.28 07:06:18.
