data_PCOD8140533
_publ_section_title
;
Structure prediction by ZEFSAII (Michael W. Deem and Ramdas Pophale) SiO2 
 PCOD8140533
Probable space group: C 2/C
;
_chemical_formula_sum "Si O2"
_cell_formula_units_Z 44
_cell_length_a 20.062762
_cell_length_b 17.372201
_cell_length_c 8.675571
_cell_angle_alpha 90.000000
_cell_angle_beta 47.176431
_cell_angle_gamma 90.000000
_cell_volume 2217.758904
_symmetry_space_group_name_H-M "C 2/C"
_symmetry_group_IT_number 15
_symmetry_cell_setting 'monoclinic'
loop_
_space_group_symop_operation_xyz
x,y,z
-x,y,1/2-z
-x,-y,-z
x,-y,1/2+z
1/2+x,1/2+y,z
1/2-x,1/2+y,1/2-z
1/2-x,1/2-y,-z
1/2+x,1/2-y,1/2+z
loop_
_atom_site_type_symbol
_atom_site_label
_atom_site_fract_x
_atom_site_fract_y
_atom_site_fract_z
Si Si1 0.503293 0.171489 0.568943
Si Si2 0.873309 0.101734 0.944205
Si Si3 0.665556 0.913238 0.700372
Si Si4 0.000000 0.963286 0.750000
Si Si5 0.588624 0.055952 0.010426
Si Si6 0.003471 0.842959 0.001593
O O1 0.500000 0.141489 0.750000
O O2 0.604508 0.160041 0.342135
O O3 0.431218 0.126673 0.574041
O O4 0.479496 0.261455 0.605017
O O5 0.920018 0.162111 0.753278
O O6 0.765935 0.101732 0.101569
O O7 0.901822 0.130326 0.069220
O O8 0.912872 0.016464 0.849093
O O9 0.666704 0.923027 0.512459
O O10 0.619688 0.985787 0.856287
O O11 0.973808 0.909010 0.931474
O O12 0.500000 0.033577 0.250000
#
# Coordination Sequence:
#
# PCOD8140533 Si02
#       6
#     8   8   8   4   8   8
#     4  11  22  43  62  85 123 162 200 243 304 358
#     4  10  23  38  64  89 122 152 203 248 296 355
#     4  11  23  38  65  92 120 154 203 249 292 356
#     4  10  20  42  64  86 118 160 202 242 302 350
#     4  10  22  39  63  90 120 160 197 243 303 354
#     4  10  22  41  63  87 121 162 195 245 305 355
#
# _framework density 19.839846999999999
#
# number of rings (size 3 to 8) (size 9 to 14) (size 15 to 20)
#    0.000    1.818    0.909    6.000   12.727    0.727 
#    0.000    0.909    0.000    0.000    0.000    0.000 
#    0.000    0.000    0.000    0.000    0.000    0.000 
#
# Total GULP energy -272762.338551 kJ/mol
# GULP energy per Si atom -12398.288116 kJ/mol
# Density = 1.979469 g / cm^3
# Si number density = 19.839847 Si / 1000 Ang^3
#
#
#
# Elastic Constant Matrix: (Units=GPa)
#
#
# Indices 1 2 3 4 5 6 
#
# 1 115.6767 43.0984 50.5961 0.0000 0.3352 0.0000
# 2 43.0984 98.5800 24.8304 0.0000 3.0942 0.0000
# 3 50.5961 24.8304 54.0337 0.0000 12.9764 0.0000
# 4 0.0000 0.0000 0.0000 21.9405 0.0000 13.4964
# 5 0.3352 3.0942 12.9764 0.0000 43.5107 0.0000
# 6 0.0000 0.0000 0.0000 13.4964 0.0000 15.7599
#
#
#
# Elastic Compliance Matrix: (Units=1/GPa)
#
#
# Indices 1 2 3 4 5 6 
#
# 1 0.016478 -0.003602 -0.014870 0.000000 0.004564 0.000000
# 2 -0.003602 0.012286 -0.002230 0.000000 -0.000181 0.000000
# 3 -0.014870 -0.002230 0.035966 0.000000 -0.010453 0.000000
# 4 0.000000 0.000000 0.000000 0.096315 0.000000 -0.082482
# 5 0.004564 -0.000181 -0.010453 0.000000 0.026078 0.000000
# 6 0.000000 0.000000 0.000000 -0.082482 0.000000 0.134088
#
#
# Mechanical properties :
#
#
# Convention : Reuss Voigt Hill
#
# Bulk Modulus (GPa) = 42.87005 56.14889 49.50947
# Shear Modulus (GPa) = 13.49928 26.22659 19.86294
#
# Velocity S-wave (km/s) = 2.61130 3.63976 3.16755
# Velocity P-wave (km/s) = 5.54498 6.78427 6.19569
#
# Compressibility (1/GPa) = 0.02332631
#
# Stress axis : x y z
#
# Youngs Moduli (GPa) = 60.68854 81.39349 27.80375
#
# Poissons Ratio (x) = 0.29315 0.41345
# Poissons Ratio (y) = 0.21858 0.06200
# Poissons Ratio (z) = 0.90246 0.18150
#
# Static dielectric constant tensor:
#      x y z
#    x 3.946750 0.000000 0.359880 
#    y 0.000000 3.489930 0.000000 
#    z 0.359880 0.000000 3.514520 
# 
# 
# High freq. dielectric constant tensor:
#      x y z
#    x 1.780860 0.000000 0.026710 
#    y 0.000000 1.773050 0.000000 
#    z 0.026710 0.000000 1.758140 
# 
# From -- ./inp_files/62644.got.cif
#   From: 2010.06.25/outbox.cif.g09.slc.cpg/sg15_32_cif.got.tgz:62644.got - 2010.06.28 07:06:18.
