data_PCOD8140045
_publ_section_title
;
Structure prediction by ZEFSAII (Michael W. Deem and Ramdas Pophale) SiO2 
 PCOD8140045
Probable space group: C 2/C
;
_chemical_formula_sum "Si O2"
_cell_formula_units_Z 48
_cell_length_a 24.469926
_cell_length_b 11.870459
_cell_length_c 15.643583
_cell_angle_alpha 90.000000
_cell_angle_beta 154.011660
_cell_angle_gamma 90.000000
_cell_volume 1991.118490
_symmetry_space_group_name_H-M "C 2/C"
_symmetry_group_IT_number 15
_symmetry_cell_setting 'monoclinic'
loop_
_space_group_symop_operation_xyz
x,y,z
-x,y,1/2-z
-x,-y,-z
x,-y,1/2+z
1/2+x,1/2+y,z
1/2-x,1/2+y,1/2-z
1/2-x,1/2-y,-z
1/2+x,1/2-y,1/2+z
loop_
_atom_site_type_symbol
_atom_site_label
_atom_site_fract_x
_atom_site_fract_y
_atom_site_fract_z
Si Si1 0.278491 0.465902 0.827751
Si Si2 0.442639 0.986564 0.584705
Si Si3 0.466157 0.370017 0.300020
Si Si4 0.068255 0.301744 0.226141
Si Si5 0.324762 0.413582 0.558729
Si Si6 0.429989 0.167130 0.366956
O O1 0.205740 0.523444 0.644460
O O2 0.195357 0.372577 0.761451
O O3 0.404331 0.406236 0.971321
O O4 0.315940 0.566772 0.944670
O O5 0.500000 0.926007 0.750000
O O6 0.515697 0.942239 0.604589
O O7 0.462801 0.121042 0.621419
O O8 0.500000 0.337459 0.250000
O O9 0.365917 0.470658 0.162329
O O10 0.403707 0.265091 0.260922
O O11 0.196197 0.371601 0.418560
O O12 0.071767 0.181914 0.278047
O O13 0.033361 0.285014 0.077574
#
# Coordination Sequence:
#
# PCOD8140045 Si02
#       6
#     8   8   8   8   8   8
#     4  10  21  44  65  93 133 175 213 270 327 378
#     4  11  22  40  66  96 125 170 225 261 320 391
#     4  10  24  40  63 100 132 171 214 267 329 384
#     4  10  21  40  70  91 125 175 212 270 322 381
#     4  10  20  40  65  93 126 163 215 262 323 382
#     4  11  21  44  66  93 135 169 217 267 327 384
#
# _framework density 24.107054000000002
#
# number of rings (size 3 to 8) (size 9 to 14) (size 15 to 20)
#    0.000    1.667    3.333    1.500    0.000    8.000 
#    9.000    0.000    0.000    0.000    0.000    0.000 
#    0.000    0.000    0.000    0.000    0.000    0.000 
#
# Total GULP energy -297480.183376 kJ/mol
# GULP energy per Si atom -12395.007641 kJ/mol
# Density = 2.405218 g / cm^3
# Si number density = 24.107054 Si / 1000 Ang^3
#
#
#
# Elastic Constant Matrix: (Units=GPa)
#
#
# Indices 1 2 3 4 5 6 
#
# 1 43.9027 9.9673 29.1654 0.0000 -15.1750 0.0000
# 2 9.9673 114.7096 45.8084 0.0000 -21.2243 0.0000
# 3 29.1654 45.8084 156.4332 0.0000 -26.5742 0.0000
# 4 0.0000 0.0000 0.0000 38.8940 0.0000 -3.2685
# 5 -15.1750 -21.2243 -26.5742 0.0000 31.3033 0.0000
# 6 0.0000 0.0000 0.0000 -3.2685 0.0000 18.4180
#
#
#
# Elastic Compliance Matrix: (Units=1/GPa)
#
#
# Indices 1 2 3 4 5 6 
#
# 1 0.029052 0.001137 -0.003770 0.000000 0.011655 0.000000
# 2 0.001137 0.010621 -0.002343 0.000000 0.005763 0.000000
# 3 -0.003770 -0.002343 0.008415 0.000000 0.003727 0.000000
# 4 0.000000 0.000000 0.000000 0.026100 0.000000 0.004632
# 5 0.011655 0.005763 0.003727 0.000000 0.044667 0.000000
# 6 0.000000 0.000000 0.000000 0.004632 0.000000 0.055117
#
#
# Mechanical properties :
#
#
# Convention : Reuss Voigt Hill
#
# Bulk Modulus (GPa) = 26.22129 53.88085 40.05107
# Shear Modulus (GPa) = 25.42784 33.06336 29.24560
#
# Velocity S-wave (km/s) = 3.25127 3.70742 3.48682
# Velocity P-wave (km/s) = 4.99950 6.38168 5.73240
#
# Compressibility (1/GPa) = 0.03813694
#
# Stress axis : x y z
#
# Youngs Moduli (GPa) = 34.42090 94.15365 118.84053
#
# Poissons Ratio (x) = -0.10710 0.44799
# Poissons Ratio (y) = -0.03915 0.27846
# Poissons Ratio (z) = 0.12976 0.22061
#
# Static dielectric constant tensor:
#      x y z
#    x 3.836340 0.000000 -0.191580 
#    y 0.000000 4.210880 0.000000 
#    z -0.191580 0.000000 4.946310 
# 
# 
# High freq. dielectric constant tensor:
#      x y z
#    x 1.921960 0.000000 -0.005100 
#    y 0.000000 1.949220 0.000000 
#    z -0.005100 0.000000 1.979230 
# 
# From -- ./inp_files/177880.got.cif
#   From: 2010.06.25/outbox.cif.g09.slc.cpg/sg15_89_cif.got.tgz:177880.got - 2010.06.28 07:06:18.
