data_PCOD8140813
_publ_section_title
;
Structure prediction by ZEFSAII (Michael W. Deem and Ramdas Pophale) SiO2 
 PCOD8140813
Probable space group: C 2/C
;
_chemical_formula_sum "Si O2"
_cell_formula_units_Z 40
_cell_length_a 8.124507
_cell_length_b 12.404638
_cell_length_c 19.074334
_cell_angle_alpha 90.000000
_cell_angle_beta 99.410698
_cell_angle_gamma 90.000000
_cell_volume 1896.469750
_symmetry_space_group_name_H-M "C 2/C"
_symmetry_group_IT_number 15
_symmetry_cell_setting 'monoclinic'
loop_
_space_group_symop_operation_xyz
x,y,z
-x,y,1/2-z
-x,-y,-z
x,-y,1/2+z
1/2+x,1/2+y,z
1/2-x,1/2+y,1/2-z
1/2-x,1/2-y,-z
1/2+x,1/2-y,1/2+z
loop_
_atom_site_type_symbol
_atom_site_label
_atom_site_fract_x
_atom_site_fract_y
_atom_site_fract_z
Si Si1 0.378010 0.840740 0.027985
Si Si2 0.325352 0.278346 0.873715
Si Si3 0.179573 0.192235 0.727880
Si Si4 0.515963 0.841908 0.615181
Si Si5 0.277172 0.995371 0.138467
O O1 0.532645 0.790519 0.080279
O O2 0.279172 0.929175 0.065990
O O3 0.250000 0.750000 0.000000
O O4 0.438410 0.888792 0.957897
O O5 0.312517 0.236007 0.792833
O O6 0.146196 0.261294 0.900932
O O7 0.362471 0.408461 0.875880
O O8 0.244427 0.078912 0.702920
O O9 0.000000 0.175875 0.750000
O O10 0.167731 0.278981 0.663214
O O11 0.458323 0.944881 0.658475
#
# Coordination Sequence:
#
# PCOD8140813 Si02
#       5
#     8   8   8   8   8
#     4  12  22  41  65  97 132 168 215 266 310 386
#     4   9  24  39  66  92 128 169 211 258 321 378
#     4  10  20  44  64  92 130 164 212 272 313 382
#     4   9  21  43  64  94 128 164 212 263 318 377
#     4  10  23  42  67  92 128 171 214 258 331 371
#
# _framework density 21.091822000000001
#
# number of rings (size 3 to 8) (size 9 to 14) (size 15 to 20)
#    1.200    0.800    2.000    1.200    0.000    4.800 
#    3.600    2.000    0.000    0.000    0.000    0.000 
#    0.000    0.000    0.000    0.000    0.000    0.000 
#
# Total GULP energy -247778.403869 kJ/mol
# GULP energy per Si atom -12388.920193 kJ/mol
# Density = 2.104382 g / cm^3
# Si number density = 21.091822 Si / 1000 Ang^3
#
#
#
# Elastic Constant Matrix: (Units=GPa)
#
#
# Indices 1 2 3 4 5 6 
#
# 1 39.3510 19.2365 40.8812 0.0000 -4.5686 0.0000
# 2 19.2365 107.1845 45.1536 0.0000 -16.7393 0.0000
# 3 40.8812 45.1536 128.4837 0.0000 -10.4735 0.0000
# 4 0.0000 0.0000 0.0000 37.3465 0.0000 -16.4821
# 5 -4.5686 -16.7393 -10.4735 0.0000 32.1118 0.0000
# 6 0.0000 0.0000 0.0000 -16.4821 0.0000 33.9008
#
#
#
# Elastic Compliance Matrix: (Units=1/GPa)
#
#
# Indices 1 2 3 4 5 6 
#
# 1 0.038353 -0.001944 -0.011462 0.000000 0.000704 0.000000
# 2 -0.001944 0.011745 -0.003115 0.000000 0.004830 0.000000
# 3 -0.011462 -0.003115 0.012595 0.000000 0.000853 0.000000
# 4 0.000000 0.000000 0.000000 0.034091 0.000000 0.016575
# 5 0.000704 0.004830 0.000853 0.000000 0.034037 0.000000
# 6 0.000000 0.000000 0.000000 0.016575 0.000000 0.037556
#
#
# Mechanical properties :
#
#
# Convention : Reuss Voigt Hill
#
# Bulk Modulus (GPa) = 33.72863 53.95132 43.83997
# Shear Modulus (GPa) = 23.66252 31.98834 27.82543
#
# Velocity S-wave (km/s) = 3.35308 3.89861 3.63609
# Velocity P-wave (km/s) = 5.56928 6.77498 6.20150
#
# Compressibility (1/GPa) = 0.02964841
#
# Stress axis : x y z
#
# Youngs Moduli (GPa) = 26.07375 85.13991 79.39923
#
# Poissons Ratio (x) = 0.16555 0.91010
# Poissons Ratio (y) = 0.05070 0.24735
# Poissons Ratio (z) = 0.29887 0.26524
#
# Static dielectric constant tensor:
#      x y z
#    x 3.840100 0.000000 -0.277300 
#    y 0.000000 3.883470 0.000000 
#    z -0.277300 0.000000 4.098680 
# 
# 
# High freq. dielectric constant tensor:
#      x y z
#    x 1.808480 0.000000 -0.018980 
#    y 0.000000 1.823510 0.000000 
#    z -0.018980 0.000000 1.825570 
# 
# From -- ./inp_files/230012.got.cif
#   From: 2010.06.25/outbox.cif.g09.slc.cpg/sg15_116_cif.got.tgz:230012.got - 2010.06.28 07:06:18.
