data_PCOD8140928
_publ_section_title
;
Structure prediction by ZEFSAII (Michael W. Deem and Ramdas Pophale) SiO2 
 PCOD8140928
Probable space group: C 2/C
;
_chemical_formula_sum "Si O2"
_cell_formula_units_Z 48
_cell_length_a 7.665116
_cell_length_b 32.689758
_cell_length_c 9.475386
_cell_angle_alpha 90.000000
_cell_angle_beta 89.485789
_cell_angle_gamma 90.000000
_cell_volume 2374.159312
_symmetry_space_group_name_H-M "C 2/C"
_symmetry_group_IT_number 15
_symmetry_cell_setting 'monoclinic'
loop_
_space_group_symop_operation_xyz
x,y,z
-x,y,1/2-z
-x,-y,-z
x,-y,1/2+z
1/2+x,1/2+y,z
1/2-x,1/2+y,1/2-z
1/2-x,1/2-y,-z
1/2+x,1/2-y,1/2+z
loop_
_atom_site_type_symbol
_atom_site_label
_atom_site_fract_x
_atom_site_fract_y
_atom_site_fract_z
Si Si1 0.310085 0.759397 0.773737
Si Si2 0.603654 0.321904 0.608025
Si Si3 0.215005 0.102655 0.606809
Si Si4 0.012665 0.458524 0.084382
Si Si5 0.319084 0.397957 0.064927
Si Si6 0.241380 0.190872 0.532257
O O1 0.500000 0.741464 0.750000
O O2 0.219368 0.781492 0.640936
O O3 0.203329 0.720175 0.836097
O O4 0.336505 0.793922 0.892116
O O5 0.500000 0.336548 0.750000
O O6 0.716804 0.359374 0.540027
O O7 0.468977 0.307342 0.488913
O O8 0.342782 0.067947 0.549490
O O9 0.217773 0.112139 0.772662
O O10 0.297116 0.144239 0.547005
O O11 0.024035 0.090435 0.548913
O O12 0.189834 0.435687 0.030774
O O13 0.000000 0.468260 0.250000
O O14 0.000000 0.500000 0.000000
#
# Coordination Sequence:
#
# PCOD8140928 Si02
#       6
#     8   8   8   8   8   8
#     4  10  21  33  53  81 115 149 195 246 291 334
#     4   9  19  37  54  80 117 149 200 242 286 349
#     4   9  19  38  64  82 115 157 198 234 287 359
#     4  10  22  42  61  94 121 148 194 247 299 369
#     4   9  19  37  62  84 115 157 191 235 293 351
#     4   9  20  38  51  79 115 152 195 243 285 342
#
# _framework density 20.217683000000001
#
# number of rings (size 3 to 8) (size 9 to 14) (size 15 to 20)
#    0.000    2.667    0.000    0.000    7.000    1.333 
#    9.000    5.833    0.000    0.000    0.000    0.000 
#    0.000    0.000    0.000    0.000    0.000    0.000 
#
# Total GULP energy -297326.653645 kJ/mol
# GULP energy per Si atom -12388.610569 kJ/mol
# Density = 2.017167 g / cm^3
# Si number density = 20.217683 Si / 1000 Ang^3
#
#
#
# Elastic Constant Matrix: (Units=GPa)
#
#
# Indices 1 2 3 4 5 6 
#
# 1 62.7008 44.8284 22.2665 0.0000 0.1934 0.0000
# 2 44.8284 139.0355 51.7099 0.0000 4.0532 0.0000
# 3 22.2665 51.7099 48.3784 0.0000 3.9469 0.0000
# 4 0.0000 0.0000 0.0000 42.1085 0.0000 1.7382
# 5 0.1934 4.0532 3.9469 0.0000 24.3457 0.0000
# 6 0.0000 0.0000 0.0000 1.7382 0.0000 27.9800
#
#
#
# Elastic Compliance Matrix: (Units=1/GPa)
#
#
# Indices 1 2 3 4 5 6 
#
# 1 0.021245 -0.005331 -0.004195 0.000000 0.001399 0.000000
# 2 -0.005331 0.013276 -0.011715 0.000000 -0.000269 0.000000
# 3 -0.004195 -0.011715 0.035429 0.000000 -0.003760 0.000000
# 4 0.000000 0.000000 0.000000 0.023809 0.000000 -0.001479
# 5 0.001399 -0.000269 -0.003760 0.000000 0.041718 0.000000
# 6 0.000000 0.000000 0.000000 -0.001479 0.000000 0.035832
#
#
# Mechanical properties :
#
#
# Convention : Reuss Voigt Hill
#
# Bulk Modulus (GPa) = 36.40292 54.19159 45.29725
# Shear Modulus (GPa) = 22.42691 27.64081 25.03386
#
# Velocity S-wave (km/s) = 3.33419 3.70152 3.52265
# Velocity P-wave (km/s) = 5.73297 6.71793 6.24490
#
# Compressibility (1/GPa) = 0.02747033
#
# Stress axis : x y z
#
# Youngs Moduli (GPa) = 47.06926 75.32428 28.22534
#
# Poissons Ratio (x) = 0.40153 0.11839
# Poissons Ratio (y) = 0.25091 0.33065
# Poissons Ratio (z) = 0.19743 0.88240
#
# Static dielectric constant tensor:
#      x y z
#    x 3.798770 0.000000 0.081040 
#    y 0.000000 3.577320 0.000000 
#    z 0.081040 0.000000 3.667880 
# 
# 
# High freq. dielectric constant tensor:
#      x y z
#    x 1.781650 0.000000 -0.003000 
#    y 0.000000 1.778200 0.000000 
#    z -0.003000 0.000000 1.783350 
# 
# From -- ./inp_files/26114.got.cif
#   From: 2010.06.25/outbox.cif.g09.slc.cpg/sg15_14_cif.got.tgz:26114.got - 2010.06.28 07:06:18.
