data_PCOD8140824
_publ_section_title
;
Structure prediction by ZEFSAII (Michael W. Deem and Ramdas Pophale) SiO2 
 PCOD8140824
Probable space group: C 2/C
;
_chemical_formula_sum "Si O2"
_cell_formula_units_Z 56
_cell_length_a 22.058146
_cell_length_b 8.720259
_cell_length_c 14.308014
_cell_angle_alpha 90.000000
_cell_angle_beta 109.481015
_cell_angle_gamma 90.000000
_cell_volume 2594.628781
_symmetry_space_group_name_H-M "C 2/C"
_symmetry_group_IT_number 15
_symmetry_cell_setting 'monoclinic'
loop_
_space_group_symop_operation_xyz
x,y,z
-x,y,1/2-z
-x,-y,-z
x,-y,1/2+z
1/2+x,1/2+y,z
1/2-x,1/2+y,1/2-z
1/2-x,1/2-y,-z
1/2+x,1/2-y,1/2+z
loop_
_atom_site_type_symbol
_atom_site_label
_atom_site_fract_x
_atom_site_fract_y
_atom_site_fract_z
Si Si1 0.790231 0.085185 0.411477
Si Si2 0.397710 0.219983 0.645066
Si Si3 0.664885 0.253108 0.076958
Si Si4 0.000000 0.525238 0.250000
Si Si5 0.565058 0.274840 0.190239
Si Si6 0.500000 0.538190 0.250000
Si Si7 0.328011 0.289309 0.117005
Si Si8 0.792815 0.105856 0.198197
O O1 0.717486 0.142069 0.389954
O O2 0.834272 0.175698 0.509507
O O3 0.812234 0.112475 0.316940
O O4 0.797498 0.905225 0.437580
O O5 0.372432 0.180015 0.529086
O O6 0.436120 0.074193 0.701820
O O7 0.445285 0.364854 0.670140
O O8 0.335902 0.260401 0.675865
O O9 0.610793 0.285266 0.125683
O O10 0.717219 0.137800 0.145941
O O11 0.015114 0.632015 0.166176
O O12 0.529132 0.437258 0.180601
O O13 0.602973 0.246833 0.307499
O O14 0.302748 0.437541 0.161205
#
# Coordination Sequence:
#
# PCOD8140824 Si02
#       8
#     8   8   8   4   8   4   8   8
#     4  11  22  38  63 102 133 171 207 262 337 390
#     4  11  24  43  65  96 130 173 221 270 332 388
#     4  12  24  40  69  98 131 171 213 278 336 391
#     4  10  28  44  66  88 130 184 220 286 312 392
#     4  11  22  44  65  93 129 174 223 273 324 383
#     4  10  20  44  66  86 128 174 226 262 314 394
#     4  11  23  38  63  97 137 171 212 262 326 397
#     4  12  22  41  65 101 136 170 211 271 334 396
#
# _framework density 21.583048999999999
#
# number of rings (size 3 to 8) (size 9 to 14) (size 15 to 20)
#    0.000    0.857    5.714    0.429    2.000    3.429 
#    0.000    5.714    0.000    0.000    0.000    0.000 
#    0.000    0.000    0.000    0.000    0.000    0.000 
#
# Total GULP energy -347155.351538 kJ/mol
# GULP energy per Si atom -12398.405412 kJ/mol
# Density = 2.153392 g / cm^3
# Si number density = 21.583049 Si / 1000 Ang^3
#
#
#
# Elastic Constant Matrix: (Units=GPa)
#
#
# Indices 1 2 3 4 5 6 
#
# 1 72.8377 16.3056 10.0682 0.0000 -14.0320 0.0000
# 2 16.3056 87.8759 -2.2124 0.0000 -8.8913 0.0000
# 3 10.0682 -2.2124 113.6740 0.0000 -12.9924 0.0000
# 4 0.0000 0.0000 0.0000 16.7301 0.0000 3.6752
# 5 -14.0320 -8.8913 -12.9924 0.0000 21.1803 0.0000
# 6 0.0000 0.0000 0.0000 3.6752 0.0000 27.7336
#
#
#
# Elastic Compliance Matrix: (Units=1/GPa)
#
#
# Indices 1 2 3 4 5 6 
#
# 1 0.016078 -0.002024 -0.000369 0.000000 0.009576 0.000000
# 2 -0.002024 0.012218 0.000914 0.000000 0.004349 0.000000
# 3 -0.000369 0.000914 0.009532 0.000000 0.005986 0.000000
# 4 0.000000 0.000000 0.000000 0.061565 0.000000 -0.008158
# 5 0.009576 0.004349 0.005986 0.000000 0.059056 0.000000
# 6 0.000000 0.000000 0.000000 -0.008158 0.000000 0.037139
#
#
# Mechanical properties :
#
#
# Convention : Reuss Voigt Hill
#
# Bulk Modulus (GPa) = 28.67721 35.85671 32.26696
# Shear Modulus (GPa) = 23.79055 29.81054 26.80054
#
# Velocity S-wave (km/s) = 3.32366 3.72048 3.52766
# Velocity P-wave (km/s) = 5.29573 5.92498 5.61917
#
# Compressibility (1/GPa) = 0.03487090
#
# Stress axis : x y z
#
# Youngs Moduli (GPa) = 62.19700 81.84486 104.91238
#
# Poissons Ratio (x) = 0.16563 0.03871
# Poissons Ratio (y) = 0.12587 -0.09590
# Poissons Ratio (z) = 0.02295 -0.07482
#
# Static dielectric constant tensor:
#      x y z
#    x 3.935370 0.000000 0.182390 
#    y 0.000000 3.988840 0.000000 
#    z 0.182390 0.000000 4.064770 
# 
# 
# High freq. dielectric constant tensor:
#      x y z
#    x 1.851120 0.000000 0.007060 
#    y 0.000000 1.854700 0.000000 
#    z 0.007060 0.000000 1.841260 
# 
# From -- ./inp_files/172023.got.cif
#   From: 2010.06.25/outbox.cif.g09.slc.cpg/sg15_87_cif.got.tgz:172023.got - 2010.06.28 07:06:18.
