data_PCOD8140281
_publ_section_title
;
Structure prediction by ZEFSAII (Michael W. Deem and Ramdas Pophale) SiO2 
 PCOD8140281
Probable space group: C 2/C
;
_chemical_formula_sum "Si O2"
_cell_formula_units_Z 60
_cell_length_a 8.139530
_cell_length_b 20.738633
_cell_length_c 24.736920
_cell_angle_alpha 90.000000
_cell_angle_beta 46.526934
_cell_angle_gamma 90.000000
_cell_volume 3030.267247
_symmetry_space_group_name_H-M "C 2/C"
_symmetry_group_IT_number 15
_symmetry_cell_setting 'monoclinic'
loop_
_space_group_symop_operation_xyz
x,y,z
-x,y,1/2-z
-x,-y,-z
x,-y,1/2+z
1/2+x,1/2+y,z
1/2-x,1/2+y,1/2-z
1/2-x,1/2-y,-z
1/2+x,1/2-y,1/2+z
loop_
_atom_site_type_symbol
_atom_site_label
_atom_site_fract_x
_atom_site_fract_y
_atom_site_fract_z
Si Si1 0.067334 0.891775 0.123757
Si Si2 0.000000 0.572799 0.250000
Si Si3 0.815874 0.969415 0.503478
Si Si4 0.705552 0.482071 0.240471
Si Si5 0.318813 0.858800 0.893228
Si Si6 0.989734 0.419813 0.416513
Si Si7 0.019805 0.243549 0.585273
Si Si8 0.171795 0.198726 0.974703
O O1 0.325331 0.893499 0.084486
O O2 0.008993 0.817871 0.126823
O O3 0.896864 0.919832 0.206367
O O4 0.046441 0.934330 0.074759
O O5 0.810448 0.531614 0.260346
O O6 0.868007 0.618990 0.321272
O O7 0.660267 0.919023 0.571125
O O8 0.659323 0.027507 0.517028
O O9 0.000000 0.000000 0.500000
O O10 0.500000 0.512616 0.250000
O O11 0.909150 0.455816 0.158326
O O12 0.506719 0.806674 0.870929
O O13 0.070865 0.828010 0.952164
O O14 0.841766 0.360370 0.429955
O O15 0.250000 0.250000 0.500000
O O16 0.826706 0.235231 0.583596
O O17 0.250000 0.250000 0.000000
#
# Coordination Sequence:
#
# PCOD8140281 Si02
#       8
#     8   4   8   8   8   8   8   8
#     4  11  22  40  65  89 129 167 209 265 318 392
#     4  12  24  46  70  90 138 178 210 272 336 386
#     4  12  20  37  62  96 122 159 215 261 320 386
#     4  10  25  42  64  98 132 169 213 268 330 401
#     4  11  23  41  66  91 128 173 214 265 329 384
#     4  11  22  39  62  97 125 164 211 266 327 381
#     4  10  20  41  62  88 125 163 211 264 313 381
#     4  11  23  41  67  95 126 167 219 270 323 393
#
# _framework density 19.800232999999999
#
# number of rings (size 3 to 8) (size 9 to 14) (size 15 to 20)
#    0.000    1.067    5.333    2.800    1.867    0.000 
#    8.400    0.000    0.000    0.000    0.000    0.000 
#    0.000    0.000    0.000    0.000    0.000    0.000 
#
# Total GULP energy -371973.990209 kJ/mol
# GULP energy per Si atom -12399.133007 kJ/mol
# Density = 1.975517 g / cm^3
# Si number density = 19.800233 Si / 1000 Ang^3
#
#
#
# Elastic Constant Matrix: (Units=GPa)
#
#
# Indices 1 2 3 4 5 6 
#
# 1 128.7287 72.7961 18.2843 -0.0003 10.0488 0.0001
# 2 72.7961 132.9454 26.4472 -0.0001 7.1262 0.0003
# 3 18.2843 26.4472 53.6749 0.0005 6.3446 0.0009
# 4 -0.0003 -0.0001 0.0005 32.5609 0.0000 12.0634
# 5 10.0488 7.1262 6.3446 0.0000 29.0226 -0.0004
# 6 0.0001 0.0003 0.0009 12.0634 -0.0004 39.8114
#
#
#
# Elastic Compliance Matrix: (Units=1/GPa)
#
#
# Indices 1 2 3 4 5 6 
#
# 1 0.011443 -0.006009 -0.000660 0.000000 -0.002342 0.000000
# 2 -0.006009 0.011534 -0.003642 0.000000 0.000044 0.000000
# 3 -0.000660 -0.003642 0.021061 0.000000 -0.003481 0.000000
# 4 0.000000 0.000000 0.000000 0.034595 0.000000 -0.010483
# 5 -0.002342 0.000044 -0.003481 0.000000 0.036017 0.000000
# 6 0.000000 0.000000 0.000000 -0.010483 0.000000 0.028295
#
#
# Mechanical properties :
#
#
# Convention : Reuss Voigt Hill
#
# Bulk Modulus (GPa) = 42.70423 61.15603 51.93013
# Shear Modulus (GPa) = 29.17610 33.46706 31.32158
#
# Velocity S-wave (km/s) = 3.84281 4.11571 3.98160
# Velocity P-wave (km/s) = 6.42682 7.31703 6.88633
#
# Compressibility (1/GPa) = 0.02341689
#
# Stress axis : x y z
#
# Youngs Moduli (GPa) = 87.39049 86.69935 47.48008
#
# Poissons Ratio (x) = 0.52096 0.03136
# Poissons Ratio (y) = 0.52511 0.17290
# Poissons Ratio (z) = 0.05772 0.31572
#
# Static dielectric constant tensor:
#      x y z
#    x 4.158600 0.000010 0.171230 
#    y 0.000010 3.876870 0.000080 
#    z 0.171230 0.000080 3.064290 
# 
# 
# High freq. dielectric constant tensor:
#      x y z
#    x 1.782400 0.000000 0.010680 
#    y 0.000000 1.782360 0.000000 
#    z 0.010680 0.000000 1.755780 
# 
# From -- ./inp_files/289574.got.cif
#   From: 2010.06.25/outbox.cif.g09.slc.cpg/sg15_145_cif.got.tgz:289574.got - 2010.06.28 07:06:18.
