data_PCOD8140320
_publ_section_title
;
Structure prediction by ZEFSAII (Michael W. Deem and Ramdas Pophale) SiO2 
 PCOD8140320
Probable space group: C 2/C
;
_chemical_formula_sum "Si O2"
_cell_formula_units_Z 36
_cell_length_a 13.891615
_cell_length_b 7.093084
_cell_length_c 19.010371
_cell_angle_alpha 90.000000
_cell_angle_beta 46.096784
_cell_angle_gamma 90.000000
_cell_volume 1349.645674
_symmetry_space_group_name_H-M "C 2/C"
_symmetry_group_IT_number 15
_symmetry_cell_setting 'monoclinic'
loop_
_space_group_symop_operation_xyz
x,y,z
-x,y,1/2-z
-x,-y,-z
x,-y,1/2+z
1/2+x,1/2+y,z
1/2-x,1/2+y,1/2-z
1/2-x,1/2-y,-z
1/2+x,1/2-y,1/2+z
loop_
_atom_site_type_symbol
_atom_site_label
_atom_site_fract_x
_atom_site_fract_y
_atom_site_fract_z
Si Si1 0.477163 0.155476 0.069370
Si Si2 0.901269 0.487244 0.857246
Si Si3 0.779062 0.958048 0.279007
Si Si4 0.853997 0.080808 0.097987
Si Si5 0.000000 0.846065 0.750000
O O1 0.586514 0.125205 0.075775
O O2 0.329267 0.126977 0.176198
O O3 0.504715 0.357720 0.013781
O O4 0.500000 0.000000 0.000000
O O5 0.748348 0.493806 0.909090
O O6 0.000000 0.386420 0.750000
O O7 0.951818 0.706668 0.838399
O O8 0.859337 0.938637 0.163451
O O9 0.881047 0.018797 0.287507
O O10 0.703318 0.773185 0.341162
#
# Coordination Sequence:
#
# PCOD8140320 Si02
#       5
#     8   8   8   8   4
#     4  10  21  39  64  92 122 162 205 254 306 368
#     4  10  20  41  64  87 127 162 203 250 310 356
#     4  11  22  40  62  93 124 163 206 253 310 362
#     4  11  22  40  66  88 125 163 205 254 311 363
#     4  10  22  36  62  86 124 166 202 252 306 358
#
# _framework density 26.673666000000001
#
# number of rings (size 3 to 8) (size 9 to 14) (size 15 to 20)
#    0.667    0.889    2.222    4.667    1.556    0.000 
#    0.000   14.444    0.000    0.000    0.000    0.000 
#    0.000    0.000    0.000    0.000    0.000    0.000 
#
# Total GULP energy -223145.519121 kJ/mol
# GULP energy per Si atom -12396.973284 kJ/mol
# Density = 2.661296 g / cm^3
# Si number density = 26.673666 Si / 1000 Ang^3
#
#
#
# Elastic Constant Matrix: (Units=GPa)
#
#
# Indices 1 2 3 4 5 6 
#
# 1 111.9308 -8.9283 15.9609 0.0000 12.9953 0.0002
# 2 -8.9283 91.6771 34.6817 0.0001 13.7978 0.0005
# 3 15.9609 34.6817 150.6218 0.0000 -2.6282 0.0000
# 4 0.0000 0.0001 0.0000 39.5304 0.0000 8.2705
# 5 12.9953 13.7978 -2.6282 0.0000 54.8734 0.0000
# 6 0.0002 0.0005 0.0000 8.2705 0.0000 20.5357
#
#
#
# Elastic Compliance Matrix: (Units=1/GPa)
#
#
# Indices 1 2 3 4 5 6 
#
# 1 0.009635 0.001940 -0.001517 0.000000 -0.002842 0.000000
# 2 0.001940 0.012905 -0.003244 0.000000 -0.003860 0.000000
# 3 -0.001517 -0.003244 0.007574 0.000000 0.001538 0.000000
# 4 0.000000 0.000000 0.000000 0.027625 0.000000 -0.011126
# 5 -0.002842 -0.003860 0.001538 0.000000 0.019941 0.000000
# 6 0.000000 0.000000 0.000000 -0.011126 0.000000 0.053176
#
#
# Mechanical properties :
#
#
# Convention : Reuss Voigt Hill
#
# Bulk Modulus (GPa) = 40.86481 48.62867 44.74674
# Shear Modulus (GPa) = 34.56463 43.82226 39.19344
#
# Velocity S-wave (km/s) = 3.60367 4.05767 3.83739
# Velocity P-wave (km/s) = 5.71567 6.34220 6.03707
#
# Compressibility (1/GPa) = 0.02447093
#
# Stress axis : x y z
#
# Youngs Moduli (GPa) = 103.78590 77.48878 132.03378
#
# Poissons Ratio (x) = -0.15034 0.20034
# Poissons Ratio (y) = -0.20136 0.42837
# Poissons Ratio (z) = 0.15748 0.25141
#
# Static dielectric constant tensor:
#      x y z
#    x 4.412990 0.000000 -0.123340 
#    y 0.000000 5.340820 0.000000 
#    z -0.123340 0.000000 5.383440 
# 
# 
# High freq. dielectric constant tensor:
#      x y z
#    x 2.052940 0.000000 -0.011720 
#    y 0.000000 2.117530 0.000000 
#    z -0.011720 0.000000 2.096640 
# 
# From -- ./inp_files/176810.got.cif
#   From: 2010.06.25/outbox.cif.g09.slc.cpg/sg15_89_cif.got.tgz:176810.got - 2010.06.28 07:06:18.
