data_PCOD8140325
_publ_section_title
;
Structure prediction by ZEFSAII (Michael W. Deem and Ramdas Pophale) SiO2 
 PCOD8140325
Probable space group: C 2/C
;
_chemical_formula_sum "Si O2"
_cell_formula_units_Z 44
_cell_length_a 8.497556
_cell_length_b 27.692088
_cell_length_c 8.037299
_cell_angle_alpha 90.000000
_cell_angle_beta 76.603598
_cell_angle_gamma 90.000000
_cell_volume 1839.836170
_symmetry_space_group_name_H-M "C 2/C"
_symmetry_group_IT_number 15
_symmetry_cell_setting 'monoclinic'
loop_
_space_group_symop_operation_xyz
x,y,z
-x,y,1/2-z
-x,-y,-z
x,-y,1/2+z
1/2+x,1/2+y,z
1/2-x,1/2+y,1/2-z
1/2-x,1/2-y,-z
1/2+x,1/2-y,1/2+z
loop_
_atom_site_type_symbol
_atom_site_label
_atom_site_fract_x
_atom_site_fract_y
_atom_site_fract_z
Si Si1 0.789999 0.431460 0.978392
Si Si2 0.531218 0.602804 0.045697
Si Si3 0.330624 0.520300 0.693686
Si Si4 0.943614 0.208422 0.521682
Si Si5 0.000000 0.361415 0.750000
Si Si6 0.251254 0.220820 0.254667
O O1 0.635379 0.396857 0.015270
O O2 0.751570 0.471215 0.845813
O O3 0.946556 0.398363 0.909377
O O4 0.804728 0.456037 0.154672
O O5 0.500000 0.605814 0.250000
O O6 0.607341 0.652240 0.957993
O O7 0.636873 0.555665 0.971778
O O8 0.500000 0.510100 0.750000
O O9 0.860312 0.228527 0.377132
O O10 0.879788 0.234761 0.706063
O O11 0.137172 0.220182 0.447921
O O12 0.851170 0.329458 0.721471
#
# Coordination Sequence:
#
# PCOD8140325 Si02
#       6
#     8   8   8   8   4   8
#     4  11  22  39  59  91 129 167 208 264 328 379
#     4  11  18  37  66  90 121 167 215 260 318 384
#     4  10  22  37  62  94 124 163 218 268 313 393
#     4  10  20  41  64  88 124 173 216 261 327 384
#     4  12  24  40  62  92 134 170 212 272 332 376
#     4  10  22  39  62  93 126 169 216 269 318 390
#
# _framework density 23.915171999999998
#
# number of rings (size 3 to 8) (size 9 to 14) (size 15 to 20)
#    0.000    1.455    3.636    3.818    0.000    2.909 
#    4.909    0.000    0.000    0.000    0.000    0.000 
#    0.000    0.000    0.000    0.000    0.000    0.000 
#
# Total GULP energy -272584.765747 kJ/mol
# GULP energy per Si atom -12390.216625 kJ/mol
# Density = 2.386074 g / cm^3
# Si number density = 23.915172 Si / 1000 Ang^3
#
#
#
# Elastic Constant Matrix: (Units=GPa)
#
#
# Indices 1 2 3 4 5 6 
#
# 1 65.0219 31.7648 27.4780 0.0000 -23.9096 0.0000
# 2 31.7648 151.9341 46.3674 0.0000 -20.7307 0.0000
# 3 27.4780 46.3674 105.7230 0.0000 -21.3785 0.0000
# 4 0.0000 0.0000 0.0000 23.9464 0.0000 -14.5697
# 5 -23.9096 -20.7307 -21.3785 0.0000 31.3045 0.0000
# 6 0.0000 0.0000 0.0000 -14.5697 0.0000 40.0153
#
#
#
# Elastic Compliance Matrix: (Units=1/GPa)
#
#
# Indices 1 2 3 4 5 6 
#
# 1 0.022592 -0.002136 -0.002009 0.000000 0.014469 0.000000
# 2 -0.002136 0.008087 -0.002597 0.000000 0.001950 0.000000
# 3 -0.002009 -0.002597 0.012138 0.000000 0.005035 0.000000
# 4 0.000000 0.000000 0.000000 0.053644 0.000000 0.019532
# 5 0.014469 0.001950 0.005035 0.000000 0.047725 0.000000
# 6 0.000000 0.000000 0.000000 0.019532 0.000000 0.032102
#
#
# Mechanical properties :
#
#
# Convention : Reuss Voigt Hill
#
# Bulk Modulus (GPa) = 34.09186 59.32215 46.70700
# Shear Modulus (GPa) = 25.05620 33.52450 29.29035
#
# Velocity S-wave (km/s) = 3.24035 3.74814 3.50345
# Velocity P-wave (km/s) = 5.31847 6.60231 5.99485
#
# Compressibility (1/GPa) = 0.02933251
#
# Stress axis : x y z
#
# Youngs Moduli (GPa) = 44.26255 123.65330 82.38529
#
# Poissons Ratio (x) = 0.26412 0.16554
# Poissons Ratio (y) = 0.09454 0.21398
# Poissons Ratio (z) = 0.08894 0.32116
#
# Static dielectric constant tensor:
#      x y z
#    x 4.408560 0.000000 -0.488370 
#    y 0.000000 4.517170 0.000000 
#    z -0.488370 0.000000 4.629390 
# 
# 
# High freq. dielectric constant tensor:
#      x y z
#    x 1.923980 0.000000 -0.009150 
#    y 0.000000 1.960200 0.000000 
#    z -0.009150 0.000000 1.945330 
# 
# From -- ./inp_files/25459.got.cif
#   From: 2010.06.25/outbox.cif.g09.slc.cpg/sg15_13_cif.got.tgz:25459.got - 2010.06.28 07:06:18.
