data_PCOD8140854
_publ_section_title
;
Structure prediction by ZEFSAII (Michael W. Deem and Ramdas Pophale) SiO2 
 PCOD8140854
Probable space group: C 2/C
;
_chemical_formula_sum "Si O2"
_cell_formula_units_Z 48
_cell_length_a 10.529731
_cell_length_b 23.281893
_cell_length_c 8.633840
_cell_angle_alpha 90.000000
_cell_angle_beta 109.714508
_cell_angle_gamma 90.000000
_cell_volume 1992.539357
_symmetry_space_group_name_H-M "C 2/C"
_symmetry_group_IT_number 15
_symmetry_cell_setting 'monoclinic'
loop_
_space_group_symop_operation_xyz
x,y,z
-x,y,1/2-z
-x,-y,-z
x,-y,1/2+z
1/2+x,1/2+y,z
1/2-x,1/2+y,1/2-z
1/2-x,1/2-y,-z
1/2+x,1/2-y,1/2+z
loop_
_atom_site_type_symbol
_atom_site_label
_atom_site_fract_x
_atom_site_fract_y
_atom_site_fract_z
Si Si1 0.748362 0.069558 0.014207
Si Si2 0.000000 0.621018 0.750000
Si Si3 0.000000 0.299349 0.750000
Si Si4 0.866774 0.281561 0.394860
Si Si5 0.638180 0.641662 0.895791
Si Si6 0.216075 0.835448 0.742936
Si Si7 0.151747 0.971972 0.256227
O O1 0.600322 0.078609 0.882493
O O2 0.847386 0.041538 0.927031
O O3 0.799907 0.131532 0.100426
O O4 0.750390 0.025226 0.159796
O O5 0.076279 0.662335 0.663442
O O6 0.128855 0.338412 0.754765
O O7 0.963058 0.262624 0.579430
O O8 0.722216 0.299888 0.404729
O O9 0.840492 0.229904 0.262426
O O10 0.500000 0.649023 0.750000
O O11 0.712404 0.584758 0.863236
O O12 0.621607 0.634118 0.074317
O O13 0.000000 0.984509 0.250000
#
# Coordination Sequence:
#
# PCOD8140854 Si02
#       7
#     8   4   4   8   8   8   8
#     4  12  26  50  74 109 141 195 239 306 371 421
#     4  12  26  50  67 106 156 185 250 300 348 450
#     4  10  20  44  71 104 154 187 248 288 354 426
#     4  11  24  44  71 105 152 196 236 302 351 443
#     4  10  22  43  73 108 141 189 241 299 359 429
#     4  11  25  41  75 108 149 199 237 294 368 430
#     4  11  25  50  77 103 144 179 249 308 360 438
#
# _framework density 24.089863000000001
#
# number of rings (size 3 to 8) (size 9 to 14) (size 15 to 20)
#    0.000    1.000    3.333    3.500    4.667    2.667 
#    7.500    1.667    0.000    0.000    0.000    0.000 
#    0.000    0.000    0.000    0.000    0.000    0.000 
#
# Total GULP energy -297482.689450 kJ/mol
# GULP energy per Si atom -12395.112060 kJ/mol
# Density = 2.403503 g / cm^3
# Si number density = 24.089863 Si / 1000 Ang^3
#
#
#
# Elastic Constant Matrix: (Units=GPa)
#
#
# Indices 1 2 3 4 5 6 
#
# 1 85.2284 35.2373 63.1666 0.0000 11.0107 0.0000
# 2 35.2373 137.1256 69.0090 0.0000 14.7476 0.0000
# 3 63.1666 69.0090 159.9466 0.0000 18.7345 0.0000
# 4 0.0000 0.0000 0.0000 56.3017 0.0000 1.6586
# 5 11.0107 14.7476 18.7345 0.0000 37.8386 0.0000
# 6 0.0000 0.0000 0.0000 1.6586 0.0000 21.5522
#
#
#
# Elastic Compliance Matrix: (Units=1/GPa)
#
#
# Indices 1 2 3 4 5 6 
#
# 1 0.016831 -0.001159 -0.005972 0.000000 -0.001489 0.000000
# 2 -0.001159 0.009504 -0.003448 0.000000 -0.001660 0.000000
# 3 -0.005972 -0.003448 0.010337 0.000000 -0.002036 0.000000
# 4 0.000000 0.000000 0.000000 0.017802 0.000000 -0.001370
# 5 -0.001489 -0.001660 -0.002036 0.000000 0.028516 0.000000
# 6 0.000000 0.000000 0.000000 -0.001370 0.000000 0.046505
#
#
# Mechanical properties :
#
#
# Convention : Reuss Voigt Hill
#
# Bulk Modulus (GPa) = 64.46515 79.68070 72.07292
# Shear Modulus (GPa) = 32.08694 37.46435 34.77564
#
# Velocity S-wave (km/s) = 3.65357 3.94787 3.80357
# Velocity P-wave (km/s) = 6.67956 7.34365 7.01946
#
# Compressibility (1/GPa) = 0.01551226
#
# Stress axis : x y z
#
# Youngs Moduli (GPa) = 59.41306 105.21404 96.73927
#
# Poissons Ratio (x) = 0.12198 0.57777
# Poissons Ratio (y) = 0.06888 0.33360
# Poissons Ratio (z) = 0.35484 0.36282
#
# Static dielectric constant tensor:
#      x y z
#    x 4.134630 0.000000 0.110940 
#    y 0.000000 4.444560 0.000000 
#    z 0.110940 0.000000 4.595360 
# 
# 
# High freq. dielectric constant tensor:
#      x y z
#    x 1.934080 0.000000 0.010790 
#    y 0.000000 1.957090 0.000000 
#    z 0.010790 0.000000 1.971690 
# 
# From -- ./inp_files/32668.got.cif
#   From: 2010.06.25/outbox.cif.g09.slc.cpg/sg15_17_cif.got.tgz:32668.got - 2010.06.28 07:06:18.
