data_PCOD8140999
_publ_section_title
;
Structure prediction by ZEFSAII (Michael W. Deem and Ramdas Pophale) SiO2 
 PCOD8140999
Probable space group: C 2/C
;
_chemical_formula_sum "Si O2"
_cell_formula_units_Z 48
_cell_length_a 7.550108
_cell_length_b 32.953611
_cell_length_c 8.710336
_cell_angle_alpha 90.000000
_cell_angle_beta 88.857716
_cell_angle_gamma 90.000000
_cell_volume 2166.729858
_symmetry_space_group_name_H-M "C 2/C"
_symmetry_group_IT_number 15
_symmetry_cell_setting 'monoclinic'
loop_
_space_group_symop_operation_xyz
x,y,z
-x,y,1/2-z
-x,-y,-z
x,-y,1/2+z
1/2+x,1/2+y,z
1/2-x,1/2+y,1/2-z
1/2-x,1/2-y,-z
1/2+x,1/2-y,1/2+z
loop_
_atom_site_type_symbol
_atom_site_label
_atom_site_fract_x
_atom_site_fract_y
_atom_site_fract_z
Si Si1 0.305440 0.763169 0.764327
Si Si2 0.604708 0.324656 0.591784
Si Si3 0.239601 0.098132 0.603679
Si Si4 0.028227 0.456135 0.929788
Si Si5 0.335320 0.406528 0.043491
Si Si6 0.240925 0.188950 0.555595
O O1 0.500000 0.746017 0.750000
O O2 0.224091 0.784185 0.614116
O O3 0.195841 0.723337 0.822558
O O4 0.315359 0.799136 0.888845
O O5 0.500000 0.335998 0.750000
O O6 0.719370 0.363003 0.530058
O O7 0.473430 0.312755 0.455682
O O8 0.388132 0.072936 0.514652
O O9 0.227478 0.087049 0.781670
O O10 0.307319 0.144519 0.598330
O O11 0.049304 0.089998 0.525302
O O12 0.000000 0.457212 0.750000
O O13 0.000000 0.500000 0.000000
O O14 0.230795 0.441272 0.952506
#
# Coordination Sequence:
#
# PCOD8140999 Si02
#       6
#     8   8   8   8   8   8
#     4  10  21  34  57  85 126 168 233 276 334 384
#     4   9  20  37  60  89 129 170 234 275 334 398
#     4  10  23  45  71  99 139 180 235 273 346 409
#     4  12  28  47  75 106 142 172 219 281 340 420
#     4  10  23  42  72 100 136 185 222 286 336 407
#     4   9  21  39  54  86 129 173 218 285 327 394
#
# _framework density 22.153198
#
# number of rings (size 3 to 8) (size 9 to 14) (size 15 to 20)
#    0.000    2.000    0.000    1.500   14.000    1.333 
#    0.000    3.333    0.000    0.000    0.000    0.000 
#    0.000    0.000    0.000    0.000    0.000    0.000 
#
# Total GULP energy -297435.828689 kJ/mol
# GULP energy per Si atom -12393.159529 kJ/mol
# Density = 2.210278 g / cm^3
# Si number density = 22.153198 Si / 1000 Ang^3
#
#
#
# Elastic Constant Matrix: (Units=GPa)
#
#
# Indices 1 2 3 4 5 6 
#
# 1 69.1590 46.4560 28.8893 0.0000 -0.3121 0.0000
# 2 46.4560 142.2295 50.9472 0.0000 12.9393 0.0000
# 3 28.8893 50.9472 82.5050 0.0000 10.2971 0.0000
# 4 0.0000 0.0000 0.0000 41.7261 0.0000 -2.8762
# 5 -0.3121 12.9393 10.2971 0.0000 29.4230 0.0000
# 6 0.0000 0.0000 0.0000 -2.8762 0.0000 32.8762
#
#
#
# Elastic Compliance Matrix: (Units=1/GPa)
#
#
# Indices 1 2 3 4 5 6 
#
# 1 0.019797 -0.005353 -0.004127 0.000000 0.004008 0.000000
# 2 -0.005353 0.010602 -0.004270 0.000000 -0.003225 0.000000
# 3 -0.004127 -0.004270 0.016703 0.000000 -0.004011 0.000000
# 4 0.000000 0.000000 0.000000 0.024111 0.000000 0.002109
# 5 0.004008 -0.003225 -0.004011 0.000000 0.036852 0.000000
# 6 0.000000 0.000000 0.000000 0.002109 0.000000 0.030602
#
#
# Mechanical properties :
#
#
# Convention : Reuss Voigt Hill
#
# Bulk Modulus (GPa) = 51.01335 60.71985 55.86660
# Shear Modulus (GPa) = 28.95191 31.97846 30.46518
#
# Velocity S-wave (km/s) = 3.61902 3.80348 3.71240
# Velocity P-wave (km/s) = 6.36715 6.83792 6.60673
#
# Compressibility (1/GPa) = 0.01960271
#
# Stress axis : x y z
#
# Youngs Moduli (GPa) = 50.51298 94.32044 59.86933
#
# Poissons Ratio (x) = 0.50486 0.24708
# Poissons Ratio (y) = 0.27037 0.25565
# Poissons Ratio (z) = 0.20846 0.40277
#
# Static dielectric constant tensor:
#      x y z
#    x 4.157460 0.000000 0.139320 
#    y 0.000000 4.049880 0.000000 
#    z 0.139320 0.000000 4.009300 
# 
# 
# High freq. dielectric constant tensor:
#      x y z
#    x 1.858960 0.000000 0.002600 
#    y 0.000000 1.868860 0.000000 
#    z 0.002600 0.000000 1.877340 
# 
# From -- ./inp_files/26115.got.cif
#   From: 2010.06.25/outbox.cif.g09.slc.cpg/sg15_14_cif.got.tgz:26115.got - 2010.06.28 07:06:18.
