data_PCOD8140572
_publ_section_title
;
Structure prediction by ZEFSAII (Michael W. Deem and Ramdas Pophale) SiO2 
 PCOD8140572
Probable space group: C 2/C
;
_chemical_formula_sum "Si O2"
_cell_formula_units_Z 44
_cell_length_a 12.828020
_cell_length_b 19.614604
_cell_length_c 8.193910
_cell_angle_alpha 90.000000
_cell_angle_beta 69.313329
_cell_angle_gamma 90.000000
_cell_volume 1928.796165
_symmetry_space_group_name_H-M "C 2/C"
_symmetry_group_IT_number 15
_symmetry_cell_setting 'monoclinic'
loop_
_space_group_symop_operation_xyz
x,y,z
-x,y,1/2-z
-x,-y,-z
x,-y,1/2+z
1/2+x,1/2+y,z
1/2-x,1/2+y,1/2-z
1/2-x,1/2-y,-z
1/2+x,1/2-y,1/2+z
loop_
_atom_site_type_symbol
_atom_site_label
_atom_site_fract_x
_atom_site_fract_y
_atom_site_fract_z
Si Si1 0.750230 0.198055 0.763999
Si Si2 0.214317 0.163284 0.401766
Si Si3 0.243499 0.972473 0.696684
Si Si4 0.630795 0.083094 0.680751
Si Si5 0.521906 0.626002 0.917189
Si Si6 0.500000 0.463549 0.750000
O O1 0.749036 0.280452 0.746077
O O2 0.655602 0.162496 0.705358
O O3 0.870141 0.172284 0.641598
O O4 0.720587 0.178251 0.967104
O O5 0.236858 0.085243 0.340096
O O6 0.082709 0.175719 0.501089
O O7 0.310622 0.936493 0.517680
O O8 0.118989 0.000689 0.721136
O O9 0.312498 0.038191 0.709750
O O10 0.500000 0.068936 0.750000
O O11 0.500000 0.588111 0.750000
O O12 0.529615 0.576231 0.067208
#
# Coordination Sequence:
#
# PCOD8140572 Si02
#       6
#     8   8   8   8   8   4
#     4  10  20  42  65  94 130 174 222 269 341 397
#     4   9  21  39  68  96 128 168 221 280 334 407
#     4  11  24  44  64  97 130 174 224 277 337 400
#     4  12  26  44  64  95 136 183 222 273 332 409
#     4   9  18  37  63  95 133 164 214 279 339 399
#     4  10  20  42  66 100 126 168 222 280 342 394
#
# _framework density 22.812156000000002
#
# number of rings (size 3 to 8) (size 9 to 14) (size 15 to 20)
#    0.000    1.818    1.818    1.636    0.000    2.909 
#   11.455    4.545    0.000    0.000    0.000    0.000 
#    0.000    0.000    0.000    0.000    0.000    0.000 
#
# Total GULP energy -272631.607222 kJ/mol
# GULP energy per Si atom -12392.345783 kJ/mol
# Density = 2.276023 g / cm^3
# Si number density = 22.812156 Si / 1000 Ang^3
#
#
#
# Elastic Constant Matrix: (Units=GPa)
#
#
# Indices 1 2 3 4 5 6 
#
# 1 134.6229 13.7499 27.7263 0.0000 -22.9850 0.0000
# 2 13.7499 59.1712 0.7095 0.0000 -5.7515 0.0000
# 3 27.7263 0.7095 91.9215 0.0000 -4.3741 0.0000
# 4 0.0000 0.0000 0.0000 -1.2008 0.0000 5.6490
# 5 -22.9850 -5.7515 -4.3741 0.0000 35.1868 0.0000
# 6 0.0000 0.0000 0.0000 5.6490 0.0000 31.3285
#
#
#
# Elastic Compliance Matrix: (Units=1/GPa)
#
#
# Indices 1 2 3 4 5 6 
#
# 1 0.008999 -0.001545 -0.002449 0.000000 0.005321 0.000000
# 2 -0.001545 0.017438 0.000421 0.000000 0.001894 0.000000
# 3 -0.002449 0.000421 0.011610 0.000000 -0.000088 0.000000
# 4 0.000000 0.000000 0.000000 -0.450568 0.000000 0.081245
# 5 0.005321 0.001894 -0.000088 0.000000 0.032194 0.000000
# 6 0.000000 0.000000 0.000000 0.081245 0.000000 0.017270
#
#
# Mechanical properties :
#
#
# Convention : Reuss Voigt Hill
#
# Bulk Modulus (GPa) = 32.35987 41.12081 36.74034
# Shear Modulus (GPa) = -14.46715 29.29823 7.41554
#
# Velocity S-wave (km/s) = -2.52104 3.58764 1.80492
# Velocity P-wave (km/s) = 2.39624 5.93519 4.52595
#
# Compressibility (1/GPa) = 0.03090247
#
# Stress axis : x y z
#
# Youngs Moduli (GPa) = 111.12485 57.34590 86.13140
#
# Poissons Ratio (x) = 0.08857 0.21095
# Poissons Ratio (y) = 0.17163 -0.03629
# Poissons Ratio (z) = 0.27217 -0.02416
#
# Static dielectric constant tensor:
#      x y z
#    x 4.282500 0.000000 0.032510 
#    y 0.000000 4.113080 0.000000 
#    z 0.032510 0.000000 4.397510 
# 
# 
# High freq. dielectric constant tensor:
#      x y z
#    x 1.900590 0.000000 0.001840 
#    y 0.000000 1.897390 0.000000 
#    z 0.001840 0.000000 1.911940 
# 
# From -- ./inp_files/30750.got.cif
#   From: 2010.06.25/outbox.cif.g09.slc.cpg/sg15_16_cif.got.tgz:30750.got - 2010.06.28 07:06:18.
