data_PCOD8140644
_publ_section_title
;
Structure prediction by ZEFSAII (Michael W. Deem and Ramdas Pophale) SiO2 
 PCOD8140644
Probable space group: C 2/C
;
_chemical_formula_sum "Si O2"
_cell_formula_units_Z 52
_cell_length_a 27.122802
_cell_length_b 6.115626
_cell_length_c 17.471679
_cell_angle_alpha 90.000000
_cell_angle_beta 57.699186
_cell_angle_gamma 90.000000
_cell_volume 2449.612969
_symmetry_space_group_name_H-M "C 2/C"
_symmetry_group_IT_number 15
_symmetry_cell_setting 'monoclinic'
loop_
_space_group_symop_operation_xyz
x,y,z
-x,y,1/2-z
-x,-y,-z
x,-y,1/2+z
1/2+x,1/2+y,z
1/2-x,1/2+y,1/2-z
1/2-x,1/2-y,-z
1/2+x,1/2-y,1/2+z
loop_
_atom_site_type_symbol
_atom_site_label
_atom_site_fract_x
_atom_site_fract_y
_atom_site_fract_z
Si Si1 0.000000 0.320297 0.250000
Si Si2 0.660501 0.083477 0.332311
Si Si3 0.657550 0.807353 0.471078
Si Si4 0.904580 0.995678 0.368283
Si Si5 0.090103 0.623351 0.249019
Si Si6 0.236530 0.927237 0.357895
Si Si7 0.683509 0.138573 0.577233
O O1 0.043678 0.171134 0.162942
O O2 0.032851 0.473985 0.284191
O O3 0.606570 0.161118 0.324113
O O4 0.709390 0.953698 0.244044
O O5 0.687748 0.285688 0.355959
O O6 0.631018 0.920500 0.417875
O O7 0.603815 0.677015 0.555470
O O8 0.711160 0.661298 0.399448
O O9 0.687835 0.993477 0.497655
O O10 0.843550 0.123096 0.414744
O O11 0.919136 0.863669 0.278911
O O12 0.144331 0.502898 0.166695
O O13 0.255805 0.822354 0.425451
#
# Coordination Sequence:
#
# PCOD8140644 Si02
#       7
#     4   8   8   8   8   8   8
#     4  10  20  42  68  90 112 152 208 264 324 364
#     4  11  23  36  57  90 128 168 205 242 300 362
#     4  11  22  38  56  88 128 164 206 252 292 355
#     4  10  21  39  66  88 116 157 206 258 310 362
#     4   9  21  38  62  91 119 152 205 262 307 365
#     4  11  22  36  58  84 128 173 205 242 295 354
#     4   9  21  37  58  88 120 163 210 247 294 360
#
# _framework density 21.227844000000001
#
# number of rings (size 3 to 8) (size 9 to 14) (size 15 to 20)
#    0.000    1.846    1.538    1.846    2.154    4.923 
#    0.000    0.769    0.000   17.538    0.000    0.000 
#    0.000    0.000    0.000    0.000    0.000    0.000 
#
# Total GULP energy -322349.309712 kJ/mol
# GULP energy per Si atom -12398.050374 kJ/mol
# Density = 2.117953 g / cm^3
# Si number density = 21.227844 Si / 1000 Ang^3
#
#
#
# Elastic Constant Matrix: (Units=GPa)
#
#
# Indices 1 2 3 4 5 6 
#
# 1 143.6732 66.2513 58.5317 -0.0130 19.9805 -0.0224
# 2 66.2513 131.3522 51.3677 -0.0143 12.8959 -0.0408
# 3 58.5317 51.3677 89.0385 -0.0034 24.4017 -0.0024
# 4 -0.0130 -0.0143 -0.0034 44.2923 -0.0008 -9.6845
# 5 19.9805 12.8959 24.4017 -0.0008 37.0261 -0.0026
# 6 -0.0224 -0.0408 -0.0024 -9.6845 -0.0026 28.3714
#
#
#
# Elastic Compliance Matrix: (Units=1/GPa)
#
#
# Indices 1 2 3 4 5 6 
#
# 1 0.010615 -0.003407 -0.004598 0.000002 -0.001511 0.000004
# 2 -0.003407 0.010929 -0.004303 0.000005 0.000868 0.000015
# 3 -0.004598 -0.004303 0.019094 -0.000004 -0.008604 -0.000010
# 4 0.000002 0.000005 -0.000004 0.024398 0.000000 0.008328
# 5 -0.001511 0.000868 -0.008604 0.000000 0.033191 0.000002
# 6 0.000004 0.000015 -0.000010 0.008328 0.000002 0.038090
#
#
# Mechanical properties :
#
#
# Convention : Reuss Voigt Hill
#
# Bulk Modulus (GPa) = 62.41787 79.59613 71.00700
# Shear Modulus (GPa) = 30.07056 34.46552 32.26804
#
# Velocity S-wave (km/s) = 3.76781 4.03376 3.90305
# Velocity P-wave (km/s) = 6.95673 7.69886 7.33719
#
# Compressibility (1/GPa) = 0.01602105
#
# Stress axis : x y z
#
# Youngs Moduli (GPa) = 94.20782 91.49623 52.37153
#
# Poissons Ratio (x) = 0.31176 0.24081
# Poissons Ratio (y) = 0.32100 0.22537
# Poissons Ratio (z) = 0.43317 0.39374
#
# Static dielectric constant tensor:
#      x y z
#    x 3.896740 -0.000040 0.237640 
#    y -0.000040 3.941940 0.000000 
#    z 0.237640 0.000000 3.928140 
# 
# 
# High freq. dielectric constant tensor:
#      x y z
#    x 1.812580 0.000000 0.008850 
#    y 0.000000 1.848770 0.000000 
#    z 0.008850 0.000000 1.830820 
# 
# From -- ./inp_files/220886.got.cif
#   From: 2010.06.25/outbox.cif.g09.slc.cpg/sg15_111_cif.got.tgz:220886.got - 2010.06.28 07:06:18.
