data_PCOD8140574
_publ_section_title
;
Structure prediction by ZEFSAII (Michael W. Deem and Ramdas Pophale) SiO2 
 PCOD8140574
Probable space group: C 2/C
;
_chemical_formula_sum "Si O2"
_cell_formula_units_Z 52
_cell_length_a 12.441907
_cell_length_b 13.916995
_cell_length_c 15.537569
_cell_angle_alpha 90.000000
_cell_angle_beta 62.350701
_cell_angle_gamma 90.000000
_cell_volume 2383.161269
_symmetry_space_group_name_H-M "C 2/C"
_symmetry_group_IT_number 15
_symmetry_cell_setting 'monoclinic'
loop_
_space_group_symop_operation_xyz
x,y,z
-x,y,1/2-z
-x,-y,-z
x,-y,1/2+z
1/2+x,1/2+y,z
1/2-x,1/2+y,1/2-z
1/2-x,1/2-y,-z
1/2+x,1/2-y,1/2+z
loop_
_atom_site_type_symbol
_atom_site_label
_atom_site_fract_x
_atom_site_fract_y
_atom_site_fract_z
Si Si1 0.081700 0.089290 0.887647
Si Si2 0.863525 0.515290 0.943013
Si Si3 0.500000 0.703684 0.250000
Si Si4 0.408187 0.438041 0.926965
Si Si5 0.202576 0.549895 0.215710
Si Si6 0.764615 0.263209 0.244116
Si Si7 0.899294 0.584227 0.602232
O O1 0.144501 0.184835 0.827221
O O2 0.168743 0.997583 0.848442
O O3 0.045380 0.105236 0.999958
O O4 0.959386 0.047040 0.887459
O O5 0.873289 0.468132 0.844207
O O6 0.962333 0.601709 0.915880
O O7 0.736369 0.560256 0.017118
O O8 0.899394 0.435592 0.000509
O O9 0.543691 0.636519 0.158310
O O10 0.379566 0.764384 0.267775
O O11 0.221398 0.661807 0.225894
O O12 0.144332 0.505774 0.323070
O O13 0.812614 0.324493 0.145724
#
# Coordination Sequence:
#
# PCOD8140574 Si02
#       7
#     8   8   4   8   8   8   8
#     4   9  21  42  63  92 130 170 212 266 324 390
#     4  10  22  41  68  90 129 180 214 266 328 387
#     4  12  24  38  66 100 128 170 218 280 330 392
#     4  10  21  41  66  91 126 172 214 268 326 390
#     4  10  20  42  65  94 134 169 217 267 324 387
#     4  11  24  39  66  97 130 168 218 275 326 393
#     4  10  23  43  64  94 131 172 219 268 327 390
#
# _framework density 21.819756999999999
#
# number of rings (size 3 to 8) (size 9 to 14) (size 15 to 20)
#    0.000    1.846    1.538    1.385    8.615    1.231 
#    5.538    3.077    0.000    0.000    0.000    0.000 
#    0.000    0.000    0.000    0.000    0.000    0.000 
#
# Total GULP energy -322135.971894 kJ/mol
# GULP energy per Si atom -12389.845073 kJ/mol
# Density = 2.177009 g / cm^3
# Si number density = 21.819757 Si / 1000 Ang^3
#
#
#
# Elastic Constant Matrix: (Units=GPa)
#
#
# Indices 1 2 3 4 5 6 
#
# 1 39.4055 1.4603 9.7644 0.0000 -1.2407 0.0000
# 2 1.4603 102.2275 30.7187 0.0000 -1.6394 0.0000
# 3 9.7644 30.7187 99.9908 0.0000 -2.7557 0.0000
# 4 0.0000 0.0000 0.0000 51.7116 0.0000 -17.1824
# 5 -1.2407 -1.6394 -2.7557 0.0000 34.0000 0.0000
# 6 0.0000 0.0000 0.0000 -17.1824 0.0000 30.0394
#
#
#
# Elastic Compliance Matrix: (Units=1/GPa)
#
#
# Indices 1 2 3 4 5 6 
#
# 1 0.026043 0.000439 -0.002657 0.000000 0.000756 0.000000
# 2 0.000439 0.010787 -0.003349 0.000000 0.000265 0.000000
# 3 -0.002657 -0.003349 0.011307 0.000000 0.000658 0.000000
# 4 0.000000 0.000000 0.000000 0.023876 0.000000 0.013657
# 5 0.000756 0.000265 0.000658 0.000000 0.029505 0.000000
# 6 0.000000 0.000000 0.000000 0.013657 0.000000 0.041101
#
#
# Mechanical properties :
#
#
# Convention : Reuss Voigt Hill
#
# Bulk Modulus (GPa) = 27.02598 36.16785 31.59691
# Shear Modulus (GPa) = 30.10428 36.46222 33.28325
#
# Velocity S-wave (km/s) = 3.71843 4.09230 3.90984
# Velocity P-wave (km/s) = 5.55415 6.24027 5.90718
#
# Compressibility (1/GPa) = 0.03700144
#
# Stress axis : x y z
#
# Youngs Moduli (GPa) = 38.39782 92.70828 88.43703
#
# Poissons Ratio (x) = -0.04066 0.23498
# Poissons Ratio (y) = -0.01684 0.29620
# Poissons Ratio (z) = 0.10203 0.31051
#
# Static dielectric constant tensor:
#      x y z
#    x 4.314130 0.000000 -0.094790 
#    y 0.000000 3.675980 0.000000 
#    z -0.094790 0.000000 4.261380 
# 
# 
# High freq. dielectric constant tensor:
#      x y z
#    x 1.859870 0.000000 -0.011830 
#    y 0.000000 1.830650 0.000000 
#    z -0.011830 0.000000 1.880920 
# 
# From -- ./inp_files/197704.got.cif
#   From: 2010.06.25/outbox.cif.g09.slc.cpg/sg15_99_cif.got.tgz:197704.got - 2010.06.28 07:06:18.
