data_PCOD8140240
_publ_section_title
;
Structure prediction by ZEFSAII (Michael W. Deem and Ramdas Pophale) SiO2 
 PCOD8140240
Probable space group: C 2/C
;
_chemical_formula_sum "Si O2"
_cell_formula_units_Z 44
_cell_length_a 26.865994
_cell_length_b 10.027957
_cell_length_c 14.239702
_cell_angle_alpha 90.000000
_cell_angle_beta 145.626646
_cell_angle_gamma 90.000000
_cell_volume 2165.929116
_symmetry_space_group_name_H-M "C 2/C"
_symmetry_group_IT_number 15
_symmetry_cell_setting 'monoclinic'
loop_
_space_group_symop_operation_xyz
x,y,z
-x,y,1/2-z
-x,-y,-z
x,-y,1/2+z
1/2+x,1/2+y,z
1/2-x,1/2+y,1/2-z
1/2-x,1/2-y,-z
1/2+x,1/2-y,1/2+z
loop_
_atom_site_type_symbol
_atom_site_label
_atom_site_fract_x
_atom_site_fract_y
_atom_site_fract_z
Si Si1 0.896223 0.186714 0.930936
Si Si2 0.000000 0.653023 0.750000
Si Si3 0.588173 0.419493 0.443173
Si Si4 0.741367 0.156198 0.399073
Si Si5 0.524405 0.217047 0.491613
Si Si6 0.901213 0.471453 0.253014
O O1 0.809281 0.270985 0.766316
O O2 0.949332 0.262290 0.093962
O O3 0.957830 0.175991 0.934593
O O4 0.875212 0.038000 0.933504
O O5 0.921313 0.567385 0.676158
O O6 0.500000 0.462141 0.250000
O O7 0.662073 0.386029 0.482649
O O8 0.572386 0.286669 0.479506
O O9 0.750000 0.250000 0.500000
O O10 0.694720 0.025789 0.369941
O O11 0.593071 0.162593 0.675247
O O12 0.472461 0.085718 0.381331
#
# Coordination Sequence:
#
# PCOD8140240 Si02
#       6
#     8   4   8   8   8   8
#     4  10  22  44  62  97 129 166 219 269 318 392
#     4  10  20  40  72  90 130 166 212 270 330 378
#     4  12  24  40  69  93 134 174 214 264 336 377
#     4  11  26  42  61  96 133 169 223 266 314 389
#     4   9  20  38  64  92 125 169 209 261 322 381
#     4   9  20  39  63  94 125 163 219 257 315 387
#
# _framework density 20.314606999999999
#
# number of rings (size 3 to 8) (size 9 to 14) (size 15 to 20)
#    0.000    1.818    0.909    3.818    6.364    1.455 
#    0.000    0.909    0.000    0.000    0.000    0.000 
#    0.000    0.000    0.000    0.000    0.000    0.000 
#
# Total GULP energy -272660.220370 kJ/mol
# GULP energy per Si atom -12393.646380 kJ/mol
# Density = 2.026837 g / cm^3
# Si number density = 20.314607 Si / 1000 Ang^3
#
#
#
# Elastic Constant Matrix: (Units=GPa)
#
#
# Indices 1 2 3 4 5 6 
#
# 1 134.9960 45.9864 32.1974 0.0000 19.5492 0.0000
# 2 45.9864 82.7652 17.1622 0.0000 5.8430 0.0000
# 3 32.1974 17.1622 87.5716 0.0000 6.8383 0.0000
# 4 0.0000 0.0000 0.0000 20.1223 0.0000 -5.5433
# 5 19.5492 5.8430 6.8383 0.0000 38.0757 0.0000
# 6 0.0000 0.0000 0.0000 -5.5433 0.0000 33.0749
#
#
#
# Elastic Compliance Matrix: (Units=1/GPa)
#
#
# Indices 1 2 3 4 5 6 
#
# 1 0.010260 -0.004896 -0.002495 0.000000 -0.004068 0.000000
# 2 -0.004896 0.015017 -0.001176 0.000000 0.000420 0.000000
# 3 -0.002495 -0.001176 0.012630 0.000000 -0.000807 0.000000
# 4 0.000000 0.000000 0.000000 0.052102 0.000000 0.008732
# 5 -0.004068 0.000420 -0.000807 0.000000 0.028433 0.000000
# 6 0.000000 0.000000 0.000000 0.008732 0.000000 0.031698
#
#
# Mechanical properties :
#
#
# Convention : Reuss Voigt Hill
#
# Bulk Modulus (GPa) = 48.13914 55.11388 51.62651
# Shear Modulus (GPa) = 28.70329 32.25371 30.47850
#
# Velocity S-wave (km/s) = 3.76299 3.98893 3.87760
# Velocity P-wave (km/s) = 6.52904 6.95733 6.74659
#
# Compressibility (1/GPa) = 0.02077312
#
# Stress axis : x y z
#
# Youngs Moduli (GPa) = 97.46943 66.59206 79.17674
#
# Poissons Ratio (x) = 0.32603 0.19754
# Poissons Ratio (y) = 0.47720 0.09309
# Poissons Ratio (z) = 0.24318 0.07829
#
# Static dielectric constant tensor:
#      x y z
#    x 3.771240 0.000000 -0.082940 
#    y 0.000000 3.782210 0.000000 
#    z -0.082940 0.000000 4.195680 
# 
# 
# High freq. dielectric constant tensor:
#      x y z
#    x 1.807240 0.000000 -0.007860 
#    y 0.000000 1.794680 0.000000 
#    z -0.007860 0.000000 1.776440 
# 
# From -- ./inp_files/177675.got.cif
#   From: 2010.06.25/outbox.cif.g09.slc.cpg/sg15_89_cif.got.tgz:177675.got - 2010.06.28 07:06:18.
