data_PCOD8140530
_publ_section_title
;
Structure prediction by ZEFSAII (Michael W. Deem and Ramdas Pophale) SiO2 
 PCOD8140530
Probable space group: C 2/C
;
_chemical_formula_sum "Si O2"
_cell_formula_units_Z 48
_cell_length_a 27.073754
_cell_length_b 5.110487
_cell_length_c 16.561505
_cell_angle_alpha 90.000000
_cell_angle_beta 108.785673
_cell_angle_gamma 90.000000
_cell_volume 2169.384937
_symmetry_space_group_name_H-M "C 2/C"
_symmetry_group_IT_number 15
_symmetry_cell_setting 'monoclinic'
loop_
_space_group_symop_operation_xyz
x,y,z
-x,y,1/2-z
-x,-y,-z
x,-y,1/2+z
1/2+x,1/2+y,z
1/2-x,1/2+y,1/2-z
1/2-x,1/2-y,-z
1/2+x,1/2-y,1/2+z
loop_
_atom_site_type_symbol
_atom_site_label
_atom_site_fract_x
_atom_site_fract_y
_atom_site_fract_z
Si Si1 0.716854 0.516268 0.223445
Si Si2 0.374982 0.694359 0.209981
Si Si3 0.384870 0.185670 0.112327
Si Si4 0.054181 0.733005 0.607594
Si Si5 0.860932 0.012329 0.456011
Si Si6 0.443043 0.865205 0.032373
O O1 0.740929 0.245058 0.267403
O O2 0.676113 0.617779 0.267309
O O3 0.690348 0.455843 0.123001
O O4 0.395142 0.439279 0.173141
O O5 0.422042 0.798154 0.290955
O O6 0.359250 0.944802 0.147561
O O7 0.439661 0.098535 0.097983
O O8 0.347460 0.268729 0.016390
O O9 0.090151 0.930346 0.577263
O O10 0.053315 0.457321 0.559016
O O11 0.993021 0.818150 0.580044
O O12 0.885789 0.766168 0.516051
#
# Coordination Sequence:
#
# PCOD8140530 Si02
#       6
#     8   8   8   8   8   8
#     4  11  26  45  73  97 119 165 226 276 330 391
#     4  11  24  44  65  96 137 166 214 273 327 379
#     4  11  23  42  64  95 139 173 202 261 334 385
#     4   9  22  37  68  97 130 179 226 263 306 381
#     4  10  22  42  70  90 139 167 221 267 326 381
#     4  10  20  42  64 100 129 182 220 259 315 393
#
# _framework density 22.126086000000001
#
# number of rings (size 3 to 8) (size 9 to 14) (size 15 to 20)
#    0.000    1.667    1.667    1.500   11.667    0.667 
#    3.000    5.000    0.000    0.000    0.000    0.000 
#    0.000    0.000    0.000    0.000    0.000    0.000 
#
# Total GULP energy -297332.502806 kJ/mol
# GULP energy per Si atom -12388.854284 kJ/mol
# Density = 2.207573 g / cm^3
# Si number density = 22.126086 Si / 1000 Ang^3
#
#
#
# Elastic Constant Matrix: (Units=GPa)
#
#
# Indices 1 2 3 4 5 6 
#
# 1 60.8424 25.9798 61.9970 0.0000 9.8923 0.0000
# 2 25.9798 102.3103 41.3760 0.0000 3.2364 0.0000
# 3 61.9970 41.3760 120.4758 0.0000 6.3039 0.0000
# 4 0.0000 0.0000 0.0000 36.3614 0.0000 -2.6492
# 5 9.8923 3.2364 6.3039 0.0000 41.2023 0.0000
# 6 0.0000 0.0000 0.0000 -2.6492 0.0000 35.7077
#
#
#
# Elastic Compliance Matrix: (Units=1/GPa)
#
#
# Indices 1 2 3 4 5 6 
#
# 1 0.036198 -0.001855 -0.017685 0.000000 -0.005839 0.000000
# 2 -0.001855 0.011449 -0.002978 0.000000 0.000002 0.000000
# 3 -0.017685 -0.002978 0.018336 0.000000 0.001674 0.000000
# 4 0.000000 0.000000 0.000000 0.027651 0.000000 0.002051
# 5 -0.005839 0.000002 0.001674 0.000000 0.025416 0.000000
# 6 0.000000 0.000000 0.000000 0.002051 0.000000 0.028157
#
#
# Mechanical properties :
#
#
# Convention : Reuss Voigt Hill
#
# Bulk Modulus (GPa) = 47.73653 60.25936 53.99795
# Shear Modulus (GPa) = 25.09715 32.93931 29.01823
#
# Velocity S-wave (km/s) = 3.37156 3.86257 3.62538
# Velocity P-wave (km/s) = 6.06450 6.86922 6.47937
#
# Compressibility (1/GPa) = 0.02094832
#
# Stress axis : x y z
#
# Youngs Moduli (GPa) = 27.62595 87.34081 54.53730
#
# Poissons Ratio (x) = 0.16202 0.96448
# Poissons Ratio (y) = 0.05125 0.16239
# Poissons Ratio (z) = 0.48856 0.26007
#
# Static dielectric constant tensor:
#      x y z
#    x 3.834060 0.000000 -0.152950 
#    y 0.000000 4.020280 0.000000 
#    z -0.152950 0.000000 4.192920 
# 
# 
# High freq. dielectric constant tensor:
#      x y z
#    x 1.847830 0.000000 -0.018710 
#    y 0.000000 1.876240 0.000000 
#    z -0.018710 0.000000 1.874780 
# 
# From -- ./inp_files/220999.got.cif
#   From: 2010.06.25/outbox.cif.g09.slc.cpg/sg15_111_cif.got.tgz:220999.got - 2010.06.28 07:06:18.
