data_PCOD8140097
_publ_section_title
;
Structure prediction by ZEFSAII (Michael W. Deem and Ramdas Pophale) SiO2 
 PCOD8140097
Probable space group: C 2/C
;
_chemical_formula_sum "Si O2"
_cell_formula_units_Z 64
_cell_length_a 15.680672
_cell_length_b 26.318635
_cell_length_c 11.784360
_cell_angle_alpha 90.000000
_cell_angle_beta 36.597778
_cell_angle_gamma 90.000000
_cell_volume 2899.488862
_symmetry_space_group_name_H-M "C 2/C"
_symmetry_group_IT_number 15
_symmetry_cell_setting 'monoclinic'
loop_
_space_group_symop_operation_xyz
x,y,z
-x,y,1/2-z
-x,-y,-z
x,-y,1/2+z
1/2+x,1/2+y,z
1/2-x,1/2+y,1/2-z
1/2-x,1/2-y,-z
1/2+x,1/2-y,1/2+z
loop_
_atom_site_type_symbol
_atom_site_label
_atom_site_fract_x
_atom_site_fract_y
_atom_site_fract_z
Si Si1 0.050479 0.033990 0.044725
Si Si2 0.159563 0.298393 0.632979
Si Si3 0.790389 0.129264 0.658824
Si Si4 0.768131 0.992053 0.964146
Si Si5 0.716064 0.803901 0.836568
Si Si6 0.844099 0.610497 0.937882
Si Si7 0.978666 0.782542 0.900578
Si Si8 0.155718 0.398463 0.527352
O O1 0.199522 0.008862 0.935040
O O2 0.915046 0.035291 0.271474
O O3 0.082031 0.089205 0.959361
O O4 0.000000 0.000000 0.000000
O O5 0.250000 0.250000 0.500000
O O6 0.163464 0.303348 0.763542
O O7 0.230517 0.351071 0.511673
O O8 0.000000 0.294014 0.750000
O O9 0.742453 0.124759 0.581184
O O10 0.864899 0.183978 0.594838
O O11 0.661949 0.117830 0.887081
O O12 0.649050 0.951128 0.051790
O O13 0.740287 0.048626 0.949778
O O14 0.872910 0.779229 0.687984
O O15 0.720216 0.860977 0.883222
O O16 0.594789 0.772457 0.033424
O O17 0.000000 0.631582 0.750000
O O18 0.000000 0.804122 0.750000
O O19 0.000000 0.406782 0.750000
#
# Coordination Sequence:
#
# PCOD8140097 Si02
#       8
#     8   8   8   8   8   8   8   8
#     4  10  20  40  66  94 135 178 228 290 366 413
#     4  11  26  49  71 100 143 189 240 294 350 429
#     4  11  24  44  67 102 144 187 231 309 359 428
#     4  10  22  42  64 102 136 176 236 295 349 443
#     4  12  26  45  73 107 145 191 239 298 365 437
#     4  11  25  41  68 101 142 185 239 293 369 425
#     4  12  25  44  71 109 145 182 237 298 367 437
#     4  11  25  45  69  97 140 189 237 286 359 420
#
# _framework density 22.072856999999999
#
# number of rings (size 3 to 8) (size 9 to 14) (size 15 to 20)
#    0.000    1.000    2.500    3.375    7.000    2.000 
#    2.250    1.875    0.000    0.000    0.000    0.000 
#    0.000    0.000    0.000    0.000    0.000    0.000 
#
# Total GULP energy -396446.636373 kJ/mol
# GULP energy per Si atom -12388.957387 kJ/mol
# Density = 2.202262 g / cm^3
# Si number density = 22.072857 Si / 1000 Ang^3
#
#
#
# Elastic Constant Matrix: (Units=GPa)
#
#
# Indices 1 2 3 4 5 6 
#
# 1 127.1016 45.9448 41.4469 0.0000 8.2475 -0.0002
# 2 45.9448 146.3043 42.0852 0.0000 0.5973 0.0000
# 3 41.4469 42.0852 104.8625 -0.0002 7.2786 -0.0003
# 4 0.0000 0.0000 -0.0002 30.8147 0.0001 -2.5845
# 5 8.2475 0.5973 7.2786 0.0001 36.0551 0.0002
# 6 -0.0002 0.0000 -0.0003 -2.5845 0.0002 19.1686
#
#
#
# Elastic Compliance Matrix: (Units=1/GPa)
#
#
# Indices 1 2 3 4 5 6 
#
# 1 0.009699 -0.002226 -0.002829 0.000000 -0.001611 0.000000
# 2 -0.002226 0.008247 -0.002491 0.000000 0.000875 0.000000
# 3 -0.002829 -0.002491 0.011771 0.000000 -0.001688 0.000000
# 4 0.000000 0.000000 0.000000 0.032823 0.000000 0.004426
# 5 -0.001611 0.000875 -0.001688 0.000000 0.028430 0.000000
# 6 0.000000 0.000000 0.000000 0.004426 0.000000 0.052765
#
#
# Mechanical properties :
#
#
# Convention : Reuss Voigt Hill
#
# Bulk Modulus (GPa) = 68.36639 70.80246 69.58443
# Shear Modulus (GPa) = 30.54338 33.79380 32.16859
#
# Velocity S-wave (km/s) = 3.72392 3.91706 3.82171
# Velocity P-wave (km/s) = 7.03778 7.25287 7.14614
#
# Compressibility (1/GPa) = 0.01462707
#
# Stress axis : x y z
#
# Youngs Moduli (GPa) = 103.10186 121.25708 84.95368
#
# Poissons Ratio (x) = 0.26988 0.24030
# Poissons Ratio (y) = 0.22947 0.21161
# Poissons Ratio (z) = 0.29163 0.30204
#
# Static dielectric constant tensor:
#      x y z
#    x 7.252940 0.000010 1.621270 
#    y 0.000010 4.990510 0.000010 
#    z 1.621270 0.000010 4.560850 
# 
# 
# High freq. dielectric constant tensor:
#      x y z
#    x 1.865730 0.000000 0.004500 
#    y 0.000000 1.880810 0.000000 
#    z 0.004500 0.000000 1.865860 
# 
# From -- ./inp_files/101320.got.cif
#   From: 2010.06.25/outbox.cif.g09.slc.cpg/sg15_51_cif.got.tgz:101320.got - 2010.06.28 07:06:18.
