data_PCOD8140502
_publ_section_title
;
Structure prediction by ZEFSAII (Michael W. Deem and Ramdas Pophale) SiO2 
 PCOD8140502
Probable space group: C 2/C
;
_chemical_formula_sum "Si O2"
_cell_formula_units_Z 48
_cell_length_a 23.594697
_cell_length_b 17.748647
_cell_length_c 5.472772
_cell_angle_alpha 90.000000
_cell_angle_beta 85.901070
_cell_angle_gamma 90.000000
_cell_volume 2285.992045
_symmetry_space_group_name_H-M "C 2/C"
_symmetry_group_IT_number 15
_symmetry_cell_setting 'monoclinic'
loop_
_space_group_symop_operation_xyz
x,y,z
-x,y,1/2-z
-x,-y,-z
x,-y,1/2+z
1/2+x,1/2+y,z
1/2-x,1/2+y,1/2-z
1/2-x,1/2-y,-z
1/2+x,1/2-y,1/2+z
loop_
_atom_site_type_symbol
_atom_site_label
_atom_site_fract_x
_atom_site_fract_y
_atom_site_fract_z
Si Si1 0.622790 0.540176 0.595848
Si Si2 0.500000 0.220663 0.750000
Si Si3 0.253773 0.072080 0.559448
Si Si4 0.061358 0.197094 0.614339
Si Si5 0.414952 0.156317 0.134117
Si Si6 0.297134 0.090817 0.045600
Si Si7 0.500000 0.954212 0.750000
O O1 0.600935 0.499349 0.353667
O O2 0.690476 0.540452 0.573961
O O3 0.600164 0.624389 0.599963
O O4 0.451051 0.274541 0.654327
O O5 0.531042 0.165329 0.557902
O O6 0.266743 0.119859 0.307671
O O7 0.296223 0.000187 0.548541
O O8 0.265188 0.119280 0.806347
O O9 0.097108 0.262752 0.738474
O O10 0.000000 0.180088 0.750000
O O11 0.359787 0.125220 0.014205
O O12 0.441192 0.093835 0.305695
O O13 0.500000 0.000000 0.500000
#
# Coordination Sequence:
#
# PCOD8140502 Si02
#       7
#     8   4   8   8   8   8   4
#     4  12  24  45  74 101 134 173 226 290 345 404
#     4  10  21  48  64  89 140 184 224 272 341 412
#     4  10  20  42  61  95 135 170 216 283 335 383
#     4  10  25  45  69  96 136 186 220 280 349 411
#     4  11  24  43  65  95 141 184 225 277 337 407
#     4  10  21  36  66  90 126 177 216 264 332 388
#     4  12  27  38  62  99 128 172 232 270 317 388
#
# _framework density 20.997447000000001
#
# number of rings (size 3 to 8) (size 9 to 14) (size 15 to 20)
#    0.000    1.333    5.833    0.500   11.667    0.667 
#    0.000    1.667    0.000    0.000    0.000    0.000 
#    0.000    0.000    0.000    0.000    0.000    0.000 
#
# Total GULP energy -297371.820279 kJ/mol
# GULP energy per Si atom -12390.492512 kJ/mol
# Density = 2.094966 g / cm^3
# Si number density = 20.997447 Si / 1000 Ang^3
#
#
#
# Elastic Constant Matrix: (Units=GPa)
#
#
# Indices 1 2 3 4 5 6 
#
# 1 54.4734 43.9927 22.8049 0.0000 9.6334 0.0000
# 2 43.9927 109.6132 38.3657 0.0000 -2.3804 0.0000
# 3 22.8049 38.3657 167.5920 0.0000 19.4438 0.0000
# 4 0.0000 0.0000 0.0000 13.5863 0.0000 4.5390
# 5 9.6334 -2.3804 19.4438 0.0000 17.3829 0.0000
# 6 0.0000 0.0000 0.0000 4.5390 0.0000 22.0095
#
#
#
# Elastic Compliance Matrix: (Units=1/GPa)
#
#
# Indices 1 2 3 4 5 6 
#
# 1 0.033159 -0.014224 0.001266 0.000000 -0.021741 0.000000
# 2 -0.014224 0.016332 -0.003421 0.000000 0.013946 0.000000
# 3 0.001266 -0.003421 0.007715 0.000000 -0.009800 0.000000
# 4 0.000000 0.000000 0.000000 0.079050 0.000000 -0.016302
# 5 -0.021741 0.013946 -0.009800 0.000000 0.082448 0.000000
# 6 0.000000 0.000000 0.000000 -0.016302 0.000000 0.048797
#
#
# Mechanical properties :
#
#
# Convention : Reuss Voigt Hill
#
# Bulk Modulus (GPa) = 40.90205 60.22279 50.56242
# Shear Modulus (GPa) = 16.21237 25.69677 20.95457
#
# Velocity S-wave (km/s) = 2.78170 3.50209 3.16247
# Velocity P-wave (km/s) = 5.46251 6.71536 6.12107
#
# Compressibility (1/GPa) = 0.02444866
#
# Stress axis : x y z
#
# Youngs Moduli (GPa) = 30.15757 61.22976 129.62239
#
# Poissons Ratio (x) = 0.87091 -0.16415
# Poissons Ratio (y) = 0.42895 0.44348
# Poissons Ratio (z) = -0.03819 0.20948
#
# Static dielectric constant tensor:
#      x y z
#    x 3.581820 0.000000 0.255560 
#    y 0.000000 3.504920 0.000000 
#    z 0.255560 0.000000 4.668330 
# 
# 
# High freq. dielectric constant tensor:
#      x y z
#    x 1.808980 0.000000 0.015420 
#    y 0.000000 1.793320 0.000000 
#    z 0.015420 0.000000 1.846790 
# 
# From -- ./inp_files/15311.got.cif
#   From: 2010.06.25/outbox.cif.g09.slc.cpg/sg15_8_cif.got.tgz:15311.got - 2010.06.28 07:06:18.
