data_PCOD8140887
_publ_section_title
;
Structure prediction by ZEFSAII (Michael W. Deem and Ramdas Pophale) SiO2 
 PCOD8140887
Probable space group: C 2/C
;
_chemical_formula_sum "Si O2"
_cell_formula_units_Z 36
_cell_length_a 5.151218
_cell_length_b 15.871815
_cell_length_c 20.287095
_cell_angle_alpha 90.000000
_cell_angle_beta 52.295092
_cell_angle_gamma 90.000000
_cell_volume 1312.280954
_symmetry_space_group_name_H-M "C 2/C"
_symmetry_group_IT_number 15
_symmetry_cell_setting 'monoclinic'
loop_
_space_group_symop_operation_xyz
x,y,z
-x,y,1/2-z
-x,-y,-z
x,-y,1/2+z
1/2+x,1/2+y,z
1/2-x,1/2+y,1/2-z
1/2-x,1/2-y,-z
1/2+x,1/2-y,1/2+z
loop_
_atom_site_type_symbol
_atom_site_label
_atom_site_fract_x
_atom_site_fract_y
_atom_site_fract_z
Si Si1 0.094194 0.044687 0.889885
Si Si2 0.709159 0.943213 0.847414
Si Si3 0.000000 0.322347 0.250000
Si Si4 0.571554 0.281775 0.622459
Si Si5 0.917965 0.824715 0.512835
O O1 0.395041 0.983494 0.861295
O O2 0.209133 0.121665 0.824894
O O3 0.817718 0.997627 0.892379
O O4 0.898643 0.081248 0.984293
O O5 0.000000 0.935795 0.750000
O O6 0.649795 0.847683 0.887727
O O7 0.861010 0.259393 0.214397
O O8 0.351794 0.332618 0.602726
O O9 0.703388 0.202636 0.559399
O O10 0.750000 0.750000 0.500000
#
# Coordination Sequence:
#
# PCOD8140887 Si02
#       5
#     8   8   4   8   8
#     4  11  26  43  72  97 146 181 236 283 360 412
#     4  12  24  46  67 107 136 183 233 295 348 417
#     4  10  20  46  66 102 126 194 216 304 338 412
#     4  10  24  43  70  98 139 176 241 282 349 414
#     4  10  25  46  68 102 137 190 233 285 343 428
#
# _framework density 27.433149
#
# number of rings (size 3 to 8) (size 9 to 14) (size 15 to 20)
#    0.000    1.333    3.333    0.000   12.444    1.778 
#    0.000    0.000    0.000    0.000    0.000    0.000 
#    0.000    0.000    0.000    0.000    0.000    0.000 
#
# Total GULP energy -223008.260549 kJ/mol
# GULP energy per Si atom -12389.347808 kJ/mol
# Density = 2.737071 g / cm^3
# Si number density = 27.433149 Si / 1000 Ang^3
#
#
#
# Elastic Constant Matrix: (Units=GPa)
#
#
# Indices 1 2 3 4 5 6 
#
# 1 90.4420 37.6379 43.7550 -0.0001 33.0480 -0.0002
# 2 37.6379 157.2695 74.6220 0.0000 18.0493 0.0000
# 3 43.7550 74.6220 130.0948 0.0000 41.0569 0.0000
# 4 -0.0001 0.0000 0.0000 46.4617 0.0000 -15.6087
# 5 33.0480 18.0493 41.0569 0.0000 43.0929 0.0000
# 6 -0.0002 0.0000 0.0000 -15.6087 0.0000 29.0434
#
#
#
# Elastic Compliance Matrix: (Units=1/GPa)
#
#
# Indices 1 2 3 4 5 6 
#
# 1 0.016347 -0.002313 -0.000745 0.000000 -0.010859 0.000000
# 2 -0.002313 0.009141 -0.005458 0.000000 0.003145 0.000000
# 3 -0.000745 -0.005458 0.014537 0.000000 -0.010993 0.000000
# 4 0.000000 0.000000 0.000000 0.026265 0.000000 0.014116
# 5 -0.010859 0.003145 -0.010993 0.000000 0.040690 0.000000
# 6 0.000000 0.000000 0.000000 0.014116 0.000000 0.042017
#
#
# Mechanical properties :
#
#
# Convention : Reuss Voigt Hill
#
# Bulk Modulus (GPa) = 43.48812 76.64848 60.06830
# Shear Modulus (GPa) = 28.78649 38.50569 33.64609
#
# Velocity S-wave (km/s) = 3.24285 3.75055 3.50591
# Velocity P-wave (km/s) = 5.46885 6.83786 6.19131
#
# Compressibility (1/GPa) = 0.02299479
#
# Stress axis : x y z
#
# Youngs Moduli (GPa) = 61.17215 109.40105 68.78965
#
# Poissons Ratio (x) = 0.25301 0.05122
# Poissons Ratio (y) = 0.14147 0.37544
# Poissons Ratio (z) = 0.04555 0.59708
#
# Static dielectric constant tensor:
#      x y z
#    x 5.242490 0.000000 0.111480 
#    y 0.000000 6.449450 0.000000 
#    z 0.111480 0.000000 6.086020 
# 
# 
# High freq. dielectric constant tensor:
#      x y z
#    x 2.094690 0.000000 0.017570 
#    y 0.000000 2.131170 0.000000 
#    z 0.017570 0.000000 2.127350 
# 
# From -- ./inp_files/184099.got.cif
#   From: 2010.06.25/outbox.cif.g09.slc.cpg/sg15_93_cif.got.tgz:184099.got - 2010.06.28 07:06:18.
