data_PCOD8140285
_publ_section_title
;
Structure prediction by ZEFSAII (Michael W. Deem and Ramdas Pophale) SiO2 
 PCOD8140285
Probable space group: C 2/C
;
_chemical_formula_sum "Si O2"
_cell_formula_units_Z 48
_cell_length_a 21.218473
_cell_length_b 11.365306
_cell_length_c 21.334588
_cell_angle_alpha 90.000000
_cell_angle_beta 152.039296
_cell_angle_gamma 90.000000
_cell_volume 2412.282448
_symmetry_space_group_name_H-M "C 2/C"
_symmetry_group_IT_number 15
_symmetry_cell_setting 'monoclinic'
loop_
_space_group_symop_operation_xyz
x,y,z
-x,y,1/2-z
-x,-y,-z
x,-y,1/2+z
1/2+x,1/2+y,z
1/2-x,1/2+y,1/2-z
1/2-x,1/2-y,-z
1/2+x,1/2-y,1/2+z
loop_
_atom_site_type_symbol
_atom_site_label
_atom_site_fract_x
_atom_site_fract_y
_atom_site_fract_z
Si Si1 0.108652 0.017800 0.928457
Si Si2 0.408263 0.069331 0.505835
Si Si3 0.698287 0.295209 0.595795
Si Si4 0.436722 0.845235 0.894686
Si Si5 0.816127 0.080743 0.638543
Si Si6 0.898632 0.242880 0.103451
O O1 0.199490 0.036560 0.946392
O O2 0.968924 0.085188 0.795464
O O3 0.085518 0.879863 0.919923
O O4 0.182239 0.074523 0.052827
O O5 0.401504 0.143244 0.436540
O O6 0.438748 0.153391 0.591387
O O7 0.523325 0.969498 0.602110
O O8 0.263674 0.008864 0.386942
O O9 0.555708 0.249287 0.495146
O O10 0.803145 0.296664 0.744651
O O11 0.753945 0.210768 0.589708
O O12 0.000000 0.246348 0.250000
O O13 0.750000 0.250000 0.000000
#
# Coordination Sequence:
#
# PCOD8140285 Si02
#       6
#     8   8   8   8   8   8
#     4  11  21  39  64  97 130 161 207 268 325 370
#     4  10  23  44  64  91 130 172 209 261 310 384
#     4  11  22  42  65  96 123 171 214 262 316 379
#     4  10  24  43  67  90 130 167 218 257 314 373
#     4  10  20  41  62  91 134 161 205 270 318 370
#     4  12  24  41  64  95 129 164 208 259 321 377
#
# _framework density 19.898167000000001
#
# number of rings (size 3 to 8) (size 9 to 14) (size 15 to 20)
#    0.000    1.333    5.000    0.500    2.333    2.667 
#    6.000    1.667    0.000    0.000    0.000    0.000 
#    0.000    0.000    0.000    0.000    0.000    0.000 
#
# Total GULP energy -297675.490124 kJ/mol
# GULP energy per Si atom -12403.145422 kJ/mol
# Density = 1.985288 g / cm^3
# Si number density = 19.898167 Si / 1000 Ang^3
#
#
#
# Elastic Constant Matrix: (Units=GPa)
#
#
# Indices 1 2 3 4 5 6 
#
# 1 100.8665 43.3771 42.7901 -0.0001 2.9540 -0.0001
# 2 43.3771 105.4588 44.7795 -0.0006 -12.1899 -0.0005
# 3 42.7901 44.7795 130.0044 -0.0006 1.1997 -0.0005
# 4 -0.0001 -0.0006 -0.0006 28.8216 -0.0003 -9.1659
# 5 2.9540 -12.1899 1.1997 -0.0003 18.0239 -0.0002
# 6 -0.0001 -0.0005 -0.0005 -9.1659 -0.0002 32.3963
#
#
#
# Elastic Compliance Matrix: (Units=1/GPa)
#
#
# Indices 1 2 3 4 5 6 
#
# 1 0.013330 -0.004994 -0.002618 0.000000 -0.005388 0.000000
# 2 -0.004994 0.014184 -0.003340 0.000000 0.010634 0.000000
# 3 -0.002618 -0.003340 0.009727 0.000000 -0.002477 0.000000
# 4 0.000000 0.000000 0.000000 0.038127 0.000001 0.010787
# 5 -0.005388 0.010634 -0.002477 0.000001 0.063722 0.000001
# 6 0.000000 0.000000 0.000000 0.010787 0.000001 0.033920
#
#
# Mechanical properties :
#
#
# Convention : Reuss Voigt Hill
#
# Bulk Modulus (GPa) = 65.19979 66.46925 65.83452
# Shear Modulus (GPa) = 24.99687 29.54056 27.26872
#
# Velocity S-wave (km/s) = 3.54819 3.85721 3.70593
# Velocity P-wave (km/s) = 7.04444 7.30169 7.17422
#
# Compressibility (1/GPa) = 0.01533747
#
# Stress axis : x y z
#
# Youngs Moduli (GPa) = 75.01823 70.50231 102.80812
#
# Poissons Ratio (x) = 0.35211 0.26910
# Poissons Ratio (y) = 0.37466 0.34337
# Poissons Ratio (z) = 0.19636 0.23547
#
# Static dielectric constant tensor:
#      x y z
#    x 3.690400 0.000000 0.124290 
#    y 0.000000 3.744470 0.000000 
#    z 0.124290 0.000000 3.407830 
# 
# 
# High freq. dielectric constant tensor:
#      x y z
#    x 1.777780 0.000000 0.010690 
#    y 0.000000 1.783900 0.000000 
#    z 0.010690 0.000000 1.769490 
# 
# From -- ./inp_files/110678.got.cif
#   From: 2010.06.25/outbox.cif.g09.slc.cpg/sg15_56_cif.got.tgz:110678.got - 2010.06.28 07:06:18.
