data_PCOD8140388
_publ_section_title
;
Structure prediction by ZEFSAII (Michael W. Deem and Ramdas Pophale) SiO2 
 PCOD8140388
Probable space group: C 2/C
;
_chemical_formula_sum "Si O2"
_cell_formula_units_Z 60
_cell_length_a 16.181655
_cell_length_b 9.638786
_cell_length_c 16.633997
_cell_angle_alpha 90.000000
_cell_angle_beta 86.362297
_cell_angle_gamma 90.000000
_cell_volume 2589.202350
_symmetry_space_group_name_H-M "C 2/C"
_symmetry_group_IT_number 15
_symmetry_cell_setting 'monoclinic'
loop_
_space_group_symop_operation_xyz
x,y,z
-x,y,1/2-z
-x,-y,-z
x,-y,1/2+z
1/2+x,1/2+y,z
1/2-x,1/2+y,1/2-z
1/2-x,1/2-y,-z
1/2+x,1/2-y,1/2+z
loop_
_atom_site_type_symbol
_atom_site_label
_atom_site_fract_x
_atom_site_fract_y
_atom_site_fract_z
Si Si1 0.938707 0.529071 0.816565
Si Si2 0.797799 0.368002 0.744043
Si Si3 0.364365 0.159448 0.965361
Si Si4 0.550906 0.498237 0.413456
Si Si5 0.697550 0.468838 0.509855
Si Si6 0.560259 0.188603 0.380169
Si Si7 0.500000 0.499590 0.750000
Si Si8 0.325219 0.417973 0.315501
O O1 0.851031 0.478569 0.789853
O O2 0.918683 0.643445 0.882972
O O3 0.000000 0.605195 0.750000
O O4 0.987308 0.393004 0.842277
O O5 0.847692 0.331413 0.660473
O O6 0.713646 0.445468 0.724217
O O7 0.779082 0.225799 0.794173
O O8 0.331046 0.314654 0.966147
O O9 0.293149 0.041493 0.977112
O O10 0.432408 0.136144 0.029532
O O11 0.500000 0.500000 0.500000
O O12 0.645756 0.526729 0.435594
O O13 0.536718 0.347900 0.376025
O O14 0.522172 0.585985 0.334239
O O15 0.682887 0.568335 0.587195
O O16 0.580494 0.591814 0.721323
#
# Coordination Sequence:
#
# PCOD8140388 Si02
#       8
#     8   8   8   8   8   8   4   8
#     4  10  23  40  66 100 135 182 240 296 354 428
#     4  11  25  41  72  99 141 186 243 295 360 427
#     4  10  21  41  66  95 133 188 225 295 352 439
#     4  11  22  39  67  99 129 180 239 290 346 434
#     4  10  23  40  68  93 137 186 243 281 367 431
#     4  10  20  41  66  94 131 192 237 281 361 435
#     4  12  24  42  72  98 148 178 242 302 356 406
#     4  12  25  46  69 106 139 193 243 300 356 431
#
# _framework density 23.173159999999999
#
# number of rings (size 3 to 8) (size 9 to 14) (size 15 to 20)
#    0.000    1.333    4.000    1.200    5.600    0.000 
#    1.200    2.000    0.000    0.000    0.000    0.000 
#    0.000    0.000    0.000    0.000    0.000    0.000 
#
# Total GULP energy -371683.811962 kJ/mol
# GULP energy per Si atom -12389.460399 kJ/mol
# Density = 2.312042 g / cm^3
# Si number density = 23.173160 Si / 1000 Ang^3
#
#
#
# Elastic Constant Matrix: (Units=GPa)
#
#
# Indices 1 2 3 4 5 6 
#
# 1 92.9842 16.8572 37.5006 0.0000 10.0743 0.0000
# 2 16.8572 38.1314 30.9523 0.0000 -0.9735 0.0000
# 3 37.5006 30.9523 178.2831 0.0000 6.7691 0.0000
# 4 0.0000 0.0000 0.0000 63.7793 0.0000 61.6274
# 5 10.0743 -0.9735 6.7691 0.0000 44.2103 0.0000
# 6 0.0000 0.0000 0.0000 61.6274 0.0000 172.2819
#
#
#
# Elastic Compliance Matrix: (Units=1/GPa)
#
#
# Indices 1 2 3 4 5 6 
#
# 1 0.012525 -0.004131 -0.001816 0.000000 -0.002667 0.000000
# 2 -0.004131 0.031988 -0.004775 0.000000 0.002377 0.000000
# 3 -0.001816 -0.004775 0.006848 0.000000 -0.000740 0.000000
# 4 0.000000 0.000000 0.000000 0.023961 0.000000 -0.008571
# 5 -0.002667 0.002377 -0.000740 0.000000 0.023392 0.000000
# 6 0.000000 0.000000 0.000000 -0.008571 0.000000 0.008870
#
#
# Mechanical properties :
#
#
# Convention : Reuss Voigt Hill
#
# Bulk Modulus (GPa) = 33.42570 53.33543 43.38056
# Shear Modulus (GPa) = 35.97106 70.99356 53.48231
#
# Velocity S-wave (km/s) = 3.94416 5.54099 4.80932
# Velocity P-wave (km/s) = 5.93275 8.00018 7.04274
#
# Compressibility (1/GPa) = 0.02991710
#
# Stress axis : x y z
#
# Youngs Moduli (GPa) = 79.84171 31.26190 146.02554
#
# Poissons Ratio (x) = 0.12914 0.26519
# Poissons Ratio (y) = 0.32982 0.69725
# Poissons Ratio (z) = 0.14500 0.14927
#
# Static dielectric constant tensor:
#      x y z
#    x 4.317620 0.000000 0.038730 
#    y 0.000000 3.643950 0.000000 
#    z 0.038730 0.000000 4.365180 
# 
# 
# High freq. dielectric constant tensor:
#      x y z
#    x 1.920900 0.000000 0.012020 
#    y 0.000000 1.872390 0.000000 
#    z 0.012020 0.000000 1.942570 
# 
# From -- ./inp_files/209585.got.cif
#   From: 2010.06.25/outbox.cif.g09.slc.cpg/sg15_105_cif.got.tgz:209585.got - 2010.06.28 07:06:18.
