data_PCOD8140415
_publ_section_title
;
Structure prediction by ZEFSAII (Michael W. Deem and Ramdas Pophale) SiO2 
 PCOD8140415
Probable space group: C 2/C
;
_chemical_formula_sum "Si O2"
_cell_formula_units_Z 64
_cell_length_a 17.375773
_cell_length_b 9.152731
_cell_length_c 17.909566
_cell_angle_alpha 90.000000
_cell_angle_beta 77.975633
_cell_angle_gamma 90.000000
_cell_volume 2785.768278
_symmetry_space_group_name_H-M "C 2/C"
_symmetry_group_IT_number 15
_symmetry_cell_setting 'monoclinic'
loop_
_space_group_symop_operation_xyz
x,y,z
-x,y,1/2-z
-x,-y,-z
x,-y,1/2+z
1/2+x,1/2+y,z
1/2-x,1/2+y,1/2-z
1/2-x,1/2-y,-z
1/2+x,1/2-y,1/2+z
loop_
_atom_site_type_symbol
_atom_site_label
_atom_site_fract_x
_atom_site_fract_y
_atom_site_fract_z
Si Si1 0.624955 0.944397 0.519281
Si Si2 0.671160 0.614071 0.302243
Si Si3 0.904397 0.767983 0.966880
Si Si4 0.418621 0.882914 0.809081
Si Si5 0.913629 0.696048 0.796028
Si Si6 0.301279 0.527361 0.965276
Si Si7 0.575499 0.673649 0.461055
Si Si8 0.701383 0.355568 0.195348
O O1 0.574767 0.894295 0.601930
O O2 0.718486 0.926084 0.519730
O O3 0.594481 0.848185 0.455009
O O4 0.611192 0.110102 0.493736
O O5 0.632283 0.679032 0.236739
O O6 0.607554 0.590857 0.381045
O O7 0.705329 0.456507 0.269124
O O8 0.734042 0.728687 0.319582
O O9 0.924436 0.748127 0.877315
O O10 0.980808 0.848790 0.988699
O O11 0.825348 0.865134 0.988847
O O12 0.500000 0.879015 0.750000
O O13 0.379281 0.733792 0.789960
O O14 0.372870 0.035015 0.796411
O O15 0.000000 0.676643 0.750000
O O16 0.290408 0.540529 0.878521
O O17 0.374700 0.626998 0.975946
#
# Coordination Sequence:
#
# PCOD8140415 Si02
#       8
#     8   8   8   8   8   8   8   8
#     4  11  23  46  73  99 142 188 233 284 362 421
#     4  12  25  43  70 101 138 187 240 291 355 425
#     4  11  24  42  70 103 138 187 236 293 347 421
#     4  10  23  43  72  99 133 181 232 288 352 421
#     4  10  20  41  67  95 135 180 232 289 352 410
#     4  12  24  45  71 102 147 184 232 295 358 421
#     4  12  24  44  71 104 144 188 235 290 360 420
#     4  12  25  46  70 101 139 186 237 295 357 426
#
# _framework density 22.973913
#
# number of rings (size 3 to 8) (size 9 to 14) (size 15 to 20)
#    0.000    0.750    5.000    3.000    0.000    2.500 
#    4.500    0.000    0.000    0.000    0.000    0.000 
#    0.000    0.000    0.000    0.000    0.000    0.000 
#
# Total GULP energy -396598.609645 kJ/mol
# GULP energy per Si atom -12393.706551 kJ/mol
# Density = 2.292162 g / cm^3
# Si number density = 22.973913 Si / 1000 Ang^3
#
#
#
# Elastic Constant Matrix: (Units=GPa)
#
#
# Indices 1 2 3 4 5 6 
#
# 1 89.5488 3.9795 19.8071 0.0000 -2.8926 0.0000
# 2 3.9795 70.2639 10.1517 0.0000 1.3271 0.0000
# 3 19.8071 10.1517 68.5482 0.0000 -7.6914 0.0000
# 4 0.0000 0.0000 0.0000 33.1372 0.0000 5.4042
# 5 -2.8926 1.3271 -7.6914 0.0000 29.6960 0.0000
# 6 0.0000 0.0000 0.0000 5.4042 0.0000 37.2545
#
#
#
# Elastic Compliance Matrix: (Units=1/GPa)
#
#
# Indices 1 2 3 4 5 6 
#
# 1 0.011934 -0.000192 -0.003387 0.000000 0.000294 0.000000
# 2 -0.000192 0.014591 -0.002246 0.000000 -0.001252 0.000000
# 3 -0.003387 -0.002246 0.016349 0.000000 0.004005 0.000000
# 4 0.000000 0.000000 0.000000 0.030909 0.000000 -0.004484
# 5 0.000294 -0.001252 0.004005 0.000000 0.034796 0.000000
# 6 0.000000 0.000000 0.000000 -0.004484 0.000000 0.027493
#
#
# Mechanical properties :
#
#
# Convention : Reuss Voigt Hill
#
# Bulk Modulus (GPa) = 32.02637 32.91528 32.47083
# Shear Modulus (GPa) = 31.61946 32.97905 32.29926
#
# Velocity S-wave (km/s) = 3.71390 3.79291 3.75361
# Velocity P-wave (km/s) = 5.68870 5.79136 5.74026
#
# Compressibility (1/GPa) = 0.03122427
#
# Stress axis : x y z
#
# Youngs Moduli (GPa) = 83.79220 68.53504 61.16607
#
# Poissons Ratio (x) = 0.01317 0.20717
# Poissons Ratio (y) = 0.01610 0.13737
# Poissons Ratio (z) = 0.28380 0.15392
#
# Static dielectric constant tensor:
#      x y z
#    x 4.046710 0.000000 -0.035230 
#    y 0.000000 4.806730 0.000000 
#    z -0.035230 0.000000 3.853670 
# 
# 
# High freq. dielectric constant tensor:
#      x y z
#    x 1.901220 0.000000 -0.002930 
#    y 0.000000 1.925100 0.000000 
#    z -0.002930 0.000000 1.892280 
# 
# From -- ./inp_files/247461.got.cif
#   From: 2010.06.25/outbox.cif.g09.slc.cpg/sg15_124_cif.got.tgz:247461.got - 2010.06.28 07:06:18.
