data_PCOD8140971
_publ_section_title
;
Structure prediction by ZEFSAII (Michael W. Deem and Ramdas Pophale) SiO2 
 PCOD8140971
Probable space group: C 2/C
;
_chemical_formula_sum "Si O2"
_cell_formula_units_Z 52
_cell_length_a 4.994399
_cell_length_b 21.443537
_cell_length_c 25.113980
_cell_angle_alpha 90.000000
_cell_angle_beta 106.589417
_cell_angle_gamma 90.000000
_cell_volume 2577.690821
_symmetry_space_group_name_H-M "C 2/C"
_symmetry_group_IT_number 15
_symmetry_cell_setting 'monoclinic'
loop_
_space_group_symop_operation_xyz
x,y,z
-x,y,1/2-z
-x,-y,-z
x,-y,1/2+z
1/2+x,1/2+y,z
1/2-x,1/2+y,1/2-z
1/2-x,1/2-y,-z
1/2+x,1/2-y,1/2+z
loop_
_atom_site_type_symbol
_atom_site_label
_atom_site_fract_x
_atom_site_fract_y
_atom_site_fract_z
Si Si1 0.227710 0.179776 0.915359
Si Si2 0.176672 0.175695 0.099939
Si Si3 0.000000 0.753186 0.750000
Si Si4 0.500000 0.042791 0.750000
Si Si5 0.766351 0.146458 0.168639
Si Si6 0.000000 0.960636 0.750000
Si Si7 0.263402 0.143551 0.800904
Si Si8 0.804997 0.820038 0.484936
O O1 0.292664 0.251161 0.906639
O O2 0.173434 0.143444 0.857358
O O3 0.498353 0.149219 0.960329
O O4 0.955400 0.175623 0.936355
O O5 0.481609 0.144050 0.118720
O O6 0.028877 0.160645 0.146532
O O7 0.995980 0.146650 0.040663
O O8 0.756167 0.797764 0.712033
O O9 0.883412 0.710948 0.791242
O O10 0.484498 0.087977 0.801431
O O11 0.219988 0.001536 0.728899
O O12 0.815252 0.080299 0.199166
O O13 0.000000 0.126778 0.750000
O O14 0.750000 0.750000 0.500000
#
# Coordination Sequence:
#
# PCOD8140971 Si02
#       8
#     8   8   4   4   8   4   8   8
#     4  11  21  34  55  86 126 158 193 231 288 351
#     4  11  19  35  54  86 118 158 195 227 284 349
#     4  10  22  34  52  92 124 150 182 236 296 366
#     4  11  24  43  60  81 118 153 202 250 282 359
#     4  11  22  35  61  84 119 157 187 238 294 348
#     4  11  24  43  58  87 116 149 206 242 296 349
#     4  11  23  37  62  86 120 154 193 237 299 352
#     4  10  21  34  52  81 125 168 191 230 276 351
#
# _framework density 20.173093999999999
#
# number of rings (size 3 to 8) (size 9 to 14) (size 15 to 20)
#    0.000    1.231    2.308    6.462    4.308    1.231 
#    0.000    0.000    0.000    0.000    0.000   21.538 
#    0.000    0.000    0.000    0.000    0.000    0.000 
#
# Total GULP energy -322340.844537 kJ/mol
# GULP energy per Si atom -12397.724790 kJ/mol
# Density = 2.012718 g / cm^3
# Si number density = 20.173094 Si / 1000 Ang^3
#
#
#
# Elastic Constant Matrix: (Units=GPa)
#
#
# Indices 1 2 3 4 5 6 
#
# 1 112.3282 32.7108 28.5926 0.0000 4.2509 0.0000
# 2 32.7108 81.9049 30.3729 0.0000 -1.3971 0.0000
# 3 28.5926 30.3729 103.3541 0.0000 9.4602 0.0000
# 4 0.0000 0.0000 0.0000 6.5051 0.0000 -8.3317
# 5 4.2509 -1.3971 9.4602 0.0000 43.6201 0.0000
# 6 0.0000 0.0000 0.0000 -8.3317 0.0000 10.0674
#
#
#
# Elastic Compliance Matrix: (Units=1/GPa)
#
#
# Indices 1 2 3 4 5 6 
#
# 1 0.010405 -0.003508 -0.001780 0.000000 -0.000740 0.000000
# 2 -0.003508 0.014962 -0.003573 0.000000 0.001596 0.000000
# 3 -0.001780 -0.003573 0.011439 0.000000 -0.002422 0.000000
# 4 0.000000 0.000000 0.000000 -2.563325 0.000000 -2.121386
# 5 -0.000740 0.001596 -0.002422 0.000000 0.023574 0.000000
# 6 0.000000 0.000000 0.000000 -2.121386 0.000000 -1.656310
#
#
# Mechanical properties :
#
#
# Convention : Reuss Voigt Hill
#
# Bulk Modulus (GPa) = 52.39495 53.43775 52.91635
# Shear Modulus (GPa) = -1.20914 25.76590 12.27838
#
# Velocity S-wave (km/s) = -0.77504 3.57773 2.46976
# Velocity P-wave (km/s) = 5.02276 6.60409 5.86695
#
# Compressibility (1/GPa) = 0.01908581
#
# Stress axis : x y z
#
# Youngs Moduli (GPa) = 96.10614 66.83411 87.41696
#
# Poissons Ratio (x) = 0.23447 0.15559
# Poissons Ratio (y) = 0.33716 0.31230
# Poissons Ratio (z) = 0.17105 0.23877
#
# Static dielectric constant tensor:
#      x y z
#    x 3.986060 0.000000 0.209920 
#    y 0.000000 3.359590 0.000000 
#    z 0.209920 0.000000 4.052840 
# 
# 
# High freq. dielectric constant tensor:
#      x y z
#    x 1.808130 0.000000 0.001490 
#    y 0.000000 1.734650 0.000000 
#    z 0.001490 0.000000 1.787980 
# 
# From -- ./inp_files/261250.got.cif
#   From: 2010.06.25/outbox.cif.g09.slc.cpg/sg15_131_cif.got.tgz:261250.got - 2010.06.28 07:06:18.
