data_PCOD8140573
_publ_section_title
;
Structure prediction by ZEFSAII (Michael W. Deem and Ramdas Pophale) SiO2 
 PCOD8140573
Probable space group: C 2/C
;
_chemical_formula_sum "Si O2"
_cell_formula_units_Z 48
_cell_length_a 6.232196
_cell_length_b 20.427888
_cell_length_c 19.023810
_cell_angle_alpha 90.000000
_cell_angle_beta 60.042482
_cell_angle_gamma 90.000000
_cell_volume 2098.352541
_symmetry_space_group_name_H-M "C 2/C"
_symmetry_group_IT_number 15
_symmetry_cell_setting 'monoclinic'
loop_
_space_group_symop_operation_xyz
x,y,z
-x,y,1/2-z
-x,-y,-z
x,-y,1/2+z
1/2+x,1/2+y,z
1/2-x,1/2+y,1/2-z
1/2-x,1/2-y,-z
1/2+x,1/2-y,1/2+z
loop_
_atom_site_type_symbol
_atom_site_label
_atom_site_fract_x
_atom_site_fract_y
_atom_site_fract_z
Si Si1 0.000000 0.882878 0.750000
Si Si2 0.506488 0.582986 0.550506
Si Si3 0.500000 0.318093 0.250000
Si Si4 0.109748 0.055575 0.086780
Si Si5 0.965822 0.340257 0.358716
Si Si6 0.169704 0.268380 0.840161
Si Si7 0.529117 0.843356 0.503784
O O1 0.973423 0.925803 0.682607
O O2 0.240356 0.836306 0.708920
O O3 0.533420 0.576938 0.461430
O O4 0.615577 0.522674 0.577936
O O5 0.225851 0.599493 0.621953
O O6 0.677874 0.643339 0.544461
O O7 0.514056 0.270420 0.180632
O O8 0.751928 0.361935 0.208206
O O9 0.380611 0.088901 0.045603
O O10 0.904870 0.276878 0.322105
O O11 0.944282 0.317535 0.442355
O O12 0.018885 0.284911 0.934813
#
# Coordination Sequence:
#
# PCOD8140573 Si02
#       7
#     4   8   4   8   8   8   8
#     4  10  20  42  65  94 133 172 220 278 326 396
#     4  10  21  41  66  96 131 173 223 272 326 400
#     4  12  24  38  61  90 133 174 212 272 336 390
#     4   9  21  40  66  97 132 169 222 272 324 391
#     4  11  23  41  61  92 130 172 217 274 331 392
#     4  11  23  39  62  96 130 167 218 272 332 395
#     4  10  22  38  69  94 127 172 220 266 329 397
#
# _framework density 22.875088000000002
#
# number of rings (size 3 to 8) (size 9 to 14) (size 15 to 20)
#    0.000    1.667    1.667    2.000    2.333    4.000 
#    0.000    5.000    0.000    8.000    0.000    0.000 
#    0.000    0.000    0.000    0.000    0.000    0.000 
#
# Total GULP energy -297444.089663 kJ/mol
# GULP energy per Si atom -12393.503736 kJ/mol
# Density = 2.282302 g / cm^3
# Si number density = 22.875088 Si / 1000 Ang^3
#
#
#
# Elastic Constant Matrix: (Units=GPa)
#
#
# Indices 1 2 3 4 5 6 
#
# 1 99.4414 34.9289 43.1626 0.0000 -6.1585 0.0000
# 2 34.9289 62.8040 48.5067 0.0000 9.1032 0.0000
# 3 43.1626 48.5067 124.4552 0.0000 16.0385 0.0000
# 4 0.0000 0.0000 0.0000 33.6985 0.0000 6.1477
# 5 -6.1585 9.1032 16.0385 0.0000 43.4938 0.0000
# 6 0.0000 0.0000 0.0000 6.1477 0.0000 23.3912
#
#
#
# Elastic Compliance Matrix: (Units=1/GPa)
#
#
# Indices 1 2 3 4 5 6 
#
# 1 0.013704 -0.005931 -0.002994 0.000000 0.004286 0.000000
# 2 -0.005931 0.025449 -0.007420 0.000000 -0.003430 0.000000
# 3 -0.002994 -0.007420 0.012409 0.000000 -0.003447 0.000000
# 4 0.000000 0.000000 0.000000 0.031169 0.000000 -0.008192
# 5 0.004286 -0.003430 -0.003447 0.000000 0.025588 0.000000
# 6 0.000000 0.000000 0.000000 -0.008192 0.000000 0.044904
#
#
# Mechanical properties :
#
#
# Convention : Reuss Voigt Hill
#
# Bulk Modulus (GPa) = 52.98287 59.98856 56.48571
# Shear Modulus (GPa) = 26.01413 30.79018 28.40215
#
# Velocity S-wave (km/s) = 3.37594 3.67279 3.52748
# Velocity P-wave (km/s) = 6.19742 6.65336 6.42943
#
# Compressibility (1/GPa) = 0.01887403
#
# Stress axis : x y z
#
# Youngs Moduli (GPa) = 72.97072 39.29436 80.58467
#
# Poissons Ratio (x) = 0.23305 0.24123
# Poissons Ratio (y) = 0.43278 0.59793
# Poissons Ratio (z) = 0.21844 0.29156
#
# Static dielectric constant tensor:
#      x y z
#    x 4.063290 0.000000 0.183520 
#    y 0.000000 3.838590 0.000000 
#    z 0.183520 0.000000 4.314590 
# 
# 
# High freq. dielectric constant tensor:
#      x y z
#    x 1.901820 0.000000 0.012740 
#    y 0.000000 1.876550 0.000000 
#    z 0.012740 0.000000 1.918230 
# 
# From -- ./inp_files/185263.got.cif
#   From: 2010.06.25/outbox.cif.g09.slc.cpg/sg15_93_cif.got.tgz:185263.got - 2010.06.28 07:06:18.
