data_PCOD8140678
_publ_section_title
;
Structure prediction by ZEFSAII (Michael W. Deem and Ramdas Pophale) SiO2 
 PCOD8140678
Probable space group: C 2/C
;
_chemical_formula_sum "Si O2"
_cell_formula_units_Z 32
_cell_length_a 13.433976
_cell_length_b 5.112158
_cell_length_c 20.245382
_cell_angle_alpha 90.000000
_cell_angle_beta 78.423614
_cell_angle_gamma 90.000000
_cell_volume 1362.101021
_symmetry_space_group_name_H-M "C 2/C"
_symmetry_group_IT_number 15
_symmetry_cell_setting 'monoclinic'
loop_
_space_group_symop_operation_xyz
x,y,z
-x,y,1/2-z
-x,-y,-z
x,-y,1/2+z
1/2+x,1/2+y,z
1/2-x,1/2+y,1/2-z
1/2-x,1/2-y,-z
1/2+x,1/2-y,1/2+z
loop_
_atom_site_type_symbol
_atom_site_label
_atom_site_fract_x
_atom_site_fract_y
_atom_site_fract_z
Si Si1 0.650260 0.043537 0.340289
Si Si2 0.650168 0.219457 0.713110
Si Si3 0.486424 0.749325 0.956918
Si Si4 0.838203 0.795742 0.366729
O O1 0.727718 0.238538 0.290814
O O2 0.568836 0.223685 0.387460
O O3 0.599431 0.855061 0.290747
O O4 0.717024 0.866427 0.382967
O O5 0.603840 0.481353 0.685433
O O6 0.634807 0.987025 0.663898
O O7 0.376958 0.710871 0.937123
O O8 0.500000 0.500000 0.000000
O O9 0.500000 0.000000 0.000000
#
# Coordination Sequence:
#
# PCOD8140678 Si02
#       4
#     8   8   8   8
#     4  10  23  43  73  94 140 166 231 285 352 414
#     4  10  20  42  70 101 124 169 220 293 357 398
#     4  12  29  44  63 100 140 188 232 270 332 420
#     4  10  22  43  67  99 130 173 229 278 357 388
#
# _framework density 23.493119
#
# number of rings (size 3 to 8) (size 9 to 14) (size 15 to 20)
#    1.500    0.000    2.500    1.500    3.500    3.000 
#    0.000    5.000    0.000    0.000    0.000    0.000 
#    0.000    0.000    0.000    0.000    0.000    0.000 
#
# Total GULP energy -198248.321665 kJ/mol
# GULP energy per Si atom -12390.520104 kJ/mol
# Density = 2.343965 g / cm^3
# Si number density = 23.493119 Si / 1000 Ang^3
#
#
#
# Elastic Constant Matrix: (Units=GPa)
#
#
# Indices 1 2 3 4 5 6 
#
# 1 18.1305 4.8664 7.1657 0.0000 15.4812 0.0000
# 2 4.8664 151.4739 38.9993 -0.0001 16.7959 -0.0001
# 3 7.1657 38.9993 96.3361 0.0000 28.0669 0.0000
# 4 0.0000 -0.0001 0.0000 50.4846 0.0000 7.0019
# 5 15.4812 16.7959 28.0669 0.0000 55.2127 0.0000
# 6 0.0000 -0.0001 0.0000 7.0019 0.0000 29.2053
#
#
#
# Elastic Compliance Matrix: (Units=1/GPa)
#
#
# Indices 1 2 3 4 5 6 
#
# 1 0.072556 -0.000225 0.000706 0.000000 -0.020635 0.000000
# 2 -0.000225 0.007405 -0.002750 0.000000 -0.000791 0.000000
# 3 0.000706 -0.002750 0.013212 0.000000 -0.006077 0.000000
# 4 0.000000 0.000000 0.000000 0.020489 0.000000 -0.004912
# 5 -0.020635 -0.000791 -0.006077 0.000000 0.027228 0.000000
# 6 0.000000 0.000000 0.000000 -0.004912 0.000000 0.035418
#
#
# Mechanical properties :
#
#
# Convention : Reuss Voigt Hill
#
# Bulk Modulus (GPa) = 11.28229 40.88926 26.08577
# Shear Modulus (GPa) = 23.76521 41.30780 32.53651
#
# Velocity S-wave (km/s) = 3.18399 4.19775 3.72551
# Velocity P-wave (km/s) = 4.28134 6.39823 5.44368
#
# Compressibility (1/GPa) = 0.08863452
#
# Stress axis : x y z
#
# Youngs Moduli (GPa) = 13.78239 135.04555 75.68962
#
# Poissons Ratio (x) = 0.03034 -0.05342
# Poissons Ratio (y) = 0.00310 0.20818
# Poissons Ratio (z) = -0.00973 0.37143
#
# Static dielectric constant tensor:
#      x y z
#    x 3.980870 0.000000 0.194170 
#    y 0.000000 4.181620 0.000000 
#    z 0.194170 0.000000 4.098370 
# 
# 
# High freq. dielectric constant tensor:
#      x y z
#    x 1.904820 0.000000 0.027080 
#    y 0.000000 1.943830 0.000000 
#    z 0.027080 0.000000 1.920940 
# 
# From -- ./inp_files/201857.got.cif
#   From: 2010.06.25/outbox.cif.g09.slc.cpg/sg15_101_cif.got.tgz:201857.got - 2010.06.28 07:06:18.
