data_PCOD8140123
_publ_section_title
;
Structure prediction by ZEFSAII (Michael W. Deem and Ramdas Pophale) SiO2 
 PCOD8140123
Probable space group: C 2/C
;
_chemical_formula_sum "Si O2"
_cell_formula_units_Z 40
_cell_length_a 11.979524
_cell_length_b 23.241769
_cell_length_c 9.119151
_cell_angle_alpha 90.000000
_cell_angle_beta 130.147969
_cell_angle_gamma 90.000000
_cell_volume 1940.767551
_symmetry_space_group_name_H-M "C 2/C"
_symmetry_group_IT_number 15
_symmetry_cell_setting 'monoclinic'
loop_
_space_group_symop_operation_xyz
x,y,z
-x,y,1/2-z
-x,-y,-z
x,-y,1/2+z
1/2+x,1/2+y,z
1/2-x,1/2+y,1/2-z
1/2-x,1/2-y,-z
1/2+x,1/2-y,1/2+z
loop_
_atom_site_type_symbol
_atom_site_label
_atom_site_fract_x
_atom_site_fract_y
_atom_site_fract_z
Si Si1 0.129453 0.453446 0.252840
Si Si2 0.637505 0.363503 0.965737
Si Si3 0.713921 0.811992 0.669172
Si Si4 0.999008 0.782765 0.073215
Si Si5 0.568629 0.919584 0.665241
O O1 0.276727 0.421612 0.424774
O O2 0.156624 0.521970 0.279294
O O3 0.000000 0.434545 0.250000
O O4 0.076834 0.433909 0.049291
O O5 0.500000 0.381281 0.750000
O O6 0.732833 0.316008 0.955350
O O7 0.588974 0.335593 0.078838
O O8 0.565996 0.776177 0.565210
O O9 0.684526 0.877933 0.688428
O O10 0.833161 0.783694 0.877050
O O11 0.000000 0.786185 0.250000
O O12 0.500000 0.889465 0.750000
#
# Coordination Sequence:
#
# PCOD8140123 Si02
#       5
#     8   8   8   8   8
#     4  10  20  40  67  90 122 164 206 251 308 363
#     4  10  23  42  63  92 127 162 205 250 310 375
#     4  11  23  42  61  91 128 162 207 253 305 373
#     4  11  25  40  62  91 125 165 207 255 309 358
#     4  10  22  37  65  95 121 159 211 256 301 364
#
# _framework density 20.610403999999999
#
# number of rings (size 3 to 8) (size 9 to 14) (size 15 to 20)
#    0.000    1.600    2.000    1.800    5.600    0.000 
#    0.000    5.000    0.000    0.000    0.000    0.000 
#    0.000    0.000    0.000    0.000    0.000    0.000 
#
# Total GULP energy -248010.191207 kJ/mol
# GULP energy per Si atom -12400.509560 kJ/mol
# Density = 2.056349 g / cm^3
# Si number density = 20.610404 Si / 1000 Ang^3
#
#
#
# Elastic Constant Matrix: (Units=GPa)
#
#
# Indices 1 2 3 4 5 6 
#
# 1 96.7760 40.0072 34.1783 0.0000 -4.5870 0.0000
# 2 40.0072 98.3496 40.7914 0.0000 19.0108 0.0000
# 3 34.1783 40.7914 81.4729 0.0000 -1.4953 0.0000
# 4 0.0000 0.0000 0.0000 25.3812 0.0000 8.3709
# 5 -4.5870 19.0108 -1.4953 0.0000 33.6683 0.0000
# 6 0.0000 0.0000 0.0000 8.3709 0.0000 23.8888
#
#
#
# Elastic Compliance Matrix: (Units=1/GPa)
#
#
# Indices 1 2 3 4 5 6 
#
# 1 0.013816 -0.005254 -0.003079 0.000000 0.004712 0.000000
# 2 -0.005254 0.017076 -0.006541 0.000000 -0.010648 0.000000
# 3 -0.003079 -0.006541 0.016914 0.000000 0.004025 0.000000
# 4 0.000000 0.000000 0.000000 0.044547 0.000000 -0.015610
# 5 0.004712 -0.010648 0.004025 0.000000 0.036535 0.000000
# 6 0.000000 0.000000 0.000000 -0.015610 0.000000 0.047330
#
#
# Mechanical properties :
#
#
# Convention : Reuss Voigt Hill
#
# Bulk Modulus (GPa) = 55.37429 56.28359 55.82894
# Shear Modulus (GPa) = 23.58640 27.36245 25.47442
#
# Velocity S-wave (km/s) = 3.38656 3.64758 3.51949
# Velocity P-wave (km/s) = 6.49747 6.71621 6.60775
#
# Compressibility (1/GPa) = 0.01805892
#
# Stress axis : x y z
#
# Youngs Moduli (GPa) = 72.38083 58.56062 59.12123
#
# Poissons Ratio (x) = 0.30768 0.18202
# Poissons Ratio (y) = 0.38029 0.38671
# Poissons Ratio (z) = 0.22285 0.38305
#
# Static dielectric constant tensor:
#      x y z
#    x 3.901990 0.000000 -0.174350 
#    y 0.000000 3.611670 0.000000 
#    z -0.174350 0.000000 3.792670 
# 
# 
# High freq. dielectric constant tensor:
#      x y z
#    x 1.813790 0.000000 -0.015040 
#    y 0.000000 1.801540 0.000000 
#    z -0.015040 0.000000 1.804020 
# 
# From -- ./inp_files/33889.got.cif
#   From: 2010.06.25/outbox.cif.g09.slc.cpg/sg15_17_cif.got.tgz:33889.got - 2010.06.28 07:06:18.
