data_PCOD8140527
_publ_section_title
;
Structure prediction by ZEFSAII (Michael W. Deem and Ramdas Pophale) SiO2 
 PCOD8140527
Probable space group: C 2/C
;
_chemical_formula_sum "Si O2"
_cell_formula_units_Z 52
_cell_length_a 17.681375
_cell_length_b 8.542769
_cell_length_c 15.384448
_cell_angle_alpha 90.000000
_cell_angle_beta 84.464912
_cell_angle_gamma 90.000000
_cell_volume 2312.953505
_symmetry_space_group_name_H-M "C 2/C"
_symmetry_group_IT_number 15
_symmetry_cell_setting 'monoclinic'
loop_
_space_group_symop_operation_xyz
x,y,z
-x,y,1/2-z
-x,-y,-z
x,-y,1/2+z
1/2+x,1/2+y,z
1/2-x,1/2+y,1/2-z
1/2-x,1/2-y,-z
1/2+x,1/2-y,1/2+z
loop_
_atom_site_type_symbol
_atom_site_label
_atom_site_fract_x
_atom_site_fract_y
_atom_site_fract_z
Si Si1 0.705469 0.090195 0.993089
Si Si2 0.527936 0.395103 0.158863
Si Si3 0.000000 0.410328 0.750000
Si Si4 0.865852 0.500773 0.664742
Si Si5 0.122156 0.163036 0.908530
Si Si6 0.661904 0.615246 0.089307
Si Si7 0.716123 0.077869 0.659705
O O1 0.640439 0.102986 0.924222
O O2 0.757634 0.956640 0.945225
O O3 0.750000 0.250000 0.000000
O O4 0.675034 0.031621 0.090612
O O5 0.500000 0.479614 0.250000
O O6 0.459126 0.420712 0.098026
O O7 0.606274 0.475184 0.122927
O O8 0.542045 0.208023 0.175874
O O9 0.943641 0.533864 0.708879
O O10 0.872265 0.317481 0.648028
O O11 0.796037 0.526160 0.739476
O O12 0.193934 0.058194 0.870125
O O13 0.126493 0.201906 0.009815
O O14 0.681016 0.746749 0.158287
#
# Coordination Sequence:
#
# PCOD8140527 Si02
#       7
#     8   8   4   8   8   8   8
#     4  11  25  40  66 101 130 170 232 270 339 408
#     4   9  21  35  67  93 130 172 225 261 337 413
#     4   8  22  42  60  98 136 184 218 276 354 396
#     4  11  22  43  66  90 139 173 223 279 332 410
#     4  10  20  42  63  94 131 175 217 273 342 393
#     4  11  21  43  63  95 133 170 222 282 333 400
#     4  11  24  39  69  96 126 180 217 284 345 387
#
# _framework density 22.482078999999999
#
# number of rings (size 3 to 8) (size 9 to 14) (size 15 to 20)
#    0.462    1.231    3.077    1.385    6.462    0.000 
#    4.154    2.308    0.000    0.000    0.000    0.000 
#    0.000    0.000    0.000    0.000    0.000    0.000 
#
# Total GULP energy -322114.357095 kJ/mol
# GULP energy per Si atom -12389.013734 kJ/mol
# Density = 2.243091 g / cm^3
# Si number density = 22.482079 Si / 1000 Ang^3
#
#
#
# Elastic Constant Matrix: (Units=GPa)
#
#
# Indices 1 2 3 4 5 6 
#
# 1 82.2434 7.9717 -2.4665 0.0000 25.1002 0.0000
# 2 7.9717 64.1189 5.5326 0.0000 7.2257 0.0000
# 3 -2.4665 5.5326 68.9480 0.0000 17.4623 0.0000
# 4 0.0000 0.0000 0.0000 25.7754 0.0000 -2.3052
# 5 25.1002 7.2257 17.4623 0.0000 38.3072 0.0000
# 6 0.0000 0.0000 0.0000 -2.3052 0.0000 32.1672
#
#
#
# Elastic Compliance Matrix: (Units=1/GPa)
#
#
# Indices 1 2 3 4 5 6 
#
# 1 0.016025 -0.000958 0.003690 0.000000 -0.012002 0.000000
# 2 -0.000958 0.016013 -0.000806 0.000000 -0.002025 0.000000
# 3 0.003690 -0.000806 0.017268 0.000000 -0.010137 0.000000
# 4 0.000000 0.000000 0.000000 0.039047 0.000000 0.002798
# 5 -0.012002 -0.002025 -0.010137 0.000000 0.038971 0.000000
# 6 0.000000 0.000000 0.000000 0.002798 0.000000 0.031288
#
#
# Mechanical properties :
#
#
# Convention : Reuss Voigt Hill
#
# Bulk Modulus (GPa) = 18.81240 26.37621 22.59430
# Shear Modulus (GPa) = 28.98869 32.86814 30.92841
#
# Velocity S-wave (km/s) = 3.59474 3.82772 3.71306
# Velocity P-wave (km/s) = 5.06117 5.59400 5.33424
#
# Compressibility (1/GPa) = 0.05315642
#
# Stress axis : x y z
#
# Youngs Moduli (GPa) = 62.40098 62.44955 57.91135
#
# Poissons Ratio (x) = 0.05984 -0.21368
# Poissons Ratio (y) = 0.05980 0.04670
# Poissons Ratio (z) = -0.23025 0.05036
#
# Static dielectric constant tensor:
#      x y z
#    x 4.299820 0.000000 0.500560 
#    y 0.000000 3.660610 0.000000 
#    z 0.500560 0.000000 4.367920 
# 
# 
# High freq. dielectric constant tensor:
#      x y z
#    x 1.881100 0.000000 0.026210 
#    y 0.000000 1.857670 0.000000 
#    z 0.026210 0.000000 1.889820 
# 
# From -- ./inp_files/166206.got.cif
#   From: 2010.06.25/outbox.cif.g09.slc.cpg/sg15_84_cif.got.tgz:166206.got - 2010.06.28 07:06:18.
