data_PCOD8140941
_publ_section_title
;
Structure prediction by ZEFSAII (Michael W. Deem and Ramdas Pophale) SiO2 
 PCOD8140941
Probable space group: C 2/C
;
_chemical_formula_sum "Si O2"
_cell_formula_units_Z 32
_cell_length_a 20.002924
_cell_length_b 15.356378
_cell_length_c 5.137701
_cell_angle_alpha 90.000000
_cell_angle_beta 124.487752
_cell_angle_gamma 90.000000
_cell_volume 1300.794258
_symmetry_space_group_name_H-M "C 2/C"
_symmetry_group_IT_number 15
_symmetry_cell_setting 'monoclinic'
loop_
_space_group_symop_operation_xyz
x,y,z
-x,y,1/2-z
-x,-y,-z
x,-y,1/2+z
1/2+x,1/2+y,z
1/2-x,1/2+y,1/2-z
1/2-x,1/2-y,-z
1/2+x,1/2-y,1/2+z
loop_
_atom_site_type_symbol
_atom_site_label
_atom_site_fract_x
_atom_site_fract_y
_atom_site_fract_z
Si Si1 0.903295 0.803113 0.565950
Si Si2 0.353889 0.203890 0.970687
Si Si3 0.783512 0.941413 0.385884
Si Si4 0.911513 0.537555 0.279937
O O1 0.878438 0.736643 0.740767
O O2 0.874263 0.900612 0.576516
O O3 0.000000 0.803360 0.750000
O O4 0.854750 0.780001 0.189523
O O5 0.272850 0.145558 0.769423
O O6 0.421398 0.138957 0.243192
O O7 0.769300 0.990919 0.623057
O O8 0.863526 0.512428 0.439076
O O9 0.000000 0.500000 0.500000
#
# Coordination Sequence:
#
# PCOD8140941 Si02
#       4
#     8   8   8   8
#     4  12  28  45  72 108 145 191 235 300 363 425
#     4  12  24  45  71 105 146 185 240 288 367 437
#     4  12  26  49  77 102 139 193 250 299 350 421
#     4  10  21  33  56  90 136 177 211 264 332 415
#
# _framework density 24.600353999999999
#
# number of rings (size 3 to 8) (size 9 to 14) (size 15 to 20)
#    0.000    0.500    0.000    8.250   10.500    1.000 
#    0.000    0.000    0.000    0.000    0.000    0.000 
#    0.000    0.000    0.000    0.000    0.000    0.000 
#
# Total GULP energy -198251.594215 kJ/mol
# GULP energy per Si atom -12390.724638 kJ/mol
# Density = 2.454436 g / cm^3
# Si number density = 24.600354 Si / 1000 Ang^3
#
#
#
# Elastic Constant Matrix: (Units=GPa)
#
#
# Indices 1 2 3 4 5 6 
#
# 1 138.7168 60.8457 64.7740 0.0000 -18.5520 0.0000
# 2 60.8457 73.5414 36.8465 0.0000 1.9826 0.0000
# 3 64.7740 36.8465 119.2614 0.0000 -35.5315 0.0000
# 4 0.0000 0.0000 0.0000 4.3102 0.0000 28.0011
# 5 -18.5520 1.9826 -35.5315 0.0000 47.2705 0.0000
# 6 0.0000 0.0000 0.0000 28.0011 0.0000 28.2741
#
#
#
# Elastic Compliance Matrix: (Units=1/GPa)
#
#
# Indices 1 2 3 4 5 6 
#
# 1 0.013345 -0.009403 -0.003434 0.000000 0.003050 0.000000
# 2 -0.009403 0.023993 -0.004774 0.000000 -0.008285 0.000000
# 3 -0.003434 -0.004774 0.014668 0.000000 0.009878 0.000000
# 4 0.000000 0.000000 0.000000 -0.042697 0.000000 0.042285
# 5 0.003050 -0.008285 0.009878 0.000000 0.030124 0.000000
# 6 0.000000 0.000000 0.000000 0.042285 0.000000 -0.006509
#
#
# Mechanical properties :
#
#
# Convention : Reuss Voigt Hill
#
# Bulk Modulus (GPa) = 59.58225 72.93911 66.26068
# Shear Modulus (GPa) = 67.80609 27.24118 47.52363
#
# Velocity S-wave (km/s) = 5.25575 3.33130 4.40002
# Velocity P-wave (km/s) = 7.81685 6.67163 7.26684
#
# Compressibility (1/GPa) = 0.01678352
#
# Stress axis : x y z
#
# Youngs Moduli (GPa) = 74.93583 41.67944 68.17558
#
# Poissons Ratio (x) = 0.39190 0.23412
# Poissons Ratio (y) = 0.70460 0.32548
# Poissons Ratio (z) = 0.25733 0.19899
#
# Static dielectric constant tensor:
#      x y z
#    x 3.787850 0.000000 0.358380 
#    y 0.000000 4.701710 0.000000 
#    z 0.358380 0.000000 3.204630 
# 
# 
# High freq. dielectric constant tensor:
#      x y z
#    x 1.994370 0.000000 -0.013490 
#    y 0.000000 1.972730 0.000000 
#    z -0.013490 0.000000 2.002060 
# 
# From -- ./inp_files/14955.got.cif
#   From: 2010.06.25/outbox.cif.g09.slc.cpg/sg15_8_cif.got.tgz:14955.got - 2010.06.28 07:06:18.
