data_PCOD8140986
_publ_section_title
;
Structure prediction by ZEFSAII (Michael W. Deem and Ramdas Pophale) SiO2 
 PCOD8140986
Probable space group: C 2/C
;
_chemical_formula_sum "Si O2"
_cell_formula_units_Z 52
_cell_length_a 6.422613
_cell_length_b 24.411191
_cell_length_c 17.769094
_cell_angle_alpha 90.000000
_cell_angle_beta 66.789408
_cell_angle_gamma 90.000000
_cell_volume 2560.419066
_symmetry_space_group_name_H-M "C 2/C"
_symmetry_group_IT_number 15
_symmetry_cell_setting 'monoclinic'
loop_
_space_group_symop_operation_xyz
x,y,z
-x,y,1/2-z
-x,-y,-z
x,-y,1/2+z
1/2+x,1/2+y,z
1/2-x,1/2+y,1/2-z
1/2-x,1/2-y,-z
1/2+x,1/2-y,1/2+z
loop_
_atom_site_type_symbol
_atom_site_label
_atom_site_fract_x
_atom_site_fract_y
_atom_site_fract_z
Si Si1 0.122821 0.481865 0.557593
Si Si2 0.568318 0.422415 0.505780
Si Si3 0.021267 0.281483 0.532356
Si Si4 0.500000 0.225956 0.750000
Si Si5 0.178279 0.068486 0.168079
Si Si6 0.186991 0.316618 0.078293
Si Si7 0.153052 0.321744 0.797630
O O1 0.305078 0.432624 0.521996
O O2 0.270974 0.534461 0.562372
O O3 0.000000 0.500000 0.500000
O O4 0.921464 0.462377 0.641915
O O5 0.599050 0.427313 0.592118
O O6 0.628712 0.363891 0.461552
O O7 0.250000 0.250000 0.500000
O O8 0.997065 0.320578 0.462933
O O9 0.806826 0.241816 0.561966
O O10 0.018863 0.316249 0.608335
O O11 0.448254 0.182653 0.824029
O O12 0.289263 0.265753 0.759542
O O13 0.183705 0.129052 0.202676
O O14 0.000000 0.037529 0.250000
O O15 0.000000 0.339069 0.750000
#
# Coordination Sequence:
#
# PCOD8140986 Si02
#       7
#     8   8   8   4   8   8   8
#     4   9  22  41  61  89 118 153 206 260 316 380
#     4  10  21  42  64  85 123 164 205 263 310 379
#     4  10  21  34  55  85 115 159 205 246 303 380
#     4  10  22  40  52  86 128 158 210 262 304 370
#     4  11  23  36  61  93 122 158 199 255 321 375
#     4  10  21  37  59  82 117 165 207 248 310 370
#     4  11  22  35  55  87 126 157 197 261 315 363
#
# _framework density 20.309175
#
# number of rings (size 3 to 8) (size 9 to 14) (size 15 to 20)
#    0.000    1.846    2.308    0.923    4.308    0.000 
#    0.000    4.615    0.000    0.000    0.000    0.000 
#    0.000    0.000    0.000    0.000    0.000    0.000 
#
# Total GULP energy -322160.359226 kJ/mol
# GULP energy per Si atom -12390.783047 kJ/mol
# Density = 2.026295 g / cm^3
# Si number density = 20.309175 Si / 1000 Ang^3
#
#
#
# Elastic Constant Matrix: (Units=GPa)
#
#
# Indices 1 2 3 4 5 6 
#
# 1 112.7565 25.4368 58.5621 0.0000 -4.4493 0.0000
# 2 25.4368 61.9922 41.8625 0.0000 1.5674 0.0000
# 3 58.5621 41.8625 155.3875 0.0000 -5.4228 0.0000
# 4 0.0000 0.0000 0.0000 30.3260 0.0000 -2.5712
# 5 -4.4493 1.5674 -5.4228 0.0000 37.9980 0.0000
# 6 0.0000 0.0000 0.0000 -2.5712 0.0000 42.9914
#
#
#
# Elastic Compliance Matrix: (Units=1/GPa)
#
#
# Indices 1 2 3 4 5 6 
#
# 1 0.011285 -0.002203 -0.003629 0.000000 0.000894 0.000000
# 2 -0.002203 0.020243 -0.004685 0.000000 -0.001762 0.000000
# 3 -0.003629 -0.004685 0.009102 0.000000 0.001067 0.000000
# 4 0.000000 0.000000 0.000000 0.033143 0.000000 0.001982
# 5 0.000894 -0.001762 0.001067 0.000000 0.026647 0.000000
# 6 0.000000 0.000000 0.000000 0.001982 0.000000 0.023379
#
#
# Mechanical properties :
#
#
# Convention : Reuss Voigt Hill
#
# Bulk Modulus (GPa) = 51.02490 64.65100 57.83795
# Shear Modulus (GPa) = 33.03260 35.88140 34.45700
#
# Velocity S-wave (km/s) = 4.03735 4.20784 4.12348
# Velocity P-wave (km/s) = 6.84925 7.45053 7.15621
#
# Compressibility (1/GPa) = 0.01959827
#
# Stress axis : x y z
#
# Youngs Moduli (GPa) = 88.60935 49.39938 109.86077
#
# Poissons Ratio (x) = 0.10883 0.39863
# Poissons Ratio (y) = 0.19521 0.51468
# Poissons Ratio (z) = 0.32152 0.23143
#
# Static dielectric constant tensor:
#      x y z
#    x 4.101750 0.000000 -0.501470 
#    y 0.000000 3.634660 0.000000 
#    z -0.501470 0.000000 4.311840 
# 
# 
# High freq. dielectric constant tensor:
#      x y z
#    x 1.798890 0.000000 -0.010180 
#    y 0.000000 1.774150 0.000000 
#    z -0.010180 0.000000 1.793620 
# 
# From -- ./inp_files/186058.got.cif
#   From: 2010.06.25/outbox.cif.g09.slc.cpg/sg15_94_cif.got.tgz:186058.got - 2010.06.28 07:06:18.
