data_PCOD8140853
_publ_section_title
;
Structure prediction by ZEFSAII (Michael W. Deem and Ramdas Pophale) SiO2 
 PCOD8140853
Probable space group: C 2/C
;
_chemical_formula_sum "Si O2"
_cell_formula_units_Z 40
_cell_length_a 11.170182
_cell_length_b 9.431301
_cell_length_c 18.375424
_cell_angle_alpha 90.000000
_cell_angle_beta 57.138145
_cell_angle_gamma 90.000000
_cell_volume 1626.068518
_symmetry_space_group_name_H-M "C 2/C"
_symmetry_group_IT_number 15
_symmetry_cell_setting 'monoclinic'
loop_
_space_group_symop_operation_xyz
x,y,z
-x,y,1/2-z
-x,-y,-z
x,-y,1/2+z
1/2+x,1/2+y,z
1/2-x,1/2+y,1/2-z
1/2-x,1/2-y,-z
1/2+x,1/2-y,1/2+z
loop_
_atom_site_type_symbol
_atom_site_label
_atom_site_fract_x
_atom_site_fract_y
_atom_site_fract_z
Si Si1 0.101638 0.473981 0.899923
Si Si2 0.295048 0.598035 0.460301
Si Si3 0.344832 0.152025 0.417632
Si Si4 0.074042 0.044144 0.299589
Si Si5 0.730132 0.724117 0.711173
O O1 0.247651 0.424737 0.891248
O O2 0.133018 0.622853 0.849229
O O3 0.016419 0.359565 0.877521
O O4 0.000000 0.500000 0.000000
O O5 0.250000 0.750000 0.500000
O O6 0.223287 0.501989 0.546539
O O7 0.466446 0.573290 0.402524
O O8 0.250000 0.250000 0.500000
O O9 0.336253 0.209470 0.339443
O O10 0.217587 0.141729 0.257638
O O11 0.000000 0.088263 0.250000
O O12 0.114647 0.877193 0.288895
#
# Coordination Sequence:
#
# PCOD8140853 Si02
#       5
#     8   8   8   8   8
#     4  10  20  44  71 103 146 180 243 302 356 440
#     4  11  24  46  77 111 149 193 249 315 366 445
#     4  11  22  44  76 108 142 192 248 301 374 440
#     4  12  27  51  71 109 156 192 254 305 380 448
#     4  12  27  48  73 106 147 202 240 313 372 445
#
# _framework density 24.599208999999998
#
# number of rings (size 3 to 8) (size 9 to 14) (size 15 to 20)
#    0.000    0.800    6.000    2.400    0.000    7.200 
#    3.600    0.000    0.000    0.000    0.000    0.000 
#    0.000    0.000    0.000    0.000    0.000    0.000 
#
# Total GULP energy -247880.013080 kJ/mol
# GULP energy per Si atom -12394.000654 kJ/mol
# Density = 2.454322 g / cm^3
# Si number density = 24.599209 Si / 1000 Ang^3
#
#
#
# Elastic Constant Matrix: (Units=GPa)
#
#
# Indices 1 2 3 4 5 6 
#
# 1 126.4470 61.9415 25.5362 0.0000 -3.8190 0.0000
# 2 61.9415 190.5042 39.2945 0.0000 5.8852 0.0000
# 3 25.5362 39.2945 82.1754 0.0000 -23.2185 0.0000
# 4 0.0000 0.0000 0.0000 47.7934 0.0000 -1.9610
# 5 -3.8190 5.8852 -23.2185 0.0000 43.0012 0.0000
# 6 0.0000 0.0000 0.0000 -1.9610 0.0000 51.2571
#
#
#
# Elastic Compliance Matrix: (Units=1/GPa)
#
#
# Indices 1 2 3 4 5 6 
#
# 1 0.009611 -0.002825 -0.001517 0.000000 0.000421 0.000000
# 2 -0.002825 0.006936 -0.003278 0.000000 -0.002970 0.000000
# 3 -0.001517 -0.003278 0.016870 0.000000 0.009423 0.000000
# 4 0.000000 0.000000 0.000000 0.020956 0.000000 0.000802
# 5 0.000421 -0.002970 0.009423 0.000000 0.028787 0.000000
# 6 0.000000 0.000000 0.000000 0.000802 0.000000 0.019540
#
#
# Mechanical properties :
#
#
# Convention : Reuss Voigt Hill
#
# Bulk Modulus (GPa) = 55.01193 72.51902 63.76547
# Shear Modulus (GPa) = 40.32277 46.56730 43.44504
#
# Velocity S-wave (km/s) = 4.05308 4.35563 4.20708
# Velocity P-wave (km/s) = 6.65696 7.40537 7.04112
#
# Compressibility (1/GPa) = 0.01817788
#
# Stress axis : x y z
#
# Youngs Moduli (GPa) = 104.04215 144.18202 59.27630
#
# Poissons Ratio (x) = 0.40736 0.08991
# Poissons Ratio (y) = 0.29395 0.19429
# Poissons Ratio (z) = 0.15781 0.47258
#
# Static dielectric constant tensor:
#      x y z
#    x 4.211550 0.000000 -1.152530 
#    y 0.000000 3.565400 0.000000 
#    z -1.152530 0.000000 3.182360 
# 
# 
# High freq. dielectric constant tensor:
#      x y z
#    x 1.969770 0.000000 -0.024030 
#    y 0.000000 1.984700 0.000000 
#    z -0.024030 0.000000 2.006950 
# 
# From -- ./inp_files/294700.got.cif
#   From: 2010.06.25/outbox.cif.g09.slc.cpg/sg15_148_cif.got.tgz:294700.got - 2010.06.28 07:06:18.
