data_PCOD8140084
_publ_section_title
;
Structure prediction by ZEFSAII (Michael W. Deem and Ramdas Pophale) SiO2 
 PCOD8140084
Probable space group: C 2/C
;
_chemical_formula_sum "Si O2"
_cell_formula_units_Z 56
_cell_length_a 12.169086
_cell_length_b 15.721729
_cell_length_c 29.541814
_cell_angle_alpha 90.000000
_cell_angle_beta 28.931973
_cell_angle_gamma 90.000000
_cell_volume 2734.230472
_symmetry_space_group_name_H-M "C 2/C"
_symmetry_group_IT_number 15
_symmetry_cell_setting 'monoclinic'
loop_
_space_group_symop_operation_xyz
x,y,z
-x,y,1/2-z
-x,-y,-z
x,-y,1/2+z
1/2+x,1/2+y,z
1/2-x,1/2+y,1/2-z
1/2-x,1/2-y,-z
1/2+x,1/2-y,1/2+z
loop_
_atom_site_type_symbol
_atom_site_label
_atom_site_fract_x
_atom_site_fract_y
_atom_site_fract_z
Si Si1 0.122488 0.765682 0.807535
Si Si2 0.747407 0.822004 0.831249
Si Si3 0.740044 0.146199 0.838067
Si Si4 0.383624 0.243389 0.026932
Si Si5 0.299381 0.930357 0.786039
Si Si6 0.412362 0.441713 0.991506
Si Si7 0.073941 0.510412 0.355205
O O1 0.210820 0.754876 0.724469
O O2 0.151950 0.675996 0.820841
O O3 0.275471 0.832722 0.779613
O O4 0.855070 0.790342 0.907264
O O5 0.625263 0.772292 0.915938
O O6 0.000000 0.860181 0.750000
O O7 0.578846 0.895623 0.874854
O O8 0.714492 0.044892 0.841499
O O9 0.000000 0.172555 0.750000
O O10 0.588811 0.187841 0.932362
O O11 0.418969 0.343068 0.004446
O O12 0.500000 0.939619 0.750000
O O13 0.328236 0.988636 0.731178
O O14 0.070611 0.959904 0.891901
O O15 0.174311 0.472338 0.058729
O O16 0.500000 0.500000 0.000000
#
# Coordination Sequence:
#
# PCOD8140084 Si02
#       7
#     8   8   8   8   8   8   8
#     4  10  20  40  66  91 125 171 212 259 320 385
#     4   9  22  42  67  94 132 172 212 268 328 384
#     4  12  24  38  66  96 129 169 226 261 319 390
#     4  11  23  43  66  95 129 174 216 262 326 391
#     4  11  22  40  64  89 127 168 210 265 322 376
#     4  12  24  40  65  94 126 167 214 267 323 383
#     4  11  24  42  63  96 132 170 216 269 324 378
#
# _framework density 20.481081
#
# number of rings (size 3 to 8) (size 9 to 14) (size 15 to 20)
#    0.000    1.143    4.286    2.143    0.000    2.857 
#    2.571    1.429    0.000    0.000    0.000    0.000 
#    0.000    0.000    0.000    0.000    0.000    0.000 
#
# Total GULP energy -347088.325229 kJ/mol
# GULP energy per Si atom -12396.011615 kJ/mol
# Density = 2.043447 g / cm^3
# Si number density = 20.481081 Si / 1000 Ang^3
#
#
#
# Elastic Constant Matrix: (Units=GPa)
#
#
# Indices 1 2 3 4 5 6 
#
# 1 86.8733 19.0645 61.3817 0.0465 16.2895 0.0462
# 2 19.0645 62.1007 47.7105 0.0408 10.8059 0.0329
# 3 61.3817 47.7105 162.5052 -0.0309 14.1521 0.1020
# 4 0.0465 0.0408 -0.0309 27.6088 -0.0026 -1.2199
# 5 16.2895 10.8059 14.1521 -0.0026 28.3805 -0.0596
# 6 0.0462 0.0329 0.1020 -1.2199 -0.0596 33.7919
#
#
#
# Elastic Compliance Matrix: (Units=1/GPa)
#
#
# Indices 1 2 3 4 5 6 
#
# 1 0.016887 0.000595 -0.005948 -0.000037 -0.006953 -0.000019
# 2 0.000595 0.021543 -0.006069 -0.000041 -0.005518 -0.000015
# 3 -0.005948 -0.006069 0.010123 0.000030 0.000677 -0.000014
# 4 -0.000037 -0.000041 0.000030 0.036278 0.000028 0.001310
# 5 -0.006953 -0.005518 0.000677 0.000028 0.040990 0.000086
# 6 -0.000019 -0.000015 -0.000014 0.001310 0.000086 0.029640
#
#
# Mechanical properties :
#
#
# Convention : Reuss Voigt Hill
#
# Bulk Modulus (GPa) = 38.89571 63.08807 50.99189
# Shear Modulus (GPa) = 26.75584 30.17774 28.46679
#
# Velocity S-wave (km/s) = 3.61829 3.84271 3.73219
# Velocity P-wave (km/s) = 6.04056 7.11045 6.59723
#
# Compressibility (1/GPa) = 0.02570977
#
# Stress axis : x y z
#
# Youngs Moduli (GPa) = 59.21847 46.41838 98.78289
#
# Poissons Ratio (x) = -0.02764 0.58753
# Poissons Ratio (y) = -0.03526 0.59954
# Poissons Ratio (z) = 0.35221 0.28173
#
# Static dielectric constant tensor:
#      x y z
#    x 3.866110 0.000150 0.094740 
#    y 0.000150 3.518350 -0.000070 
#    z 0.094740 -0.000070 3.848590 
# 
# 
# High freq. dielectric constant tensor:
#      x y z
#    x 1.810560 0.000000 0.004430 
#    y 0.000000 1.791940 0.000000 
#    z 0.004430 0.000000 1.808820 
# 
# From -- ./inp_files/311304.got.cif
#   From: 2010.06.25/outbox.cif.g09.slc.cpg/sg15_156_cif.got.tgz:311304.got - 2010.06.28 07:06:18.
