data_PCOD8140820
_publ_section_title
;
Structure prediction by ZEFSAII (Michael W. Deem and Ramdas Pophale) SiO2 
 PCOD8140820
Probable space group: C 2/C
;
_chemical_formula_sum "Si O2"
_cell_formula_units_Z 60
_cell_length_a 8.421565
_cell_length_b 28.242666
_cell_length_c 17.503546
_cell_angle_alpha 90.000000
_cell_angle_beta 134.335101
_cell_angle_gamma 90.000000
_cell_volume 2977.771342
_symmetry_space_group_name_H-M "C 2/C"
_symmetry_group_IT_number 15
_symmetry_cell_setting 'monoclinic'
loop_
_space_group_symop_operation_xyz
x,y,z
-x,y,1/2-z
-x,-y,-z
x,-y,1/2+z
1/2+x,1/2+y,z
1/2-x,1/2+y,1/2-z
1/2-x,1/2-y,-z
1/2+x,1/2-y,1/2+z
loop_
_atom_site_type_symbol
_atom_site_label
_atom_site_fract_x
_atom_site_fract_y
_atom_site_fract_z
Si Si1 0.629813 0.139834 0.491888
Si Si2 0.138657 0.154149 0.644666
Si Si3 0.909176 0.480440 0.049377
Si Si4 0.885505 0.893754 0.519217
Si Si5 0.000000 0.731690 0.750000
Si Si6 0.261509 0.413999 0.186453
Si Si7 0.845835 0.432328 0.627931
Si Si8 0.664273 0.321456 0.867642
O O1 0.646071 0.107708 0.572592
O O2 0.556310 0.107091 0.396107
O O3 0.426812 0.176845 0.432662
O O4 0.871740 0.164488 0.557683
O O5 0.206688 0.122118 0.594723
O O6 0.281885 0.201860 0.697831
O O7 0.218670 0.126568 0.745321
O O8 0.793310 0.520862 0.060612
O O9 0.117950 0.458712 0.166328
O O10 0.743735 0.436343 0.983124
O O11 0.000000 0.500000 0.000000
O O12 0.873741 0.846397 0.564841
O O13 0.130910 0.911948 0.594690
O O14 0.916765 0.766398 0.652961
O O15 0.500000 0.436147 0.250000
O O16 0.000000 0.445568 0.750000
O O17 0.500000 0.346458 0.750000
#
# Coordination Sequence:
#
# PCOD8140820 Si02
#       8
#     8   8   8   8   4   8   8   8
#     4  10  20  44  65  89 127 177 204 254 330 379
#     4  10  23  41  67  93 128 161 215 272 323 381
#     4  12  23  38  61  92 126 169 217 255 304 386
#     4  11  23  41  65  87 130 172 199 266 327 365
#     4  10  24  40  66 102 122 158 226 258 332 390
#     4  10  21  39  65  89 127 167 209 258 321 370
#     4  11  24  38  62  93 129 163 219 259 305 373
#     4  10  22  41  67  89 128 163 213 257 323 393
#
# _framework density 20.149297000000001
#
# number of rings (size 3 to 8) (size 9 to 14) (size 15 to 20)
#    0.400    1.067    2.667    2.000    1.867    2.133 
#    0.000    0.667    8.800    0.000    0.000    0.000 
#    0.000    0.000    0.000    0.000    0.000    0.000 
#
# Total GULP energy -371723.210884 kJ/mol
# GULP energy per Si atom -12390.773696 kJ/mol
# Density = 2.010344 g / cm^3
# Si number density = 20.149297 Si / 1000 Ang^3
#
#
#
# Elastic Constant Matrix: (Units=GPa)
#
#
# Indices 1 2 3 4 5 6 
#
# 1 108.1723 55.4591 39.6065 0.0001 3.3258 0.0001
# 2 55.4591 106.0766 23.1260 0.0000 11.1263 0.0000
# 3 39.6065 23.1260 80.4124 0.0003 2.0437 0.0003
# 4 0.0001 0.0000 0.0003 -23.9114 0.0002 -26.8119
# 5 3.3258 11.1263 2.0437 0.0002 34.4813 0.0001
# 6 0.0001 0.0000 0.0003 -26.8119 0.0001 10.1867
#
#
#
# Elastic Compliance Matrix: (Units=1/GPa)
#
#
# Indices 1 2 3 4 5 6 
#
# 1 0.014500 -0.006535 -0.005288 0.000000 0.001024 0.000000
# 2 -0.006535 0.013341 -0.000525 0.000000 -0.003643 0.000000
# 3 -0.005288 -0.000525 0.015197 0.000000 -0.000221 0.000000
# 4 0.000000 0.000000 0.000000 -0.010584 0.000000 -0.027858
# 5 0.001024 -0.003643 -0.000221 0.000000 0.030091 0.000000
# 6 0.000000 0.000000 0.000000 -0.027858 0.000000 0.024844
#
#
# Mechanical properties :
#
#
# Convention : Reuss Voigt Hill
#
# Bulk Modulus (GPa) = 54.52506 59.00494 56.76500
# Shear Modulus (GPa) = 42.30124 15.91598 29.10861
#
# Velocity S-wave (km/s) = 4.58688 2.81357 3.80497
# Velocity P-wave (km/s) = 7.42778 6.31683 6.89472
#
# Compressibility (1/GPa) = 0.01834019
#
# Stress axis : x y z
#
# Youngs Moduli (GPa) = 68.96595 74.95936 65.80131
#
# Poissons Ratio (x) = 0.48988 0.34798
# Poissons Ratio (y) = 0.45071 0.03456
# Poissons Ratio (z) = 0.36471 0.03936
#
# Static dielectric constant tensor:
#      x y z
#    x 4.041500 0.000000 0.200480 
#    y 0.000000 3.548720 0.000000 
#    z 0.200480 0.000000 3.823620 
# 
# 
# High freq. dielectric constant tensor:
#      x y z
#    x 1.799430 0.000000 0.007890 
#    y 0.000000 1.772710 0.000000 
#    z 0.007890 0.000000 1.789510 
# 
# From -- ./inp_files/193731.got.cif
#   From: 2010.06.25/outbox.cif.g09.slc.cpg/sg15_97_cif.got.tgz:193731.got - 2010.06.28 07:06:18.
