data_PCOD8140399
_publ_section_title
;
Structure prediction by ZEFSAII (Michael W. Deem and Ramdas Pophale) SiO2 
 PCOD8140399
Probable space group: C 2/C
;
_chemical_formula_sum "Si O2"
_cell_formula_units_Z 60
_cell_length_a 19.544425
_cell_length_b 19.271141
_cell_length_c 13.206370
_cell_angle_alpha 90.000000
_cell_angle_beta 33.081648
_cell_angle_gamma 90.000000
_cell_volume 2715.026427
_symmetry_space_group_name_H-M "C 2/C"
_symmetry_group_IT_number 15
_symmetry_cell_setting 'monoclinic'
loop_
_space_group_symop_operation_xyz
x,y,z
-x,y,1/2-z
-x,-y,-z
x,-y,1/2+z
1/2+x,1/2+y,z
1/2-x,1/2+y,1/2-z
1/2-x,1/2-y,-z
1/2+x,1/2-y,1/2+z
loop_
_atom_site_type_symbol
_atom_site_label
_atom_site_fract_x
_atom_site_fract_y
_atom_site_fract_z
Si Si1 0.393652 0.366479 0.673187
Si Si2 0.179275 0.110140 0.820647
Si Si3 0.720254 0.070268 0.008725
Si Si4 0.244779 0.038265 0.312739
Si Si5 0.177355 0.415958 0.051550
Si Si6 0.394242 0.216794 0.583923
Si Si7 0.026513 0.387034 0.052030
Si Si8 0.500000 0.172138 0.250000
O O1 0.537313 0.373476 0.525302
O O2 0.350102 0.422233 0.643811
O O3 0.362676 0.291550 0.666596
O O4 0.316804 0.382492 0.873094
O O5 0.184762 0.101141 0.692082
O O6 0.266324 0.173535 0.746687
O O7 0.226943 0.043315 0.821800
O O8 0.790543 0.058462 0.028082
O O9 0.605000 0.122269 0.167226
O O10 0.674419 0.996347 0.020507
O O11 0.391803 0.057238 0.112529
O O12 0.101030 0.370958 0.062949
O O13 0.113115 0.413502 0.241971
O O14 0.504987 0.181872 0.512901
O O15 0.444774 0.221497 0.406057
#
# Coordination Sequence:
#
# PCOD8140399 Si02
#       8
#     8   8   8   8   8   8   8   4
#     4  11  26  46  64  94 148 181 223 276 342 416
#     4  11  25  43  66 102 135 177 229 279 339 412
#     4  11  21  37  68 104 129 170 223 279 344 390
#     4  11  23  42  72  98 134 177 222 286 342 402
#     4  10  22  39  70  96 132 174 224 289 334 389
#     4  11  25  41  71  97 140 182 225 281 342 407
#     4  10  20  41  67 101 128 170 224 278 341 388
#     4  10  22  38  64 110 136 170 224 290 330 408
#
# _framework density 22.099232000000001
#
# number of rings (size 3 to 8) (size 9 to 14) (size 15 to 20)
#    0.000    1.333    4.000    2.000    5.600    3.200 
#    0.000    4.667    0.000    0.000    0.000    0.000 
#    0.000    0.000    0.000    0.000    0.000    0.000 
#
# Total GULP energy -371888.659736 kJ/mol
# GULP energy per Si atom -12396.288658 kJ/mol
# Density = 2.204893 g / cm^3
# Si number density = 22.099232 Si / 1000 Ang^3
#
#
#
# Elastic Constant Matrix: (Units=GPa)
#
#
# Indices 1 2 3 4 5 6 
#
# 1 64.7497 7.2780 21.4651 -0.0005 -2.4661 0.0005
# 2 7.2780 100.0886 34.5670 0.0000 -2.7539 0.0000
# 3 21.4651 34.5670 109.8441 0.0001 -20.0424 0.0003
# 4 -0.0005 0.0000 0.0001 23.5013 0.0003 -4.4238
# 5 -2.4661 -2.7539 -20.0424 0.0003 25.0819 -0.0004
# 6 0.0005 0.0000 0.0003 -4.4238 -0.0004 29.1267
#
#
#
# Elastic Compliance Matrix: (Units=1/GPa)
#
#
# Indices 1 2 3 4 5 6 
#
# 1 0.016541 -0.000053 -0.003418 0.000000 -0.001111 0.000000
# 2 -0.000053 0.011284 -0.003882 0.000000 -0.001868 0.000000
# 3 -0.003418 -0.003882 0.012707 0.000000 0.009392 0.000000
# 4 0.000000 0.000000 0.000000 0.043803 -0.000001 0.006653
# 5 -0.001111 -0.001868 0.009392 -0.000001 0.047060 0.000001
# 6 0.000000 0.000000 0.000000 0.006653 0.000001 0.035343
#
#
# Mechanical properties :
#
#
# Convention : Reuss Voigt Hill
#
# Bulk Modulus (GPa) = 38.71989 44.58918 41.65454
# Shear Modulus (GPa) = 26.30856 29.63347 27.97102
#
# Velocity S-wave (km/s) = 3.45407 3.66584 3.56153
# Velocity P-wave (km/s) = 5.78502 6.17563 5.98351
#
# Compressibility (1/GPa) = 0.02582652
#
# Stress axis : x y z
#
# Youngs Moduli (GPa) = 60.45602 88.62006 78.69732
#
# Poissons Ratio (x) = 0.00467 0.26902
# Poissons Ratio (y) = 0.00319 0.30547
# Poissons Ratio (z) = 0.20667 0.34398
#
# Static dielectric constant tensor:
#      x y z
#    x 3.810820 0.000000 0.115070 
#    y 0.000000 3.755540 0.000000 
#    z 0.115070 0.000000 4.304450 
# 
# 
# High freq. dielectric constant tensor:
#      x y z
#    x 1.864060 0.000000 0.009140 
#    y 0.000000 1.851670 0.000000 
#    z 0.009140 0.000000 1.879060 
# 
# From -- ./inp_files/174076.got.cif
#   From: 2010.06.25/outbox.cif.g09.slc.cpg/sg15_88_cif.got.tgz:174076.got - 2010.06.28 07:06:18.
