data_PCOD8140498
_publ_section_title
;
Structure prediction by ZEFSAII (Michael W. Deem and Ramdas Pophale) SiO2 
 PCOD8140498
Probable space group: C 2/C
;
_chemical_formula_sum "Si O2"
_cell_formula_units_Z 64
_cell_length_a 18.387179
_cell_length_b 9.110751
_cell_length_c 29.397616
_cell_angle_alpha 90.000000
_cell_angle_beta 37.263030
_cell_angle_gamma 90.000000
_cell_volume 2981.793799
_symmetry_space_group_name_H-M "C 2/C"
_symmetry_group_IT_number 15
_symmetry_cell_setting 'monoclinic'
loop_
_space_group_symop_operation_xyz
x,y,z
-x,y,1/2-z
-x,-y,-z
x,-y,1/2+z
1/2+x,1/2+y,z
1/2-x,1/2+y,1/2-z
1/2-x,1/2-y,-z
1/2+x,1/2-y,1/2+z
loop_
_atom_site_type_symbol
_atom_site_label
_atom_site_fract_x
_atom_site_fract_y
_atom_site_fract_z
Si Si1 0.157460 0.407572 0.769181
Si Si2 0.249468 0.669712 0.129064
Si Si3 0.568257 0.179991 0.068685
Si Si4 0.820980 0.875633 0.414830
Si Si5 0.224889 0.170031 0.900745
Si Si6 0.491588 0.824487 0.000582
Si Si7 0.937460 0.824747 0.829413
Si Si8 0.179701 0.262707 0.242526
O O1 0.164653 0.333119 0.715708
O O2 0.200649 0.572248 0.746830
O O3 0.246237 0.334139 0.760026
O O4 0.019769 0.406054 0.853880
O O5 0.178523 0.744193 0.122602
O O6 0.287580 0.504932 0.096283
O O7 0.366053 0.766897 0.083662
O O8 0.612565 0.326467 0.072143
O O9 0.683703 0.081860 0.996571
O O10 0.498904 0.225419 0.057080
O O11 0.890168 0.011861 0.359877
O O12 0.325211 0.211082 0.888820
O O13 0.268696 0.254537 0.833706
O O14 0.096518 0.242987 0.976614
O O15 0.500000 0.000000 0.000000
O O16 0.000000 0.810771 0.750000
O O17 0.039009 0.782828 0.815777
#
# Coordination Sequence:
#
# PCOD8140498 Si02
#       8
#     8   8   8   8   8   8   8   8
#     4  11  24  41  67  93 131 165 220 268 324 382
#     4  10  24  38  65 100 123 174 221 259 326 392
#     4  10  23  41  67  90 133 165 209 275 321 379
#     4  10  23  43  65  95 128 171 215 261 334 385
#     4  10  20  42  61  89 132 169 208 272 321 376
#     4  11  22  41  68  92 129 172 221 265 319 387
#     4  10  23  41  66  94 131 168 221 267 323 388
#     4  10  24  40  63  94 126 168 212 269 326 377
#
# _framework density 21.46359
#
# number of rings (size 3 to 8) (size 9 to 14) (size 15 to 20)
#    0.000    1.750    1.250    1.875    7.000    1.000 
#    0.000    0.625    0.000    0.000    0.000    0.000 
#    0.000    0.000    0.000    0.000    0.000    0.000 
#
# Total GULP energy -396758.428929 kJ/mol
# GULP energy per Si atom -12398.700904 kJ/mol
# Density = 2.141474 g / cm^3
# Si number density = 21.463590 Si / 1000 Ang^3
#
#
#
# Elastic Constant Matrix: (Units=GPa)
#
#
# Indices 1 2 3 4 5 6 
#
# 1 102.1883 44.1858 33.4068 -0.0007 -10.3847 0.0004
# 2 44.1858 104.2396 16.0262 -0.0013 -7.5280 -0.0018
# 3 33.4068 16.0262 67.2434 -0.0001 -5.6201 0.0002
# 4 -0.0007 -0.0013 -0.0001 27.3397 0.0001 -3.5535
# 5 -10.3847 -7.5280 -5.6201 0.0001 26.0397 0.0003
# 6 0.0004 -0.0018 0.0002 -3.5535 0.0003 29.4132
#
#
#
# Elastic Compliance Matrix: (Units=1/GPa)
#
#
# Indices 1 2 3 4 5 6 
#
# 1 0.014009 -0.004870 -0.005550 0.000000 0.002981 0.000000
# 2 -0.004870 0.011802 -0.000276 0.000001 0.001410 0.000001
# 3 -0.005550 -0.000276 0.017824 0.000000 0.001554 0.000000
# 4 0.000000 0.000001 0.000000 0.037160 0.000000 0.004489
# 5 0.002981 0.001410 0.001554 0.000000 0.040335 0.000000
# 6 0.000000 0.000001 0.000000 0.004489 0.000000 0.034541
#
#
# Mechanical properties :
#
#
# Convention : Reuss Voigt Hill
#
# Bulk Modulus (GPa) = 44.95511 51.21210 48.08360
# Shear Modulus (GPa) = 27.10391 28.56203 27.83297
#
# Velocity S-wave (km/s) = 3.55742 3.65186 3.60495
# Velocity P-wave (km/s) = 6.15337 6.45703 6.30703
#
# Compressibility (1/GPa) = 0.02224441
#
# Stress axis : x y z
#
# Youngs Moduli (GPa) = 71.38414 84.73383 56.10380
#
# Poissons Ratio (x) = 0.41262 0.31137
# Poissons Ratio (y) = 0.34761 0.01546
# Poissons Ratio (z) = 0.39617 0.02335
#
# Static dielectric constant tensor:
#      x y z
#    x 4.092130 0.000000 -0.187740 
#    y 0.000000 3.649570 0.000000 
#    z -0.187740 0.000000 4.054310 
# 
# 
# High freq. dielectric constant tensor:
#      x y z
#    x 1.848820 0.000000 -0.014350 
#    y 0.000000 1.833620 0.000000 
#    z -0.014350 0.000000 1.843100 
# 
# From -- ./inp_files/315691.got.cif
#   From: 2010.06.25/outbox.cif.g09.slc.cpg/sg15_158_cif.got.tgz:315691.got - 2010.06.28 07:06:18.
