data_PCOD8140406
_publ_section_title
;
Structure prediction by ZEFSAII (Michael W. Deem and Ramdas Pophale) SiO2 
 PCOD8140406
Probable space group: C 2/C
;
_chemical_formula_sum "Si O2"
_cell_formula_units_Z 52
_cell_length_a 15.808060
_cell_length_b 8.037552
_cell_length_c 18.484904
_cell_angle_alpha 90.000000
_cell_angle_beta 82.464441
_cell_angle_gamma 90.000000
_cell_volume 2328.373068
_symmetry_space_group_name_H-M "C 2/C"
_symmetry_group_IT_number 15
_symmetry_cell_setting 'monoclinic'
loop_
_space_group_symop_operation_xyz
x,y,z
-x,y,1/2-z
-x,-y,-z
x,-y,1/2+z
1/2+x,1/2+y,z
1/2-x,1/2+y,1/2-z
1/2-x,1/2-y,-z
1/2+x,1/2-y,1/2+z
loop_
_atom_site_type_symbol
_atom_site_label
_atom_site_fract_x
_atom_site_fract_y
_atom_site_fract_z
Si Si1 0.460661 0.869783 0.403194
Si Si2 0.917935 0.009847 0.929986
Si Si3 0.668416 0.619831 0.284642
Si Si4 0.773760 0.900263 0.348756
Si Si5 0.875222 0.478033 0.546787
Si Si6 0.500000 0.810267 0.250000
Si Si7 0.395012 0.607070 0.582501
O O1 0.442575 0.673424 0.398858
O O2 0.386844 0.960610 0.458190
O O3 0.464632 0.928807 0.318844
O O4 0.551001 0.902332 0.431062
O O5 0.865239 0.117275 0.877256
O O6 0.867592 0.991237 0.012221
O O7 0.002778 0.116055 0.929520
O O8 0.717677 0.548259 0.210022
O O9 0.578737 0.703807 0.273117
O O10 0.647528 0.473116 0.342880
O O11 0.738279 0.739328 0.312697
O O12 0.713620 0.940174 0.423659
O O13 0.870027 0.298854 0.584573
#
# Coordination Sequence:
#
# PCOD8140406 Si02
#       7
#     8   8   8   8   8   4   8
#     4  10  20  41  67  92 121 179 214 256 320 402
#     4  10  21  40  66  89 130 167 217 260 331 386
#     4  12  24  42  66  90 136 172 220 269 342 387
#     4  12  24  43  60  96 128 173 211 285 330 385
#     4  10  22  40  66  94 129 160 225 269 315 391
#     4  12  20  44  70  86 120 184 212 258 322 414
#     4  10  21  41  63  95 122 172 214 262 315 413
#
# _framework density 22.333189999999998
#
# number of rings (size 3 to 8) (size 9 to 14) (size 15 to 20)
#    0.000    1.231    4.615    0.923    0.000    3.077 
#    5.538    0.769    0.000    0.000    0.000    0.000 
#    0.000    0.000    0.000    0.000    0.000    0.000 
#
# Total GULP energy -322231.830483 kJ/mol
# GULP energy per Si atom -12393.531942 kJ/mol
# Density = 2.228236 g / cm^3
# Si number density = 22.333190 Si / 1000 Ang^3
#
#
#
# Elastic Constant Matrix: (Units=GPa)
#
#
# Indices 1 2 3 4 5 6 
#
# 1 68.5154 26.7583 30.4780 0.0000 10.6380 0.0000
# 2 26.7583 40.6985 23.7821 0.0000 6.2074 0.0000
# 3 30.4780 23.7821 168.6466 0.0000 -12.1838 0.0000
# 4 0.0000 0.0000 0.0000 30.8041 0.0000 -4.3105
# 5 10.6380 6.2074 -12.1838 0.0000 41.6090 0.0000
# 6 0.0000 0.0000 0.0000 -4.3105 0.0000 21.8153
#
#
#
# Elastic Compliance Matrix: (Units=1/GPa)
#
#
# Indices 1 2 3 4 5 6 
#
# 1 0.020907 -0.011657 -0.002447 0.000000 -0.004323 0.000000
# 2 -0.011657 0.034430 -0.002967 0.000000 -0.003025 0.000000
# 3 -0.002447 -0.002967 0.007016 0.000000 0.003123 0.000000
# 4 0.000000 0.000000 0.000000 0.033386 0.000000 0.006597
# 5 -0.004323 -0.003025 0.003123 0.000000 0.026504 0.000000
# 6 0.000000 0.000000 0.000000 0.006597 0.000000 0.047143
#
#
# Mechanical properties :
#
#
# Convention : Reuss Voigt Hill
#
# Bulk Modulus (GPa) = 35.44651 48.87747 42.16199
# Shear Modulus (GPa) = 23.48158 31.96848 27.72503
#
# Velocity S-wave (km/s) = 3.24608 3.78753 3.52721
# Velocity P-wave (km/s) = 5.47316 6.40783 5.95885
#
# Compressibility (1/GPa) = 0.02821152
#
# Stress axis : x y z
#
# Youngs Moduli (GPa) = 47.82980 29.04412 142.53610
#
# Poissons Ratio (x) = 0.33857 0.34877
# Poissons Ratio (y) = 0.55755 0.42293
# Poissons Ratio (z) = 0.11703 0.08618
#
# Static dielectric constant tensor:
#      x y z
#    x 3.921380 0.000000 -0.110880 
#    y 0.000000 3.769370 0.000000 
#    z -0.110880 0.000000 4.592040 
# 
# 
# High freq. dielectric constant tensor:
#      x y z
#    x 1.869100 0.000000 -0.010260 
#    y 0.000000 1.858180 0.000000 
#    z -0.010260 0.000000 1.904430 
# 
# From -- ./inp_files/209102.got.cif
#   From: 2010.06.25/outbox.cif.g09.slc.cpg/sg15_105_cif.got.tgz:209102.got - 2010.06.28 07:06:18.
