data_PCOD8140384
_publ_section_title
;
Structure prediction by ZEFSAII (Michael W. Deem and Ramdas Pophale) SiO2 
 PCOD8140384
Probable space group: C 2/C
;
_chemical_formula_sum "Si O2"
_cell_formula_units_Z 64
_cell_length_a 8.763344
_cell_length_b 19.378672
_cell_length_c 18.991673
_cell_angle_alpha 90.000000
_cell_angle_beta 80.002674
_cell_angle_gamma 90.000000
_cell_volume 3176.231352
_symmetry_space_group_name_H-M "C 2/C"
_symmetry_group_IT_number 15
_symmetry_cell_setting 'monoclinic'
loop_
_space_group_symop_operation_xyz
x,y,z
-x,y,1/2-z
-x,-y,-z
x,-y,1/2+z
1/2+x,1/2+y,z
1/2-x,1/2+y,1/2-z
1/2-x,1/2-y,-z
1/2+x,1/2-y,1/2+z
loop_
_atom_site_type_symbol
_atom_site_label
_atom_site_fract_x
_atom_site_fract_y
_atom_site_fract_z
Si Si1 0.838144 0.800248 0.797729
Si Si2 0.597428 0.544421 0.437247
Si Si3 0.367118 0.923837 0.705187
Si Si4 0.863895 0.355705 0.310043
Si Si5 0.097963 0.824189 0.547914
Si Si6 0.365572 0.473111 0.209722
Si Si7 0.949862 0.559660 0.452163
Si Si8 0.422722 0.830694 0.462402
O O1 0.701679 0.847035 0.776456
O O2 0.802751 0.719271 0.789138
O O3 0.841383 0.818463 0.878551
O O4 0.000000 0.821403 0.750000
O O5 0.500000 0.500000 0.500000
O O6 0.543341 0.623366 0.447729
O O7 0.566729 0.517444 0.360723
O O8 0.779130 0.543364 0.438417
O O9 0.500000 0.935313 0.750000
O O10 0.431285 0.935304 0.621860
O O11 0.237832 0.980638 0.730572
O O12 0.722100 0.408313 0.317786
O O13 0.945522 0.351437 0.379556
O O14 0.000000 0.384112 0.250000
O O15 0.243884 0.850427 0.491257
O O16 0.041348 0.749578 0.525631
O O17 0.500000 0.444731 0.250000
O O18 0.000000 0.500000 0.500000
O O19 0.957077 0.629840 0.496872
#
# Coordination Sequence:
#
# PCOD8140384 Si02
#       8
#     8   8   8   8   8   8   8   8
#     4  10  21  40  67  95 125 167 211 257 320 381
#     4  12  26  42  64  97 129 167 218 267 314 380
#     4  12  24  42  65  95 129 169 216 264 317 387
#     4  10  23  42  66  96 129 167 213 262 315 387
#     4  10  20  41  66  92 129 164 209 258 316 384
#     4  12  26  41  66  93 130 171 211 265 322 376
#     4  12  26  42  65  94 132 170 213 268 321 378
#     4  10  22  41  69  94 123 172 208 257 325 382
#
# _framework density 20.149667000000001
#
# number of rings (size 3 to 8) (size 9 to 14) (size 15 to 20)
#    0.000    1.000    2.500    4.500    3.500    1.000 
#    0.000    0.000    0.000    0.000    0.000    0.000 
#    0.000    0.000    0.000    0.000    0.000    0.000 
#
# Total GULP energy -396901.075274 kJ/mol
# GULP energy per Si atom -12403.158602 kJ/mol
# Density = 2.010381 g / cm^3
# Si number density = 20.149667 Si / 1000 Ang^3
#
#
#
# Elastic Constant Matrix: (Units=GPa)
#
#
# Indices 1 2 3 4 5 6 
#
# 1 72.8629 40.0715 33.1964 0.0000 -6.4750 0.0000
# 2 40.0715 104.3982 24.0888 0.0000 -2.3336 0.0000
# 3 33.1964 24.0888 103.3646 0.0000 -15.4965 0.0000
# 4 0.0000 0.0000 0.0000 273.0201 0.0000 46.0601
# 5 -6.4750 -2.3336 -15.4965 0.0000 37.2954 0.0000
# 6 0.0000 0.0000 0.0000 46.0601 0.0000 40.5535
#
#
#
# Elastic Compliance Matrix: (Units=1/GPa)
#
#
# Indices 1 2 3 4 5 6 
#
# 1 0.019413 -0.006368 -0.004591 0.000000 0.001064 0.000000
# 2 -0.006368 0.012217 -0.000910 0.000000 -0.000719 0.000000
# 3 -0.004591 -0.000910 0.011979 0.000000 0.004123 0.000000
# 4 0.000000 0.000000 0.000000 0.004531 0.000000 -0.005146
# 5 0.001064 -0.000719 0.004123 0.000000 0.028666 0.000000
# 6 0.000000 0.000000 0.000000 -0.005146 0.000000 0.030504
#
#
# Mechanical properties :
#
#
# Convention : Reuss Voigt Hill
#
# Bulk Modulus (GPa) = 50.32437 52.81548 51.56992
# Shear Modulus (GPa) = 36.31846 82.39172 59.35509
#
# Velocity S-wave (km/s) = 4.25012 6.40146 5.43333
# Velocity P-wave (km/s) = 7.00815 8.99481 8.06290
#
# Compressibility (1/GPa) = 0.01987109
#
# Stress axis : x y z
#
# Youngs Moduli (GPa) = 51.51225 81.85405 83.47867
#
# Poissons Ratio (x) = 0.52126 0.38325
# Poissons Ratio (y) = 0.32804 0.07594
# Poissons Ratio (z) = 0.23649 0.07447
#
# Static dielectric constant tensor:
#      x y z
#    x 3.541720 0.000000 -0.134220 
#    y 0.000000 4.093910 0.000000 
#    z -0.134220 0.000000 3.812510 
# 
# 
# High freq. dielectric constant tensor:
#      x y z
#    x 1.772730 0.000000 -0.013440 
#    y 0.000000 1.799630 0.000000 
#    z -0.013440 0.000000 1.804320 
# 
# From -- ./inp_files/192178.got.cif
#   From: 2010.06.25/outbox.cif.g09.slc.cpg/sg15_97_cif.got.tgz:192178.got - 2010.06.28 07:06:18.
