data_PCOD8140054
_publ_section_title
;
Structure prediction by ZEFSAII (Michael W. Deem and Ramdas Pophale) SiO2 
 PCOD8140054
Probable space group: C 2/C
;
_chemical_formula_sum "Si O2"
_cell_formula_units_Z 48
_cell_length_a 22.592905
_cell_length_b 8.455131
_cell_length_c 11.656856
_cell_angle_alpha 90.000000
_cell_angle_beta 71.665759
_cell_angle_gamma 90.000000
_cell_volume 2113.726581
_symmetry_space_group_name_H-M "C 2/C"
_symmetry_group_IT_number 15
_symmetry_cell_setting 'monoclinic'
loop_
_space_group_symop_operation_xyz
x,y,z
-x,y,1/2-z
-x,-y,-z
x,-y,1/2+z
1/2+x,1/2+y,z
1/2-x,1/2+y,1/2-z
1/2-x,1/2-y,-z
1/2+x,1/2-y,1/2+z
loop_
_atom_site_type_symbol
_atom_site_label
_atom_site_fract_x
_atom_site_fract_y
_atom_site_fract_z
Si Si1 0.422015 0.835868 0.066432
Si Si2 0.234229 0.088626 0.134830
Si Si3 0.940757 0.294452 0.538023
Si Si4 0.677537 0.691828 0.777536
Si Si5 0.118961 0.293400 0.160569
Si Si6 0.673310 0.112145 0.060597
O O1 0.409512 0.757061 0.197601
O O2 0.425814 0.024274 0.075291
O O3 0.486627 0.761700 0.978809
O O4 0.365289 0.796658 0.015573
O O5 0.287821 0.203199 0.149105
O O6 0.182063 0.192852 0.103272
O O7 0.204193 0.986839 0.257875
O O8 0.264614 0.969003 0.025779
O O9 0.896112 0.188558 0.646468
O O10 0.928825 0.250272 0.411878
O O11 0.691273 0.758635 0.642900
O O12 0.131277 0.480304 0.147777
#
# Coordination Sequence:
#
# PCOD8140054 Si02
#       6
#     8   8   8   8   8   8
#     4  10  20  40  65  96 120 164 213 262 300 371
#     4  12  25  39  64  93 132 164 208 260 319 385
#     4  10  22  38  67  93 122 164 215 257 309 366
#     4  12  24  41  61  97 123 168 209 260 318 375
#     4  11  21  40  64  91 128 163 207 260 316 372
#     4  11  21  40  63  94 126 163 210 255 314 374
#
# _framework density 22.708707
#
# number of rings (size 3 to 8) (size 9 to 14) (size 15 to 20)
#    0.000    1.000    5.000    3.500    2.333    0.667 
#    0.000    0.833    3.667    0.000    0.000    0.000 
#    0.000    0.000    0.000    0.000    0.000    0.000 
#
# Total GULP energy -297647.569658 kJ/mol
# GULP energy per Si atom -12401.982069 kJ/mol
# Density = 2.265702 g / cm^3
# Si number density = 22.708707 Si / 1000 Ang^3
#
#
#
# Elastic Constant Matrix: (Units=GPa)
#
#
# Indices 1 2 3 4 5 6 
#
# 1 105.9065 23.2468 30.0688 0.0000 -6.1820 0.0000
# 2 23.2468 35.6851 17.3771 0.0000 2.7490 0.0000
# 3 30.0688 17.3771 99.4131 0.0000 0.5559 0.0000
# 4 0.0000 0.0000 0.0000 17.7481 0.0000 -1.3084
# 5 -6.1820 2.7490 0.5559 0.0000 31.3457 0.0000
# 6 0.0000 0.0000 0.0000 -1.3084 0.0000 23.9481
#
#
#
# Elastic Compliance Matrix: (Units=1/GPa)
#
#
# Indices 1 2 3 4 5 6 
#
# 1 0.011773 -0.006728 -0.002402 0.000000 0.002955 0.000000
# 2 -0.006728 0.034687 -0.004004 0.000000 -0.004298 0.000000
# 3 -0.002402 -0.004004 0.011487 0.000000 -0.000326 0.000000
# 4 0.000000 0.000000 0.000000 0.056572 0.000000 0.003091
# 5 0.002955 -0.004298 -0.000326 0.000000 0.032868 0.000000
# 6 0.000000 0.000000 0.000000 0.003091 0.000000 0.041926
#
#
# Mechanical properties :
#
#
# Convention : Reuss Voigt Hill
#
# Bulk Modulus (GPa) = 31.56556 42.48779 37.02667
# Shear Modulus (GPa) = 22.11024 25.96252 24.03638
#
# Velocity S-wave (km/s) = 3.12371 3.38492 3.25694
# Velocity P-wave (km/s) = 5.19042 5.83330 5.52123
#
# Compressibility (1/GPa) = 0.03168010
#
# Stress axis : x y z
#
# Youngs Moduli (GPa) = 84.93749 28.82957 87.05373
#
# Poissons Ratio (x) = 0.19396 0.20906
# Poissons Ratio (y) = 0.57144 0.34858
# Poissons Ratio (z) = 0.20398 0.11544
#
# Static dielectric constant tensor:
#      x y z
#    x 4.255760 0.000000 -0.073320 
#    y 0.000000 3.834120 0.000000 
#    z -0.073320 0.000000 4.012290 
# 
# 
# High freq. dielectric constant tensor:
#      x y z
#    x 1.894820 0.000000 -0.007200 
#    y 0.000000 1.863850 0.000000 
#    z -0.007200 0.000000 1.903100 
# 
# From -- ./inp_files/116468.got.cif
#   From: 2010.06.25/outbox.cif.g09.slc.cpg/sg15_59_cif.got.tgz:116468.got - 2010.06.28 07:06:18.
