data_PCOD8140345
_publ_section_title
;
Structure prediction by ZEFSAII (Michael W. Deem and Ramdas Pophale) SiO2 
 PCOD8140345
Probable space group: C 2/C
;
_chemical_formula_sum "Si O2"
_cell_formula_units_Z 56
_cell_length_a 7.336204
_cell_length_b 26.604084
_cell_length_c 13.339243
_cell_angle_alpha 90.000000
_cell_angle_beta 113.051621
_cell_angle_gamma 90.000000
_cell_volume 2395.580007
_symmetry_space_group_name_H-M "C 2/C"
_symmetry_group_IT_number 15
_symmetry_cell_setting 'monoclinic'
loop_
_space_group_symop_operation_xyz
x,y,z
-x,y,1/2-z
-x,-y,-z
x,-y,1/2+z
1/2+x,1/2+y,z
1/2-x,1/2+y,1/2-z
1/2-x,1/2-y,-z
1/2+x,1/2-y,1/2+z
loop_
_atom_site_type_symbol
_atom_site_label
_atom_site_fract_x
_atom_site_fract_y
_atom_site_fract_z
Si Si1 0.362165 0.940645 0.424047
Si Si2 0.861193 0.101056 0.434941
Si Si3 0.037206 0.818371 0.101645
Si Si4 0.303760 0.840868 0.323204
Si Si5 0.778553 0.138509 0.210736
Si Si6 0.290251 0.456964 0.580403
Si Si7 0.587273 0.218549 0.024663
O O1 0.299582 0.915416 0.517483
O O2 0.349048 0.900372 0.331478
O O3 0.592398 0.957258 0.469419
O O4 0.210892 0.987044 0.371081
O O5 0.732508 0.127858 0.318532
O O6 0.020050 0.143364 0.505008
O O7 0.001621 0.054112 0.432037
O O8 0.259052 0.821809 0.199619
O O9 0.969390 0.762118 0.057420
O O10 0.890796 0.836318 0.153887
O O11 0.475356 0.809254 0.411998
O O12 0.762605 0.083698 0.160065
O O13 0.644606 0.178837 0.123738
O O14 0.000000 0.159948 0.250000
O O15 0.750000 0.250000 0.000000
#
# Coordination Sequence:
#
# PCOD8140345 Si02
#       7
#     8   8   8   8   8   8   8
#     4  10  21  41  68  90 133 169 213 270 322 385
#     4  10  22  43  64  97 131 167 220 265 325 392
#     4  10  24  42  65  91 126 170 216 261 324 384
#     4  10  23  46  61  93 127 167 216 265 318 384
#     4  10  22  40  63  96 131 166 214 270 318 391
#     4  10  20  41  64  96 129 170 215 262 324 383
#     4  12  24  40  68  92 128 169 213 267 327 382
#
# _framework density 23.376383000000001
#
# number of rings (size 3 to 8) (size 9 to 14) (size 15 to 20)
#    0.000    1.714    1.429    2.571    4.000    0.571 
#   20.571    0.000    0.000    0.000    0.000    0.000 
#    0.000    0.000    0.000    0.000    0.000    0.000 
#
# Total GULP energy -346876.679052 kJ/mol
# GULP energy per Si atom -12388.452823 kJ/mol
# Density = 2.332318 g / cm^3
# Si number density = 23.376383 Si / 1000 Ang^3
#
#
#
# Elastic Constant Matrix: (Units=GPa)
#
#
# Indices 1 2 3 4 5 6 
#
# 1 26.0316 -0.7103 8.8183 0.0000 13.1501 0.0000
# 2 -0.7103 140.1470 40.2004 0.0000 10.8223 0.0000
# 3 8.8183 40.2004 98.8478 0.0000 11.7914 0.0000
# 4 0.0000 0.0000 0.0000 59.9719 0.0000 11.2608
# 5 13.1501 10.8223 11.7914 0.0000 27.9297 0.0000
# 6 0.0000 0.0000 0.0000 11.2608 0.0000 25.2956
#
#
#
# Elastic Compliance Matrix: (Units=1/GPa)
#
#
# Indices 1 2 3 4 5 6 
#
# 1 0.051757 0.002979 -0.002932 0.000000 -0.024285 0.000000
# 2 0.002979 0.008339 -0.003269 0.000000 -0.003254 0.000000
# 3 -0.002932 -0.003269 0.011996 0.000000 -0.002417 0.000000
# 4 0.000000 0.000000 0.000000 0.018195 0.000000 -0.008100
# 5 -0.024285 -0.003254 -0.002417 0.000000 0.049520 0.000000
# 6 0.000000 0.000000 0.000000 -0.008100 0.000000 0.043138
#
#
# Mechanical properties :
#
#
# Convention : Reuss Voigt Hill
#
# Bulk Modulus (GPa) = 15.23278 40.18259 27.70768
# Shear Modulus (GPa) = 23.66603 37.08729 30.37666
#
# Velocity S-wave (km/s) = 3.18526 3.98745 3.60871
# Velocity P-wave (km/s) = 4.47865 6.19890 5.40762
#
# Compressibility (1/GPa) = 0.06564790
#
# Stress axis : x y z
#
# Youngs Moduli (GPa) = 19.32104 119.91193 83.36098
#
# Poissons Ratio (x) = -0.35717 0.24439
# Poissons Ratio (y) = -0.05755 0.27252
# Poissons Ratio (z) = 0.05664 0.39201
#
# Static dielectric constant tensor:
#      x y z
#    x 4.093630 0.000000 0.404080 
#    y 0.000000 11.292960 0.000000 
#    z 0.404080 0.000000 4.629410 
# 
# 
# High freq. dielectric constant tensor:
#      x y z
#    x 1.915350 0.000000 0.007260 
#    y 0.000000 1.935430 0.000000 
#    z 0.007260 0.000000 1.923120 
# 
# From -- ./inp_files/137917.got.cif
#   From: 2010.06.25/outbox.cif.g09.slc.cpg/sg15_69_cif.got.tgz:137917.got - 2010.06.28 07:06:18.
