data_PCOD8140328
_publ_section_title
;
Structure prediction by ZEFSAII (Michael W. Deem and Ramdas Pophale) SiO2 
 PCOD8140328
Probable space group: C 2/C
;
_chemical_formula_sum "Si O2"
_cell_formula_units_Z 56
_cell_length_a 20.786330
_cell_length_b 25.734681
_cell_length_c 10.103081
_cell_angle_alpha 90.000000
_cell_angle_beta 150.266925
_cell_angle_gamma 90.000000
_cell_volume 2680.384573
_symmetry_space_group_name_H-M "C 2/C"
_symmetry_group_IT_number 15
_symmetry_cell_setting 'monoclinic'
loop_
_space_group_symop_operation_xyz
x,y,z
-x,y,1/2-z
-x,-y,-z
x,-y,1/2+z
1/2+x,1/2+y,z
1/2-x,1/2+y,1/2-z
1/2-x,1/2-y,-z
1/2+x,1/2-y,1/2+z
loop_
_atom_site_type_symbol
_atom_site_label
_atom_site_fract_x
_atom_site_fract_y
_atom_site_fract_z
Si Si1 0.000000 0.854894 0.250000
Si Si2 0.367620 0.807880 0.807828
Si Si3 0.632739 0.031062 0.225496
Si Si4 0.010233 0.382933 0.910124
Si Si5 0.000000 0.121498 0.250000
Si Si6 0.389875 0.689889 0.813544
Si Si7 0.234913 0.607215 0.204075
Si Si8 0.262416 0.429484 0.463811
O O1 0.984062 0.819507 0.354497
O O2 0.120585 0.893823 0.478187
O O3 0.499119 0.836298 0.995078
O O4 0.402426 0.748256 0.891608
O O5 0.257978 0.817789 0.498684
O O6 0.325435 0.835970 0.869232
O O7 0.614586 0.078130 0.296706
O O8 0.654111 0.058798 0.120723
O O9 0.752262 0.992027 0.470414
O O10 0.500000 0.000000 0.000000
O O11 0.000000 0.356650 0.750000
O O12 0.145479 0.413085 0.159883
O O13 0.072044 0.154759 0.492397
O O14 0.101660 0.083798 0.359913
O O15 0.241125 0.602342 0.059165
#
# Coordination Sequence:
#
# PCOD8140328 Si02
#       8
#     4   8   8   8   4   8   8   8
#     4  10  20  41  64  88 128 176 209 254 322 394
#     4   9  21  40  65  91 123 169 211 260 320 386
#     4   9  22  38  62  90 120 161 207 262 314 378
#     4  10  21  38  62  93 122 159 209 263 314 385
#     4  12  24  43  60  98 132 166 215 274 316 386
#     4  10  21  40  65  91 130 167 213 264 319 380
#     4  10  21  42  63  90 124 168 214 263 325 386
#     4  11  24  40  63  89 129 168 207 273 320 376
#
# _framework density 20.892526
#
# number of rings (size 3 to 8) (size 9 to 14) (size 15 to 20)
#    0.000    2.000    1.429    0.857    5.000    6.286 
#    2.571    2.857    0.000    0.000    0.000    0.000 
#    0.000    0.000    0.000    0.000    0.000    0.000 
#
# Total GULP energy -346945.719006 kJ/mol
# GULP energy per Si atom -12390.918536 kJ/mol
# Density = 2.084497 g / cm^3
# Si number density = 20.892526 Si / 1000 Ang^3
#
#
#
# Elastic Constant Matrix: (Units=GPa)
#
#
# Indices 1 2 3 4 5 6 
#
# 1 142.0411 51.9430 33.7411 0.0000 -0.4861 0.0000
# 2 51.9430 122.7056 24.4115 0.0000 9.2717 0.0000
# 3 33.7411 24.4115 49.0219 0.0000 1.8503 0.0000
# 4 0.0000 0.0000 0.0000 25.7318 0.0000 3.1111
# 5 -0.4861 9.2717 1.8503 0.0000 36.0684 0.0000
# 6 0.0000 0.0000 0.0000 3.1111 0.0000 20.7712
#
#
#
# Elastic Compliance Matrix: (Units=1/GPa)
#
#
# Indices 1 2 3 4 5 6 
#
# 1 0.009337 -0.003056 -0.004949 0.000000 0.001165 0.000000
# 2 -0.003056 0.010207 -0.002884 0.000000 -0.002517 0.000000
# 3 -0.004949 -0.002884 0.025265 0.000000 -0.000621 0.000000
# 4 0.000000 0.000000 0.000000 0.039579 0.000000 -0.005928
# 5 0.001165 -0.002517 -0.000621 0.000000 0.028420 0.000000
# 6 0.000000 0.000000 0.000000 -0.005928 0.000000 0.049032
#
#
# Mechanical properties :
#
#
# Convention : Reuss Voigt Hill
#
# Bulk Modulus (GPa) = 43.42004 59.32887 51.37446
# Shear Modulus (GPa) = 26.13747 30.09247 28.11497
#
# Velocity S-wave (km/s) = 3.54085 3.79931 3.67235
# Velocity P-wave (km/s) = 6.12736 6.90689 6.52877
#
# Compressibility (1/GPa) = 0.02303084
#
# Stress axis : x y z
#
# Youngs Moduli (GPa) = 107.09620 97.96873 39.58024
#
# Poissons Ratio (x) = 0.29941 0.19588
# Poissons Ratio (y) = 0.32730 0.11417
# Poissons Ratio (z) = 0.53001 0.28259
#
# Static dielectric constant tensor:
#      x y z
#    x 3.946350 0.000000 0.167200 
#    y 0.000000 4.013100 0.000000 
#    z 0.167200 0.000000 3.600390 
# 
# 
# High freq. dielectric constant tensor:
#      x y z
#    x 1.831740 0.000000 0.006160 
#    y 0.000000 1.816340 0.000000 
#    z 0.006160 0.000000 1.793620 
# 
# From -- ./inp_files/52396.got.cif
#   From: 2010.06.25/outbox.cif.g09.slc.cpg/sg15_27_cif.got.tgz:52396.got - 2010.06.28 07:06:18.
