data_PCOD8140790
_publ_section_title
;
Structure prediction by ZEFSAII (Michael W. Deem and Ramdas Pophale) SiO2 
 PCOD8140790
Probable space group: C 2/C
;
_chemical_formula_sum "Si O2"
_cell_formula_units_Z 56
_cell_length_a 29.944012
_cell_length_b 7.522663
_cell_length_c 20.055952
_cell_angle_alpha 90.000000
_cell_angle_beta 32.586430
_cell_angle_gamma 90.000000
_cell_volume 2433.145256
_symmetry_space_group_name_H-M "C 2/C"
_symmetry_group_IT_number 15
_symmetry_cell_setting 'monoclinic'
loop_
_space_group_symop_operation_xyz
x,y,z
-x,y,1/2-z
-x,-y,-z
x,-y,1/2+z
1/2+x,1/2+y,z
1/2-x,1/2+y,1/2-z
1/2-x,1/2-y,-z
1/2+x,1/2-y,1/2+z
loop_
_atom_site_type_symbol
_atom_site_label
_atom_site_fract_x
_atom_site_fract_y
_atom_site_fract_z
Si Si1 0.901872 0.699216 0.380612
Si Si2 0.345073 0.827065 0.679038
Si Si3 0.589723 0.552089 0.995878
Si Si4 0.546862 0.268126 0.757954
Si Si5 0.839413 0.326169 0.095570
Si Si6 0.679773 0.422164 0.506587
Si Si7 0.137262 0.527621 0.204140
O O1 0.871560 0.590390 0.484556
O O2 0.854472 0.637737 0.374224
O O3 0.000000 0.690013 0.250000
O O4 0.871003 0.895358 0.433417
O O5 0.408518 0.682064 0.569836
O O6 0.253794 0.744169 0.794333
O O7 0.378337 0.848814 0.712607
O O8 0.346867 0.019687 0.641041
O O9 0.604068 0.346853 0.956544
O O10 0.500370 0.570487 0.145881
O O11 0.659731 0.643832 0.956506
O O12 0.500000 0.201641 0.750000
O O13 0.640285 0.314654 0.617437
O O14 0.559546 0.106815 0.793935
O O15 0.776986 0.424475 0.393236
#
# Coordination Sequence:
#
# PCOD8140790 Si02
#       7
#     8   8   8   8   8   8   8
#     4  11  24  43  70 100 136 183 229 280 350 404
#     4  12  24  43  70  99 138 180 231 282 341 417
#     4  10  22  45  69  96 133 183 228 276 346 416
#     4  10  23  42  66  95 135 177 221 285 353 405
#     4  11  23  45  74  96 135 189 230 275 348 420
#     4  10  20  43  70  94 131 176 234 282 332 410
#     4  12  24  41  64 109 133 171 236 288 338 402
#
# _framework density 23.015478000000002
#
# number of rings (size 3 to 8) (size 9 to 14) (size 15 to 20)
#    0.000    1.143    4.286    3.429    6.000    0.571 
#    5.143    0.714    0.000    0.000    0.000    0.000 
#    0.000    0.000    0.000    0.000    0.000    0.000 
#
# Total GULP energy -347038.848924 kJ/mol
# GULP energy per Si atom -12394.244604 kJ/mol
# Density = 2.296309 g / cm^3
# Si number density = 23.015478 Si / 1000 Ang^3
#
#
#
# Elastic Constant Matrix: (Units=GPa)
#
#
# Indices 1 2 3 4 5 6 
#
# 1 93.2901 16.2392 32.4706 0.0149 20.1952 -0.0274
# 2 16.2392 55.1729 9.9724 0.0229 13.2494 -0.0437
# 3 32.4706 9.9724 91.4617 0.0298 14.1229 -0.0318
# 4 0.0149 0.0229 0.0298 20.0253 -0.0067 2.9136
# 5 20.1952 13.2494 14.1229 -0.0067 31.7023 -0.0003
# 6 -0.0274 -0.0437 -0.0318 2.9136 -0.0003 31.1504
#
#
#
# Elastic Compliance Matrix: (Units=1/GPa)
#
#
# Indices 1 2 3 4 5 6 
#
# 1 0.013689 -0.001849 -0.003684 -0.000006 -0.006306 0.000006
# 2 -0.001849 0.020476 -0.000469 -0.000028 -0.007171 0.000029
# 3 -0.003684 -0.000469 0.012779 -0.000018 -0.003150 0.000011
# 4 -0.000006 -0.000028 -0.000018 0.050626 0.000034 -0.004735
# 5 -0.006306 -0.007171 -0.003150 0.000034 0.039961 -0.000022
# 6 0.000006 0.000029 0.000011 -0.004735 -0.000022 0.032545
#
#
# Mechanical properties :
#
#
# Convention : Reuss Voigt Hill
#
# Bulk Modulus (GPa) = 28.62090 39.69878 34.15984
# Shear Modulus (GPa) = 25.80966 28.65842 27.23404
#
# Velocity S-wave (km/s) = 3.35237 3.53254 3.44363
# Velocity P-wave (km/s) = 5.23899 5.82448 5.53948
#
# Compressibility (1/GPa) = 0.03493951
#
# Stress axis : x y z
#
# Youngs Moduli (GPa) = 73.05372 48.83805 78.25290
#
# Poissons Ratio (x) = 0.09029 0.28831
# Poissons Ratio (y) = 0.13505 0.03669
# Poissons Ratio (z) = 0.26916 0.02290
#
# Static dielectric constant tensor:
#      x y z
#    x 4.373430 0.000000 0.484980 
#    y 0.000000 4.063200 0.000070 
#    z 0.484980 0.000070 4.444360 
# 
# 
# High freq. dielectric constant tensor:
#      x y z
#    x 1.900720 0.000000 0.013870 
#    y 0.000000 1.901470 0.000010 
#    z 0.013870 0.000010 1.920730 
# 
# From -- ./inp_files/258962.got.cif
#   From: 2010.06.25/outbox.cif.g09.slc.cpg/sg15_130_cif.got.tgz:258962.got - 2010.06.28 07:06:18.
