data_PCOD8140302
_publ_section_title
;
Structure prediction by ZEFSAII (Michael W. Deem and Ramdas Pophale) SiO2 
 PCOD8140302
Probable space group: C 2/C
;
_chemical_formula_sum "Si O2"
_cell_formula_units_Z 52
_cell_length_a 12.915556
_cell_length_b 24.435342
_cell_length_c 9.672611
_cell_angle_alpha 90.000000
_cell_angle_beta 59.589769
_cell_angle_gamma 90.000000
_cell_volume 2632.665790
_symmetry_space_group_name_H-M "C 2/C"
_symmetry_group_IT_number 15
_symmetry_cell_setting 'monoclinic'
loop_
_space_group_symop_operation_xyz
x,y,z
-x,y,1/2-z
-x,-y,-z
x,-y,1/2+z
1/2+x,1/2+y,z
1/2-x,1/2+y,1/2-z
1/2-x,1/2-y,-z
1/2+x,1/2-y,1/2+z
loop_
_atom_site_type_symbol
_atom_site_label
_atom_site_fract_x
_atom_site_fract_y
_atom_site_fract_z
Si Si1 0.939824 0.125315 0.934266
Si Si2 0.596432 0.699572 0.294234
Si Si3 0.797836 0.630811 0.038451
Si Si4 0.585440 0.567475 0.061240
Si Si5 0.000000 0.304101 0.250000
Si Si6 0.233761 0.033166 0.486543
Si Si7 0.369484 0.020935 0.127575
O O1 0.810784 0.096034 0.994743
O O2 0.000000 0.142322 0.750000
O O3 0.927742 0.180350 0.032952
O O4 0.021760 0.082949 0.962276
O O5 0.500000 0.673123 0.250000
O O6 0.581239 0.765501 0.296585
O O7 0.729811 0.679594 0.165429
O O8 0.912705 0.656830 0.890935
O O9 0.707331 0.603156 0.991153
O O10 0.848114 0.584189 0.105071
O O11 0.500000 0.577515 0.250000
O O12 0.618708 0.503842 0.027601
O O13 0.343595 0.018301 0.308715
O O14 0.276301 0.019053 0.612454
O O15 0.500000 0.000000 0.000000
#
# Coordination Sequence:
#
# PCOD8140302 Si02
#       7
#     8   8   8   8   4   8   8
#     4  12  20  34  57  92 125 160 194 250 326 362
#     4  10  20  41  63  90 118 150 207 274 304 350
#     4  11  20  40  66  92 119 158 205 263 308 351
#     4  11  19  36  60  89 124 159 207 254 293 364
#     4  10  24  36  72  96 106 156 224 266 302 358
#     4  11  22  36  56  88 125 168 205 250 293 368
#     4  11  24  38  59  88 133 169 206 241 302 381
#
# _framework density 19.751843999999998
#
# number of rings (size 3 to 8) (size 9 to 14) (size 15 to 20)
#    0.462    0.615    4.615    3.692    4.308    0.000 
#    0.000    0.000    0.000    5.538    0.000    0.000 
#    0.000    0.000    0.000    0.000    0.000    0.000 
#
# Total GULP energy -322297.157948 kJ/mol
# GULP energy per Si atom -12396.044536 kJ/mol
# Density = 1.970689 g / cm^3
# Si number density = 19.751844 Si / 1000 Ang^3
#
#
#
# Elastic Constant Matrix: (Units=GPa)
#
#
# Indices 1 2 3 4 5 6 
#
# 1 45.2040 16.1540 23.2023 0.0000 -10.9477 0.0000
# 2 16.1540 66.3407 14.3037 0.0000 -4.3161 0.0000
# 3 23.2023 14.3037 124.6439 0.0000 -3.8485 0.0000
# 4 0.0000 0.0000 0.0000 18.2674 0.0000 -15.8193
# 5 -10.9477 -4.3161 -3.8485 0.0000 35.0150 0.0000
# 6 0.0000 0.0000 0.0000 -15.8193 0.0000 22.3390
#
#
#
# Elastic Compliance Matrix: (Units=1/GPa)
#
#
# Indices 1 2 3 4 5 6 
#
# 1 0.028161 -0.005414 -0.004385 0.000000 0.007656 0.000000
# 2 -0.005414 0.016600 -0.000889 0.000000 0.000256 0.000000
# 3 -0.004385 -0.000889 0.008926 0.000000 -0.000499 0.000000
# 4 0.000000 0.000000 0.000000 0.141544 0.000000 0.100235
# 5 0.007656 0.000256 -0.000499 0.000000 0.030929 0.000000
# 6 0.000000 0.000000 0.000000 0.100235 0.000000 0.115746
#
#
# Mechanical properties :
#
#
# Convention : Reuss Voigt Hill
#
# Bulk Modulus (GPa) = 30.94840 38.16762 34.55801
# Shear Modulus (GPa) = 13.36709 27.29285 20.32997
#
# Velocity S-wave (km/s) = 2.60427 3.72127 3.21170
# Velocity P-wave (km/s) = 4.97449 6.15056 5.59352
#
# Compressibility (1/GPa) = 0.03231185
#
# Stress axis : x y z
#
# Youngs Moduli (GPa) = 35.50985 60.23959 112.03652
#
# Poissons Ratio (x) = 0.32613 0.49123
# Poissons Ratio (y) = 0.19225 0.09964
# Poissons Ratio (z) = 0.15569 0.05357
#
# Static dielectric constant tensor:
#      x y z
#    x 3.434320 0.000000 -0.114040 
#    y 0.000000 3.462050 0.000000 
#    z -0.114040 0.000000 3.408640 
# 
# 
# High freq. dielectric constant tensor:
#      x y z
#    x 1.753490 0.000000 -0.011050 
#    y 0.000000 1.759570 0.000000 
#    z -0.011050 0.000000 1.772960 
# 
# From -- ./inp_files/35106.got.cif
#   From: 2010.06.25/outbox.cif.g09.slc.cpg/sg15_18_cif.got.tgz:35106.got - 2010.06.28 07:06:18.
