data_PCOD8140346
_publ_section_title
;
Structure prediction by ZEFSAII (Michael W. Deem and Ramdas Pophale) SiO2 
 PCOD8140346
Probable space group: C 2/C
;
_chemical_formula_sum "Si O2"
_cell_formula_units_Z 56
_cell_length_a 9.742823
_cell_length_b 23.150708
_cell_length_c 16.598487
_cell_angle_alpha 90.000000
_cell_angle_beta 127.854504
_cell_angle_gamma 90.000000
_cell_volume 2956.031912
_symmetry_space_group_name_H-M "C 2/C"
_symmetry_group_IT_number 15
_symmetry_cell_setting 'monoclinic'
loop_
_space_group_symop_operation_xyz
x,y,z
-x,y,1/2-z
-x,-y,-z
x,-y,1/2+z
1/2+x,1/2+y,z
1/2-x,1/2+y,1/2-z
1/2-x,1/2-y,-z
1/2+x,1/2-y,1/2+z
loop_
_atom_site_type_symbol
_atom_site_label
_atom_site_fract_x
_atom_site_fract_y
_atom_site_fract_z
Si Si1 0.800062 0.036392 0.186881
Si Si2 0.200689 0.387893 0.797860
Si Si3 0.034150 0.799707 0.669209
Si Si4 0.444937 0.169746 0.822347
Si Si5 0.752451 0.388108 0.983628
Si Si6 0.494439 0.565992 0.514260
Si Si7 0.869469 0.089971 0.765587
O O1 0.710488 0.062380 0.234013
O O2 0.718041 0.063710 0.076007
O O3 0.000000 0.056032 0.250000
O O4 0.783038 0.967232 0.192375
O O5 0.284798 0.330784 0.788783
O O6 0.000000 0.377159 0.750000
O O7 0.315278 0.405529 0.917133
O O8 0.052126 0.734822 0.641864
O O9 0.000000 0.796300 0.750000
O O10 0.864764 0.832489 0.577153
O O11 0.500000 0.167376 0.750000
O O12 0.257731 0.141023 0.757231
O O13 0.557708 0.132231 0.924147
O O14 0.667168 0.413322 0.032475
O O15 0.500000 0.500000 0.500000
O O16 0.512273 0.574201 0.615478
O O17 0.000000 0.118818 0.750000
#
# Coordination Sequence:
#
# PCOD8140346 Si02
#       7
#     8   8   8   8   8   8   8
#     4  11  19  39  63  88 119 168 204 249 306 371
#     4  11  22  36  63  96 124 158 210 255 311 366
#     4  10  20  41  65  86 124 164 206 264 308 360
#     4  11  24  39  62  92 122 164 215 261 298 369
#     4  11  20  38  68  90 115 162 221 250 302 367
#     4  11  20  38  62  87 128 165 192 255 316 367
#     4  11  24  40  59  89 131 167 198 247 331 369
#
# _framework density 18.944315
#
# number of rings (size 3 to 8) (size 9 to 14) (size 15 to 20)
#    0.000    1.143    7.143    1.286    0.000    4.000 
#    0.000    0.000    0.000    3.429    0.000    0.000 
#    0.000    0.000    0.000    0.000    0.000    0.000 
#
# Total GULP energy -346999.489643 kJ/mol
# GULP energy per Si atom -12392.838916 kJ/mol
# Density = 1.890120 g / cm^3
# Si number density = 18.944315 Si / 1000 Ang^3
#
#
#
# Elastic Constant Matrix: (Units=GPa)
#
#
# Indices 1 2 3 4 5 6 
#
# 1 104.1846 31.2774 30.8999 0.0000 -0.7749 0.0000
# 2 31.2774 99.7257 37.8031 0.0000 -1.8127 0.0000
# 3 30.8999 37.8031 63.1890 0.0000 -5.7136 0.0000
# 4 0.0000 0.0000 0.0000 45.0091 0.0000 25.0666
# 5 -0.7749 -1.8127 -5.7136 0.0000 29.4377 0.0000
# 6 0.0000 0.0000 0.0000 25.0666 0.0000 69.6136
#
#
#
# Elastic Compliance Matrix: (Units=1/GPa)
#
#
# Indices 1 2 3 4 5 6 
#
# 1 0.011515 -0.001896 -0.004560 0.000000 -0.000699 0.000000
# 2 -0.001896 0.013296 -0.007082 0.000000 -0.000606 0.000000
# 3 -0.004560 -0.007082 0.022639 0.000000 0.003838 0.000000
# 4 0.000000 0.000000 0.000000 0.027791 0.000000 -0.010007
# 5 -0.000699 -0.000606 0.003838 0.000000 0.034659 0.000000
# 6 0.000000 0.000000 0.000000 -0.010007 0.000000 0.017968
#
#
# Mechanical properties :
#
#
# Convention : Reuss Voigt Hill
#
# Bulk Modulus (GPa) = 49.08077 51.89557 50.48817
# Shear Modulus (GPa) = 30.91495 39.95336 35.43416
#
# Velocity S-wave (km/s) = 4.04404 4.59736 4.32955
# Velocity P-wave (km/s) = 6.91157 7.45883 7.19041
#
# Compressibility (1/GPa) = 0.02037458
#
# Stress axis : x y z
#
# Youngs Moduli (GPa) = 86.84603 75.21299 44.17121
#
# Poissons Ratio (x) = 0.14257 0.20142
# Poissons Ratio (y) = 0.16462 0.31282
# Poissons Ratio (z) = 0.39601 0.53265
#
# Static dielectric constant tensor:
#      x y z
#    x 3.599300 0.000000 0.062980 
#    y 0.000000 3.611100 0.000000 
#    z 0.062980 0.000000 3.573680 
# 
# 
# High freq. dielectric constant tensor:
#      x y z
#    x 1.728790 0.000000 -0.011450 
#    y 0.000000 1.739880 0.000000 
#    z -0.011450 0.000000 1.738540 
# 
# From -- ./inp_files/137984.got.cif
#   From: 2010.06.25/outbox.cif.g09.slc.cpg/sg15_69_cif.got.tgz:137984.got - 2010.06.28 07:06:18.
