data_PCOD8140317
_publ_section_title
;
Structure prediction by ZEFSAII (Michael W. Deem and Ramdas Pophale) SiO2 
 PCOD8140317
Probable space group: C 2/C
;
_chemical_formula_sum "Si O2"
_cell_formula_units_Z 28
_cell_length_a 9.525239
_cell_length_b 11.543918
_cell_length_c 12.213305
_cell_angle_alpha 90.000000
_cell_angle_beta 102.306095
_cell_angle_gamma 90.000000
_cell_volume 1312.100387
_symmetry_space_group_name_H-M "C 2/C"
_symmetry_group_IT_number 15
_symmetry_cell_setting 'monoclinic'
loop_
_space_group_symop_operation_xyz
x,y,z
-x,y,1/2-z
-x,-y,-z
x,-y,1/2+z
1/2+x,1/2+y,z
1/2-x,1/2+y,1/2-z
1/2-x,1/2-y,-z
1/2+x,1/2-y,1/2+z
loop_
_atom_site_type_symbol
_atom_site_label
_atom_site_fract_x
_atom_site_fract_y
_atom_site_fract_z
Si Si1 0.844762 0.093748 0.208170
Si Si2 0.000000 0.313558 0.250000
Si Si3 0.823424 0.399451 0.414262
Si Si4 0.639603 0.175305 0.347054
O O1 0.874393 0.228710 0.179432
O O2 0.758564 0.094369 0.308774
O O3 0.000000 0.031296 0.250000
O O4 0.754032 0.024622 0.102487
O O5 0.941859 0.393984 0.337558
O O6 0.701861 0.302547 0.379001
O O7 0.901058 0.385372 0.544270
O O8 0.500000 0.187303 0.250000
#
# Coordination Sequence:
#
# PCOD8140317 Si02
#       4
#     8   4   8   8
#     4   9  20  39  59  89 124 154 203 245 300 362
#     4   8  20  40  58  96 118 152 208 242 298 366
#     4  10  20  41  64  83 129 159 196 259 299 353
#     4  10  22  39  60  92 119 158 211 244 301 367
#
# _framework density 21.339831
#
# number of rings (size 3 to 8) (size 9 to 14) (size 15 to 20)
#    0.857    1.714    0.000    0.857    2.000    2.286 
#    5.143    2.857    0.000    0.000    0.000    0.000 
#    0.000    0.000    0.000    0.000    0.000    0.000 
#
# Total GULP energy -173488.040998 kJ/mol
# GULP energy per Si atom -12392.002928 kJ/mol
# Density = 2.129126 g / cm^3
# Si number density = 21.339831 Si / 1000 Ang^3
#
#
#
# Elastic Constant Matrix: (Units=GPa)
#
#
# Indices 1 2 3 4 5 6 
#
# 1 116.7707 11.1898 54.4102 0.0000 -9.8115 0.0000
# 2 11.1898 50.7681 26.1114 0.0000 8.5930 0.0000
# 3 54.4102 26.1114 123.9639 0.0000 12.9111 0.0000
# 4 0.0000 0.0000 0.0000 25.1804 0.0000 3.9455
# 5 -9.8115 8.5930 12.9111 0.0000 24.8115 0.0000
# 6 0.0000 0.0000 0.0000 3.9455 0.0000 16.1600
#
#
#
# Elastic Compliance Matrix: (Units=1/GPa)
#
#
# Indices 1 2 3 4 5 6 
#
# 1 0.012138 -0.000999 -0.005977 0.000000 0.008256 0.000000
# 2 -0.000999 0.022914 -0.003722 0.000000 -0.006394 0.000000
# 3 -0.005977 -0.003722 0.012250 0.000000 -0.007449 0.000000
# 4 0.000000 0.000000 0.000000 0.041293 0.000000 -0.010082
# 5 0.008256 -0.006394 -0.007449 0.000000 0.049660 0.000000
# 6 0.000000 0.000000 0.000000 -0.010082 0.000000 0.064343
#
#
# Mechanical properties :
#
#
# Convention : Reuss Voigt Hill
#
# Bulk Modulus (GPa) = 38.60048 52.76949 45.68498
# Shear Modulus (GPa) = 21.49331 26.54979 24.02155
#
# Velocity S-wave (km/s) = 3.17707 3.53107 3.35874
# Velocity P-wave (km/s) = 5.62015 6.43478 6.04121
#
# Compressibility (1/GPa) = 0.02590641
#
# Stress axis : x y z
#
# Youngs Moduli (GPa) = 82.38320 43.64098 81.63023
#
# Poissons Ratio (x) = 0.04358 0.48793
# Poissons Ratio (y) = 0.08227 0.30386
# Poissons Ratio (z) = 0.49243 0.16245
#
# Static dielectric constant tensor:
#      x y z
#    x 4.006280 0.000000 -0.127560 
#    y 0.000000 3.715750 0.000000 
#    z -0.127560 0.000000 3.562920 
# 
# 
# High freq. dielectric constant tensor:
#      x y z
#    x 1.848240 0.000000 -0.006350 
#    y 0.000000 1.831620 0.000000 
#    z -0.006350 0.000000 1.806600 
# 
# From -- ./inp_files/27428.got.cif
#   From: 2010.06.25/outbox.cif.g09.slc.cpg/sg15_14_cif.got.tgz:27428.got - 2010.06.28 07:06:18.
