data_PCOD8140446
_publ_section_title
;
Structure prediction by ZEFSAII (Michael W. Deem and Ramdas Pophale) SiO2 
 PCOD8140446
Probable space group: C 2/C
;
_chemical_formula_sum "Si O2"
_cell_formula_units_Z 48
_cell_length_a 11.286965
_cell_length_b 22.723862
_cell_length_c 9.336621
_cell_angle_alpha 90.000000
_cell_angle_beta 111.779908
_cell_angle_gamma 90.000000
_cell_volume 2223.746168
_symmetry_space_group_name_H-M "C 2/C"
_symmetry_group_IT_number 15
_symmetry_cell_setting 'monoclinic'
loop_
_space_group_symop_operation_xyz
x,y,z
-x,y,1/2-z
-x,-y,-z
x,-y,1/2+z
1/2+x,1/2+y,z
1/2-x,1/2+y,1/2-z
1/2-x,1/2-y,-z
1/2+x,1/2-y,1/2+z
loop_
_atom_site_type_symbol
_atom_site_label
_atom_site_fract_x
_atom_site_fract_y
_atom_site_fract_z
Si Si1 0.723300 0.567236 0.803189
Si Si2 0.929389 0.878184 0.491182
Si Si3 0.539507 0.145041 0.604256
Si Si4 0.730335 0.140040 0.155676
Si Si5 0.411192 0.728314 0.344773
Si Si6 0.664134 0.453534 0.599205
O O1 0.635767 0.618753 0.694923
O O2 0.709356 0.515666 0.680365
O O3 0.866881 0.590826 0.886205
O O4 0.674915 0.544942 0.932951
O O5 0.822062 0.876818 0.565052
O O6 0.018827 0.820344 0.525317
O O7 0.017011 0.935626 0.566465
O O8 0.500000 0.141452 0.750000
O O9 0.415712 0.139289 0.451495
O O10 0.606081 0.207554 0.590951
O O11 0.772901 0.204453 0.232348
O O12 0.742135 0.094412 0.290406
O O13 0.500000 0.740144 0.250000
#
# Coordination Sequence:
#
# PCOD8140446 Si02
#       6
#     8   8   8   8   8   8
#     4  12  25  41  67  94 129 172 220 265 327 380
#     4  10  20  41  68  98 128 167 210 270 319 377
#     4  11  23  39  66 100 128 173 215 262 320 384
#     4  10  21  42  66  96 135 164 215 262 321 385
#     4   8  19  35  66  99 127 167 210 265 312 376
#     4  11  25  43  64  93 128 170 219 272 319 379
#
# _framework density 21.585196
#
# number of rings (size 3 to 8) (size 9 to 14) (size 15 to 20)
#    0.000    1.667    1.667    3.500    2.333    4.667 
#    0.000    3.333    7.333    0.000    0.000    0.000 
#    0.000    0.000    0.000    0.000    0.000    0.000 
#
# Total GULP energy -297521.631696 kJ/mol
# GULP energy per Si atom -12396.734654 kJ/mol
# Density = 2.153607 g / cm^3
# Si number density = 21.585196 Si / 1000 Ang^3
#
#
#
# Elastic Constant Matrix: (Units=GPa)
#
#
# Indices 1 2 3 4 5 6 
#
# 1 96.8905 56.3845 49.1282 0.0000 33.4104 0.0000
# 2 56.3845 102.0325 40.7378 0.0000 4.8449 0.0000
# 3 49.1282 40.7378 141.0029 0.0000 15.4653 0.0000
# 4 0.0000 0.0000 0.0000 -12.5179 0.0000 -6.9134
# 5 33.4104 4.8449 15.4653 0.0000 45.7573 0.0000
# 6 0.0000 0.0000 0.0000 -6.9134 0.0000 21.3756
#
#
#
# Elastic Compliance Matrix: (Units=1/GPa)
#
#
# Indices 1 2 3 4 5 6 
#
# 1 0.023555 -0.010948 -0.003411 0.000000 -0.014887 0.000000
# 2 -0.010948 0.016168 -0.001605 0.000000 0.006824 0.000000
# 3 -0.003411 -0.001605 0.008778 0.000000 -0.000306 0.000000
# 4 0.000000 0.000000 0.000000 -0.067779 0.000000 -0.021921
# 5 -0.014887 0.006824 -0.000306 0.000000 0.032105 0.000000
# 6 0.000000 0.000000 0.000000 -0.021921 0.000000 0.039692
#
#
# Mechanical properties :
#
#
# Convention : Reuss Voigt Hill
#
# Bulk Modulus (GPa) = 60.34267 70.26965 65.30616
# Shear Modulus (GPa) = 55.57299 23.83469 39.70384
#
# Velocity S-wave (km/s) = 5.07954 3.32658 4.29348
# Velocity P-wave (km/s) = 7.90055 6.88332 7.40941
#
# Compressibility (1/GPa) = 0.01657202
#
# Stress axis : x y z
#
# Youngs Moduli (GPa) = 42.45367 61.85208 113.92265
#
# Poissons Ratio (x) = 0.67716 0.38861
# Poissons Ratio (y) = 0.46478 0.18285
# Poissons Ratio (z) = 0.14482 0.09928
#
# Static dielectric constant tensor:
#      x y z
#    x 3.675840 0.000000 0.303300 
#    y 0.000000 4.238260 0.000000 
#    z 0.303300 0.000000 4.053910 
# 
# 
# High freq. dielectric constant tensor:
#      x y z
#    x 1.821750 0.000000 0.023350 
#    y 0.000000 1.853960 0.000000 
#    z 0.023350 0.000000 1.853740 
# 
# From -- ./inp_files/32643.got.cif
#   From: 2010.06.25/outbox.cif.g09.slc.cpg/sg15_17_cif.got.tgz:32643.got - 2010.06.28 07:06:18.
