data_PCOD8140512
_publ_section_title
;
Structure prediction by ZEFSAII (Michael W. Deem and Ramdas Pophale) SiO2 
 PCOD8140512
Probable space group: C 2/C
;
_chemical_formula_sum "Si O2"
_cell_formula_units_Z 44
_cell_length_a 29.378612
_cell_length_b 7.478781
_cell_length_c 12.542291
_cell_angle_alpha 90.000000
_cell_angle_beta 137.557394
_cell_angle_gamma 90.000000
_cell_volume 1859.717891
_symmetry_space_group_name_H-M "C 2/C"
_symmetry_group_IT_number 15
_symmetry_cell_setting 'monoclinic'
loop_
_space_group_symop_operation_xyz
x,y,z
-x,y,1/2-z
-x,-y,-z
x,-y,1/2+z
1/2+x,1/2+y,z
1/2-x,1/2+y,1/2-z
1/2-x,1/2-y,-z
1/2+x,1/2-y,1/2+z
loop_
_atom_site_type_symbol
_atom_site_label
_atom_site_fract_x
_atom_site_fract_y
_atom_site_fract_z
Si Si1 0.500000 0.504181 0.250000
Si Si2 0.568314 0.038843 0.177798
Si Si3 0.149660 0.618982 0.137272
Si Si4 0.591935 0.795882 0.930151
Si Si5 0.214284 0.869832 0.528063
Si Si6 0.380143 0.306277 0.631970
O O1 0.445770 0.380783 0.091407
O O2 0.542873 0.619587 0.239916
O O3 0.616111 0.864495 0.284399
O O4 0.614605 0.179787 0.188971
O O5 0.547206 0.126653 0.254088
O O6 0.500000 0.000000 0.000000
O O7 0.227681 0.570790 0.288600
O O8 0.104545 0.440079 0.042696
O O9 0.141091 0.757072 0.026153
O O10 0.665034 0.756136 0.008267
O O11 0.250000 0.750000 0.500000
O O12 0.173717 0.047444 0.416653
#
# Coordination Sequence:
#
# PCOD8140512 Si02
#       6
#     4   8   8   8   8   8
#     4  10  20  42  62  90 130 166 218 274 322 396
#     4  11  22  40  64  95 129 171 218 271 326 392
#     4  11  22  42  65  93 129 176 213 270 333 389
#     4  10  22  41  62  91 129 165 216 272 323 388
#     4  11  22  44  63  94 133 168 221 272 325 402
#     4  10  24  42  66  97 133 176 220 272 339 395
#
# _framework density 23.659503999999998
#
# number of rings (size 3 to 8) (size 9 to 14) (size 15 to 20)
#    0.000    1.455    1.818    3.273    0.000    3.636 
#   13.091    5.455    0.000    0.000    0.000    0.000 
#    0.000    0.000    0.000    0.000    0.000    0.000 
#
# Total GULP energy -272653.775053 kJ/mol
# GULP energy per Si atom -12393.353411 kJ/mol
# Density = 2.360565 g / cm^3
# Si number density = 23.659504 Si / 1000 Ang^3
#
#
#
# Elastic Constant Matrix: (Units=GPa)
#
#
# Indices 1 2 3 4 5 6 
#
# 1 103.6527 27.4174 35.7120 0.0000 10.3996 0.0000
# 2 27.4174 89.7028 27.4049 0.0000 -2.2432 0.0000
# 3 35.7120 27.4049 120.1048 0.0000 11.7188 0.0000
# 4 0.0000 0.0000 0.0000 26.9538 0.0000 9.3689
# 5 10.3996 -2.2432 11.7188 0.0000 35.0255 0.0000
# 6 0.0000 0.0000 0.0000 9.3689 0.0000 44.1931
#
#
#
# Elastic Compliance Matrix: (Units=1/GPa)
#
#
# Indices 1 2 3 4 5 6 
#
# 1 0.011540 -0.002828 -0.002516 0.000000 -0.002766 0.000000
# 2 -0.002828 0.012779 -0.002312 0.000000 0.002432 0.000000
# 3 -0.002516 -0.002312 0.009866 0.000000 -0.002702 0.000000
# 4 0.000000 0.000000 0.000000 0.040052 0.000000 -0.008491
# 5 -0.002766 0.002432 -0.002702 0.000000 0.030431 0.000000
# 6 0.000000 0.000000 0.000000 -0.008491 0.000000 0.024428
#
#
# Mechanical properties :
#
#
# Convention : Reuss Voigt Hill
#
# Bulk Modulus (GPa) = 52.98771 54.94765 53.96768
# Shear Modulus (GPa) = 33.17858 36.09622 34.63740
#
# Velocity S-wave (km/s) = 3.74884 3.91020 3.83037
# Velocity P-wave (km/s) = 6.41740 6.60765 6.51322
#
# Compressibility (1/GPa) = 0.01887230
#
# Stress axis : x y z
#
# Youngs Moduli (GPa) = 86.65561 78.25068 101.36319
#
# Poissons Ratio (x) = 0.22126 0.25506
# Poissons Ratio (y) = 0.24502 0.23440
# Poissons Ratio (z) = 0.21805 0.18095
#
# Static dielectric constant tensor:
#      x y z
#    x 4.327850 0.000000 0.209300 
#    y 0.000000 4.275520 0.000000 
#    z 0.209300 0.000000 4.351720 
# 
# 
# High freq. dielectric constant tensor:
#      x y z
#    x 1.948090 0.000000 0.022300 
#    y 0.000000 1.928320 0.000000 
#    z 0.022300 0.000000 1.938070 
# 
# From -- ./inp_files/125706.got.cif
#   From: 2010.06.25/outbox.cif.g09.slc.cpg/sg15_63_cif.got.tgz:125706.got - 2010.06.28 07:06:18.
