data_PCOD8140779
_publ_section_title
;
Structure prediction by ZEFSAII (Michael W. Deem and Ramdas Pophale) SiO2 
 PCOD8140779
Probable space group: C 2/C
;
_chemical_formula_sum "Si O2"
_cell_formula_units_Z 48
_cell_length_a 8.184345
_cell_length_b 14.628401
_cell_length_c 27.607130
_cell_angle_alpha 90.000000
_cell_angle_beta 136.957748
_cell_angle_gamma 90.000000
_cell_volume 2255.945293
_symmetry_space_group_name_H-M "C 2/C"
_symmetry_group_IT_number 15
_symmetry_cell_setting 'monoclinic'
loop_
_space_group_symop_operation_xyz
x,y,z
-x,y,1/2-z
-x,-y,-z
x,-y,1/2+z
1/2+x,1/2+y,z
1/2-x,1/2+y,1/2-z
1/2-x,1/2-y,-z
1/2+x,1/2-y,1/2+z
loop_
_atom_site_type_symbol
_atom_site_label
_atom_site_fract_x
_atom_site_fract_y
_atom_site_fract_z
Si Si1 0.479606 0.761214 0.456469
Si Si2 0.276121 0.800968 0.312009
Si Si3 0.592376 0.562393 0.062977
Si Si4 0.030935 0.127908 0.201155
Si Si5 0.828323 0.418315 0.950826
Si Si6 0.563520 0.022293 0.710763
O O1 0.340069 0.809444 0.382222
O O2 0.355912 0.665474 0.445384
O O3 0.496533 0.830450 0.505306
O O4 0.750000 0.750000 0.500000
O O5 0.425670 0.719645 0.320005
O O6 0.327901 0.896797 0.297563
O O7 0.000000 0.775639 0.250000
O O8 0.398188 0.575131 0.062698
O O9 0.830986 0.518123 0.134979
O O10 0.500000 0.500000 0.000000
O O11 0.000000 0.155173 0.250000
O O12 0.783092 0.082701 0.127506
O O13 0.245404 0.057575 0.241124
O O14 0.000000 0.500000 0.000000
O O15 0.500000 0.061449 0.750000
#
# Coordination Sequence:
#
# PCOD8140779 Si02
#       6
#     8   8   8   8   8   8
#     4  10  20  43  68  94 132 175 221 277 345 404
#     4  12  25  44  73  99 136 185 232 288 351 413
#     4  11  23  42  72  98 133 180 225 284 349 410
#     4  12  26  45  67 101 145 185 228 291 341 416
#     4  11  25  44  68 102 137 179 233 285 345 419
#     4  12  24  44  68 101 138 179 236 284 347 414
#
# _framework density 21.277111999999999
#
# number of rings (size 3 to 8) (size 9 to 14) (size 15 to 20)
#    0.000    0.667    5.000    4.500    7.000    0.000 
#    0.000    0.833    0.000    0.000    0.000    0.000 
#    0.000    0.000    0.000    0.000    0.000    0.000 
#
# Total GULP energy -297562.923425 kJ/mol
# GULP energy per Si atom -12398.455143 kJ/mol
# Density = 2.122868 g / cm^3
# Si number density = 21.277112 Si / 1000 Ang^3
#
#
#
# Elastic Constant Matrix: (Units=GPa)
#
#
# Indices 1 2 3 4 5 6 
#
# 1 41.9489 13.2085 28.8051 0.0000 -3.9387 0.0000
# 2 13.2085 109.1953 44.5661 0.0000 -7.0240 0.0000
# 3 28.8051 44.5661 193.8580 -0.0001 -2.9889 0.0000
# 4 0.0000 0.0000 -0.0001 41.4382 0.0000 1.5684
# 5 -3.9387 -7.0240 -2.9889 0.0000 31.8588 0.0000
# 6 0.0000 0.0000 0.0000 1.5684 0.0000 22.8558
#
#
#
# Elastic Compliance Matrix: (Units=1/GPa)
#
#
# Indices 1 2 3 4 5 6 
#
# 1 0.027078 -0.001633 -0.003607 0.000000 0.002649 0.000000
# 2 -0.001633 0.010335 -0.002104 0.000000 0.001879 0.000000
# 3 -0.003607 -0.002104 0.006173 0.000000 -0.000331 0.000000
# 4 0.000000 0.000000 0.000000 0.024195 0.000000 -0.001660
# 5 0.002649 0.001879 -0.000331 0.000000 0.032099 0.000000
# 6 0.000000 0.000000 0.000000 -0.001660 0.000000 0.043866
#
#
# Mechanical properties :
#
#
# Convention : Reuss Voigt Hill
#
# Bulk Modulus (GPa) = 34.60478 57.57349 46.08914
# Shear Modulus (GPa) = 29.74963 36.45872 33.10418
#
# Velocity S-wave (km/s) = 3.74331 4.14396 3.94872
# Velocity P-wave (km/s) = 5.91458 7.07207 6.51907
#
# Compressibility (1/GPa) = 0.02889774
#
# Stress axis : x y z
#
# Youngs Moduli (GPa) = 36.92970 96.75710 161.99325
#
# Poissons Ratio (x) = 0.15798 0.58436
# Poissons Ratio (y) = 0.06030 0.34089
# Poissons Ratio (z) = 0.13322 0.20361
#
# Static dielectric constant tensor:
#      x y z
#    x 3.660630 0.000000 -0.052090 
#    y 0.000000 6.613850 0.000000 
#    z -0.052090 0.000000 4.221300 
# 
# 
# High freq. dielectric constant tensor:
#      x y z
#    x 1.807990 0.000000 0.003140 
#    y 0.000000 1.850880 0.000000 
#    z 0.003140 0.000000 1.865710 
# 
# From -- ./inp_files/289036.got.cif
#   From: 2010.06.25/outbox.cif.g09.slc.cpg/sg15_145_cif.got.tgz:289036.got - 2010.06.28 07:06:18.
