data_PCOD8140765
_publ_section_title
;
Structure prediction by ZEFSAII (Michael W. Deem and Ramdas Pophale) SiO2 
 PCOD8140765
Probable space group: C 2/C
;
_chemical_formula_sum "Si O2"
_cell_formula_units_Z 52
_cell_length_a 29.114372
_cell_length_b 5.309493
_cell_length_c 17.511628
_cell_angle_alpha 90.000000
_cell_angle_beta 128.502732
_cell_angle_gamma 90.000000
_cell_volume 2118.433812
_symmetry_space_group_name_H-M "C 2/C"
_symmetry_group_IT_number 15
_symmetry_cell_setting 'monoclinic'
loop_
_space_group_symop_operation_xyz
x,y,z
-x,y,1/2-z
-x,-y,-z
x,-y,1/2+z
1/2+x,1/2+y,z
1/2-x,1/2+y,1/2-z
1/2-x,1/2-y,-z
1/2+x,1/2-y,1/2+z
loop_
_atom_site_type_symbol
_atom_site_label
_atom_site_fract_x
_atom_site_fract_y
_atom_site_fract_z
Si Si1 0.118708 0.296604 0.629235
Si Si2 0.305419 0.338254 0.152026
Si Si3 0.075660 0.780045 0.930329
Si Si4 0.145231 0.670946 0.861748
Si Si5 0.039974 0.506238 0.169286
Si Si6 0.223107 0.592946 0.687983
Si Si7 0.500000 0.639634 0.750000
O O1 0.103604 0.123416 0.539401
O O2 0.058170 0.385447 0.606013
O O3 0.154516 0.539677 0.633725
O O4 0.155830 0.144206 0.730131
O O5 0.316740 0.076138 0.119984
O O6 0.238152 0.349451 0.113769
O O7 0.316583 0.576783 0.109524
O O8 0.125727 0.652962 0.929941
O O9 0.026798 0.578550 0.904574
O O10 0.043761 0.993304 0.850062
O O11 0.087897 0.700295 0.746888
O O12 0.044571 0.707213 0.242849
O O13 0.242121 0.833719 0.756793
#
# Coordination Sequence:
#
# PCOD8140765 Si02
#       7
#     8   8   8   8   8   8   4
#     4  10  24  40  63  98 126 163 218 272 319 370
#     4  10  22  42  69  92 124 170 220 260 326 386
#     4  12  23  40  62  93 131 170 217 266 313 384
#     4  11  21  41  67  92 126 178 213 256 324 392
#     4  11  22  41  59  90 127 172 213 257 319 387
#     4  10  20  43  66  95 129 167 210 269 330 385
#     4  12  22  42  64  84 136 178 216 252 324 384
#
# _framework density 24.546437000000001
#
# number of rings (size 3 to 8) (size 9 to 14) (size 15 to 20)
#    0.000    1.231    3.077    5.077    0.000    0.615 
#   11.077    1.538    0.000    0.000    0.000    4.308 
#    0.000    0.000    0.000    0.000    0.000    0.000 
#
# Total GULP energy -322211.296870 kJ/mol
# GULP energy per Si atom -12392.742187 kJ/mol
# Density = 2.449057 g / cm^3
# Si number density = 24.546437 Si / 1000 Ang^3
#
#
#
# Elastic Constant Matrix: (Units=GPa)
#
#
# Indices 1 2 3 4 5 6 
#
# 1 203.5900 48.2647 15.0261 0.1376 -26.4066 -0.1261
# 2 48.2647 118.8534 10.6840 0.2698 -6.0333 -0.2951
# 3 15.0261 10.6840 64.7286 0.0792 -27.8206 -0.0698
# 4 0.1376 0.2698 0.0792 -81.6589 -0.0466 63.5853
# 5 -26.4066 -6.0333 -27.8206 -0.0466 26.8441 0.0489
# 6 -0.1261 -0.2951 -0.0698 63.5853 0.0489 -23.4305
#
#
#
# Elastic Compliance Matrix: (Units=1/GPa)
#
#
# Indices 1 2 3 4 5 6 
#
# 1 0.006372 -0.002389 0.002486 -0.000004 0.008308 -0.000006
# 2 -0.002389 0.009447 -0.001988 0.000050 -0.002287 0.000030
# 3 0.002486 -0.001988 0.028958 -0.000001 0.032010 -0.000011
# 4 -0.000004 0.000050 -0.000001 0.011002 -0.000030 0.029856
# 5 0.008308 -0.002287 0.032010 -0.000030 0.078085 -0.000029
# 6 -0.000006 0.000030 -0.000011 0.029856 -0.000029 0.038342
#
#
# Mechanical properties :
#
#
# Convention : Reuss Voigt Hill
#
# Bulk Modulus (GPa) = 24.39351 59.45795 41.92573
# Shear Modulus (GPa) = 26.36393 5.23076 15.79735
#
# Velocity S-wave (km/s) = 3.28082 1.46137 2.53962
# Velocity P-wave (km/s) = 4.93061 5.20794 5.07117
#
# Compressibility (1/GPa) = 0.04099451
#
# Stress axis : x y z
#
# Youngs Moduli (GPa) = 156.92702 105.85835 34.53250
#
# Poissons Ratio (x) = 0.25295 -0.08584
# Poissons Ratio (y) = 0.37497 0.06864
# Poissons Ratio (z) = -0.39009 0.21041
#
# Static dielectric constant tensor:
#      x y z
#    x 5.450400 0.000000 -0.256460 
#    y 0.000000 4.169210 0.000000 
#    z -0.256460 0.000000 4.038250 
# 
# 
# High freq. dielectric constant tensor:
#      x y z
#    x 2.012290 0.000000 -0.015730 
#    y 0.000000 1.956710 0.000000 
#    z -0.015730 0.000000 1.944560 
# 
# From -- ./inp_files/221346.got.cif
#   From: 2010.06.25/outbox.cif.g09.slc.cpg/sg15_111_cif.got.tgz:221346.got - 2010.06.28 07:06:18.
