data_PCOD8140930
_publ_section_title
;
Structure prediction by ZEFSAII (Michael W. Deem and Ramdas Pophale) SiO2 
 PCOD8140930
Probable space group: C 2/C
;
_chemical_formula_sum "Si O2"
_cell_formula_units_Z 48
_cell_length_a 11.601895
_cell_length_b 21.093033
_cell_length_c 8.973419
_cell_angle_alpha 90.000000
_cell_angle_beta 90.000000
_cell_angle_gamma 90.000000
_cell_volume 2195.967507
_symmetry_space_group_name_H-M "C 2/C"
_symmetry_group_IT_number 15
_symmetry_cell_setting 'monoclinic'
loop_
_space_group_symop_operation_xyz
x,y,z
-x,y,1/2-z
-x,-y,-z
x,-y,1/2+z
1/2+x,1/2+y,z
1/2-x,1/2+y,1/2-z
1/2-x,1/2-y,-z
1/2+x,1/2-y,1/2+z
loop_
_atom_site_type_symbol
_atom_site_label
_atom_site_fract_x
_atom_site_fract_y
_atom_site_fract_z
Si Si1 0.089671 0.558653 1.000000
Si Si2 0.143786 0.883848 0.500000
Si Si3 0.000000 0.351986 0.250000
Si Si4 0.652740 0.804211 1.000000
Si Si5 0.000000 0.099935 0.750000
Si Si6 0.000000 0.900065 0.750000
Si Si7 0.500000 0.148014 0.250000
Si Si8 0.357130 0.468645 0.500000
O O1 0.074765 0.602336 0.145189
O O2 0.219346 0.534296 0.000000
O O3 0.074766 0.602336 0.854810
O O4 0.000000 0.500000 0.000000
O O5 0.279089 0.871253 0.500000
O O6 0.079826 0.855061 0.645795
O O7 0.079826 0.855061 0.354205
O O8 0.109906 0.957654 0.500000
O O9 0.922375 0.304457 0.349869
O O10 0.577625 0.804457 0.849869
O O11 0.750000 0.750000 0.000000
O O12 0.090604 0.059839 0.651031
O O13 0.090604 0.940161 0.848970
#
# Coordination Sequence:
#
# PCOD8140930 Si02
#       8
#     8   8   4   8   4   4   4   8
#     4  11  22  37  64  97 131 168 199 247 325 404
#     4  11  20  34  54  81 116 153 196 242 297 361
#     4  10  23  43  61  92 125 155 211 264 312 384
#     4  11  25  44  64  83 115 162 210 270 317 357
#     4  10  21  33  53  86 121 155 190 238 299 372
#     4  10  21  33  53  86 121 155 190 238 299 372
#     4  10  23  43  61  92 125 155 211 264 312 384
#     4  11  19  33  54  85 123 157 191 235 301 382
#
# _framework density 21.858246000000001
#
# number of rings (size 3 to 8) (size 9 to 14) (size 15 to 20)
#    0.000    1.333    0.000    8.500    0.000    4.000 
#    0.000    3.333    0.000    0.000    0.000    0.000 
#    0.000    0.000    0.000    0.000    0.000    0.000 
#
# Total GULP energy -297401.062663 kJ/mol
# GULP energy per Si atom -12391.710944 kJ/mol
# Density = 2.180850 g / cm^3
# Si number density = 21.858246 Si / 1000 Ang^3
#
#
#
# Elastic Constant Matrix: (Units=GPa)
#
#
# Indices 1 2 3 4 5 6 
#
# 1 167.4632 28.4737 75.2192 0.0000 -1.7050 0.0000
# 2 28.4737 54.8497 32.6338 0.0000 0.3610 0.0000
# 3 75.2192 32.6338 175.9228 0.0000 2.4393 0.0000
# 4 0.0000 0.0000 0.0000 4.9935 0.0000 -3.2931
# 5 -1.7050 0.3610 2.4393 0.0000 36.6572 0.0000
# 6 0.0000 0.0000 0.0000 -3.2931 0.0000 42.9433
#
#
#
# Elastic Compliance Matrix: (Units=1/GPa)
#
#
# Indices 1 2 3 4 5 6 
#
# 1 0.007647 -0.002274 -0.002855 0.000000 0.000568 0.000000
# 2 -0.002274 0.021170 -0.002953 0.000000 -0.000118 0.000000
# 3 -0.002855 -0.002953 0.007461 0.000000 -0.000600 0.000000
# 4 0.000000 0.000000 0.000000 0.210927 0.000000 0.016175
# 5 0.000568 -0.000118 -0.000600 0.000000 0.027347 0.000000
# 6 0.000000 0.000000 0.000000 0.016175 0.000000 0.024527
#
#
# Mechanical properties :
#
#
# Convention : Reuss Voigt Hill
#
# Bulk Modulus (GPa) = 49.72063 74.54323 62.13193
# Shear Modulus (GPa) = 15.53042 34.37941 24.95491
#
# Velocity S-wave (km/s) = 2.66842 3.97020 3.38253
# Velocity P-wave (km/s) = 5.68245 7.42925 6.61377
#
# Compressibility (1/GPa) = 0.02011237
#
# Stress axis : x y z
#
# Youngs Moduli (GPa) = 130.77874 47.23664 134.02504
#
# Poissons Ratio (x) = 0.10743 0.38269
# Poissons Ratio (y) = 0.29743 0.39577
# Poissons Ratio (z) = 0.37342 0.13949
#
# Static dielectric constant tensor:
#      x y z
#    x 4.243690 0.000000 0.029950 
#    y 0.000000 3.533320 0.000000 
#    z 0.029950 0.000000 4.588890 
# 
# 
# High freq. dielectric constant tensor:
#      x y z
#    x 1.881370 0.000000 0.000570 
#    y 0.000000 1.818850 0.000000 
#    z 0.000570 0.000000 1.887960 
# 
# From -- ./inp_files/31978.got.cif
#   From: 2010.06.25/outbox.cif.g09.slc.cpg/sg15_16_cif.got.tgz:31978.got - 2010.06.28 07:06:18.
