data_PCOD8140754
_publ_section_title
;
Structure prediction by ZEFSAII (Michael W. Deem and Ramdas Pophale) SiO2 
 PCOD8140754
Probable space group: C 2/C
;
_chemical_formula_sum "Si O2"
_cell_formula_units_Z 60
_cell_length_a 8.166594
_cell_length_b 16.101219
_cell_length_c 22.460653
_cell_angle_alpha 90.000000
_cell_angle_beta 100.134309
_cell_angle_gamma 90.000000
_cell_volume 2907.319896
_symmetry_space_group_name_H-M "C 2/C"
_symmetry_group_IT_number 15
_symmetry_cell_setting 'monoclinic'
loop_
_space_group_symop_operation_xyz
x,y,z
-x,y,1/2-z
-x,-y,-z
x,-y,1/2+z
1/2+x,1/2+y,z
1/2-x,1/2+y,1/2-z
1/2-x,1/2-y,-z
1/2+x,1/2-y,1/2+z
loop_
_atom_site_type_symbol
_atom_site_label
_atom_site_fract_x
_atom_site_fract_y
_atom_site_fract_z
Si Si1 0.522228 0.328559 0.367539
Si Si2 0.891176 0.958872 0.443409
Si Si3 0.282394 0.616184 0.373910
Si Si4 0.000000 0.063313 0.750000
Si Si5 0.662332 0.230733 0.556861
Si Si6 0.310092 0.058653 0.254939
Si Si7 0.912567 0.651248 0.376191
Si Si8 0.414193 0.089315 0.501622
O O1 0.495753 0.384788 0.423188
O O2 0.495531 0.376816 0.305600
O O3 0.712174 0.300758 0.384249
O O4 0.398281 0.249774 0.364029
O O5 0.726596 0.920004 0.459086
O O6 0.852640 0.024593 0.389182
O O7 0.000000 0.000000 0.500000
O O8 0.403445 0.684608 0.413867
O O9 0.256626 0.621888 0.300676
O O10 0.104451 0.624297 0.394405
O O11 0.172927 0.012389 0.757495
O O12 0.750000 0.250000 0.500000
O O13 0.526754 0.161023 0.537408
O O14 0.500000 0.026842 0.250000
O O15 0.314501 0.107917 0.316755
O O16 0.835792 0.621483 0.434228
O O17 0.500000 0.000000 0.500000
#
# Coordination Sequence:
#
# PCOD8140754 Si02
#       8
#     8   8   8   4   8   8   8   8
#     4  11  25  43  65 101 131 171 221 280 331 402
#     4  12  25  40  63  96 139 167 217 282 331 391
#     4  10  20  43  65  91 133 173 216 276 329 397
#     4  12  26  44  74  98 132 178 234 278 346 394
#     4  11  21  42  67  95 132 176 221 265 340 412
#     4  10  24  45  71  95 131 182 230 279 334 401
#     4  10  23  42  69  92 131 176 223 265 337 402
#     4  12  23  40  68  97 128 178 223 264 336 411
#
# _framework density 20.637563
#
# number of rings (size 3 to 8) (size 9 to 14) (size 15 to 20)
#    0.000    1.067    5.333    1.600    8.400    0.533 
#    2.400    0.000    1.467    0.000    0.000    0.000 
#    0.000    0.000    0.000    0.000    0.000    0.000 
#
# Total GULP energy -371828.644296 kJ/mol
# GULP energy per Si atom -12394.288143 kJ/mol
# Density = 2.059059 g / cm^3
# Si number density = 20.637563 Si / 1000 Ang^3
#
#
#
# Elastic Constant Matrix: (Units=GPa)
#
#
# Indices 1 2 3 4 5 6 
#
# 1 57.4260 39.6963 20.6125 0.0000 3.4472 0.0000
# 2 39.6963 138.9385 65.7245 0.0000 0.4228 0.0000
# 3 20.6125 65.7245 144.2097 0.0000 6.1364 0.0000
# 4 0.0000 0.0000 0.0000 52.1561 0.0000 4.3956
# 5 3.4472 0.4228 6.1364 0.0000 22.8089 0.0000
# 6 0.0000 0.0000 0.0000 4.3956 0.0000 29.2358
#
#
#
# Elastic Compliance Matrix: (Units=1/GPa)
#
#
# Indices 1 2 3 4 5 6 
#
# 1 0.021934 -0.006167 -0.000190 0.000000 -0.003149 0.000000
# 2 -0.006167 0.010931 -0.004179 0.000000 0.001854 0.000000
# 3 -0.000190 -0.004179 0.008964 0.000000 -0.002305 0.000000
# 4 0.000000 0.000000 0.000000 0.019419 0.000000 -0.002920
# 5 -0.003149 0.001854 -0.002305 0.000000 0.044904 0.000000
# 6 0.000000 0.000000 0.000000 -0.002920 0.000000 0.034644
#
#
# Mechanical properties :
#
#
# Convention : Reuss Voigt Hill
#
# Bulk Modulus (GPa) = 48.17915 65.84895 57.01405
# Shear Modulus (GPa) = 29.62282 35.14287 32.38284
#
# Velocity S-wave (km/s) = 3.79276 4.13105 3.96551
# Velocity P-wave (km/s) = 6.52503 7.39802 6.97520
#
# Compressibility (1/GPa) = 0.02075587
#
# Stress axis : x y z
#
# Youngs Moduli (GPa) = 45.59078 91.48488 111.55314
#
# Poissons Ratio (x) = 0.56421 0.02124
# Poissons Ratio (y) = 0.28117 0.46620
# Poissons Ratio (z) = 0.00868 0.38233
#
# Static dielectric constant tensor:
#      x y z
#    x 3.444160 0.000000 0.091320 
#    y 0.000000 4.114180 0.000000 
#    z 0.091320 0.000000 3.893590 
# 
# 
# High freq. dielectric constant tensor:
#      x y z
#    x 1.782240 0.000000 0.001980 
#    y 0.000000 1.819770 0.000000 
#    z 0.001980 0.000000 1.828110 
# 
# From -- ./inp_files/264760.got.cif
#   From: 2010.06.25/outbox.cif.g09.slc.cpg/sg15_133_cif.got.tgz:264760.got - 2010.06.28 07:06:18.
