data_PCOD8140481
_publ_section_title
;
Structure prediction by ZEFSAII (Michael W. Deem and Ramdas Pophale) SiO2 
 PCOD8140481
Probable space group: C 2/C
;
_chemical_formula_sum "Si O2"
_cell_formula_units_Z 48
_cell_length_a 11.379437
_cell_length_b 9.608226
_cell_length_c 22.284190
_cell_angle_alpha 90.000000
_cell_angle_beta 81.914423
_cell_angle_gamma 90.000000
_cell_volume 2412.248006
_symmetry_space_group_name_H-M "C 2/C"
_symmetry_group_IT_number 15
_symmetry_cell_setting 'monoclinic'
loop_
_space_group_symop_operation_xyz
x,y,z
-x,y,1/2-z
-x,-y,-z
x,-y,1/2+z
1/2+x,1/2+y,z
1/2-x,1/2+y,1/2-z
1/2-x,1/2-y,-z
1/2+x,1/2-y,1/2+z
loop_
_atom_site_type_symbol
_atom_site_label
_atom_site_fract_x
_atom_site_fract_y
_atom_site_fract_z
Si Si1 0.431836 0.194712 0.163003
Si Si2 0.713858 0.954001 0.378714
Si Si3 0.371779 0.334544 0.611432
Si Si4 0.677459 0.242644 0.205423
Si Si5 0.339814 0.627124 0.566273
Si Si6 0.133440 0.825200 0.569819
O O1 0.564410 0.181483 0.177973
O O2 0.341069 0.238831 0.222329
O O3 0.424495 0.312663 0.112329
O O4 0.393725 0.045386 0.139927
O O5 0.661154 0.816064 0.415719
O O6 0.798695 0.902337 0.317622
O O7 0.787529 0.040057 0.421800
O O8 0.293862 0.349223 0.678445
O O9 0.337927 0.460135 0.569503
O O10 0.511909 0.332613 0.616048
O O11 0.206153 0.686810 0.582832
O O12 0.395218 0.674483 0.498895
#
# Coordination Sequence:
#
# PCOD8140481 Si02
#       6
#     8   8   8   8   8   8
#     4  10  20  42  58  83 123 152 197 242 289 360
#     4   9  22  38  59  87 114 151 198 241 289 346
#     4  10  22  35  61  88 111 154 196 236 295 341
#     4   9  22  36  61  84 116 153 194 241 297 338
#     4  10  22  38  64  83 120 162 189 240 300 340
#     4  10  21  43  56  89 122 150 199 242 285 357
#
# _framework density 19.898453
#
# number of rings (size 3 to 8) (size 9 to 14) (size 15 to 20)
#    1.000    1.333    0.000    1.500    4.667    0.667 
#    3.000    5.000    0.000    0.000    0.000    0.000 
#    0.000    0.000    0.000    0.000    0.000    0.000 
#
# Total GULP energy -297430.842137 kJ/mol
# GULP energy per Si atom -12392.951756 kJ/mol
# Density = 1.985316 g / cm^3
# Si number density = 19.898453 Si / 1000 Ang^3
#
#
#
# Elastic Constant Matrix: (Units=GPa)
#
#
# Indices 1 2 3 4 5 6 
#
# 1 102.8634 53.6904 28.4934 0.0000 -7.6763 0.0000
# 2 53.6904 133.6527 23.5820 0.0000 5.1267 0.0000
# 3 28.4934 23.5820 68.3607 0.0000 8.2286 0.0000
# 4 0.0000 0.0000 0.0000 22.4272 0.0000 -2.6167
# 5 -7.6763 5.1267 8.2286 0.0000 27.6357 0.0000
# 6 0.0000 0.0000 0.0000 -2.6167 0.0000 23.7942
#
#
#
# Elastic Compliance Matrix: (Units=1/GPa)
#
#
# Indices 1 2 3 4 5 6 
#
# 1 0.014218 -0.005084 -0.004938 0.000000 0.006363 0.000000
# 2 -0.005084 0.009798 -0.000904 0.000000 -0.002961 0.000000
# 3 -0.004938 -0.000904 0.017781 0.000000 -0.006498 0.000000
# 4 0.000000 0.000000 0.000000 0.045168 0.000000 0.004967
# 5 0.006363 -0.002961 -0.006498 0.000000 0.040437 0.000000
# 6 0.000000 0.000000 0.000000 0.004967 0.000000 0.042573
#
#
# Mechanical properties :
#
#
# Convention : Reuss Voigt Hill
#
# Bulk Modulus (GPa) = 50.14349 57.37871 53.76110
# Shear Modulus (GPa) = 25.19193 28.04549 26.61871
#
# Velocity S-wave (km/s) = 3.56198 3.75831 3.66146
# Velocity P-wave (km/s) = 6.49395 6.90880 6.70459
#
# Compressibility (1/GPa) = 0.01994277
#
# Stress axis : x y z
#
# Youngs Moduli (GPa) = 70.33212 102.06486 56.24071
#
# Poissons Ratio (x) = 0.51894 0.27773
# Poissons Ratio (y) = 0.35760 0.05086
# Poissons Ratio (z) = 0.34732 0.09229
#
# Static dielectric constant tensor:
#      x y z
#    x 3.533170 0.000000 -0.117180 
#    y 0.000000 3.594670 0.000000 
#    z -0.117180 0.000000 3.400140 
# 
# 
# High freq. dielectric constant tensor:
#      x y z
#    x 1.774700 0.000000 -0.006440 
#    y 0.000000 1.777930 0.000000 
#    z -0.006440 0.000000 1.756040 
# 
# From -- ./inp_files/267667.got.cif
#   From: 2010.06.25/outbox.cif.g09.slc.cpg/sg15_134_cif.got.tgz:267667.got - 2010.06.28 07:06:18.
