data_PCOD8140468
_publ_section_title
;
Structure prediction by ZEFSAII (Michael W. Deem and Ramdas Pophale) SiO2 
 PCOD8140468
Probable space group: C 2/C
;
_chemical_formula_sum "Si O2"
_cell_formula_units_Z 48
_cell_length_a 6.262350
_cell_length_b 31.808396
_cell_length_c 13.226863
_cell_angle_alpha 90.000000
_cell_angle_beta 44.653827
_cell_angle_gamma 90.000000
_cell_volume 1851.744655
_symmetry_space_group_name_H-M "C 2/C"
_symmetry_group_IT_number 15
_symmetry_cell_setting 'monoclinic'
loop_
_space_group_symop_operation_xyz
x,y,z
-x,y,1/2-z
-x,-y,-z
x,-y,1/2+z
1/2+x,1/2+y,z
1/2-x,1/2+y,1/2-z
1/2-x,1/2-y,-z
1/2+x,1/2-y,1/2+z
loop_
_atom_site_type_symbol
_atom_site_label
_atom_site_fract_x
_atom_site_fract_y
_atom_site_fract_z
Si Si1 0.194309 0.941734 0.788641
Si Si2 0.500000 0.518054 0.750000
Si Si3 0.292096 0.150121 0.710018
Si Si4 0.043090 0.877149 0.994239
Si Si5 0.046913 0.416951 0.479488
Si Si6 0.440415 0.759599 0.158763
Si Si7 0.500000 0.811229 0.750000
O O1 0.500000 0.940005 0.750000
O O2 0.974885 0.907432 0.919703
O O3 0.255307 0.929417 0.647821
O O4 0.059576 0.988910 0.830176
O O5 0.811296 0.543931 0.629451
O O6 0.548030 0.120087 0.570708
O O7 0.307989 0.197258 0.658443
O O8 0.000000 0.130776 0.750000
O O9 0.250087 0.145230 0.849364
O O10 0.283430 0.839884 0.890604
O O11 0.190485 0.905345 0.030099
O O12 0.500000 0.774374 0.250000
O O13 0.214136 0.720029 0.241651
O O14 0.750000 0.750000 0.000000
#
# Coordination Sequence:
#
# PCOD8140468 Si02
#       7
#     8   4   8   8   8   8   4
#     4  10  23  42  64  99 136 176 238 283 341 422
#     4  12  22  41  72  98 140 176 232 297 346 406
#     4  10  21  44  72  94 141 187 225 290 360 409
#     4  10  20  41  70  97 130 195 232 267 367 422
#     4  10  20  42  67  99 133 181 230 281 351 424
#     4  12  29  46  71 114 139 182 248 293 350 431
#     4  12  24  47  78  92 152 192 224 303 354 408
#
# _framework density 25.921500000000002
#
# number of rings (size 3 to 8) (size 9 to 14) (size 15 to 20)
#    0.000    1.333    5.833    1.500    4.667    4.000 
#    7.500    0.833    0.000    0.000    0.000    0.000 
#    0.000    0.000    0.000    0.000    0.000    0.000 
#
# Total GULP energy -297438.932929 kJ/mol
# GULP energy per Si atom -12393.288872 kJ/mol
# Density = 2.586250 g / cm^3
# Si number density = 25.921500 Si / 1000 Ang^3
#
#
#
# Elastic Constant Matrix: (Units=GPa)
#
#
# Indices 1 2 3 4 5 6 
#
# 1 42.6614 38.2927 42.6953 0.0000 18.7356 0.0000
# 2 38.2927 191.1138 87.8701 0.0000 0.1542 0.0000
# 3 42.6953 87.8701 200.1055 0.0000 -9.6911 0.0000
# 4 0.0000 0.0000 0.0000 37.4955 0.0000 9.5836
# 5 18.7356 0.1542 -9.6911 0.0000 43.5225 0.0000
# 6 0.0000 0.0000 0.0000 9.5836 0.0000 74.7389
#
#
#
# Elastic Compliance Matrix: (Units=1/GPa)
#
#
# Indices 1 2 3 4 5 6 
#
# 1 0.046500 -0.005324 -0.008645 0.000000 -0.021923 0.000000
# 2 -0.005324 0.007185 -0.001930 0.000000 0.001837 0.000000
# 3 -0.008645 -0.001930 0.007956 0.000000 0.005500 0.000000
# 4 0.000000 0.000000 0.000000 0.027574 0.000000 -0.003536
# 5 -0.021923 0.001837 0.005500 0.000000 0.033632 0.000000
# 6 0.000000 0.000000 0.000000 -0.003536 0.000000 0.013833
#
#
# Mechanical properties :
#
#
# Convention : Reuss Voigt Hill
#
# Bulk Modulus (GPa) = 33.51052 85.73298 59.62175
# Shear Modulus (GPa) = 28.02278 48.81956 38.42117
#
# Velocity S-wave (km/s) = 3.29152 4.34448 3.85413
# Velocity P-wave (km/s) = 5.23462 7.63622 6.54649
#
# Compressibility (1/GPa) = 0.02984137
#
# Stress axis : x y z
#
# Youngs Moduli (GPa) = 21.50560 139.17297 125.69380
#
# Poissons Ratio (x) = 0.74102 1.08662
# Poissons Ratio (y) = 0.11451 0.24261
# Poissons Ratio (z) = 0.18592 0.26863
#
# Static dielectric constant tensor:
#      x y z
#    x 4.870780 0.000000 -0.142620 
#    y 0.000000 4.767000 0.000000 
#    z -0.142620 0.000000 5.538580 
# 
# 
# High freq. dielectric constant tensor:
#      x y z
#    x 2.080690 0.000000 -0.018810 
#    y 0.000000 2.045740 0.000000 
#    z -0.018810 0.000000 2.057270 
# 
# From -- ./inp_files/139415.got.cif
#   From: 2010.06.25/outbox.cif.g09.slc.cpg/sg15_70_cif.got.tgz:139415.got - 2010.06.28 07:06:18.
