data_PCOD8140959
_publ_section_title
;
Structure prediction by ZEFSAII (Michael W. Deem and Ramdas Pophale) SiO2 
 PCOD8140959
Probable space group: C 2/C
;
_chemical_formula_sum "Si O2"
_cell_formula_units_Z 60
_cell_length_a 16.268584
_cell_length_b 25.168191
_cell_length_c 9.857226
_cell_angle_alpha 90.000000
_cell_angle_beta 68.033432
_cell_angle_gamma 90.000000
_cell_volume 3743.041376
_symmetry_space_group_name_H-M "C 2/C"
_symmetry_group_IT_number 15
_symmetry_cell_setting 'monoclinic'
loop_
_space_group_symop_operation_xyz
x,y,z
-x,y,1/2-z
-x,-y,-z
x,-y,1/2+z
1/2+x,1/2+y,z
1/2-x,1/2+y,1/2-z
1/2-x,1/2-y,-z
1/2+x,1/2-y,1/2+z
loop_
_atom_site_type_symbol
_atom_site_label
_atom_site_fract_x
_atom_site_fract_y
_atom_site_fract_z
Si Si1 0.171335 0.812986 0.239621
Si Si2 0.048672 0.125273 0.016048
Si Si3 0.097464 0.973352 0.652257
Si Si4 0.094927 0.711175 0.156275
Si Si5 0.847637 0.256280 0.172242
Si Si6 0.267124 0.656229 0.089728
Si Si7 0.500000 0.716048 0.250000
Si Si8 0.130539 0.940276 0.915965
O O1 0.115300 0.857053 0.355835
O O2 0.109596 0.763244 0.239682
O O3 0.261454 0.792985 0.261204
O O4 0.198192 0.840092 0.083910
O O5 0.099752 0.085258 0.084383
O O6 0.024702 0.179455 0.107411
O O7 0.960976 0.094094 0.017208
O O8 0.146729 0.970886 0.765254
O O9 0.000000 0.992612 0.750000
O O10 0.139333 0.016884 0.529052
O O11 0.162833 0.665832 0.158936
O O12 0.000000 0.687511 0.250000
O O13 0.103445 0.722028 0.991354
O O14 0.815523 0.197005 0.160072
O O15 0.917045 0.253481 0.255348
O O16 0.284843 0.597264 0.128528
#
# Coordination Sequence:
#
# PCOD8140959 Si02
#       8
#     8   8   8   8   8   8   4   8
#     4   9  20  29  48  72  95 132 167 200 237 291
#     4  11  19  31  46  68  97 138 165 191 246 294
#     4  10  21  34  45  70 102 128 167 206 233 298
#     4   9  17  32  49  73  94 122 168 205 240 291
#     4   9  18  33  43  70 100 127 169 201 236 286
#     4   9  18  32  50  66 100 125 160 212 240 290
#     4  12  18  30  48  60 102 142 156 204 242 284
#     4  11  21  34  49  71 100 132 166 203 249 290
#
# _framework density 16.029745999999999
#
# number of rings (size 3 to 8) (size 9 to 14) (size 15 to 20)
#    0.000    2.133    3.333    4.000    5.600    0.533 
#    0.000    1.333    0.000    0.000    0.000    0.933 
#    2.000    0.000    0.000    0.000    0.000    0.000 
#
# Total GULP energy -371814.204870 kJ/mol
# GULP energy per Si atom -12393.806829 kJ/mol
# Density = 1.599326 g / cm^3
# Si number density = 16.029746 Si / 1000 Ang^3
#
#
#
# Elastic Constant Matrix: (Units=GPa)
#
#
# Indices 1 2 3 4 5 6 
#
# 1 101.7877 38.2000 43.3261 0.0000 3.7304 0.0000
# 2 38.2000 68.2481 34.5569 0.0000 4.8233 0.0000
# 3 43.3261 34.5569 68.8476 0.0000 -1.8450 0.0000
# 4 0.0000 0.0000 0.0000 30.0171 0.0000 0.6911
# 5 3.7304 4.8233 -1.8450 0.0000 23.4956 0.0000
# 6 0.0000 0.0000 0.0000 0.6911 0.0000 -7.7570
#
#
#
# Elastic Compliance Matrix: (Units=1/GPa)
#
#
# Indices 1 2 3 4 5 6 
#
# 1 0.014535 -0.004480 -0.006950 0.000000 -0.001934 0.000000
# 2 -0.004480 0.021585 -0.008132 0.000000 -0.004359 0.000000
# 3 -0.006950 -0.008132 0.023103 0.000000 0.004587 0.000000
# 4 0.000000 0.000000 0.000000 0.033246 0.000000 0.002962
# 5 -0.001934 -0.004359 0.004587 0.000000 0.044123 0.000000
# 6 0.000000 0.000000 0.000000 0.002962 0.000000 -0.128653
#
#
# Mechanical properties :
#
#
# Convention : Reuss Voigt Hill
#
# Bulk Modulus (GPa) = 49.75221 52.33883 51.04552
# Shear Modulus (GPa) = 92.99900 17.33785 55.16843
#
# Velocity S-wave (km/s) = 7.62512 3.29234 5.87290
# Velocity P-wave (km/s) = 10.42248 6.86838 8.82618
#
# Compressibility (1/GPa) = 0.02009961
#
# Stress axis : x y z
#
# Youngs Moduli (GPa) = 68.80075 46.32742 43.28371
#
# Poissons Ratio (x) = 0.20753 0.30083
# Poissons Ratio (y) = 0.30820 0.35199
# Poissons Ratio (z) = 0.47818 0.37675
#
# Static dielectric constant tensor:
#      x y z
#    x 3.101960 0.000000 0.190090 
#    y 0.000000 2.906430 0.000000 
#    z 0.190090 0.000000 3.106890 
# 
# 
# High freq. dielectric constant tensor:
#      x y z
#    x 1.597370 0.000000 0.011560 
#    y 0.000000 1.595100 0.000000 
#    z 0.011560 0.000000 1.614330 
# 
# From -- ./inp_files/42587.got.cif
#   From: 2010.06.25/outbox.cif.g09.slc.cpg/sg15_22_cif.got.tgz:42587.got - 2010.06.28 07:06:18.
