data_PCOD8140749
_publ_section_title
;
Structure prediction by ZEFSAII (Michael W. Deem and Ramdas Pophale) SiO2 
 PCOD8140749
Probable space group: C 2/C
;
_chemical_formula_sum "Si O2"
_cell_formula_units_Z 56
_cell_length_a 15.271382
_cell_length_b 23.744559
_cell_length_c 14.203108
_cell_angle_alpha 90.000000
_cell_angle_beta 30.538193
_cell_angle_gamma 90.000000
_cell_volume 2616.892053
_symmetry_space_group_name_H-M "C 2/C"
_symmetry_group_IT_number 15
_symmetry_cell_setting 'monoclinic'
loop_
_space_group_symop_operation_xyz
x,y,z
-x,y,1/2-z
-x,-y,-z
x,-y,1/2+z
1/2+x,1/2+y,z
1/2-x,1/2+y,1/2-z
1/2-x,1/2-y,-z
1/2+x,1/2-y,1/2+z
loop_
_atom_site_type_symbol
_atom_site_label
_atom_site_fract_x
_atom_site_fract_y
_atom_site_fract_z
Si Si1 0.031777 0.145514 0.822750
Si Si2 0.749074 0.578070 0.843452
Si Si3 0.496688 0.683561 0.458631
Si Si4 0.500000 0.870060 0.250000
Si Si5 0.366147 0.474995 0.449962
Si Si6 0.131217 0.304285 0.951076
Si Si7 0.500000 0.065553 0.250000
Si Si8 0.085211 0.621918 0.983831
O O1 0.944092 0.083958 0.913861
O O2 0.000000 0.172351 0.750000
O O3 0.236645 0.144475 0.641226
O O4 0.955670 0.185992 0.974072
O O5 0.874388 0.575226 0.635482
O O6 0.854694 0.589507 0.841239
O O7 0.612381 0.627522 0.956236
O O8 0.651495 0.518503 0.946612
O O9 0.669501 0.679890 0.239386
O O10 0.383546 0.736888 0.533181
O O11 0.429618 0.829165 0.394835
O O12 0.500000 0.500581 0.250000
O O13 0.177577 0.469085 0.575898
O O14 0.021750 0.327739 0.964836
O O15 0.523561 0.099552 0.326345
#
# Coordination Sequence:
#
# PCOD8140749 Si02
#       8
#     8   8   8   4   8   8   4   8
#     4  10  20  43  64  94 133 169 212 270 319 385
#     4  10  24  42  65  95 130 169 218 271 317 388
#     4  11  24  42  65  94 132 164 218 269 322 390
#     4  10  23  44  66  94 130 166 217 268 324 386
#     4  11  23  40  64  97 130 176 220 264 321 388
#     4  11  24  43  65  96 127 170 217 265 330 385
#     4  12  21  42  68  94 138 172 217 266 330 376
#     4  10  22  41  66  96 130 169 217 267 323 387
#
# _framework density 21.399432000000001
#
# number of rings (size 3 to 8) (size 9 to 14) (size 15 to 20)
#    0.000    1.429    2.857    3.857    2.000    5.143 
#    1.286    1.429    0.000    0.000    0.000    0.000 
#    0.000    0.000    0.000    0.000    0.000    0.000 
#
# Total GULP energy -347126.553997 kJ/mol
# GULP energy per Si atom -12397.376928 kJ/mol
# Density = 2.135073 g / cm^3
# Si number density = 21.399432 Si / 1000 Ang^3
#
#
#
# Elastic Constant Matrix: (Units=GPa)
#
#
# Indices 1 2 3 4 5 6 
#
# 1 114.3678 17.5198 39.8511 0.0301 9.6486 -0.0175
# 2 17.5198 46.7011 36.7973 0.0329 14.0748 -0.0131
# 3 39.8511 36.7973 122.0494 0.0698 2.0636 -0.0242
# 4 0.0301 0.0329 0.0698 9.1982 -0.0217 6.8460
# 5 9.6486 14.0748 2.0636 -0.0217 43.6962 0.0104
# 6 -0.0175 -0.0131 -0.0242 6.8460 0.0104 23.4012
#
#
#
# Elastic Compliance Matrix: (Units=1/GPa)
#
#
# Indices 1 2 3 4 5 6 
#
# 1 0.010073 -0.000877 -0.002994 -0.000019 -0.001800 0.000010
# 2 -0.000877 0.031861 -0.009157 -0.000094 -0.009637 0.000039
# 3 -0.002994 -0.009157 0.011880 -0.000055 0.003049 0.000020
# 4 -0.000019 -0.000094 -0.000055 0.138979 0.000116 -0.040658
# 5 -0.001800 -0.009637 0.003049 0.000116 0.026243 -0.000049
# 6 0.000010 0.000039 0.000020 -0.040658 -0.000049 0.054628
#
#
# Mechanical properties :
#
#
# Convention : Reuss Voigt Hill
#
# Bulk Modulus (GPa) = 36.02479 52.38386 44.20433
# Shear Modulus (GPa) = 16.18270 27.85579 22.01925
#
# Velocity S-wave (km/s) = 2.75293 3.61183 3.21123
# Velocity P-wave (km/s) = 5.19383 6.47503 5.86949
#
# Compressibility (1/GPa) = 0.02775866
#
# Stress axis : x y z
#
# Youngs Moduli (GPa) = 99.27238 31.38647 84.17386
#
# Poissons Ratio (x) = 0.02753 0.25203
# Poissons Ratio (y) = 0.08708 0.77074
# Poissons Ratio (z) = 0.29724 0.28739
#
# Static dielectric constant tensor:
#      x y z
#    x 4.219350 -0.000110 0.216060 
#    y -0.000110 3.658840 0.000090 
#    z 0.216060 0.000090 4.188100 
# 
# 
# High freq. dielectric constant tensor:
#      x y z
#    x 1.849260 -0.000010 0.000540 
#    y -0.000010 1.816030 0.000010 
#    z 0.000540 0.000010 1.855190 
# 
# From -- ./inp_files/156931.got.cif
#   From: 2010.06.25/outbox.cif.g09.slc.cpg/sg15_79_cif.got.tgz:156931.got - 2010.06.28 07:06:18.
