data_PCOD8140760
_publ_section_title
;
Structure prediction by ZEFSAII (Michael W. Deem and Ramdas Pophale) SiO2 
 PCOD8140760
Probable space group: C 2/C
;
_chemical_formula_sum "Si O2"
_cell_formula_units_Z 40
_cell_length_a 16.269055
_cell_length_b 16.357248
_cell_length_c 22.619551
_cell_angle_alpha 90.000000
_cell_angle_beta 18.266427
_cell_angle_gamma 90.000000
_cell_volume 1886.711641
_symmetry_space_group_name_H-M "C 2/C"
_symmetry_group_IT_number 15
_symmetry_cell_setting 'monoclinic'
loop_
_space_group_symop_operation_xyz
x,y,z
-x,y,1/2-z
-x,-y,-z
x,-y,1/2+z
1/2+x,1/2+y,z
1/2-x,1/2+y,1/2-z
1/2-x,1/2-y,-z
1/2+x,1/2-y,1/2+z
loop_
_atom_site_type_symbol
_atom_site_label
_atom_site_fract_x
_atom_site_fract_y
_atom_site_fract_z
Si Si1 0.959020 0.686629 0.710970
Si Si2 0.580116 0.820598 0.586392
Si Si3 0.437498 0.690115 0.122212
Si Si4 0.869766 0.952698 0.943953
Si Si5 0.000000 0.936768 0.250000
Si Si6 0.500000 0.072589 0.250000
O O1 0.043224 0.747996 0.601176
O O2 0.000000 0.719904 0.750000
O O3 0.121429 0.602213 0.590423
O O4 0.640849 0.678922 0.928424
O O5 0.750000 0.750000 0.500000
O O6 0.343729 0.781239 0.710005
O O7 0.448188 0.873227 0.727842
O O8 0.748524 0.877988 0.427804
O O9 0.414054 0.602601 0.171007
O O10 0.023458 0.002526 0.789080
O O11 0.758916 0.018015 0.066153
#
# Coordination Sequence:
#
# PCOD8140760 Si02
#       6
#     8   8   8   8   4   4
#     4  10  21  40  66 103 127 164 203 270 326 376
#     4  11  26  45  64  89 129 173 223 257 306 386
#     4  11  24  38  70  97 125 175 211 255 325 378
#     4  10  20  43  65  97 129 155 212 269 327 378
#     4  10  25  42  65  92 132 172 202 278 321 352
#     4  10  21  44  65  82 130 170 198 280 307 366
#
# _framework density 21.200907999999998
#
# number of rings (size 3 to 8) (size 9 to 14) (size 15 to 20)
#    0.000    1.600    3.000    3.000    9.800    1.600 
#    0.000    0.000    0.000    0.000    0.000    0.000 
#    0.000    0.000    0.000    0.000    0.000    0.000 
#
# Total GULP energy -247806.153974 kJ/mol
# GULP energy per Si atom -12390.307699 kJ/mol
# Density = 2.115265 g / cm^3
# Si number density = 21.200908 Si / 1000 Ang^3
#
#
#
# Elastic Constant Matrix: (Units=GPa)
#
#
# Indices 1 2 3 4 5 6 
#
# 1 82.6501 49.8182 50.1427 0.2303 -2.7311 0.2369
# 2 49.8182 120.9794 47.2836 -0.3068 9.4052 -0.0325
# 3 50.1427 47.2836 116.2686 -0.7463 10.3307 0.4042
# 4 0.2303 -0.3068 -0.7463 -7.5144 0.0057 -31.4356
# 5 -2.7311 9.4052 10.3307 0.0057 46.4180 -0.2014
# 6 0.2369 -0.0325 0.4042 -31.4356 -0.2014 -7.6038
#
#
#
# Elastic Compliance Matrix: (Units=1/GPa)
#
#
# Indices 1 2 3 4 5 6 
#
# 1 0.019668 -0.005881 -0.006428 -0.000041 0.003781 0.000365
# 2 -0.005881 0.011644 -0.001998 -0.000044 -0.002261 -0.000099
# 3 -0.006428 -0.001998 0.012432 0.000222 -0.002742 -0.000376
# 4 -0.000041 -0.000044 0.000222 0.008172 -0.000191 -0.033770
# 5 0.003781 -0.002261 -0.002742 -0.000191 0.022835 0.000165
# 6 0.000365 -0.000099 -0.000376 -0.033770 0.000165 0.008085
#
#
# Mechanical properties :
#
#
# Convention : Reuss Voigt Hill
#
# Bulk Modulus (GPa) = 66.09409 68.26522 67.17965
# Shear Modulus (GPa) = 42.92126 17.77022 30.34574
#
# Velocity S-wave (km/s) = 4.50433 2.89828 3.78741
# Velocity P-wave (km/s) = 7.63510 6.59311 7.13316
#
# Compressibility (1/GPa) = 0.01512995
#
# Stress axis : x y z
#
# Youngs Moduli (GPa) = 50.84527 85.88053 80.43795
#
# Poissons Ratio (x) = 0.50502 0.51705
# Poissons Ratio (y) = 0.29900 0.16074
# Poissons Ratio (z) = 0.32683 0.17162
#
# Static dielectric constant tensor:
#      x y z
#    x 3.587870 0.000440 0.311300 
#    y 0.000440 3.953600 0.001760 
#    z 0.311300 0.001760 4.108290 
# 
# 
# High freq. dielectric constant tensor:
#      x y z
#    x 1.806140 -0.000020 0.022230 
#    y -0.000020 1.833750 0.000160 
#    z 0.022230 0.000160 1.844380 
# 
# From -- ./inp_files/39440.got.cif
#   From: 2010.06.25/outbox.cif.g09.slc.cpg/sg15_20_cif.got.tgz:39440.got - 2010.06.28 07:06:18.
