data_PCOD8140127
_publ_section_title
;
Structure prediction by ZEFSAII (Michael W. Deem and Ramdas Pophale) SiO2 
 PCOD8140127
Probable space group: C 2/C
;
_chemical_formula_sum "Si O2"
_cell_formula_units_Z 48
_cell_length_a 11.509408
_cell_length_b 7.916683
_cell_length_c 25.630392
_cell_angle_alpha 90.000000
_cell_angle_beta 56.721501
_cell_angle_gamma 90.000000
_cell_volume 1952.381537
_symmetry_space_group_name_H-M "C 2/C"
_symmetry_group_IT_number 15
_symmetry_cell_setting 'monoclinic'
loop_
_space_group_symop_operation_xyz
x,y,z
-x,y,1/2-z
-x,-y,-z
x,-y,1/2+z
1/2+x,1/2+y,z
1/2-x,1/2+y,1/2-z
1/2-x,1/2-y,-z
1/2+x,1/2-y,1/2+z
loop_
_atom_site_type_symbol
_atom_site_label
_atom_site_fract_x
_atom_site_fract_y
_atom_site_fract_z
Si Si1 0.137680 0.294869 0.089074
Si Si2 0.875956 0.019647 0.489634
Si Si3 0.149033 0.616952 0.189422
Si Si4 0.465415 0.332346 0.371962
Si Si5 0.109274 0.174785 0.298251
Si Si6 0.753117 0.746075 0.160286
O O1 0.101202 0.199680 0.044676
O O2 0.227357 0.173792 0.107865
O O3 0.993383 0.327722 0.156960
O O4 0.223511 0.467295 0.054687
O O5 0.000000 0.000000 0.500000
O O6 0.877769 0.873237 0.445871
O O7 0.244327 0.709267 0.209209
O O8 0.228682 0.446119 0.155053
O O9 0.000000 0.578667 0.250000
O O10 0.136760 0.740490 0.142855
O O11 0.535644 0.498260 0.329621
O O12 0.591778 0.208824 0.358132
O O13 0.138090 0.179351 0.229290
#
# Coordination Sequence:
#
# PCOD8140127 Si02
#       6
#     8   8   8   8   8   8
#     4  10  21  38  65  95 123 169 222 262 323 389
#     4  10  20  40  67  91 125 174 221 267 320 381
#     4  11  22  39  63  95 135 168 211 265 330 391
#     4  10  22  40  65  97 127 172 217 265 320 394
#     4  10  22  40  64  96 133 169 209 268 330 387
#     4  11  21  41  65  96 133 168 209 273 328 387
#
# _framework density 24.585360000000001
#
# number of rings (size 3 to 8) (size 9 to 14) (size 15 to 20)
#    0.000    1.667    3.333    1.500    0.000    2.667 
#    0.000    1.667    0.000    0.000    0.000    0.000 
#    0.000    0.000    0.000    0.000    0.000    0.000 
#
# Total GULP energy -297359.251339 kJ/mol
# GULP energy per Si atom -12389.968806 kJ/mol
# Density = 2.452940 g / cm^3
# Si number density = 24.585360 Si / 1000 Ang^3
#
#
#
# Elastic Constant Matrix: (Units=GPa)
#
#
# Indices 1 2 3 4 5 6 
#
# 1 112.7133 27.5106 15.1452 0.0000 18.8797 0.0000
# 2 27.5106 36.6581 8.2056 0.0000 12.4246 0.0000
# 3 15.1452 8.2056 100.5217 0.0000 20.4430 0.0000
# 4 0.0000 0.0000 0.0000 34.4409 0.0000 7.6821
# 5 18.8797 12.4246 20.4430 0.0000 52.0422 0.0000
# 6 0.0000 0.0000 0.0000 7.6821 0.0000 36.0149
#
#
#
# Elastic Compliance Matrix: (Units=1/GPa)
#
#
# Indices 1 2 3 4 5 6 
#
# 1 0.011131 -0.007535 -0.000659 0.000000 -0.001980 0.000000
# 2 -0.007535 0.034887 -0.000625 0.000000 -0.005350 0.000000
# 3 -0.000659 -0.000625 0.010889 0.000000 -0.003889 0.000000
# 4 0.000000 0.000000 0.000000 0.030486 0.000000 -0.006503
# 5 -0.001980 -0.005350 -0.003889 0.000000 0.022739 0.000000
# 6 0.000000 0.000000 0.000000 -0.006503 0.000000 0.029153
#
#
# Mechanical properties :
#
#
# Convention : Reuss Voigt Hill
#
# Bulk Modulus (GPa) = 25.46461 39.06844 32.26653
# Shear Modulus (GPa) = 29.40948 37.76837 33.58893
#
# Velocity S-wave (km/s) = 3.46239 3.92371 3.70025
# Velocity P-wave (km/s) = 5.13462 6.03761 5.60433
#
# Compressibility (1/GPa) = 0.03927018
#
# Stress axis : x y z
#
# Youngs Moduli (GPa) = 89.83534 28.66398 91.83275
#
# Poissons Ratio (x) = 0.21598 0.06055
# Poissons Ratio (y) = 0.67691 0.05735
# Poissons Ratio (z) = 0.05923 0.01790
#
# Static dielectric constant tensor:
#      x y z
#    x 5.019600 0.000000 0.161670 
#    y 0.000000 3.992310 0.000000 
#    z 0.161670 0.000000 4.832740 
# 
# 
# High freq. dielectric constant tensor:
#      x y z
#    x 1.996450 0.000000 0.014630 
#    y 0.000000 1.926780 0.000000 
#    z 0.014630 0.000000 1.996880 
# 
# From -- ./inp_files/291038.got.cif
#   From: 2010.06.25/outbox.cif.g09.slc.cpg/sg15_146_cif.got.tgz:291038.got - 2010.06.28 07:06:18.
