data_PCOD8140908
_publ_section_title
;
Structure prediction by ZEFSAII (Michael W. Deem and Ramdas Pophale) SiO2 
 PCOD8140908
Probable space group: C 2/C
;
_chemical_formula_sum "Si O2"
_cell_formula_units_Z 64
_cell_length_a 24.787170
_cell_length_b 14.822789
_cell_length_c 10.021681
_cell_angle_alpha 90.000000
_cell_angle_beta 119.869025
_cell_angle_gamma 90.000000
_cell_volume 3193.006073
_symmetry_space_group_name_H-M "C 2/C"
_symmetry_group_IT_number 15
_symmetry_cell_setting 'monoclinic'
loop_
_space_group_symop_operation_xyz
x,y,z
-x,y,1/2-z
-x,-y,-z
x,-y,1/2+z
1/2+x,1/2+y,z
1/2-x,1/2+y,1/2-z
1/2-x,1/2-y,-z
1/2+x,1/2-y,1/2+z
loop_
_atom_site_type_symbol
_atom_site_label
_atom_site_fract_x
_atom_site_fract_y
_atom_site_fract_z
Si Si1 0.359028 0.896135 0.329171
Si Si2 0.459610 0.539164 0.570077
Si Si3 0.723491 0.669945 0.740584
Si Si4 0.237868 0.142271 0.252722
Si Si5 0.663977 0.975684 0.473411
Si Si6 0.369040 0.396913 0.577007
Si Si7 0.393140 0.697923 0.347583
Si Si8 0.715260 0.449421 0.465787
O O1 0.285015 0.880679 0.258740
O O2 0.400248 0.804037 0.393630
O O3 0.378181 0.969990 0.468144
O O4 0.374502 0.933199 0.198420
O O5 0.500000 0.558356 0.750000
O O6 0.500000 0.500000 0.500000
O O7 0.408605 0.463598 0.534499
O O8 0.427769 0.636044 0.498612
O O9 0.734965 0.772864 0.795493
O O10 0.671589 0.669347 0.562649
O O11 0.692543 0.624856 0.832547
O O12 0.293905 0.100694 0.405588
O O13 0.180763 0.180999 0.267698
O O14 0.205888 0.074137 0.108949
O O15 0.710676 0.045868 0.462847
O O16 0.415115 0.335611 0.726841
O O17 0.322871 0.459404 0.611802
#
# Coordination Sequence:
#
# PCOD8140908 Si02
#       8
#     8   8   8   8   8   8   8   8
#     4  10  21  34  55  83 124 161 198 238 286 355
#     4  12  26  43  63  88 115 153 204 252 301 353
#     4  10  21  30  48  82 118 157 198 232 278 347
#     4  11  19  31  51  79 119 158 197 233 278 352
#     4  11  18  33  51  80 119 159 195 228 283 349
#     4  12  20  36  58  79 114 157 196 238 294 354
#     4  11  22  37  58  84 116 158 203 246 297 348
#     4  11  18  30  47  75 114 163 189 224 279 347
#
# _framework density 20.043807000000001
#
# number of rings (size 3 to 8) (size 9 to 14) (size 15 to 20)
#    0.000    1.000    6.250    2.625    0.000    2.000 
#    0.000    0.000    0.000    0.000    0.000    0.875 
#    0.000    0.000    0.000    0.000    0.000    0.000 
#
# Total GULP energy -396489.300603 kJ/mol
# GULP energy per Si atom -12390.290644 kJ/mol
# Density = 1.999819 g / cm^3
# Si number density = 20.043807 Si / 1000 Ang^3
#
#
#
# Elastic Constant Matrix: (Units=GPa)
#
#
# Indices 1 2 3 4 5 6 
#
# 1 32.6344 26.5195 20.9209 0.0000 -2.2229 0.0000
# 2 26.5195 107.7773 34.6114 0.0000 -7.1115 0.0000
# 3 20.9209 34.6114 97.4143 0.0000 -15.6648 0.0000
# 4 0.0000 0.0000 0.0000 30.2321 0.0000 -1.9394
# 5 -2.2229 -7.1115 -15.6648 0.0000 21.6316 0.0000
# 6 0.0000 0.0000 0.0000 -1.9394 0.0000 17.4163
#
#
#
# Elastic Compliance Matrix: (Units=1/GPa)
#
#
# Indices 1 2 3 4 5 6 
#
# 1 0.041295 -0.008306 -0.006422 0.000000 -0.003138 0.000000
# 2 -0.008306 0.012158 -0.002298 0.000000 0.001479 0.000000
# 3 -0.006422 -0.002298 0.013846 0.000000 0.008611 0.000000
# 4 0.000000 0.000000 0.000000 0.033315 0.000000 0.003710
# 5 -0.003138 0.001479 0.008611 0.000000 0.052629 0.000000
# 6 0.000000 0.000000 0.000000 0.003710 0.000000 0.057831
#
#
# Mechanical properties :
#
#
# Convention : Reuss Voigt Hill
#
# Bulk Modulus (GPa) = 30.07781 44.65883 37.36832
# Shear Modulus (GPa) = 19.51543 24.24094 21.87818
#
# Velocity S-wave (km/s) = 3.12370 3.48141 3.30740
# Velocity P-wave (km/s) = 5.29610 6.20397 5.76793
#
# Compressibility (1/GPa) = 0.03324710
#
# Stress axis : x y z
#
# Youngs Moduli (GPa) = 24.21584 82.25267 72.22355
#
# Poissons Ratio (x) = 0.68316 0.46383
# Poissons Ratio (y) = 0.20113 0.16597
# Poissons Ratio (z) = 0.15552 0.18902
#
# Static dielectric constant tensor:
#      x y z
#    x 3.291860 0.000000 -0.265140 
#    y 0.000000 3.772790 0.000000 
#    z -0.265140 0.000000 3.597220 
# 
# 
# High freq. dielectric constant tensor:
#      x y z
#    x 1.723060 0.000000 -0.029720 
#    y 0.000000 1.788070 0.000000 
#    z -0.029720 0.000000 1.787540 
# 
# From -- ./inp_files/66263.got.cif
#   From: 2010.06.25/outbox.cif.g09.slc.cpg/sg15_34_cif.got.tgz:66263.got - 2010.06.28 07:06:18.
