data_PCOD8140444
_publ_section_title
;
Structure prediction by ZEFSAII (Michael W. Deem and Ramdas Pophale) SiO2 
 PCOD8140444
Probable space group: C 2/C
;
_chemical_formula_sum "Si O2"
_cell_formula_units_Z 56
_cell_length_a 26.666469
_cell_length_b 7.956320
_cell_length_c 10.125970
_cell_angle_alpha 90.000000
_cell_angle_beta 72.076094
_cell_angle_gamma 90.000000
_cell_volume 2044.126185
_symmetry_space_group_name_H-M "C 2/C"
_symmetry_group_IT_number 15
_symmetry_cell_setting 'monoclinic'
loop_
_space_group_symop_operation_xyz
x,y,z
-x,y,1/2-z
-x,-y,-z
x,-y,1/2+z
1/2+x,1/2+y,z
1/2-x,1/2+y,1/2-z
1/2-x,1/2-y,-z
1/2+x,1/2-y,1/2+z
loop_
_atom_site_type_symbol
_atom_site_label
_atom_site_fract_x
_atom_site_fract_y
_atom_site_fract_z
Si Si1 0.803519 0.982757 0.078604
Si Si2 0.912721 0.997144 0.341171
Si Si3 0.656376 0.834101 0.833993
Si Si4 0.046759 0.298219 0.036429
Si Si5 0.809794 0.530441 0.934802
Si Si6 0.556152 0.827232 0.547279
Si Si7 0.643415 0.710742 0.294236
O O1 0.803735 0.816713 0.167724
O O2 0.753109 0.977725 0.025018
O O3 0.803838 0.146406 0.173962
O O4 0.857137 0.003886 0.957583
O O5 0.951178 0.146491 0.360479
O O6 0.895728 0.049735 0.205860
O O7 0.938801 0.812384 0.339362
O O8 0.595589 0.783901 0.896146
O O9 0.665116 0.882981 0.674173
O O10 0.673623 0.982692 0.924736
O O11 0.994007 0.274957 0.997379
O O12 0.048968 0.481977 0.109001
O O13 0.835942 0.703386 0.857964
O O14 0.607636 0.835382 0.410930
#
# Coordination Sequence:
#
# PCOD8140444 Si02
#       7
#     8   8   8   8   8   8   8
#     4  10  23  39  64  92 134 183 228 285 357 415
#     4  10  22  41  63  97 137 174 230 291 346 422
#     4  11  24  43  66  99 137 177 238 292 345 426
#     4  10  20  41  68  95 132 182 225 293 355 417
#     4  12  23  43  68  97 140 183 235 292 355 421
#     4  10  22  40  66  99 133 178 236 282 357 428
#     4  11  22  41  64  96 137 182 234 292 350 428
#
# _framework density 27.395568999999998
#
# number of rings (size 3 to 8) (size 9 to 14) (size 15 to 20)
#    0.000    1.429    4.286    1.714    2.000    1.714 
#    0.000    1.429    0.000   10.286    0.000    0.000 
#    0.000    0.000    0.000    0.000    0.000    0.000 
#
# Total GULP energy -347005.347434 kJ/mol
# GULP energy per Si atom -12393.048123 kJ/mol
# Density = 2.733322 g / cm^3
# Si number density = 27.395569 Si / 1000 Ang^3
#
#
#
# Elastic Constant Matrix: (Units=GPa)
#
#
# Indices 1 2 3 4 5 6 
#
# 1 146.0985 40.0158 -2.2097 0.0000 -4.0669 0.0000
# 2 40.0158 108.5369 1.5521 0.0000 5.4174 0.0000
# 3 -2.2097 1.5521 27.2680 0.0000 -2.4817 0.0000
# 4 0.0000 0.0000 0.0000 20.3837 0.0000 12.0226
# 5 -4.0669 5.4174 -2.4817 0.0000 18.8037 0.0000
# 6 0.0000 0.0000 0.0000 12.0226 0.0000 47.8698
#
#
#
# Elastic Compliance Matrix: (Units=1/GPa)
#
#
# Indices 1 2 3 4 5 6 
#
# 1 0.007760 -0.003010 0.001044 0.000000 0.002683 0.000000
# 2 -0.003010 0.010532 -0.001193 0.000000 -0.003843 0.000000
# 3 0.001044 -0.001193 0.037326 0.000000 0.005496 0.000000
# 4 0.000000 0.000000 0.000000 0.057590 0.000000 -0.014464
# 5 0.002683 -0.003843 0.005496 0.000000 0.055594 0.000000
# 6 0.000000 0.000000 0.000000 -0.014464 0.000000 0.024523
#
#
# Mechanical properties :
#
#
# Convention : Reuss Voigt Hill
#
# Bulk Modulus (GPa) = 20.28386 40.06888 30.17637
# Shear Modulus (GPa) = 23.14028 33.58113 28.36070
#
# Velocity S-wave (km/s) = 2.90948 3.50492 3.22099
# Velocity P-wave (km/s) = 4.32515 5.57109 4.98718
#
# Compressibility (1/GPa) = 0.04930028
#
# Stress axis : x y z
#
# Youngs Moduli (GPa) = 128.87395 94.94930 26.79116
#
# Poissons Ratio (x) = 0.28577 -0.02798
# Poissons Ratio (y) = 0.38787 0.03196
# Poissons Ratio (z) = -0.13459 0.11329
#
# Static dielectric constant tensor:
#      x y z
#    x 5.272020 0.000000 0.335370 
#    y 0.000000 5.603910 0.000000 
#    z 0.335370 0.000000 4.767450 
# 
# 
# High freq. dielectric constant tensor:
#      x y z
#    x 2.120690 0.000000 0.005680 
#    y 0.000000 2.119540 0.000000 
#    z 0.005680 0.000000 2.070060 
# 
# From -- ./inp_files/121884.got.cif
#   From: 2010.06.25/outbox.cif.g09.slc.cpg/sg15_61_cif.got.tgz:121884.got - 2010.06.28 07:06:18.
