data_PCOD8140950
_publ_section_title
;
Structure prediction by ZEFSAII (Michael W. Deem and Ramdas Pophale) SiO2 
 PCOD8140950
Probable space group: C 2/C
;
_chemical_formula_sum "Si O2"
_cell_formula_units_Z 60
_cell_length_a 18.509100
_cell_length_b 13.214000
_cell_length_c 28.211011
_cell_angle_alpha 90.000000
_cell_angle_beta 26.748550
_cell_angle_gamma 90.000000
_cell_volume 3105.445824
_symmetry_space_group_name_H-M "C 2/C"
_symmetry_group_IT_number 15
_symmetry_cell_setting 'monoclinic'
loop_
_space_group_symop_operation_xyz
x,y,z
-x,y,1/2-z
-x,-y,-z
x,-y,1/2+z
1/2+x,1/2+y,z
1/2-x,1/2+y,1/2-z
1/2-x,1/2-y,-z
1/2+x,1/2-y,1/2+z
loop_
_atom_site_type_symbol
_atom_site_label
_atom_site_fract_x
_atom_site_fract_y
_atom_site_fract_z
Si Si1 0.664495 0.215838 0.348945
Si Si2 0.280852 0.858246 0.204762
Si Si3 0.500000 0.570893 0.750000
Si Si4 0.689955 0.764082 0.142788
Si Si5 0.621664 0.076687 0.511193
Si Si6 0.707111 0.360626 0.505230
Si Si7 0.164733 0.632413 0.937701
Si Si8 0.397009 0.458918 0.716135
O O1 0.712437 0.257297 0.269156
O O2 0.745215 0.288020 0.342141
O O3 0.469189 0.210389 0.464513
O O4 0.732829 0.103783 0.318348
O O5 0.321964 0.845587 0.125548
O O6 0.144516 0.943980 0.291726
O O7 0.447467 0.888580 0.131086
O O8 0.346746 0.643290 0.851871
O O9 0.461547 0.495577 0.729243
O O10 0.500000 0.743319 0.250000
O O11 0.784061 0.664242 0.071453
O O12 0.734596 0.860895 0.083532
O O13 0.708908 0.054504 0.510669
O O14 0.610935 0.981255 0.482704
O O15 0.750000 0.250000 0.500000
O O16 0.518396 0.384382 0.617812
#
# Coordination Sequence:
#
# PCOD8140950 Si02
#       8
#     8   8   4   8   8   8   8   8
#     4  12  23  37  60  87 128 161 196 244 305 362
#     4  11  23  38  58  91 120 161 201 245 302 360
#     4  10  22  36  64  90 112 148 202 264 306 336
#     4  11  21  33  55  93 124 157 187 242 312 371
#     4  11  18  36  57  90 122 149 193 254 304 349
#     4  10  21  33  58  88 122 149 191 247 308 361
#     4  11  22  37  60  86 117 155 205 255 295 349
#     4  11  22  37  59  91 119 155 198 250 302 353
#
# _framework density 19.320896000000001
#
# number of rings (size 3 to 8) (size 9 to 14) (size 15 to 20)
#    0.000    1.067    4.000    6.000    3.733    0.000 
#    0.000    3.333    0.000    0.000    0.000    0.000 
#    0.000    0.000    0.000    0.000    0.000    0.000 
#
# Total GULP energy -371691.831459 kJ/mol
# GULP energy per Si atom -12389.727715 kJ/mol
# Density = 1.927692 g / cm^3
# Si number density = 19.320896 Si / 1000 Ang^3
#
#
#
# Elastic Constant Matrix: (Units=GPa)
#
#
# Indices 1 2 3 4 5 6 
#
# 1 81.8104 42.8032 51.9698 0.0028 1.6309 -0.0006
# 2 42.8032 44.3678 48.2797 0.0050 2.3529 0.0030
# 3 51.9698 48.2797 138.6519 0.0041 -20.2882 0.0039
# 4 0.0028 0.0050 0.0041 38.2317 0.0030 0.8686
# 5 1.6309 2.3529 -20.2882 0.0030 41.0943 -0.0006
# 6 -0.0006 0.0030 0.0039 0.8686 -0.0006 23.1275
#
#
#
# Elastic Compliance Matrix: (Units=1/GPa)
#
#
# Indices 1 2 3 4 5 6 
#
# 1 0.024900 -0.022132 -0.001709 0.000001 -0.000565 0.000004
# 2 -0.022132 0.059307 -0.013715 -0.000004 -0.009288 -0.000006
# 3 -0.001709 -0.013715 0.013746 0.000000 0.007640 0.000000
# 4 0.000001 -0.000004 0.000000 0.026179 -0.000002 -0.000983
# 5 -0.000565 -0.009288 0.007640 -0.000002 0.028660 0.000001
# 6 0.000004 -0.000006 0.000000 -0.000983 0.000001 0.043276
#
#
# Mechanical properties :
#
#
# Convention : Reuss Voigt Hill
#
# Bulk Modulus (GPa) = 43.77998 61.21505 52.49752
# Shear Modulus (GPa) = 17.93445 28.60918 23.27181
#
# Velocity S-wave (km/s) = 3.05001 3.85221 3.47434
# Velocity P-wave (km/s) = 5.92554 7.17901 6.58218
#
# Compressibility (1/GPa) = 0.02284149
#
# Stress axis : x y z
#
# Youngs Moduli (GPa) = 40.16088 16.86141 72.74665
#
# Poissons Ratio (x) = 0.37318 0.12433
# Poissons Ratio (y) = 0.88884 0.99770
# Poissons Ratio (z) = 0.06864 0.23125
#
# Static dielectric constant tensor:
#      x y z
#    x 4.196380 -0.000010 -0.124560 
#    y -0.000010 3.183430 0.000010 
#    z -0.124560 0.000010 3.931140 
# 
# 
# High freq. dielectric constant tensor:
#      x y z
#    x 1.753250 0.000000 -0.016590 
#    y 0.000000 1.696090 0.000000 
#    z -0.016590 0.000000 1.769260 
# 
# From -- ./inp_files/299094.got.cif
#   From: 2010.06.25/outbox.cif.g09.slc.cpg/sg15_150_cif.got.tgz:299094.got - 2010.06.28 07:06:18.
