data_PCOD8140939
_publ_section_title
;
Structure prediction by ZEFSAII (Michael W. Deem and Ramdas Pophale) SiO2 
 PCOD8140939
Probable space group: C 2/C
;
_chemical_formula_sum "Si O2"
_cell_formula_units_Z 48
_cell_length_a 16.208337
_cell_length_b 6.182951
_cell_length_c 22.969572
_cell_angle_alpha 90.000000
_cell_angle_beta 72.918029
_cell_angle_gamma 90.000000
_cell_volume 2200.356424
_symmetry_space_group_name_H-M "C 2/C"
_symmetry_group_IT_number 15
_symmetry_cell_setting 'monoclinic'
loop_
_space_group_symop_operation_xyz
x,y,z
-x,y,1/2-z
-x,-y,-z
x,-y,1/2+z
1/2+x,1/2+y,z
1/2-x,1/2+y,1/2-z
1/2-x,1/2-y,-z
1/2+x,1/2-y,1/2+z
loop_
_atom_site_type_symbol
_atom_site_label
_atom_site_fract_x
_atom_site_fract_y
_atom_site_fract_z
Si Si1 0.586492 0.983929 0.699884
Si Si2 0.988703 0.812950 0.956307
Si Si3 0.000302 0.854015 0.362199
Si Si4 0.272339 0.695530 0.337633
Si Si5 0.159464 0.149598 0.761538
Si Si6 0.606444 0.074004 0.432845
O O1 0.500000 0.071340 0.750000
O O2 0.570247 0.798040 0.654501
O O3 0.644489 0.890583 0.740368
O O4 0.642564 0.174779 0.657732
O O5 0.078618 0.677900 0.930345
O O6 0.915801 0.648639 0.996200
O O7 0.960260 0.931919 0.901923
O O8 0.000000 0.000000 0.000000
O O9 0.066639 0.945979 0.300291
O O10 0.052105 0.709744 0.397606
O O11 0.221803 0.850762 0.303821
O O12 0.302899 0.484001 0.298836
O O13 0.208737 0.614220 0.402410
#
# Coordination Sequence:
#
# PCOD8140939 Si02
#       6
#     8   8   8   8   8   8
#     4  10  22  38  53  86 124 157 201 242 304 371
#     4   9  18  36  60  84 115 153 204 250 299 357
#     4   9  20  35  57  82 117 157 201 248 298 365
#     4  11  21  35  58  85 122 155 197 249 299 362
#     4  10  21  33  55  85 115 159 196 239 300 361
#     4   9  20  35  59  89 111 153 206 248 301 366
#
# _framework density 21.814648999999999
#
# number of rings (size 3 to 8) (size 9 to 14) (size 15 to 20)
#    0.000    2.333    1.667    0.000    2.333    4.667 
#    0.000    0.833    0.000   10.000    0.000    0.000 
#    0.000    0.000    0.000    0.000    0.000    0.000 
#
# Total GULP energy -297341.668832 kJ/mol
# GULP energy per Si atom -12389.236201 kJ/mol
# Density = 2.176500 g / cm^3
# Si number density = 21.814649 Si / 1000 Ang^3
#
#
#
# Elastic Constant Matrix: (Units=GPa)
#
#
# Indices 1 2 3 4 5 6 
#
# 1 76.6560 38.8806 40.4646 0.0003 -25.8361 0.0006
# 2 38.8806 93.8635 47.6293 0.0009 -28.9505 0.0019
# 3 40.4646 47.6293 116.5459 0.0002 -37.6290 0.0001
# 4 0.0003 0.0009 0.0002 36.7435 0.0001 -5.0044
# 5 -25.8361 -28.9505 -37.6290 0.0001 30.4784 0.0001
# 6 0.0006 0.0019 0.0001 -5.0044 0.0001 29.8549
#
#
#
# Elastic Compliance Matrix: (Units=1/GPa)
#
#
# Indices 1 2 3 4 5 6 
#
# 1 0.019559 -0.003917 -0.001726 0.000000 0.010728 0.000000
# 2 -0.003917 0.016325 -0.002290 -0.000001 0.009359 -0.000001
# 3 -0.001726 -0.002290 0.014867 0.000000 0.014717 0.000000
# 4 0.000000 -0.000001 0.000000 0.027852 -0.000001 0.004669
# 5 0.010728 0.009359 0.014717 -0.000001 0.068963 -0.000001
# 6 0.000000 -0.000001 0.000000 0.004669 -0.000001 0.034278
#
#
# Mechanical properties :
#
#
# Convention : Reuss Voigt Hill
#
# Bulk Modulus (GPa) = 28.66603 60.11269 44.38936
# Shear Modulus (GPa) = 23.88480 30.08809 26.98645
#
# Velocity S-wave (km/s) = 3.31251 3.71787 3.52103
# Velocity P-wave (km/s) = 5.27253 6.78572 6.07641
#
# Compressibility (1/GPa) = 0.03488449
#
# Stress axis : x y z
#
# Youngs Moduli (GPa) = 51.12716 61.25639 67.26297
#
# Poissons Ratio (x) = 0.23994 0.11612
# Poissons Ratio (y) = 0.20026 0.15402
# Poissons Ratio (z) = 0.08827 0.14027
#
# Static dielectric constant tensor:
#      x y z
#    x 3.796750 0.000000 -0.142890 
#    y 0.000000 3.944840 0.000000 
#    z -0.142890 0.000000 4.435950 
# 
# 
# High freq. dielectric constant tensor:
#      x y z
#    x 1.826280 0.000000 -0.010640 
#    y 0.000000 1.856760 0.000000 
#    z -0.010640 0.000000 1.859200 
# 
# From -- ./inp_files/297427.got.cif
#   From: 2010.06.25/outbox.cif.g09.slc.cpg/sg15_149_cif.got.tgz:297427.got - 2010.06.28 07:06:18.
