data_PCOD8140179
_publ_section_title
;
Structure prediction by ZEFSAII (Michael W. Deem and Ramdas Pophale) SiO2 
 PCOD8140179
Probable space group: C 2/C
;
_chemical_formula_sum "Si O2"
_cell_formula_units_Z 56
_cell_length_a 25.466404
_cell_length_b 7.925599
_cell_length_c 10.280234
_cell_angle_alpha 90.000000
_cell_angle_beta 93.588149
_cell_angle_gamma 90.000000
_cell_volume 2070.859023
_symmetry_space_group_name_H-M "C 2/C"
_symmetry_group_IT_number 15
_symmetry_cell_setting 'monoclinic'
loop_
_space_group_symop_operation_xyz
x,y,z
-x,y,1/2-z
-x,-y,-z
x,-y,1/2+z
1/2+x,1/2+y,z
1/2-x,1/2+y,1/2-z
1/2-x,1/2-y,-z
1/2+x,1/2-y,1/2+z
loop_
_atom_site_type_symbol
_atom_site_label
_atom_site_fract_x
_atom_site_fract_y
_atom_site_fract_z
Si Si1 0.303357 0.016311 0.633608
Si Si2 0.049781 0.803353 0.841944
Si Si3 0.087615 0.495987 0.994563
Si Si4 0.857038 0.703538 0.314754
Si Si5 0.841191 0.161121 0.252211
Si Si6 0.448543 0.317580 0.157531
Si Si7 0.808838 0.031594 0.989919
O O1 0.358397 0.988599 0.573614
O O2 0.301294 0.187867 0.715361
O O3 0.254067 0.018723 0.529334
O O4 0.303926 0.855510 0.731631
O O5 0.052895 0.661479 0.953678
O O6 0.098594 0.787244 0.751608
O O7 0.000000 0.757125 0.750000
O O8 0.046292 0.993470 0.902576
O O9 0.056497 0.321447 0.959960
O O10 0.106998 0.535386 0.145150
O O11 0.896255 0.824691 0.240177
O O12 0.835203 0.792677 0.443234
O O13 0.833045 0.111813 0.401075
O O14 0.825425 0.012584 0.144044
O O15 0.500000 0.272723 0.250000
#
# Coordination Sequence:
#
# PCOD8140179 Si02
#       7
#     8   8   8   8   8   8   8
#     4  10  23  39  64  92 128 178 220 279 346 405
#     4  10  20  40  68  95 130 176 222 277 347 404
#     4  10  22  41  63  94 132 171 226 278 341 405
#     4  11  22  41  64  91 132 174 226 285 336 414
#     4  11  24  43  65  98 132 177 227 285 341 411
#     4  10  22  41  62  93 133 169 225 283 336 411
#     4  12  23  43  68  95 137 175 231 283 344 409
#
# _framework density 27.041920000000001
#
# number of rings (size 3 to 8) (size 9 to 14) (size 15 to 20)
#    0.000    1.429    4.286    1.714    2.000    1.714 
#    0.000    7.857    0.000    0.000    0.000    0.000 
#    0.000    0.000    0.000    0.000    0.000    0.000 
#
# Total GULP energy -346955.824888 kJ/mol
# GULP energy per Si atom -12391.279460 kJ/mol
# Density = 2.698037 g / cm^3
# Si number density = 27.041920 Si / 1000 Ang^3
#
#
#
# Elastic Constant Matrix: (Units=GPa)
#
#
# Indices 1 2 3 4 5 6 
#
# 1 97.3390 15.2817 22.1314 0.0000 39.1964 0.0000
# 2 15.2817 78.4531 7.8311 0.0000 11.9461 0.0000
# 3 22.1314 7.8311 39.0807 0.0000 16.4952 0.0000
# 4 0.0000 0.0000 0.0000 37.5135 0.0000 16.9938
# 5 39.1964 11.9461 16.4952 0.0000 40.9295 0.0000
# 6 0.0000 0.0000 0.0000 16.9938 0.0000 25.4540
#
#
#
# Elastic Compliance Matrix: (Units=1/GPa)
#
#
# Indices 1 2 3 4 5 6 
#
# 1 0.017116 -0.000745 -0.003274 0.000000 -0.014855 0.000000
# 2 -0.000745 0.013422 -0.001103 0.000000 -0.002759 0.000000
# 3 -0.003274 -0.001103 0.031575 0.000000 -0.009268 0.000000
# 4 0.000000 0.000000 0.000000 0.038215 0.000000 -0.025513
# 5 -0.014855 -0.002759 -0.009268 0.000000 0.043199 0.000000
# 6 0.000000 0.000000 0.000000 -0.025513 0.000000 0.056320
#
#
# Mechanical properties :
#
#
# Convention : Reuss Voigt Hill
#
# Bulk Modulus (GPa) = 19.27922 33.92901 26.60411
# Shear Modulus (GPa) = 21.98959 32.08796 27.03877
#
# Velocity S-wave (km/s) = 2.85470 3.44844 3.16552
# Velocity P-wave (km/s) = 4.24389 5.33196 4.81873
#
# Compressibility (1/GPa) = 0.05186933
#
# Stress axis : x y z
#
# Youngs Moduli (GPa) = 58.42331 74.50522 31.67076
#
# Poissons Ratio (x) = 0.05553 0.10368
# Poissons Ratio (y) = 0.04354 0.03493
# Poissons Ratio (z) = 0.19127 0.08216
#
# Static dielectric constant tensor:
#      x y z
#    x 4.782140 0.000000 0.368300 
#    y 0.000000 5.313140 0.000000 
#    z 0.368300 0.000000 5.078870 
# 
# 
# High freq. dielectric constant tensor:
#      x y z
#    x 2.087050 0.000000 0.024390 
#    y 0.000000 2.097020 0.000000 
#    z 0.024390 0.000000 2.075290 
# 
# From -- ./inp_files/122011.got.cif
#   From: 2010.06.25/outbox.cif.g09.slc.cpg/sg15_62_cif.got.tgz:122011.got - 2010.06.28 07:06:18.
