data_PCOD8140308
_publ_section_title
;
Structure prediction by ZEFSAII (Michael W. Deem and Ramdas Pophale) SiO2 
 PCOD8140308
Probable space group: C 2/C
;
_chemical_formula_sum "Si O2"
_cell_formula_units_Z 40
_cell_length_a 16.083281
_cell_length_b 16.280349
_cell_length_c 15.669242
_cell_angle_alpha 90.000000
_cell_angle_beta 153.610769
_cell_angle_gamma 90.000000
_cell_volume 1823.583662
_symmetry_space_group_name_H-M "C 2/C"
_symmetry_group_IT_number 15
_symmetry_cell_setting 'monoclinic'
loop_
_space_group_symop_operation_xyz
x,y,z
-x,y,1/2-z
-x,-y,-z
x,-y,1/2+z
1/2+x,1/2+y,z
1/2-x,1/2+y,1/2-z
1/2-x,1/2-y,-z
1/2+x,1/2-y,1/2+z
loop_
_atom_site_type_symbol
_atom_site_label
_atom_site_fract_x
_atom_site_fract_y
_atom_site_fract_z
Si Si1 0.621840 0.439924 0.783618
Si Si2 0.160524 0.646748 0.149138
Si Si3 0.409808 0.571352 0.502827
Si Si4 0.253335 0.822014 0.309371
Si Si5 0.702241 0.098119 0.477658
O O1 0.500000 0.404205 0.750000
O O2 0.740939 0.365230 0.852493
O O3 0.482077 0.477989 0.582653
O O4 0.763442 0.511463 0.943186
O O5 0.230980 0.572392 0.275550
O O6 0.227051 0.728706 0.257627
O O7 0.938412 0.642320 0.933341
O O8 0.574314 0.627013 0.613816
O O9 0.359116 0.609023 0.549191
O O10 0.281516 0.828577 0.438063
O O11 0.500000 0.098121 0.250000
#
# Coordination Sequence:
#
# PCOD8140308 Si02
#       5
#     8   8   8   8   8
#     4   9  22  42  64  87 120 163 209 254 302 357
#     4  12  22  40  60  92 127 159 203 252 307 366
#     4  10  21  41  63  90 124 160 203 254 304 361
#     4  11  23  38  61  93 125 163 201 243 310 369
#     4  10  20  41  63  94 125 159 202 251 308 362
#
# _framework density 21.934830999999999
#
# number of rings (size 3 to 8) (size 9 to 14) (size 15 to 20)
#    0.000    1.600    4.000    2.400    0.000    4.000 
#   10.800    1.000    0.000    0.000    0.000    0.000 
#    0.000    0.000    0.000    0.000    0.000    0.000 
#
# Total GULP energy -247965.761616 kJ/mol
# GULP energy per Si atom -12398.288081 kJ/mol
# Density = 2.188491 g / cm^3
# Si number density = 21.934831 Si / 1000 Ang^3
#
#
#
# Elastic Constant Matrix: (Units=GPa)
#
#
# Indices 1 2 3 4 5 6 
#
# 1 130.3649 61.9532 14.4914 0.0072 29.9366 0.0086
# 2 61.9532 66.0921 21.6345 -0.0058 10.1945 0.0109
# 3 14.4914 21.6345 79.3325 0.0145 17.1657 0.0291
# 4 0.0072 -0.0058 0.0145 12.1015 -0.0045 2.8570
# 5 29.9366 10.1945 17.1657 -0.0045 35.6478 0.0063
# 6 0.0086 0.0109 0.0291 2.8570 0.0063 33.9319
#
#
#
# Elastic Compliance Matrix: (Units=1/GPa)
#
#
# Indices 1 2 3 4 5 6 
#
# 1 0.017502 -0.015769 0.003693 -0.000027 -0.011967 0.000002
# 2 -0.015769 0.031088 -0.007300 0.000037 0.007867 -0.000004
# 3 0.003693 -0.007300 0.015785 -0.000026 -0.008615 -0.000008
# 4 -0.000027 0.000037 -0.000026 0.084310 0.000037 -0.007099
# 5 -0.011967 0.007867 -0.008615 0.000037 0.040000 -0.000003
# 6 0.000002 -0.000004 -0.000008 -0.007099 -0.000003 0.030068
#
#
# Mechanical properties :
#
#
# Convention : Reuss Voigt Hill
#
# Bulk Modulus (GPa) = 39.02728 52.43864 45.73296
# Shear Modulus (GPa) = 18.79363 28.18361 23.48862
#
# Velocity S-wave (km/s) = 2.93028 3.58841 3.27591
# Velocity P-wave (km/s) = 5.41107 6.41306 5.93326
#
# Compressibility (1/GPa) = 0.02562311
#
# Stress axis : x y z
#
# Youngs Moduli (GPa) = 57.13565 32.16682 63.34978
#
# Poissons Ratio (x) = 0.50724 -0.23392
# Poissons Ratio (y) = 0.90098 0.46244
# Poissons Ratio (z) = -0.21098 0.23481
#
# Static dielectric constant tensor:
#      x y z
#    x 4.163320 0.000000 0.214500 
#    y 0.000000 3.529660 -0.000020 
#    z 0.214500 -0.000020 4.080230 
# 
# 
# High freq. dielectric constant tensor:
#      x y z
#    x 1.869050 0.000000 0.014030 
#    y 0.000000 1.821980 0.000000 
#    z 0.014030 0.000000 1.871960 
# 
# From -- ./inp_files/37838.got.cif
#   From: 2010.06.25/outbox.cif.g09.slc.cpg/sg15_19_cif.got.tgz:37838.got - 2010.06.28 07:06:18.
