data_PCOD8140890
_publ_section_title
;
Structure prediction by ZEFSAII (Michael W. Deem and Ramdas Pophale) SiO2 
 PCOD8140890
Probable space group: C 2/C
;
_chemical_formula_sum "Si O2"
_cell_formula_units_Z 60
_cell_length_a 25.888415
_cell_length_b 11.166176
_cell_length_c 10.805301
_cell_angle_alpha 90.000000
_cell_angle_beta 111.748922
_cell_angle_gamma 90.000000
_cell_volume 2901.193752
_symmetry_space_group_name_H-M "C 2/C"
_symmetry_group_IT_number 15
_symmetry_cell_setting 'monoclinic'
loop_
_space_group_symop_operation_xyz
x,y,z
-x,y,1/2-z
-x,-y,-z
x,-y,1/2+z
1/2+x,1/2+y,z
1/2-x,1/2+y,1/2-z
1/2-x,1/2-y,-z
1/2+x,1/2-y,1/2+z
loop_
_atom_site_type_symbol
_atom_site_label
_atom_site_fract_x
_atom_site_fract_y
_atom_site_fract_z
Si Si1 0.869853 0.574681 0.475279
Si Si2 0.694419 0.790885 0.385844
Si Si3 0.777593 0.532715 0.196850
Si Si4 0.336665 0.641417 0.359364
Si Si5 0.075920 0.754208 0.138348
Si Si6 0.500000 0.378929 0.250000
Si Si7 0.439618 0.509986 0.006600
Si Si8 0.650295 0.835129 0.923893
O O1 0.855851 0.666761 0.571757
O O2 0.813319 0.575733 0.345266
O O3 0.920969 0.629368 0.437376
O O4 0.886063 0.444041 0.545265
O O5 0.750000 0.750000 0.500000
O O6 0.669491 0.682469 0.286563
O O7 0.711298 0.893248 0.304996
O O8 0.712004 0.547140 0.156844
O O9 0.795603 0.603364 0.088491
O O10 0.397204 0.585103 0.414198
O O11 0.330393 0.748336 0.451255
O O12 0.018040 0.789773 0.153734
O O13 0.118515 0.741525 0.290936
O O14 0.087443 0.859665 0.046842
O O15 0.549794 0.468635 0.340622
O O16 0.500000 0.500000 0.000000
#
# Coordination Sequence:
#
# PCOD8140890 Si02
#       8
#     8   8   8   8   8   4   8   8
#     4  10  21  40  60  94 131 172 209 261 320 391
#     4  11  23  37  57  91 137 169 212 264 312 399
#     4  10  22  36  59  91 132 169 215 258 318 395
#     4  12  22  38  66  93 129 181 215 265 334 394
#     4  10  22  41  71  90 125 168 212 275 331 389
#     4  10  20  46  68  96 126 160 216 288 340 386
#     4  10  24  41  64  96 127 166 221 274 332 388
#     4  10  21  40  61  92 130 171 214 263 323 400
#
# _framework density 20.681144
#
# number of rings (size 3 to 8) (size 9 to 14) (size 15 to 20)
#    0.000    1.600    4.000    0.400    1.867    3.200 
#    0.000    0.667    0.000    0.000    0.000    0.000 
#    0.000    0.000    0.000    0.000    0.000    0.000 
#
# Total GULP energy -371644.940232 kJ/mol
# GULP energy per Si atom -12388.164674 kJ/mol
# Density = 2.063407 g / cm^3
# Si number density = 20.681144 Si / 1000 Ang^3
#
#
#
# Elastic Constant Matrix: (Units=GPa)
#
#
# Indices 1 2 3 4 5 6 
#
# 1 79.3879 42.1191 34.4966 0.0000 -0.6157 0.0000
# 2 42.1191 79.9951 45.5976 0.0000 3.7391 0.0000
# 3 34.4966 45.5976 104.9792 0.0000 7.4026 0.0000
# 4 0.0000 0.0000 0.0000 45.1561 0.0000 -3.8218
# 5 -0.6157 3.7391 7.4026 0.0000 29.1247 0.0000
# 6 0.0000 0.0000 0.0000 -3.8218 0.0000 26.3405
#
#
#
# Elastic Compliance Matrix: (Units=1/GPa)
#
#
# Indices 1 2 3 4 5 6 
#
# 1 0.018037 -0.008150 -0.002533 0.000000 0.002071 0.000000
# 2 -0.008150 0.020299 -0.006051 0.000000 -0.001240 0.000000
# 3 -0.002533 -0.006051 0.013172 0.000000 -0.002624 0.000000
# 4 0.000000 0.000000 0.000000 0.022421 0.000000 0.003253
# 5 0.002071 -0.001240 -0.002624 0.000000 0.035205 0.000000
# 6 0.000000 0.000000 0.000000 0.003253 0.000000 0.038436
#
#
# Mechanical properties :
#
#
# Convention : Reuss Voigt Hill
#
# Bulk Modulus (GPa) = 55.43564 56.53208 55.98386
# Shear Modulus (GPa) = 26.73057 29.60086 28.16571
#
# Velocity S-wave (km/s) = 3.59905 3.78735 3.69440
# Velocity P-wave (km/s) = 6.64334 6.82054 6.73253
#
# Compressibility (1/GPa) = 0.01803894
#
# Stress axis : x y z
#
# Youngs Moduli (GPa) = 55.44144 49.26333 75.92070
#
# Poissons Ratio (x) = 0.40148 0.19233
# Poissons Ratio (y) = 0.45183 0.45943
# Poissons Ratio (z) = 0.14045 0.29811
#
# Static dielectric constant tensor:
#      x y z
#    x 3.496130 0.000000 -0.223420 
#    y 0.000000 3.982580 0.000000 
#    z -0.223420 0.000000 4.050240 
# 
# 
# High freq. dielectric constant tensor:
#      x y z
#    x 1.784550 0.000000 -0.017260 
#    y 0.000000 1.812500 0.000000 
#    z -0.017260 0.000000 1.819540 
# 
# From -- ./inp_files/126290.got.cif
#   From: 2010.06.25/outbox.cif.g09.slc.cpg/sg15_64_cif.got.tgz:126290.got - 2010.06.28 07:06:18.
