data_PCOD8140653
_publ_section_title
;
Structure prediction by ZEFSAII (Michael W. Deem and Ramdas Pophale) SiO2 
 PCOD8140653
Probable space group: C 2/C
;
_chemical_formula_sum "Si O2"
_cell_formula_units_Z 60
_cell_length_a 21.394109
_cell_length_b 11.800216
_cell_length_c 21.791376
_cell_angle_alpha 90.000000
_cell_angle_beta 32.063055
_cell_angle_gamma 90.000000
_cell_volume 2920.400845
_symmetry_space_group_name_H-M "C 2/C"
_symmetry_group_IT_number 15
_symmetry_cell_setting 'monoclinic'
loop_
_space_group_symop_operation_xyz
x,y,z
-x,y,1/2-z
-x,-y,-z
x,-y,1/2+z
1/2+x,1/2+y,z
1/2-x,1/2+y,1/2-z
1/2-x,1/2-y,-z
1/2+x,1/2-y,1/2+z
loop_
_atom_site_type_symbol
_atom_site_label
_atom_site_fract_x
_atom_site_fract_y
_atom_site_fract_z
Si Si1 0.784860 0.139875 0.086896
Si Si2 0.042728 0.919047 0.345025
Si Si3 0.225018 0.134392 0.054028
Si Si4 0.617445 0.876691 0.484160
Si Si5 0.265337 0.589191 0.318609
Si Si6 0.500000 0.504945 0.750000
Si Si7 0.623086 0.065705 0.114563
Si Si8 0.865027 0.681834 0.183226
O O1 0.719150 0.130056 0.076524
O O2 0.695938 0.099515 0.214692
O O3 0.805727 0.266876 0.094807
O O4 0.908870 0.073039 0.981296
O O5 0.045605 0.914771 0.267556
O O6 0.110132 0.809883 0.314988
O O7 0.111532 0.033864 0.307526
O O8 0.218842 0.159249 0.131946
O O9 0.102866 0.074316 0.136642
O O10 0.250000 0.250000 0.000000
O O11 0.332567 0.056566 0.943594
O O12 0.603508 0.863054 0.569355
O O13 0.488473 0.874482 0.561789
O O14 0.678625 0.986065 0.406133
O O15 0.216371 0.677427 0.309617
O O16 0.500000 0.049373 0.250000
#
# Coordination Sequence:
#
# PCOD8140653 Si02
#       8
#     8   8   8   8   8   4   8   8
#     4  11  21  37  60  96 126 159 213 259 317 372
#     4  10  22  40  65  93 126 170 211 259 329 377
#     4  10  23  42  65  90 121 162 216 258 324 372
#     4  10  21  38  61  87 127 161 203 257 316 377
#     4  10  22  43  62  87 124 169 208 259 321 377
#     4  10  20  42  68  92 134 164 202 280 326 374
#     4  11  21  37  61  95 125 157 203 268 314 371
#     4  11  22  38  61  90 127 169 208 255 311 391
#
# _framework density 20.545124999999999
#
# number of rings (size 3 to 8) (size 9 to 14) (size 15 to 20)
#    0.000    1.600    4.000    0.800    0.933    2.667 
#    2.400    5.333    0.000    0.000    0.000    0.000 
#    0.000    0.000    0.000    0.000    0.000    0.000 
#
# Total GULP energy -371836.861575 kJ/mol
# GULP energy per Si atom -12394.562052 kJ/mol
# Density = 2.049836 g / cm^3
# Si number density = 20.545125 Si / 1000 Ang^3
#
#
#
# Elastic Constant Matrix: (Units=GPa)
#
#
# Indices 1 2 3 4 5 6 
#
# 1 119.3537 35.7247 16.4189 0.0000 -13.5715 0.0000
# 2 35.7247 69.0297 21.1135 0.0001 -4.4041 0.0000
# 3 16.4189 21.1135 104.5005 0.0002 -17.3639 -0.0001
# 4 0.0000 0.0001 0.0002 23.2276 -0.0001 1.6245
# 5 -13.5715 -4.4041 -17.3639 -0.0001 28.1917 0.0000
# 6 0.0000 0.0000 -0.0001 1.6245 0.0000 31.7757
#
#
#
# Elastic Compliance Matrix: (Units=1/GPa)
#
#
# Indices 1 2 3 4 5 6 
#
# 1 0.010386 -0.005138 0.000115 0.000000 0.004268 0.000000
# 2 -0.005138 0.017990 -0.003087 0.000000 -0.001565 0.000000
# 3 0.000115 -0.003087 0.011256 0.000000 0.006506 0.000000
# 4 0.000000 0.000000 0.000000 0.043207 0.000000 -0.002209
# 5 0.004268 -0.001565 0.006506 0.000000 0.041289 0.000000
# 6 0.000000 0.000000 0.000000 -0.002209 0.000000 0.031584
#
#
# Mechanical properties :
#
#
# Convention : Reuss Voigt Hill
#
# Bulk Modulus (GPa) = 42.71300 48.82201 45.76750
# Shear Modulus (GPa) = 27.81876 31.28080 29.54978
#
# Velocity S-wave (km/s) = 3.68371 3.90621 3.79659
# Velocity P-wave (km/s) = 6.23923 6.64526 6.44544
#
# Compressibility (1/GPa) = 0.02341207
#
# Stress axis : x y z
#
# Youngs Moduli (GPa) = 96.28559 55.58632 88.84118
#
# Poissons Ratio (x) = 0.28560 -0.01026
# Poissons Ratio (y) = 0.49471 0.27429
# Poissons Ratio (z) = -0.01112 0.17162
#
# Static dielectric constant tensor:
#      x y z
#    x 3.746010 0.000000 -0.126560 
#    y 0.000000 3.316590 0.000000 
#    z -0.126560 0.000000 4.018490 
# 
# 
# High freq. dielectric constant tensor:
#      x y z
#    x 1.798540 0.000000 -0.008690 
#    y 0.000000 1.769450 0.000000 
#    z -0.008690 0.000000 1.828280 
# 
# From -- ./inp_files/280088.got.cif
#   From: 2010.06.25/outbox.cif.g09.slc.cpg/sg15_141_cif.got.tgz:280088.got - 2010.06.28 07:06:18.
