data_PCOD8140379
_publ_section_title
;
Structure prediction by ZEFSAII (Michael W. Deem and Ramdas Pophale) SiO2 
 PCOD8140379
Probable space group: C 2/C
;
_chemical_formula_sum "Si O2"
_cell_formula_units_Z 56
_cell_length_a 17.314544
_cell_length_b 8.228990
_cell_length_c 18.863459
_cell_angle_alpha 90.000000
_cell_angle_beta 111.636586
_cell_angle_gamma 90.000000
_cell_volume 2498.317235
_symmetry_space_group_name_H-M "C 2/C"
_symmetry_group_IT_number 15
_symmetry_cell_setting 'monoclinic'
loop_
_space_group_symop_operation_xyz
x,y,z
-x,y,1/2-z
-x,-y,-z
x,-y,1/2+z
1/2+x,1/2+y,z
1/2-x,1/2+y,1/2-z
1/2-x,1/2-y,-z
1/2+x,1/2-y,1/2+z
loop_
_atom_site_type_symbol
_atom_site_label
_atom_site_fract_x
_atom_site_fract_y
_atom_site_fract_z
Si Si1 0.134210 0.568787 0.968819
Si Si2 0.406841 0.455901 0.966774
Si Si3 0.275642 0.544243 0.196087
Si Si4 0.856692 0.823601 0.330560
Si Si5 0.673914 0.414868 0.940021
Si Si6 0.117165 0.609100 0.604189
Si Si7 0.994123 0.575528 0.332786
O O1 0.120216 0.757270 0.946036
O O2 0.087083 0.446065 0.897650
O O3 0.233607 0.557118 0.998543
O O4 0.101037 0.525642 0.036734
O O5 0.358980 0.603267 0.910342
O O6 0.398775 0.287795 0.925370
O O7 0.500000 0.500000 0.000000
O O8 0.373842 0.438718 0.036403
O O9 0.220314 0.698732 0.200833
O O10 0.340168 0.481447 0.276134
O O11 0.330950 0.582182 0.145979
O O12 0.213254 0.396554 0.158717
O O13 0.944698 0.740989 0.337607
O O14 0.058643 0.572789 0.651615
O O15 0.000000 0.561349 0.250000
#
# Coordination Sequence:
#
# PCOD8140379 Si02
#       7
#     8   8   8   8   8   8   8
#     4  10  20  41  66  92 125 166 218 261 315 378
#     4  12  24  40  63  94 132 169 210 263 323 381
#     4  10  23  43  66  94 126 166 218 263 317 378
#     4  11  24  42  64  92 129 171 210 265 325 377
#     4  10  22  39  67  94 122 167 216 268 309 373
#     4  10  22  39  63  92 128 170 209 264 319 373
#     4  11  24  40  63  93 129 171 212 260 318 383
#
# _framework density 22.415087
#
# number of rings (size 3 to 8) (size 9 to 14) (size 15 to 20)
#    0.000    1.429    0.000    6.429    0.000   11.429 
#    0.000    0.714    0.000    0.000    0.000    0.000 
#    0.000    0.000    0.000    0.000    0.000    0.000 
#
# Total GULP energy -346928.278239 kJ/mol
# GULP energy per Si atom -12390.295651 kJ/mol
# Density = 2.236407 g / cm^3
# Si number density = 22.415087 Si / 1000 Ang^3
#
#
#
# Elastic Constant Matrix: (Units=GPa)
#
#
# Indices 1 2 3 4 5 6 
#
# 1 97.0302 42.4281 43.3843 0.0000 -23.0044 0.0000
# 2 42.4281 108.4033 27.3081 0.0000 -6.4791 0.0000
# 3 43.3843 27.3081 109.1276 0.0000 -19.1015 0.0000
# 4 0.0000 0.0000 0.0000 42.5516 0.0000 4.5379
# 5 -23.0044 -6.4791 -19.1015 0.0000 45.4427 0.0000
# 6 0.0000 0.0000 0.0000 4.5379 0.0000 25.3074
#
#
#
# Elastic Compliance Matrix: (Units=1/GPa)
#
#
# Indices 1 2 3 4 5 6 
#
# 1 0.015455 -0.004712 -0.004008 0.000000 0.005467 0.000000
# 2 -0.004712 0.011289 -0.001174 0.000000 -0.001269 0.000000
# 3 -0.004008 -0.001174 0.011513 0.000000 0.002643 0.000000
# 4 0.000000 0.000000 0.000000 0.023959 0.000000 -0.004296
# 5 0.005467 -0.001269 0.002643 0.000000 0.025703 0.000000
# 6 0.000000 0.000000 0.000000 -0.004296 0.000000 0.040284
#
#
# Mechanical properties :
#
#
# Convention : Reuss Voigt Hill
#
# Bulk Modulus (GPa) = 54.14482 60.08911 57.11697
# Shear Modulus (GPa) = 32.43617 36.08971 34.26294
#
# Velocity S-wave (km/s) = 3.80816 4.01691 3.91393
# Velocity P-wave (km/s) = 6.59880 6.95556 6.77952
#
# Compressibility (1/GPa) = 0.01846899
#
# Stress axis : x y z
#
# Youngs Moduli (GPa) = 64.70441 88.58151 86.85566
#
# Poissons Ratio (x) = 0.41744 0.34811
# Poissons Ratio (y) = 0.30492 0.10194
# Poissons Ratio (z) = 0.25933 0.10397
#
# Static dielectric constant tensor:
#      x y z
#    x 3.998400 0.000000 0.086910 
#    y 0.000000 4.064950 0.000000 
#    z 0.086910 0.000000 3.554850 
# 
# 
# High freq. dielectric constant tensor:
#      x y z
#    x 1.883680 0.000000 -0.004840 
#    y 0.000000 1.880740 0.000000 
#    z -0.004840 0.000000 1.885600 
# 
# From -- ./inp_files/209659.got.cif
#   From: 2010.06.25/outbox.cif.g09.slc.cpg/sg15_105_cif.got.tgz:209659.got - 2010.06.28 07:06:18.
