data_PCOD8140621
_publ_section_title
;
Structure prediction by ZEFSAII (Michael W. Deem and Ramdas Pophale) SiO2 
 PCOD8140621
Probable space group: C 2/C
;
_chemical_formula_sum "Si O2"
_cell_formula_units_Z 56
_cell_length_a 32.083805
_cell_length_b 11.064187
_cell_length_c 9.116048
_cell_angle_alpha 90.000000
_cell_angle_beta 55.312837
_cell_angle_gamma 90.000000
_cell_volume 2660.892023
_symmetry_space_group_name_H-M "C 2/C"
_symmetry_group_IT_number 15
_symmetry_cell_setting 'monoclinic'
loop_
_space_group_symop_operation_xyz
x,y,z
-x,y,1/2-z
-x,-y,-z
x,-y,1/2+z
1/2+x,1/2+y,z
1/2-x,1/2+y,1/2-z
1/2-x,1/2-y,-z
1/2+x,1/2-y,1/2+z
loop_
_atom_site_type_symbol
_atom_site_label
_atom_site_fract_x
_atom_site_fract_y
_atom_site_fract_z
Si Si1 0.209978 0.064194 0.443714
Si Si2 0.383292 0.315248 0.220855
Si Si3 0.961760 0.994338 0.944234
Si Si4 0.651319 0.128977 0.869570
Si Si5 0.944456 0.257723 0.860595
Si Si6 0.291623 0.341888 0.864889
Si Si7 0.315553 0.106237 0.362019
O O1 0.157746 0.130448 0.584654
O O2 0.223096 0.072009 0.244187
O O3 0.256659 0.125386 0.438864
O O4 0.199762 0.925849 0.510796
O O5 0.429136 0.261832 0.222788
O O6 0.352050 0.205021 0.206129
O O7 0.410036 0.413481 0.061062
O O8 0.000000 0.936565 0.750000
O O9 0.942552 0.128649 0.946336
O O10 0.000000 0.000000 0.000000
O O11 0.661645 0.260304 0.778060
O O12 0.668527 0.025773 0.724756
O O13 0.590607 0.136148 0.002569
O O14 0.678472 0.114187 0.973477
O O15 0.000000 0.314213 0.750000
O O16 0.250000 0.250000 0.000000
#
# Coordination Sequence:
#
# PCOD8140621 Si02
#       7
#     8   8   8   8   8   8   8
#     4  12  25  44  68 101 134 181 224 276 336 406
#     4  11  23  40  67  97 129 174 222 269 339 403
#     4  11  21  41  67  96 130 166 218 289 344 388
#     4  11  24  47  63  99 132 185 221 278 335 403
#     4  10  20  42  67  88 129 170 214 282 337 383
#     4  12  26  43  68  97 140 176 228 272 340 399
#     4  11  24  45  67  92 144 174 223 271 338 401
#
# _framework density 21.045574999999999
#
# number of rings (size 3 to 8) (size 9 to 14) (size 15 to 20)
#    0.000    0.857    7.143    2.143    0.000    0.000 
#    2.571    3.571    0.000    0.000    0.000    0.000 
#    0.000    0.000    0.000    0.000    0.000    0.000 
#
# Total GULP energy -346877.162241 kJ/mol
# GULP energy per Si atom -12388.470080 kJ/mol
# Density = 2.099767 g / cm^3
# Si number density = 21.045575 Si / 1000 Ang^3
#
#
#
# Elastic Constant Matrix: (Units=GPa)
#
#
# Indices 1 2 3 4 5 6 
#
# 1 57.6254 -8.6600 27.7714 0.0000 -20.8398 0.0000
# 2 -8.6600 63.5046 29.3191 0.0000 9.4459 0.0000
# 3 27.7714 29.3191 111.9570 0.0000 -2.8739 0.0000
# 4 0.0000 0.0000 0.0000 52.1708 0.0000 -8.5928
# 5 -20.8398 9.4459 -2.8739 0.0000 30.4596 0.0000
# 6 0.0000 0.0000 0.0000 -8.5928 0.0000 35.3305
#
#
#
# Elastic Compliance Matrix: (Units=1/GPa)
#
#
# Indices 1 2 3 4 5 6 
#
# 1 0.027935 0.004892 -0.007778 0.000000 0.016861 0.000000
# 2 0.004892 0.019939 -0.006524 0.000000 -0.003452 0.000000
# 3 -0.007778 -0.006524 0.012515 0.000000 -0.002117 0.000000
# 4 0.000000 0.000000 0.000000 0.019968 0.000000 0.004856
# 5 0.016861 -0.003452 -0.002117 0.000000 0.045237 0.000000
# 6 0.000000 0.000000 0.000000 0.004856 0.000000 0.029485
#
#
# Mechanical properties :
#
#
# Convention : Reuss Voigt Hill
#
# Bulk Modulus (GPa) = 24.05524 36.66088 30.35806
# Shear Modulus (GPa) = 26.63040 35.90261 31.26650
#
# Velocity S-wave (km/s) = 3.56106 4.13479 3.85860
# Velocity P-wave (km/s) = 5.32570 6.34452 5.85730
#
# Compressibility (1/GPa) = 0.04157098
#
# Stress axis : x y z
#
# Youngs Moduli (GPa) = 35.79775 50.15180 79.90165
#
# Poissons Ratio (x) = -0.24535 0.62145
# Poissons Ratio (y) = -0.17513 0.52127
# Poissons Ratio (z) = 0.27842 0.32718
#
# Static dielectric constant tensor:
#      x y z
#    x 3.879140 0.000000 -0.023180 
#    y 0.000000 -4.381640 0.000000 
#    z -0.023180 0.000000 3.656020 
# 
# 
# High freq. dielectric constant tensor:
#      x y z
#    x 1.823000 0.000000 -0.014220 
#    y 0.000000 1.822110 0.000000 
#    z -0.014220 0.000000 1.826790 
# 
# From -- ./inp_files/69280.got.cif
#   From: 2010.06.25/outbox.cif.g09.slc.cpg/sg15_35_cif.got.tgz:69280.got - 2010.06.28 07:06:18.
