data_PCOD8140746
_publ_section_title
;
Structure prediction by ZEFSAII (Michael W. Deem and Ramdas Pophale) SiO2 
 PCOD8140746
Probable space group: C 2/C
;
_chemical_formula_sum "Si O2"
_cell_formula_units_Z 44
_cell_length_a 12.494585
_cell_length_b 17.829154
_cell_length_c 17.822828
_cell_angle_alpha 90.000000
_cell_angle_beta 30.354308
_cell_angle_gamma 90.000000
_cell_volume 2006.401401
_symmetry_space_group_name_H-M "C 2/C"
_symmetry_group_IT_number 15
_symmetry_cell_setting 'monoclinic'
loop_
_space_group_symop_operation_xyz
x,y,z
-x,y,1/2-z
-x,-y,-z
x,-y,1/2+z
1/2+x,1/2+y,z
1/2-x,1/2+y,1/2-z
1/2-x,1/2-y,-z
1/2+x,1/2-y,1/2+z
loop_
_atom_site_type_symbol
_atom_site_label
_atom_site_fract_x
_atom_site_fract_y
_atom_site_fract_z
Si Si1 0.739871 0.023937 0.364114
Si Si2 0.331837 0.317162 0.210797
Si Si3 0.000000 0.542593 0.250000
Si Si4 0.811879 0.032064 0.661353
Si Si5 0.790248 0.093209 0.953286
Si Si6 0.462435 0.170241 0.045025
O O1 0.729871 0.115715 0.368855
O O2 0.500000 0.000000 0.500000
O O3 0.861852 0.991070 0.217254
O O4 0.841376 0.987282 0.379174
O O5 0.305051 0.378221 0.161351
O O6 0.111092 0.304507 0.386965
O O7 0.511079 0.348846 0.161263
O O8 0.375314 0.240618 0.142487
O O9 0.085243 0.494929 0.268689
O O10 0.200029 0.586847 0.093480
O O11 0.000000 0.000000 0.500000
O O12 0.600391 0.127211 0.021887
#
# Coordination Sequence:
#
# PCOD8140746 Si02
#       6
#     8   8   4   8   8   8
#     4  10  20  43  64  85 129 181 215 258 339 402
#     4  12  25  39  65 100 137 171 221 278 344 402
#     4  12  22  38  70  98 126 160 236 284 312 388
#     4  12  24  41  67  97 128 175 229 278 327 402
#     4  11  22  39  65  95 132 175 218 271 339 400
#     4  11  24  40  62  95 141 173 211 275 349 400
#
# _framework density 21.929811000000001
#
# number of rings (size 3 to 8) (size 9 to 14) (size 15 to 20)
#    0.000    0.727    9.091    1.091    5.091    0.000 
#    0.000    0.000    0.000    6.545    0.000    0.000 
#    0.000    0.000    0.000    0.000    0.000    0.000 
#
# Total GULP energy -272563.681244 kJ/mol
# GULP energy per Si atom -12389.258238 kJ/mol
# Density = 2.187990 g / cm^3
# Si number density = 21.929811 Si / 1000 Ang^3
#
#
#
# Elastic Constant Matrix: (Units=GPa)
#
#
# Indices 1 2 3 4 5 6 
#
# 1 57.4618 21.7861 9.9098 2.3126 10.3715 -2.1262
# 2 21.7861 162.7361 51.8505 1.0468 14.4209 -0.9441
# 3 9.9098 51.8505 115.4289 4.1020 35.9989 -3.7573
# 4 2.3126 1.0468 4.1020 688.3936 -2.6226 -588.4522
# 5 10.3715 14.4209 35.9989 -2.6226 24.3797 2.4285
# 6 -2.1262 -0.9441 -3.7573 -588.4522 2.4285 592.2826
#
#
#
# Elastic Compliance Matrix: (Units=1/GPa)
#
#
# Indices 1 2 3 4 5 6 
#
# 1 0.019942 -0.002623 0.003034 -0.000070 -0.011426 0.000064
# 2 -0.002623 0.007528 -0.003926 0.000016 0.002463 -0.000016
# 3 0.003034 -0.003926 0.018276 -0.000119 -0.025979 0.000109
# 4 -0.000070 0.000016 -0.000119 0.009640 0.000279 0.009575
# 5 -0.011426 0.002463 -0.025979 0.000279 0.082838 -0.000264
# 6 0.000064 -0.000016 0.000109 0.009575 -0.000264 0.011204
#
#
# Mechanical properties :
#
#
# Convention : Reuss Voigt Hill
#
# Bulk Modulus (GPa) = 25.82831 55.85773 40.84302
# Shear Modulus (GPa) = 29.52236 277.81653 153.66945
#
# Velocity S-wave (km/s) = 3.67307 11.26763 8.38006
# Velocity P-wave (km/s) = 5.45819 13.95728 10.59711
#
# Compressibility (1/GPa) = 0.03871720
#
# Stress axis : x y z
#
# Youngs Moduli (GPa) = 50.14624 132.82935 54.71631
#
# Poissons Ratio (x) = 0.34843 -0.16603
# Poissons Ratio (y) = 0.13154 0.21480
# Poissons Ratio (z) = -0.15216 0.52146
#
# Static dielectric constant tensor:
#      x y z
#    x 4.645520 0.000320 0.195430 
#    y 0.000320 4.490410 0.001380 
#    z 0.195430 0.001380 4.291420 
# 
# 
# High freq. dielectric constant tensor:
#      x y z
#    x 1.854110 -0.000010 0.001590 
#    y -0.000010 1.844950 0.000020 
#    z 0.001590 0.000020 1.888430 
# 
# From -- ./inp_files/206226.got.cif
#   From: 2010.06.25/outbox.cif.g09.slc.cpg/sg15_104_cif.got.tgz:206226.got - 2010.06.28 07:06:18.
