data_PCOD8140927
_publ_section_title
;
Structure prediction by ZEFSAII (Michael W. Deem and Ramdas Pophale) SiO2 
 PCOD8140927
Probable space group: C 2/C
;
_chemical_formula_sum "Si O2"
_cell_formula_units_Z 48
_cell_length_a 21.001542
_cell_length_b 13.374446
_cell_length_c 23.669652
_cell_angle_alpha 90.000000
_cell_angle_beta 23.269221
_cell_angle_gamma 90.000000
_cell_volume 2626.474504
_symmetry_space_group_name_H-M "C 2/C"
_symmetry_group_IT_number 15
_symmetry_cell_setting 'monoclinic'
loop_
_space_group_symop_operation_xyz
x,y,z
-x,y,1/2-z
-x,-y,-z
x,-y,1/2+z
1/2+x,1/2+y,z
1/2-x,1/2+y,1/2-z
1/2-x,1/2-y,-z
1/2+x,1/2-y,1/2+z
loop_
_atom_site_type_symbol
_atom_site_label
_atom_site_fract_x
_atom_site_fract_y
_atom_site_fract_z
Si Si1 0.594787 0.226605 0.017929
Si Si2 0.877901 0.514232 0.548396
Si Si3 0.674180 0.998110 0.747549
Si Si4 0.886806 0.354614 0.789876
Si Si5 0.202062 0.133983 0.256344
Si Si6 0.090996 0.179629 0.931749
O O1 0.664619 0.130155 0.927249
O O2 0.744902 0.281558 0.924914
O O3 0.479866 0.196395 0.162293
O O4 0.512120 0.303250 0.040970
O O5 0.714560 0.452636 0.697333
O O6 0.000000 0.500000 0.500000
O O7 0.985370 0.468897 0.408970
O O8 0.802976 0.080032 0.661156
O O9 0.689895 0.959695 0.670249
O O10 0.703879 0.900875 0.763836
O O11 0.000000 0.378600 0.750000
O O12 0.289710 0.228305 0.156357
O O13 0.020781 0.164010 0.421664
#
# Coordination Sequence:
#
# PCOD8140927 Si02
#       6
#     8   8   8   8   8   8
#     4  11  21  35  56  79 114 149 184 236 275 337
#     4   9  18  33  49  76 111 147 172 219 287 328
#     4  10  21  33  53  78 110 148 180 230 277 332
#     4  11  23  38  53  79 112 156 194 223 271 329
#     4  11  21  31  52  81 117 144 172 224 285 347
#     4  12  20  33  52  84 116 139 186 227 291 334
#
# _framework density 18.275448000000001
#
# number of rings (size 3 to 8) (size 9 to 14) (size 15 to 20)
#    0.000    1.333    6.667    2.000    7.000    0.000 
#    0.000    0.000    0.000    0.000    0.000   11.667 
#    0.000    0.000    0.000    0.000    0.000    0.000 
#
# Total GULP energy -297327.448367 kJ/mol
# GULP energy per Si atom -12388.643682 kJ/mol
# Density = 1.823385 g / cm^3
# Si number density = 18.275448 Si / 1000 Ang^3
#
#
#
# Elastic Constant Matrix: (Units=GPa)
#
#
# Indices 1 2 3 4 5 6 
#
# 1 54.8348 43.3176 22.3263 0.0224 -6.1266 0.0029
# 2 43.3176 99.9528 50.7813 0.0314 -2.6057 -0.0022
# 3 22.3263 50.7813 91.2619 0.0467 10.8761 -0.0059
# 4 0.0224 0.0314 0.0467 36.5806 -0.0055 2.8605
# 5 -6.1266 -2.6057 10.8761 -0.0055 17.0787 -0.0044
# 6 0.0029 -0.0022 -0.0059 2.8605 -0.0044 13.4650
#
#
#
# Elastic Compliance Matrix: (Units=1/GPa)
#
#
# Indices 1 2 3 4 5 6 
#
# 1 0.029133 -0.011347 -0.002005 -0.000004 0.009996 -0.000005
# 2 -0.011347 0.019356 -0.008507 0.000002 0.004301 0.000003
# 3 -0.002005 -0.008507 0.017771 -0.000017 -0.013334 0.000006
# 4 -0.000004 0.000002 -0.000017 0.027799 0.000017 -0.005905
# 5 0.009996 0.004301 -0.013334 0.000017 0.071286 0.000013
# 6 -0.000005 0.000003 0.000006 -0.005905 0.000013 0.075521
#
#
# Mechanical properties :
#
#
# Convention : Reuss Voigt Hill
#
# Bulk Modulus (GPa) = 44.35973 53.21111 48.78542
# Shear Modulus (GPa) = 17.11760 22.06650 19.59205
#
# Velocity S-wave (km/s) = 3.06379 3.47859 3.27776
# Velocity P-wave (km/s) = 6.06970 6.73153 6.40916
#
# Compressibility (1/GPa) = 0.02254297
#
# Stress axis : x y z
#
# Youngs Moduli (GPa) = 34.32521 51.66269 56.27236
#
# Poissons Ratio (x) = 0.58619 0.11281
# Poissons Ratio (y) = 0.38947 0.47872
# Poissons Ratio (z) = 0.06882 0.43951
#
# Static dielectric constant tensor:
#      x y z
#    x 3.014050 -0.000020 0.308910 
#    y -0.000020 3.628710 0.000030 
#    z 0.308910 0.000030 3.952630 
# 
# 
# High freq. dielectric constant tensor:
#      x y z
#    x 1.642690 0.000000 0.017940 
#    y 0.000000 1.709780 0.000000 
#    z 0.017940 0.000000 1.726560 
# 
# From -- ./inp_files/69846.got.cif
#   From: 2010.06.25/outbox.cif.g09.slc.cpg/sg15_35_cif.got.tgz:69846.got - 2010.06.28 07:06:18.
