data_PCOD8140865
_publ_section_title
;
Structure prediction by ZEFSAII (Michael W. Deem and Ramdas Pophale) SiO2 
 PCOD8140865
Probable space group: C 2/C
;
_chemical_formula_sum "Si O2"
_cell_formula_units_Z 36
_cell_length_a 11.257924
_cell_length_b 13.582810
_cell_length_c 9.324041
_cell_angle_alpha 90.000000
_cell_angle_beta 84.936016
_cell_angle_gamma 90.000000
_cell_volume 1420.213494
_symmetry_space_group_name_H-M "C 2/C"
_symmetry_group_IT_number 15
_symmetry_cell_setting 'monoclinic'
loop_
_space_group_symop_operation_xyz
x,y,z
-x,y,1/2-z
-x,-y,-z
x,-y,1/2+z
1/2+x,1/2+y,z
1/2-x,1/2+y,1/2-z
1/2-x,1/2-y,-z
1/2+x,1/2-y,1/2+z
loop_
_atom_site_type_symbol
_atom_site_label
_atom_site_fract_x
_atom_site_fract_y
_atom_site_fract_z
Si Si1 0.292478 0.103581 0.588059
Si Si2 0.113412 0.065123 0.150832
Si Si3 0.306157 0.809528 0.794297
Si Si4 0.890336 0.247385 0.506691
Si Si5 0.500000 0.878844 0.250000
O O1 0.353041 0.129953 0.427868
O O2 0.237825 0.201646 0.658391
O O3 0.391418 0.058885 0.690240
O O4 0.189657 0.023681 0.577498
O O5 0.191999 0.133362 0.245645
O O6 0.068639 0.133474 0.021275
O O7 0.000000 0.024082 0.250000
O O8 0.411500 0.791400 0.664827
O O9 0.750000 0.250000 0.500000
O O10 0.957832 0.312923 0.385581
#
# Coordination Sequence:
#
# PCOD8140865 Si02
#       5
#     8   8   8   8   4
#     4  11  25  44  72 114 151 198 252 307 375 461
#     4  11  23  45  78 113 149 197 256 316 378 439
#     4  10  24  46  69 107 154 190 254 311 374 449
#     4  10  20  44  76 100 145 202 244 306 380 438
#     4  12  22  48  76 104 158 204 242 308 394 440
#
# _framework density 25.348302
#
# number of rings (size 3 to 8) (size 9 to 14) (size 15 to 20)
#    0.000    1.333    5.556    0.000    3.111    1.778 
#    8.000   10.000    0.000    0.000    0.000    0.000 
#    0.000    0.000    0.000    0.000    0.000    0.000 
#
# Total GULP energy -223043.251551 kJ/mol
# GULP energy per Si atom -12391.291753 kJ/mol
# Density = 2.529061 g / cm^3
# Si number density = 25.348302 Si / 1000 Ang^3
#
#
#
# Elastic Constant Matrix: (Units=GPa)
#
#
# Indices 1 2 3 4 5 6 
#
# 1 60.0969 18.5025 50.5784 0.0000 -0.5471 0.0000
# 2 18.5025 78.3525 51.0751 0.0000 -3.0793 0.0000
# 3 50.5784 51.0751 223.8075 0.0000 -14.1582 0.0000
# 4 0.0000 0.0000 0.0000 27.6987 0.0000 4.5172
# 5 -0.5471 -3.0793 -14.1582 0.0000 43.6657 0.0000
# 6 0.0000 0.0000 0.0000 4.5172 0.0000 11.2257
#
#
#
# Elastic Compliance Matrix: (Units=1/GPa)
#
#
# Indices 1 2 3 4 5 6 
#
# 1 0.020930 -0.002181 -0.004314 0.000000 -0.001290 0.000000
# 2 -0.002181 0.015221 -0.002975 0.000000 0.000081 0.000000
# 3 -0.004314 -0.002975 0.006233 0.000000 0.001757 0.000000
# 4 0.000000 0.000000 0.000000 0.038638 0.000000 -0.015548
# 5 -0.001290 0.000081 0.001757 0.000000 0.023461 0.000000
# 6 0.000000 0.000000 0.000000 -0.015548 0.000000 0.095337
#
#
# Mechanical properties :
#
#
# Convention : Reuss Voigt Hill
#
# Bulk Modulus (GPa) = 42.65653 66.95210 54.80431
# Shear Modulus (GPa) = 22.06766 32.65808 27.36287
#
# Velocity S-wave (km/s) = 2.95376 3.59329 3.28910
# Velocity P-wave (km/s) = 5.33831 6.60952 6.00764
#
# Compressibility (1/GPa) = 0.02344307
#
# Stress axis : x y z
#
# Youngs Moduli (GPa) = 47.77782 65.70003 160.43090
#
# Poissons Ratio (x) = 0.14330 0.69208
# Poissons Ratio (y) = 0.10421 0.47735
# Poissons Ratio (z) = 0.20611 0.19549
#
# Static dielectric constant tensor:
#      x y z
#    x 1.433550 0.000000 4.088610 
#    y 0.000000 4.682620 0.000000 
#    z 4.088610 0.000000 1.211020 
# 
# 
# High freq. dielectric constant tensor:
#      x y z
#    x 2.000990 0.000000 -0.004510 
#    y 0.000000 1.996000 0.000000 
#    z -0.004510 0.000000 2.034880 
# 
# From -- ./inp_files/85453.got.cif
#   From: 2010.06.25/outbox.cif.g09.slc.cpg/sg15_43_cif.got.tgz:85453.got - 2010.06.28 07:06:18.
