data_PCOD8140043
_publ_section_title
;
Structure prediction by ZEFSAII (Michael W. Deem and Ramdas Pophale) SiO2 
 PCOD8140043
Probable space group: C 2/C
;
_chemical_formula_sum "Si O2"
_cell_formula_units_Z 64
_cell_length_a 21.243711
_cell_length_b 8.703952
_cell_length_c 19.960856
_cell_angle_alpha 90.000000
_cell_angle_beta 123.312074
_cell_angle_gamma 90.000000
_cell_volume 3084.409945
_symmetry_space_group_name_H-M "C 2/C"
_symmetry_group_IT_number 15
_symmetry_cell_setting 'monoclinic'
loop_
_space_group_symop_operation_xyz
x,y,z
-x,y,1/2-z
-x,-y,-z
x,-y,1/2+z
1/2+x,1/2+y,z
1/2-x,1/2+y,1/2-z
1/2-x,1/2-y,-z
1/2+x,1/2-y,1/2+z
loop_
_atom_site_type_symbol
_atom_site_label
_atom_site_fract_x
_atom_site_fract_y
_atom_site_fract_z
Si Si1 0.030801 0.101158 0.200129
Si Si2 0.659249 0.595827 0.070236
Si Si3 0.706657 0.462978 0.802990
Si Si4 0.431796 0.684071 0.611081
Si Si5 0.190547 0.817783 0.174287
Si Si6 0.046533 0.361758 0.600336
Si Si7 0.714008 0.719969 0.907215
Si Si8 0.958324 0.292168 0.419619
O O1 0.119751 0.081434 0.254064
O O2 0.006400 0.206561 0.123597
O O3 0.000000 0.181137 0.250000
O O4 0.992123 0.935291 0.173313
O O5 0.662423 0.421021 0.095867
O O6 0.745611 0.658268 0.118443
O O7 0.613415 0.697492 0.096689
O O8 0.618953 0.601661 0.974998
O O9 0.751964 0.305592 0.821977
O O10 0.726579 0.575158 0.752575
O O11 0.729296 0.549305 0.885614
O O12 0.475773 0.831353 0.607848
O O13 0.376489 0.742501 0.638501
O O14 0.118558 0.735142 0.165308
O O15 0.069819 0.538953 0.617085
O O16 0.024291 0.307361 0.512673
O O17 0.750000 0.750000 0.000000
#
# Coordination Sequence:
#
# PCOD8140043 Si02
#       8
#     8   8   8   8   8   8   8   8
#     4  12  23  42  63  90 132 169 215 263 321 402
#     4  10  20  40  67  93 127 167 219 275 319 385
#     4  12  25  40  65  94 128 173 216 269 329 382
#     4  10  20  40  65  93 123 175 215 256 332 392
#     4  12  24  40  65  95 125 166 217 277 321 390
#     4  10  21  39  69  94 124 162 217 272 321 383
#     4  10  22  42  64  91 132 174 215 261 318 389
#     4  10  21  40  66  98 125 163 216 273 321 383
#
# _framework density 20.749511999999999
#
# number of rings (size 3 to 8) (size 9 to 14) (size 15 to 20)
#    0.000    1.250    3.750    2.250    1.750    3.000 
#    2.250    3.125    0.000    0.000    0.000    0.000 
#    0.000    0.000    0.000    0.000    0.000    0.000 
#
# Total GULP energy -396765.556556 kJ/mol
# GULP energy per Si atom -12398.923642 kJ/mol
# Density = 2.070228 g / cm^3
# Si number density = 20.749512 Si / 1000 Ang^3
#
#
#
# Elastic Constant Matrix: (Units=GPa)
#
#
# Indices 1 2 3 4 5 6 
#
# 1 139.5159 57.7005 29.7328 0.0000 2.4882 0.0000
# 2 57.7005 117.9925 31.6188 0.0000 6.8309 0.0000
# 3 29.7328 31.6188 51.9053 0.0000 -5.9301 0.0000
# 4 0.0000 0.0000 0.0000 30.6614 0.0000 7.8497
# 5 2.4882 6.8309 -5.9301 0.0000 35.0420 0.0000
# 6 0.0000 0.0000 0.0000 7.8497 0.0000 34.5838
#
#
#
# Elastic Compliance Matrix: (Units=1/GPa)
#
#
# Indices 1 2 3 4 5 6 
#
# 1 0.009388 -0.003713 -0.003170 0.000000 -0.000479 0.000000
# 2 -0.003713 0.011934 -0.005484 0.000000 -0.002991 0.000000
# 3 -0.003170 -0.005484 0.025055 0.000000 0.005534 0.000000
# 4 0.000000 0.000000 0.000000 0.034626 0.000000 -0.007859
# 5 -0.000479 -0.002991 0.005534 0.000000 0.030091 0.000000
# 6 0.000000 0.000000 0.000000 -0.007859 0.000000 0.030699
#
#
# Mechanical properties :
#
#
# Convention : Reuss Voigt Hill
#
# Bulk Modulus (GPa) = 46.20914 60.83533 53.52223
# Shear Modulus (GPa) = 28.77841 32.74824 30.76332
#
# Velocity S-wave (km/s) = 3.72821 3.97705 3.85464
# Velocity P-wave (km/s) = 6.39148 7.10435 6.75732
#
# Compressibility (1/GPa) = 0.02164074
#
# Stress axis : x y z
#
# Youngs Moduli (GPa) = 106.52378 83.79562 39.91257
#
# Poissons Ratio (x) = 0.31117 0.12653
# Poissons Ratio (y) = 0.39557 0.21889
# Poissons Ratio (z) = 0.33769 0.45955
#
# Static dielectric constant tensor:
#      x y z
#    x 4.205120 0.000000 -0.103820 
#    y 0.000000 3.745470 0.000000 
#    z -0.103820 0.000000 3.772300 
# 
# 
# High freq. dielectric constant tensor:
#      x y z
#    x 1.825070 0.000000 -0.000750 
#    y 0.000000 1.801050 0.000000 
#    z -0.000750 0.000000 1.808060 
# 
# From -- ./inp_files/251907.got.cif
#   From: 2010.06.25/outbox.cif.g09.slc.cpg/sg15_126_cif.got.tgz:251907.got - 2010.06.28 07:06:18.
