data_PCOD8140998
_publ_section_title
;
Structure prediction by ZEFSAII (Michael W. Deem and Ramdas Pophale) SiO2 
 PCOD8140998
Probable space group: C 2/C
;
_chemical_formula_sum "Si O2"
_cell_formula_units_Z 56
_cell_length_a 21.154533
_cell_length_b 15.708881
_cell_length_c 7.907033
_cell_angle_alpha 90.000000
_cell_angle_beta 107.006371
_cell_angle_gamma 90.000000
_cell_volume 2512.718239
_symmetry_space_group_name_H-M "C 2/C"
_symmetry_group_IT_number 15
_symmetry_cell_setting 'monoclinic'
loop_
_space_group_symop_operation_xyz
x,y,z
-x,y,1/2-z
-x,-y,-z
x,-y,1/2+z
1/2+x,1/2+y,z
1/2-x,1/2+y,1/2-z
1/2-x,1/2-y,-z
1/2+x,1/2-y,1/2+z
loop_
_atom_site_type_symbol
_atom_site_label
_atom_site_fract_x
_atom_site_fract_y
_atom_site_fract_z
Si Si1 0.500000 0.524615 0.750000
Si Si2 0.876233 0.373981 0.200960
Si Si3 0.176221 0.308095 0.805726
Si Si4 0.371720 0.038353 0.042939
Si Si5 0.500000 0.892578 0.750000
Si Si6 0.317145 0.725046 0.336958
Si Si7 0.456989 0.218676 0.509271
Si Si8 0.947773 0.876254 0.920423
O O1 0.452754 0.462821 0.818452
O O2 0.452452 0.589901 0.614324
O O3 0.849167 0.438670 0.032840
O O4 0.890660 0.436681 0.368424
O O5 0.821430 0.308112 0.221321
O O6 0.941882 0.324340 0.182635
O O7 0.178718 0.399654 0.900824
O O8 0.243010 0.308076 0.746450
O O9 0.114962 0.281839 0.638794
O O10 0.174261 0.240052 0.956251
O O11 0.437771 0.046358 0.207784
O O12 0.494061 0.833702 0.575818
O O13 0.375941 0.662489 0.325136
O O14 0.490475 0.310911 0.566775
#
# Coordination Sequence:
#
# PCOD8140998 Si02
#       8
#     4   8   8   8   4   8   8   8
#     4  10  23  38  59  90 118 150 198 254 307 356
#     4  11  23  37  59  87 118 156 199 243 299 364
#     4   9  20  39  60  86 121 161 204 249 303 360
#     4  10  21  37  54  85 124 154 192 247 299 354
#     4  10  21  34  57  84 116 156 194 238 299 364
#     4  10  21  39  63  87 118 162 206 249 300 367
#     4  11  21  37  62  87 115 157 202 247 302 369
#     4  11  21  39  61  87 119 152 199 252 303 357
#
# _framework density 22.286622000000001
#
# number of rings (size 3 to 8) (size 9 to 14) (size 15 to 20)
#    0.000    1.714    0.000    6.429    0.000    5.714 
#    0.000    8.571    0.000    0.000    0.000    0.000 
#    0.000    0.000    0.000    0.000    0.000    0.000 
#
# Total GULP energy -346896.076982 kJ/mol
# GULP energy per Si atom -12389.145606 kJ/mol
# Density = 2.223590 g / cm^3
# Si number density = 22.286622 Si / 1000 Ang^3
#
#
#
# Elastic Constant Matrix: (Units=GPa)
#
#
# Indices 1 2 3 4 5 6 
#
# 1 135.1428 54.5956 23.0156 0.0000 -9.2292 0.0000
# 2 54.5956 119.3957 36.6640 0.0000 -11.1266 0.0000
# 3 23.0156 36.6640 77.9658 0.0000 -24.5274 0.0000
# 4 0.0000 0.0000 0.0000 37.4442 0.0000 -6.9526
# 5 -9.2292 -11.1266 -24.5274 0.0000 27.5844 0.0000
# 6 0.0000 0.0000 0.0000 -6.9526 0.0000 20.7180
#
#
#
# Elastic Compliance Matrix: (Units=1/GPa)
#
#
# Indices 1 2 3 4 5 6 
#
# 1 0.009144 -0.003922 -0.000542 0.000000 0.000996 0.000000
# 2 -0.003922 0.011472 -0.004435 0.000000 -0.000628 0.000000
# 3 -0.000542 -0.004435 0.020064 0.000000 0.015871 0.000000
# 4 0.000000 0.000000 0.000000 0.028481 0.000000 0.009558
# 5 0.000996 -0.000628 0.015871 0.000000 0.050444 0.000000
# 6 0.000000 0.000000 0.000000 0.009558 0.000000 0.051475
#
#
# Mechanical properties :
#
#
# Convention : Reuss Voigt Hill
#
# Bulk Modulus (GPa) = 43.69918 62.33940 53.01929
# Shear Modulus (GPa) = 25.44455 31.69793 28.57124
#
# Velocity S-wave (km/s) = 3.38256 3.77541 3.58437
# Velocity P-wave (km/s) = 5.90813 6.85838 6.40091
#
# Compressibility (1/GPa) = 0.02288372
#
# Stress axis : x y z
#
# Youngs Moduli (GPa) = 109.35685 87.16649 49.83994
#
# Poissons Ratio (x) = 0.34189 0.02700
# Poissons Ratio (y) = 0.42893 0.22102
# Poissons Ratio (z) = 0.05924 0.38655
#
# Static dielectric constant tensor:
#      x y z
#    x 3.795690 0.000000 -0.198360 
#    y 0.000000 4.198520 0.000000 
#    z -0.198360 0.000000 4.284740 
# 
# 
# High freq. dielectric constant tensor:
#      x y z
#    x 1.851750 0.000000 -0.020450 
#    y 0.000000 1.879170 0.000000 
#    z -0.020450 0.000000 1.893850 
# 
# From -- ./inp_files/55663.got.cif
#   From: 2010.06.25/outbox.cif.g09.slc.cpg/sg15_28_cif.got.tgz:55663.got - 2010.06.28 07:06:18.
