data_PCOD8140657
_publ_section_title
;
Structure prediction by ZEFSAII (Michael W. Deem and Ramdas Pophale) SiO2 
 PCOD8140657
Probable space group: C 2/C
;
_chemical_formula_sum "Si O2"
_cell_formula_units_Z 44
_cell_length_a 10.189175
_cell_length_b 17.492811
_cell_length_c 18.779673
_cell_angle_alpha 90.000000
_cell_angle_beta 38.648567
_cell_angle_gamma 90.000000
_cell_volume 2090.490429
_symmetry_space_group_name_H-M "C 2/C"
_symmetry_group_IT_number 15
_symmetry_cell_setting 'monoclinic'
loop_
_space_group_symop_operation_xyz
x,y,z
-x,y,1/2-z
-x,-y,-z
x,-y,1/2+z
1/2+x,1/2+y,z
1/2-x,1/2+y,1/2-z
1/2-x,1/2-y,-z
1/2+x,1/2-y,1/2+z
loop_
_atom_site_type_symbol
_atom_site_label
_atom_site_fract_x
_atom_site_fract_y
_atom_site_fract_z
Si Si1 0.599547 0.487902 0.381663
Si Si2 0.476901 0.797306 0.976812
Si Si3 0.357317 0.372619 0.743973
Si Si4 0.000000 0.394329 0.250000
Si Si5 0.069051 0.709325 0.846709
Si Si6 0.978902 0.837352 0.374848
O O1 0.500000 0.500000 0.500000
O O2 0.636327 0.563534 0.319802
O O3 0.819321 0.449275 0.302205
O O4 0.456603 0.427591 0.399334
O O5 0.617423 0.857337 0.872084
O O6 0.505802 0.710810 0.936596
O O7 0.550847 0.799784 0.027439
O O8 0.230196 0.815615 0.078200
O O9 0.500000 0.398706 0.750000
O O10 0.448309 0.296194 0.671066
O O11 0.054890 0.340919 0.159154
O O12 0.309868 0.681957 0.758559
#
# Coordination Sequence:
#
# PCOD8140657 Si02
#       6
#     8   8   8   4   8   8
#     4  11  25  42  63  91 137 173 206 275 330 390
#     4  10  21  39  72  92 127 169 220 275 317 391
#     4  11  25  41  63 102 128 168 228 267 320 395
#     4  10  24  42  64  94 126 176 224 254 334 392
#     4  10  20  42  68  93 127 172 223 268 323 387
#     4   9  21  41  61 101 123 165 218 268 332 387
#
# _framework density 21.047692000000001
#
# number of rings (size 3 to 8) (size 9 to 14) (size 15 to 20)
#    0.000    1.818    0.909    1.636    5.091    3.636 
#    3.273    4.545    0.000    0.000    0.000    0.000 
#    0.000    0.000    0.000    0.000    0.000    0.000 
#
# Total GULP energy -272726.849696 kJ/mol
# GULP energy per Si atom -12396.674986 kJ/mol
# Density = 2.099979 g / cm^3
# Si number density = 21.047692 Si / 1000 Ang^3
#
#
#
# Elastic Constant Matrix: (Units=GPa)
#
#
# Indices 1 2 3 4 5 6 
#
# 1 86.5471 42.8367 38.9232 -0.0035 24.2116 -0.0147
# 2 42.8367 147.1544 46.0846 0.0174 23.2106 -0.0136
# 3 38.9232 46.0846 85.5254 0.0642 33.9717 -0.0417
# 4 -0.0035 0.0174 0.0642 28.7736 -0.0121 11.3224
# 5 24.2116 23.2106 33.9717 -0.0121 43.5237 0.0116
# 6 -0.0147 -0.0136 -0.0417 11.3224 0.0116 -0.3867
#
#
#
# Elastic Compliance Matrix: (Units=1/GPa)
#
#
# Indices 1 2 3 4 5 6 
#
# 1 0.015912 -0.002676 -0.004132 0.000007 -0.004200 0.000011
# 2 -0.002676 0.008679 -0.003205 -0.000004 -0.000638 0.000013
# 3 -0.004132 -0.003205 0.019867 0.000066 -0.011499 -0.000289
# 4 0.000007 -0.000004 0.000066 0.002776 -0.000074 0.081266
# 5 -0.004200 -0.000638 -0.011499 -0.000074 0.034628 0.000291
# 6 0.000011 0.000013 -0.000289 0.081266 0.000291 -0.206518
#
#
# Mechanical properties :
#
#
# Convention : Reuss Voigt Hill
#
# Bulk Modulus (GPa) = 40.92861 63.87956 52.40408
# Shear Modulus (GPa) = -51.82062 27.14095 -12.33984
#
# Velocity S-wave (km/s) = -4.96730 3.59485 -2.42395
# Velocity P-wave (km/s) = 3.66208 6.90264 4.13737
#
# Compressibility (1/GPa) = 0.02443279
#
# Stress axis : x y z
#
# Youngs Moduli (GPa) = 62.84682 115.22142 50.33348
#
# Poissons Ratio (x) = 0.30828 0.20796
# Poissons Ratio (y) = 0.16815 0.16134
# Poissons Ratio (z) = 0.25966 0.36934
#
# Static dielectric constant tensor:
#      x y z
#    x 3.548930 0.000040 0.134510 
#    y 0.000040 3.666380 -0.000010 
#    z 0.134510 -0.000010 3.713050 
# 
# 
# High freq. dielectric constant tensor:
#      x y z
#    x 1.830480 0.000000 0.001810 
#    y 0.000000 1.822310 0.000000 
#    z 0.001810 0.000000 1.830280 
# 
# From -- ./inp_files/190778.got.cif
#   From: 2010.06.25/outbox.cif.g09.slc.cpg/sg15_96_cif.got.tgz:190778.got - 2010.06.28 07:06:18.
