data_PCOD8140787
_publ_section_title
;
Structure prediction by ZEFSAII (Michael W. Deem and Ramdas Pophale) SiO2 
 PCOD8140787
Probable space group: C 2/C
;
_chemical_formula_sum "Si O2"
_cell_formula_units_Z 52
_cell_length_a 9.152634
_cell_length_b 17.564316
_cell_length_c 17.312004
_cell_angle_alpha 90.000000
_cell_angle_beta 60.264112
_cell_angle_gamma 90.000000
_cell_volume 2416.601214
_symmetry_space_group_name_H-M "C 2/C"
_symmetry_group_IT_number 15
_symmetry_cell_setting 'monoclinic'
loop_
_space_group_symop_operation_xyz
x,y,z
-x,y,1/2-z
-x,-y,-z
x,-y,1/2+z
1/2+x,1/2+y,z
1/2-x,1/2+y,1/2-z
1/2-x,1/2-y,-z
1/2+x,1/2-y,1/2+z
loop_
_atom_site_type_symbol
_atom_site_label
_atom_site_fract_x
_atom_site_fract_y
_atom_site_fract_z
Si Si1 0.879452 0.421868 0.877585
Si Si2 0.135473 0.446129 0.925382
Si Si3 0.000000 0.711826 0.250000
Si Si4 0.144377 0.929435 0.086325
Si Si5 0.863067 0.678471 0.952351
Si Si6 0.757257 0.926765 0.154842
Si Si7 0.768652 0.329207 0.191808
O O1 0.823288 0.489731 0.835362
O O2 0.073234 0.436617 0.853705
O O3 0.885475 0.340282 0.835153
O O4 0.757454 0.413203 0.982209
O O5 0.314330 0.488724 0.884879
O O6 0.136267 0.365906 0.967398
O O7 0.000000 0.500000 0.000000
O O8 0.858759 0.763972 0.243743
O O9 0.174150 0.865294 0.142809
O O10 0.956296 0.933510 0.106632
O O11 0.785434 0.626440 0.906048
O O12 0.051587 0.704839 0.880790
O O13 0.750000 0.750000 0.000000
O O14 0.690023 0.890657 0.252240
#
# Coordination Sequence:
#
# PCOD8140787 Si02
#       7
#     8   8   4   8   8   8   8
#     4  11  25  44  75 101 143 185 244 293 356 434
#     4  10  20  43  70 103 130 185 234 288 348 425
#     4  12  30  44  72 112 142 190 238 302 366 422
#     4  11  22  44  77 100 140 189 243 292 356 440
#     4  12  27  43  75 102 145 190 241 295 363 425
#     4  12  25  44  72 110 137 193 242 298 360 433
#     4  12  26  49  67 106 153 187 233 301 374 416
#
# _framework density 21.517824000000001
#
# number of rings (size 3 to 8) (size 9 to 14) (size 15 to 20)
#    0.000    0.615    7.692    0.923    8.615    0.615 
#    0.000    0.000    0.000    0.000    0.000    0.000 
#    0.000    0.000    0.000    0.000    0.000    0.000 
#
# Total GULP energy -322323.007715 kJ/mol
# GULP energy per Si atom -12397.038758 kJ/mol
# Density = 2.146885 g / cm^3
# Si number density = 21.517824 Si / 1000 Ang^3
#
#
#
# Elastic Constant Matrix: (Units=GPa)
#
#
# Indices 1 2 3 4 5 6 
#
# 1 154.4434 59.9189 43.7951 0.0000 -6.5095 0.0000
# 2 59.9189 140.3996 51.5459 0.0000 -5.5386 0.0000
# 3 43.7951 51.5459 90.7775 0.0000 0.4025 0.0000
# 4 0.0000 0.0000 0.0000 33.1236 0.0000 -1.5948
# 5 -6.5095 -5.5386 0.4025 0.0000 36.8851 0.0000
# 6 0.0000 0.0000 0.0000 -1.5948 0.0000 38.7646
#
#
#
# Elastic Compliance Matrix: (Units=1/GPa)
#
#
# Indices 1 2 3 4 5 6 
#
# 1 0.008223 -0.002537 -0.002532 0.000000 0.001098 0.000000
# 2 -0.002537 0.009855 -0.004377 0.000000 0.001080 0.000000
# 3 -0.002532 -0.004377 0.014728 0.000000 -0.001265 0.000000
# 4 0.000000 0.000000 0.000000 0.030250 0.000000 0.001245
# 5 0.001098 0.001080 -0.001265 0.000000 0.027481 0.000000
# 6 0.000000 0.000000 0.000000 0.001245 0.000000 0.025848
#
#
# Mechanical properties :
#
#
# Convention : Reuss Voigt Hill
#
# Bulk Modulus (GPa) = 71.86069 77.34891 74.60480
# Shear Modulus (GPa) = 35.73643 37.11205 36.42424
#
# Velocity S-wave (km/s) = 4.07969 4.15747 4.11876
# Velocity P-wave (km/s) = 7.46058 7.68574 7.57399
#
# Compressibility (1/GPa) = 0.01391581
#
# Stress axis : x y z
#
# Youngs Moduli (GPa) = 121.60732 101.47612 67.89713
#
# Poissons Ratio (x) = 0.25741 0.17190
# Poissons Ratio (y) = 0.30847 0.29716
# Poissons Ratio (z) = 0.30788 0.44413
#
# Static dielectric constant tensor:
#      x y z
#    x 2.432700 0.000000 -0.915420 
#    y 0.000000 4.073600 0.000000 
#    z -0.915420 0.000000 3.341090 
# 
# 
# High freq. dielectric constant tensor:
#      x y z
#    x 1.865260 0.000000 0.002480 
#    y 0.000000 1.841440 0.000000 
#    z 0.002480 0.000000 1.839400 
# 
# From -- ./inp_files/190821.got.cif
#   From: 2010.06.25/outbox.cif.g09.slc.cpg/sg15_96_cif.got.tgz:190821.got - 2010.06.28 07:06:18.
