data_PCOD8140705
_publ_section_title
;
Structure prediction by ZEFSAII (Michael W. Deem and Ramdas Pophale) SiO2 
 PCOD8140705
Probable space group: C 2/C
;
_chemical_formula_sum "Si O2"
_cell_formula_units_Z 56
_cell_length_a 18.530325
_cell_length_b 13.009557
_cell_length_c 10.608295
_cell_angle_alpha 90.000000
_cell_angle_beta 103.345292
_cell_angle_gamma 90.000000
_cell_volume 2488.298669
_symmetry_space_group_name_H-M "C 2/C"
_symmetry_group_IT_number 15
_symmetry_cell_setting 'monoclinic'
loop_
_space_group_symop_operation_xyz
x,y,z
-x,y,1/2-z
-x,-y,-z
x,-y,1/2+z
1/2+x,1/2+y,z
1/2-x,1/2+y,1/2-z
1/2-x,1/2-y,-z
1/2+x,1/2-y,1/2+z
loop_
_atom_site_type_symbol
_atom_site_label
_atom_site_fract_x
_atom_site_fract_y
_atom_site_fract_z
Si Si1 0.944825 0.599624 0.339880
Si Si2 0.913801 0.588330 0.966234
Si Si3 0.686619 0.215270 0.139326
Si Si4 0.587169 0.454314 0.770900
Si Si5 0.822842 0.561835 0.583544
Si Si6 0.846406 0.741171 0.774497
Si Si7 0.337922 0.558195 0.936455
O O1 0.904037 0.489593 0.342181
O O2 0.884517 0.690033 0.302458
O O3 0.000000 0.609035 0.250000
O O4 0.998516 0.612863 0.484192
O O5 0.871110 0.694286 0.919624
O O6 0.879150 0.533262 0.078352
O O7 0.760129 0.229398 0.252403
O O8 0.668182 0.318179 0.053842
O O9 0.700552 0.117903 0.055546
O O10 0.500000 0.472651 0.750000
O O11 0.602425 0.336978 0.739320
O O12 0.617707 0.526931 0.671323
O O13 0.624204 0.483801 0.920290
O O14 0.861089 0.650883 0.680241
O O15 0.746553 0.515361 0.610705
#
# Coordination Sequence:
#
# PCOD8140705 Si02
#       7
#     8   8   8   8   8   8   8
#     4  10  22  41  61  97 136 171 206 283 355 393
#     4  10  23  37  69 102 128 166 228 280 335 414
#     4  10  21  41  69  89 134 176 220 262 347 408
#     4  12  27  44  69  94 136 178 234 279 328 399
#     4  10  20  42  71  94 133 172 216 279 351 401
#     4  11  22  41  68  97 126 178 228 272 332 416
#     4  11  24  45  68  97 129 185 224 278 333 397
#
# _framework density 22.505337999999998
#
# number of rings (size 3 to 8) (size 9 to 14) (size 15 to 20)
#    0.000    1.429    2.857    2.143    6.000    3.429 
#    2.571    1.429    0.000    0.000    0.000    0.000 
#    0.000    0.000    0.000    0.000    0.000    0.000 
#
# Total GULP energy -347094.282839 kJ/mol
# GULP energy per Si atom -12396.224387 kJ/mol
# Density = 2.245411 g / cm^3
# Si number density = 22.505338 Si / 1000 Ang^3
#
#
#
# Elastic Constant Matrix: (Units=GPa)
#
#
# Indices 1 2 3 4 5 6 
#
# 1 127.0350 30.0791 2.4286 0.0000 -21.7773 0.0000
# 2 30.0791 51.2447 10.0551 0.0000 2.3415 0.0000
# 3 2.4286 10.0551 32.4516 0.0000 -17.9257 0.0000
# 4 0.0000 0.0000 0.0000 23.2070 0.0000 -2.0063
# 5 -21.7773 2.3415 -17.9257 0.0000 35.1503 0.0000
# 6 0.0000 0.0000 0.0000 -2.0063 0.0000 35.9154
#
#
#
# Elastic Compliance Matrix: (Units=1/GPa)
#
#
# Indices 1 2 3 4 5 6 
#
# 1 0.012140 -0.009496 0.009102 0.000000 0.012796 0.000000
# 2 -0.009496 0.029330 -0.017689 0.000000 -0.016858 0.000000
# 3 0.009102 -0.017689 0.054825 0.000000 0.034777 0.000000
# 4 0.000000 0.000000 0.000000 0.043300 0.000000 0.002419
# 5 0.012796 -0.016858 0.034777 0.000000 0.055235 0.000000
# 6 0.000000 0.000000 0.000000 0.002419 0.000000 0.027978
#
#
# Mechanical properties :
#
#
# Convention : Reuss Voigt Hill
#
# Bulk Modulus (GPa) = 16.63140 32.87298 24.75219
# Shear Modulus (GPa) = 17.92004 30.06577 23.99291
#
# Velocity S-wave (km/s) = 2.82486 3.65902 3.26866
# Velocity P-wave (km/s) = 4.24804 5.69997 5.02670
#
# Compressibility (1/GPa) = 0.06012724
#
# Stress axis : x y z
#
# Youngs Moduli (GPa) = 82.37303 34.09534 18.23983
#
# Poissons Ratio (x) = 0.32378 -0.16602
# Poissons Ratio (y) = 0.78225 0.32265
# Poissons Ratio (z) = -0.74976 0.60312
#
# Static dielectric constant tensor:
#      x y z
#    x 4.767720 0.000000 0.408100 
#    y 0.000000 4.035180 0.000000 
#    z 0.408100 0.000000 4.203540 
# 
# 
# High freq. dielectric constant tensor:
#      x y z
#    x 1.900580 0.000000 0.008190 
#    y 0.000000 1.870120 0.000000 
#    z 0.008190 0.000000 1.882420 
# 
# From -- ./inp_files/111131.got.cif
#   From: 2010.06.25/outbox.cif.g09.slc.cpg/sg15_56_cif.got.tgz:111131.got - 2010.06.28 07:06:18.
