data_PCOD8140904
_publ_section_title
;
Structure prediction by ZEFSAII (Michael W. Deem and Ramdas Pophale) SiO2 
 PCOD8140904
Probable space group: C 2/C
;
_chemical_formula_sum "Si O2"
_cell_formula_units_Z 40
_cell_length_a 7.358494
_cell_length_b 13.481705
_cell_length_c 25.399799
_cell_angle_alpha 90.000000
_cell_angle_beta 43.952395
_cell_angle_gamma 90.000000
_cell_volume 1748.885358
_symmetry_space_group_name_H-M "C 2/C"
_symmetry_group_IT_number 15
_symmetry_cell_setting 'monoclinic'
loop_
_space_group_symop_operation_xyz
x,y,z
-x,y,1/2-z
-x,-y,-z
x,-y,1/2+z
1/2+x,1/2+y,z
1/2-x,1/2+y,1/2-z
1/2-x,1/2-y,-z
1/2+x,1/2-y,1/2+z
loop_
_atom_site_type_symbol
_atom_site_label
_atom_site_fract_x
_atom_site_fract_y
_atom_site_fract_z
Si Si1 0.773624 0.016001 0.256435
Si Si2 0.972298 0.112539 0.990799
Si Si3 0.426502 0.391860 0.380273
Si Si4 0.055160 0.653275 0.871795
Si Si5 0.401618 0.195678 0.343157
O O1 0.891920 0.985126 0.174752
O O2 0.621380 0.919636 0.309772
O O3 0.000000 0.048057 0.250000
O O4 0.580469 0.106925 0.285404
O O5 0.862423 0.112708 0.954710
O O6 0.245979 0.171755 0.937347
O O7 0.770324 0.163569 0.071249
O O8 0.000000 0.000000 0.000000
O O9 0.148895 0.399493 0.406769
O O10 0.568382 0.289323 0.330921
O O11 0.212706 0.759868 0.835274
#
# Coordination Sequence:
#
# PCOD8140904 Si02
#       5
#     8   8   8   8   8
#     4  10  20  48  66 103 142 185 239 294 347 432
#     4  12  22  43  69 106 138 181 235 289 347 426
#     4   9  24  43  69  96 143 181 233 285 350 422
#     4   9  22  43  68  97 140 172 239 283 344 423
#     4  10  22  45  72  97 142 187 226 293 361 405
#
# _framework density 22.871711999999999
#
# number of rings (size 3 to 8) (size 9 to 14) (size 15 to 20)
#    1.200    0.800    2.000    1.200    0.000    1.600 
#   10.800    0.000    4.400    0.000    0.000    0.000 
#    0.000    0.000    0.000    0.000    0.000    0.000 
#
# Total GULP energy -247788.533552 kJ/mol
# GULP energy per Si atom -12389.426678 kJ/mol
# Density = 2.281965 g / cm^3
# Si number density = 22.871712 Si / 1000 Ang^3
#
#
#
# Elastic Constant Matrix: (Units=GPa)
#
#
# Indices 1 2 3 4 5 6 
#
# 1 67.0180 16.1982 17.1858 0.0057 -6.3020 -0.0033
# 2 16.1982 106.4366 11.4703 0.0038 -8.9166 0.0002
# 3 17.1858 11.4703 20.5910 0.0175 -9.9748 0.0007
# 4 0.0057 0.0038 0.0175 43.5631 -0.0066 -8.0327
# 5 -6.3020 -8.9166 -9.9748 -0.0066 38.0897 0.0041
# 6 -0.0033 0.0002 0.0007 -8.0327 0.0041 32.3071
#
#
#
# Elastic Compliance Matrix: (Units=1/GPa)
#
#
# Indices 1 2 3 4 5 6 
#
# 1 0.019200 -0.001315 -0.015922 0.000004 -0.001301 0.000004
# 2 -0.001315 0.010119 -0.004005 0.000001 0.001102 0.000000
# 3 -0.015922 -0.004005 0.071415 -0.000026 0.015130 -0.000011
# 4 0.000004 0.000001 -0.000026 0.024058 -0.000002 0.005982
# 5 -0.001301 0.001102 0.015130 -0.000002 0.030259 -0.000005
# 6 0.000004 0.000000 -0.000011 0.005982 -0.000005 0.032440
#
#
# Mechanical properties :
#
#
# Convention : Reuss Voigt Hill
#
# Bulk Modulus (GPa) = 17.16789 31.52823 24.34806
# Shear Modulus (GPa) = 20.04868 32.73807 26.39338
#
# Velocity S-wave (km/s) = 2.96391 3.78746 3.40071
# Velocity P-wave (km/s) = 4.38582 5.73944 5.10767
#
# Compressibility (1/GPa) = 0.05824828
#
# Stress axis : x y z
#
# Youngs Moduli (GPa) = 52.08354 98.82012 14.00273
#
# Poissons Ratio (x) = 0.12995 0.22296
# Poissons Ratio (y) = 0.06849 0.05609
# Poissons Ratio (z) = 0.82929 0.39582
#
# Static dielectric constant tensor:
#      x y z
#    x 3.878010 0.000170 -0.325090 
#    y 0.000170 3.785870 0.000010 
#    z -0.325090 0.000010 3.776040 
# 
# 
# High freq. dielectric constant tensor:
#      x y z
#    x 1.887400 0.000000 0.009790 
#    y 0.000000 1.906020 0.000000 
#    z 0.009790 0.000000 1.899430 
# 
# From -- ./inp_files/287492.got.cif
#   From: 2010.06.25/outbox.cif.g09.slc.cpg/sg15_144_cif.got.tgz:287492.got - 2010.06.28 07:06:18.
