data_PCOD8140275
_publ_section_title
;
Structure prediction by ZEFSAII (Michael W. Deem and Ramdas Pophale) SiO2 
 PCOD8140275
Probable space group: C 2/C
;
_chemical_formula_sum "Si O2"
_cell_formula_units_Z 56
_cell_length_a 22.623458
_cell_length_b 8.526009
_cell_length_c 14.581718
_cell_angle_alpha 90.000000
_cell_angle_beta 94.613469
_cell_angle_gamma 90.000000
_cell_volume 2803.522655
_symmetry_space_group_name_H-M "C 2/C"
_symmetry_group_IT_number 15
_symmetry_cell_setting 'monoclinic'
loop_
_space_group_symop_operation_xyz
x,y,z
-x,y,1/2-z
-x,-y,-z
x,-y,1/2+z
1/2+x,1/2+y,z
1/2-x,1/2+y,1/2-z
1/2-x,1/2-y,-z
1/2+x,1/2-y,1/2+z
loop_
_atom_site_type_symbol
_atom_site_label
_atom_site_fract_x
_atom_site_fract_y
_atom_site_fract_z
Si Si1 0.686900 0.093053 0.342202
Si Si2 0.356126 0.003410 0.355731
Si Si3 0.188408 0.672835 0.987901
Si Si4 0.389998 0.555658 0.013389
Si Si5 0.077929 0.812656 0.339527
Si Si6 0.451097 0.750237 0.865558
Si Si7 0.201073 0.798445 0.571062
O O1 0.667581 0.998230 0.250436
O O2 0.640527 0.228123 0.365121
O O3 0.754596 0.156515 0.338818
O O4 0.685841 0.981674 0.428886
O O5 0.321006 0.135645 0.406331
O O6 0.423491 0.072774 0.368194
O O7 0.345419 0.835437 0.402282
O O8 0.141000 0.795559 0.943378
O O9 0.250000 0.750000 0.000000
O O10 0.423225 0.473004 0.102097
O O11 0.435505 0.626680 0.944099
O O12 0.339896 0.444352 0.961881
O O13 0.070663 0.838840 0.229855
O O14 0.021524 0.715445 0.371039
O O15 0.250000 0.750000 0.500000
#
# Coordination Sequence:
#
# PCOD8140275 Si02
#       7
#     8   8   8   8   8   8   8
#     4  11  23  37  61  87 117 160 189 240 299 351
#     4  10  23  38  58  86 115 156 197 236 296 343
#     4  11  21  38  53  87 124 149 190 241 286 353
#     4  11  21  36  62  87 120 153 195 242 297 344
#     4  10  20  41  62  83 119 160 199 240 297 341
#     4   9  22  40  60  87 117 154 204 249 282 346
#     4  12  21  39  59  86 121 153 194 239 293 361
#
# _framework density 19.974869999999999
#
# number of rings (size 3 to 8) (size 9 to 14) (size 15 to 20)
#    0.000    1.429    4.286    0.429    2.000    2.286 
#    0.000    7.857    0.000    3.429    0.000    0.000 
#    0.000    0.000    0.000    0.000    0.000    0.000 
#
# Total GULP energy -346875.257170 kJ/mol
# GULP energy per Si atom -12388.402042 kJ/mol
# Density = 1.992941 g / cm^3
# Si number density = 19.974870 Si / 1000 Ang^3
#
#
#
# Elastic Constant Matrix: (Units=GPa)
#
#
# Indices 1 2 3 4 5 6 
#
# 1 83.1284 23.0240 11.3223 0.0000 -4.5734 0.0000
# 2 23.0240 77.9875 21.6079 0.0000 -4.4347 0.0000
# 3 11.3223 21.6079 67.4945 0.0000 -7.2692 0.0000
# 4 0.0000 0.0000 0.0000 26.8882 0.0000 -0.2368
# 5 -4.5734 -4.4347 -7.2692 0.0000 24.3585 0.0000
# 6 0.0000 0.0000 0.0000 -0.2368 0.0000 29.0443
#
#
#
# Elastic Compliance Matrix: (Units=1/GPa)
#
#
# Indices 1 2 3 4 5 6 
#
# 1 0.013227 -0.003564 -0.000909 0.000000 0.001563 0.000000
# 2 -0.003564 0.015068 -0.004136 0.000000 0.000840 0.000000
# 3 -0.000909 -0.004136 0.016731 0.000000 0.004069 0.000000
# 4 0.000000 0.000000 0.000000 0.037194 0.000000 0.000303
# 5 0.001563 0.000840 0.004069 0.000000 0.042714 0.000000
# 6 0.000000 0.000000 0.000000 0.000303 0.000000 0.034433
#
#
# Mechanical properties :
#
#
# Convention : Reuss Voigt Hill
#
# Bulk Modulus (GPa) = 35.96148 37.83543 36.89845
# Shear Modulus (GPa) = 26.90288 27.56861 27.23574
#
# Velocity S-wave (km/s) = 3.67391 3.71909 3.69657
# Velocity P-wave (km/s) = 6.00327 6.11758 6.06069
#
# Compressibility (1/GPa) = 0.02780753
#
# Stress axis : x y z
#
# Youngs Moduli (GPa) = 75.60549 66.36416 59.76985
#
# Poissons Ratio (x) = 0.23652 0.05436
# Poissons Ratio (y) = 0.26946 0.24719
# Poissons Ratio (z) = 0.06876 0.27446
#
# Static dielectric constant tensor:
#      x y z
#    x 3.887920 0.000000 -0.077080 
#    y 0.000000 3.536730 0.000000 
#    z -0.077080 0.000000 3.534810 
# 
# 
# High freq. dielectric constant tensor:
#      x y z
#    x 1.785620 0.000000 -0.004080 
#    y 0.000000 1.771320 0.000000 
#    z -0.004080 0.000000 1.781740 
# 
# From -- ./inp_files/166641.got.cif
#   From: 2010.06.25/outbox.cif.g09.slc.cpg/sg15_84_cif.got.tgz:166641.got - 2010.06.28 07:06:18.
