data_PCOD8140000
_publ_section_title
;
Structure prediction by ZEFSAII (Michael W. Deem and Ramdas Pophale) SiO2 
 PCOD8140000
Probable space group: C 2/C
;
_chemical_formula_sum "Si O2"
_cell_formula_units_Z 56
_cell_length_a 21.118251
_cell_length_b 27.861324
_cell_length_c 9.019166
_cell_angle_alpha 90.000000
_cell_angle_beta 30.206786
_cell_angle_gamma 90.000000
_cell_volume 2669.928620
_symmetry_space_group_name_H-M "C 2/C"
_symmetry_group_IT_number 15
_symmetry_cell_setting 'monoclinic'
loop_
_space_group_symop_operation_xyz
x,y,z
-x,y,1/2-z
-x,-y,-z
x,-y,1/2+z
1/2+x,1/2+y,z
1/2-x,1/2+y,1/2-z
1/2-x,1/2-y,-z
1/2+x,1/2-y,1/2+z
loop_
_atom_site_type_symbol
_atom_site_label
_atom_site_fract_x
_atom_site_fract_y
_atom_site_fract_z
Si Si1 0.820915 0.200784 0.873346
Si Si2 0.222554 0.518559 0.965890
Si Si3 0.500000 0.677753 0.250000
Si Si4 0.000000 0.166205 0.750000
Si Si5 0.857510 0.610203 0.217489
Si Si6 0.619180 0.386149 0.733089
Si Si7 0.606633 0.514743 0.140147
Si Si8 0.636699 0.913542 0.121810
O O1 0.921640 0.205189 0.535213
O O2 0.892611 0.198756 0.887861
O O3 0.750000 0.250000 0.000000
O O4 0.721107 0.156357 0.065623
O O5 0.266033 0.523929 0.709169
O O6 0.350235 0.517571 0.808491
O O7 0.149751 0.566675 0.152166
O O8 0.132837 0.471229 0.159997
O O9 0.393677 0.647919 0.381238
O O10 0.051479 0.132272 0.517043
O O11 0.807964 0.594395 0.156015
O O12 0.008420 0.616605 0.900850
O O13 0.554548 0.436245 0.817875
O O14 0.767414 0.390322 0.457527
O O15 0.500000 0.490733 0.250000
#
# Coordination Sequence:
#
# PCOD8140000 Si02
#       8
#     8   8   4   4   8   8   8   8
#     4  11  25  48  73 104 129 177 223 279 348 397
#     4  11  22  40  56  92 134 179 227 274 328 395
#     4  10  22  44  70  97 140 160 213 282 328 392
#     4  10  22  44  72  93 136 168 219 280 340 404
#     4  11  22  42  67  92 133 180 225 276 334 402
#     4  10  20  40  64  97 126 178 215 272 335 388
#     4  11  22  35  55  89 133 175 226 265 319 394
#     4  10  22  39  63  97 134 177 226 269 326 409
#
# _framework density 20.974343999999999
#
# number of rings (size 3 to 8) (size 9 to 14) (size 15 to 20)
#    0.000    1.429    3.571    1.714    2.000    1.143 
#    9.000    4.286    0.000    0.000    0.000    0.000 
#    0.000    0.000    0.000    0.000    0.000    0.000 
#
# Total GULP energy -346910.528417 kJ/mol
# GULP energy per Si atom -12389.661729 kJ/mol
# Density = 2.092661 g / cm^3
# Si number density = 20.974344 Si / 1000 Ang^3
#
#
#
# Elastic Constant Matrix: (Units=GPa)
#
#
# Indices 1 2 3 4 5 6 
#
# 1 105.0130 33.7642 37.7824 0.0000 -0.4856 0.0001
# 2 33.7642 98.3077 47.7510 0.0000 -5.3055 0.0001
# 3 37.7824 47.7510 87.5327 0.0001 7.2656 0.0003
# 4 0.0000 0.0000 0.0001 28.2760 -0.0001 -0.3862
# 5 -0.4856 -5.3055 7.2656 -0.0001 37.4032 -0.0001
# 6 0.0001 0.0001 0.0003 -0.3862 -0.0001 23.9878
#
#
#
# Elastic Compliance Matrix: (Units=1/GPa)
#
#
# Indices 1 2 3 4 5 6 
#
# 1 0.011600 -0.002031 -0.003952 0.000000 0.000630 0.000000
# 2 -0.002031 0.014657 -0.007409 0.000000 0.003492 0.000000
# 3 -0.003952 -0.007409 0.017546 0.000000 -0.004511 0.000000
# 4 0.000000 0.000000 0.000000 0.035373 0.000000 0.000570
# 5 0.000630 0.003492 -0.004511 0.000000 0.028115 0.000000
# 6 0.000000 0.000000 0.000000 0.000570 0.000000 0.041697
#
#
# Mechanical properties :
#
#
# Convention : Reuss Voigt Hill
#
# Bulk Modulus (GPa) = 58.75220 58.82762 58.78991
# Shear Modulus (GPa) = 27.55661 29.37047 28.46354
#
# Velocity S-wave (km/s) = 3.62860 3.74612 3.68783
# Velocity P-wave (km/s) = 6.75485 6.84248 6.79881
#
# Compressibility (1/GPa) = 0.01702064
#
# Stress axis : x y z
#
# Youngs Moduli (GPa) = 86.20541 68.22785 56.99296
#
# Poissons Ratio (x) = 0.13855 0.22521
# Poissons Ratio (y) = 0.17506 0.42225
# Poissons Ratio (z) = 0.34065 0.50549
#
# Static dielectric constant tensor:
#      x y z
#    x 4.328660 0.000000 0.418460 
#    y 0.000000 3.470850 0.000000 
#    z 0.418460 0.000000 4.390420 
# 
# 
# High freq. dielectric constant tensor:
#      x y z
#    x 1.840590 0.000000 0.008180 
#    y 0.000000 1.781860 0.000000 
#    z 0.008180 0.000000 1.827770 
# 
# From -- ./inp_files/59368.got.cif
#   From: 2010.06.25/outbox.cif.g09.slc.cpg/sg15_30_cif.got.tgz:59368.got - 2010.06.28 07:06:18.
