data_PCOD8140348
_publ_section_title
;
Structure prediction by ZEFSAII (Michael W. Deem and Ramdas Pophale) SiO2 
 PCOD8140348
Probable space group: C 2/C
;
_chemical_formula_sum "Si O2"
_cell_formula_units_Z 56
_cell_length_a 11.144142
_cell_length_b 8.916899
_cell_length_c 30.746204
_cell_angle_alpha 90.000000
_cell_angle_beta 124.063534
_cell_angle_gamma 90.000000
_cell_volume 2531.051516
_symmetry_space_group_name_H-M "C 2/C"
_symmetry_group_IT_number 15
_symmetry_cell_setting 'monoclinic'
loop_
_space_group_symop_operation_xyz
x,y,z
-x,y,1/2-z
-x,-y,-z
x,-y,1/2+z
1/2+x,1/2+y,z
1/2-x,1/2+y,1/2-z
1/2-x,1/2-y,-z
1/2+x,1/2-y,1/2+z
loop_
_atom_site_type_symbol
_atom_site_label
_atom_site_fract_x
_atom_site_fract_y
_atom_site_fract_z
Si Si1 0.543793 0.629570 0.380266
Si Si2 0.915346 0.645008 0.536731
Si Si3 0.835864 0.143406 0.721706
Si Si4 0.204061 0.494083 0.615599
Si Si5 0.792886 0.681948 0.646221
Si Si6 0.140776 0.102335 0.532245
Si Si7 0.244637 0.525112 0.287008
O O1 0.549622 0.702661 0.428846
O O2 0.178398 0.014079 0.399889
O O3 0.558817 0.766635 0.348099
O O4 0.398565 0.540370 0.341838
O O5 0.891793 0.719454 0.484051
O O6 0.773075 0.558373 0.526098
O O7 0.048990 0.531552 0.563379
O O8 0.748617 0.122731 0.659091
O O9 0.838418 0.318446 0.734529
O O10 0.757148 0.047146 0.742469
O O11 0.000000 0.084952 0.750000
O O12 0.202483 0.333352 0.640587
O O13 0.695518 0.585895 0.592737
O O14 0.840724 0.587350 0.697971
O O15 0.000000 0.000000 0.500000
#
# Coordination Sequence:
#
# PCOD8140348 Si02
#       7
#     8   8   8   8   8   8   8
#     4   9  20  40  63  85 127 160 200 253 309 359
#     4  10  20  41  65  89 123 173 198 254 319 362
#     4  12  25  41  64  97 121 161 213 256 307 381
#     4  10  21  43  63  90 126 161 208 257 308 365
#     4   9  22  41  60  91 124 160 209 254 306 370
#     4  10  21  39  64  92 127 160 213 253 305 373
#     4  12  23  42  64  87 127 163 201 260 316 360
#
# _framework density 22.125191999999998
#
# number of rings (size 3 to 8) (size 9 to 14) (size 15 to 20)
#    0.857    0.857    2.857    1.714    0.000    1.714 
#    7.714    0.714    0.000    0.000    0.000    0.000 
#    0.000    0.000    0.000    0.000    0.000    0.000 
#
# Total GULP energy -347014.406095 kJ/mol
# GULP energy per Si atom -12393.371646 kJ/mol
# Density = 2.207483 g / cm^3
# Si number density = 22.125192 Si / 1000 Ang^3
#
#
#
# Elastic Constant Matrix: (Units=GPa)
#
#
# Indices 1 2 3 4 5 6 
#
# 1 57.6035 1.3054 2.3172 0.0000 4.1081 0.0000
# 2 1.3054 65.2635 -8.0339 0.0000 -11.2367 0.0000
# 3 2.3172 -8.0339 26.9545 0.0000 -6.3047 0.0000
# 4 0.0000 0.0000 0.0000 33.3938 0.0000 5.8247
# 5 4.1081 -11.2367 -6.3047 0.0000 35.9221 0.0000
# 6 0.0000 0.0000 0.0000 5.8247 0.0000 31.5830
#
#
#
# Elastic Compliance Matrix: (Units=1/GPa)
#
#
# Indices 1 2 3 4 5 6 
#
# 1 0.017689 -0.001151 -0.002525 0.000000 -0.002826 0.000000
# 2 -0.001151 0.017354 0.006853 0.000000 0.006763 0.000000
# 3 -0.002525 0.006853 0.041637 0.000000 0.009740 0.000000
# 4 0.000000 0.000000 0.000000 0.030941 0.000000 -0.005706
# 5 -0.002826 0.006763 0.009740 0.000000 0.031986 0.000000
# 6 0.000000 0.000000 0.000000 -0.005706 0.000000 0.032715
#
#
# Mechanical properties :
#
#
# Convention : Reuss Voigt Hill
#
# Bulk Modulus (GPa) = 12.04325 15.66654 13.85490
# Shear Modulus (GPa) = 25.82025 30.46196 28.14110
#
# Velocity S-wave (km/s) = 3.41985 3.71455 3.57024
# Velocity P-wave (km/s) = 4.58791 5.04910 4.82402
#
# Compressibility (1/GPa) = 0.08303403
#
# Stress axis : x y z
#
# Youngs Moduli (GPa) = 56.53140 57.62521 24.01689
#
# Poissons Ratio (x) = 0.06634 0.06064
# Poissons Ratio (y) = 0.06508 -0.16459
# Poissons Ratio (z) = 0.14273 -0.39491
#
# Static dielectric constant tensor:
#      x y z
#    x 3.854180 0.000000 -0.016310 
#    y 0.000000 3.700360 0.000000 
#    z -0.016310 0.000000 3.825310 
# 
# 
# High freq. dielectric constant tensor:
#      x y z
#    x 1.864530 0.000000 0.001660 
#    y 0.000000 1.849660 0.000000 
#    z 0.001660 0.000000 1.873330 
# 
# From -- ./inp_files/310374.got.cif
#   From: 2010.06.25/outbox.cif.g09.slc.cpg/sg15_156_cif.got.tgz:310374.got - 2010.06.28 07:06:18.
