data_PCOD8140519
_publ_section_title
;
Structure prediction by ZEFSAII (Michael W. Deem and Ramdas Pophale) SiO2 
 PCOD8140519
Probable space group: C 2/C
;
_chemical_formula_sum "Si O2"
_cell_formula_units_Z 60
_cell_length_a 27.951340
_cell_length_b 8.260685
_cell_length_c 24.038763
_cell_angle_alpha 90.000000
_cell_angle_beta 149.791942
_cell_angle_gamma 90.000000
_cell_volume 2792.678515
_symmetry_space_group_name_H-M "C 2/C"
_symmetry_group_IT_number 15
_symmetry_cell_setting 'monoclinic'
loop_
_space_group_symop_operation_xyz
x,y,z
-x,y,1/2-z
-x,-y,-z
x,-y,1/2+z
1/2+x,1/2+y,z
1/2-x,1/2+y,1/2-z
1/2-x,1/2-y,-z
1/2+x,1/2-y,1/2+z
loop_
_atom_site_type_symbol
_atom_site_label
_atom_site_fract_x
_atom_site_fract_y
_atom_site_fract_z
Si Si1 0.139721 0.779417 0.507296
Si Si2 0.029713 0.469825 0.368433
Si Si3 0.460743 0.489607 0.303984
Si Si4 0.856935 0.324054 0.716234
Si Si5 0.470496 0.258184 0.904266
Si Si6 0.131210 0.713751 0.143766
Si Si7 0.500000 0.273495 0.750000
Si Si8 0.173946 0.364199 0.158933
O O1 0.109131 0.610140 0.448140
O O2 0.067775 0.918602 0.414997
O O3 0.243956 0.843677 0.593594
O O4 0.137023 0.746502 0.570773
O O5 0.922254 0.542681 0.250379
O O6 0.026419 0.370063 0.422188
O O7 0.061032 0.347133 0.350635
O O8 0.382866 0.351460 0.218130
O O9 0.442031 0.580921 0.342866
O O10 0.441957 0.609841 0.233250
O O11 0.888701 0.333011 0.812485
O O12 0.373065 0.187941 0.830344
O O13 0.538275 0.297577 0.024717
O O14 0.154612 0.553759 0.131107
O O15 0.213692 0.845214 0.221471
#
# Coordination Sequence:
#
# PCOD8140519 Si02
#       8
#     8   8   8   8   8   8   4   8
#     4  10  22  39  62  90 126 156 197 238 302 357
#     4  10  20  42  63  85 114 163 195 256 301 349
#     4  10  24  41  62  90 115 156 200 259 301 357
#     4  10  22  39  62  90 126 156 197 238 302 357
#     4  11  21  35  61  84 124 162 204 234 291 351
#     4  11  23  36  57  92 130 165 201 235 282 356
#     4  10  24  46  66  86 116 146 210 262 312 350
#     4  11  23  36  57  92 130 165 201 235 282 356
#
# _framework density 21.484749999999998
#
# number of rings (size 3 to 8) (size 9 to 14) (size 15 to 20)
#    0.000    1.600    2.667    2.000    7.467    3.200 
#    0.000    8.000    0.000    0.000    0.000    0.000 
#    0.000    0.000    0.000    0.000    0.000    0.000 
#
# Total GULP energy -371856.909912 kJ/mol
# GULP energy per Si atom -12395.230330 kJ/mol
# Density = 2.143585 g / cm^3
# Si number density = 21.484750 Si / 1000 Ang^3
#
#
#
# Elastic Constant Matrix: (Units=GPa)
#
#
# Indices 1 2 3 4 5 6 
#
# 1 70.4772 30.7821 28.5622 0.0000 -7.0868 0.0000
# 2 30.7821 77.0787 4.4935 0.0000 -6.6586 0.0000
# 3 28.5622 4.4935 50.4246 0.0000 7.3751 0.0000
# 4 0.0000 0.0000 0.0000 22.6205 0.0000 -2.4763
# 5 -7.0868 -6.6586 7.3751 0.0000 18.5655 0.0000
# 6 0.0000 0.0000 0.0000 -2.4763 0.0000 34.3408
#
#
#
# Elastic Compliance Matrix: (Units=1/GPa)
#
#
# Indices 1 2 3 4 5 6 
#
# 1 0.025300 -0.008085 -0.015499 0.000000 0.012915 0.000000
# 2 -0.008085 0.016167 0.002911 0.000000 0.001556 0.000000
# 3 -0.015499 0.002911 0.030857 0.000000 -0.017130 0.000000
# 4 0.000000 0.000000 0.000000 0.044559 0.000000 0.003213
# 5 0.012915 0.001556 -0.017130 0.000000 0.066157 0.000000
# 6 0.000000 0.000000 0.000000 0.003213 0.000000 0.029352
#
#
# Mechanical properties :
#
#
# Convention : Reuss Voigt Hill
#
# Bulk Modulus (GPa) = 32.28038 36.18401 34.23220
# Shear Modulus (GPa) = 18.93481 24.04820 21.49151
#
# Velocity S-wave (km/s) = 2.97191 3.34925 3.16621
# Velocity P-wave (km/s) = 5.18013 5.64224 5.41612
#
# Compressibility (1/GPa) = 0.03097857
#
# Stress axis : x y z
#
# Youngs Moduli (GPa) = 39.52538 61.85397 32.40747
#
# Poissons Ratio (x) = 0.50006 0.50230
# Poissons Ratio (y) = 0.31955 -0.09434
# Poissons Ratio (z) = 0.61262 -0.18006
#
# Static dielectric constant tensor:
#      x y z
#    x 3.857260 0.000000 -0.051690 
#    y 0.000000 3.988780 0.000000 
#    z -0.051690 0.000000 3.709430 
# 
# 
# High freq. dielectric constant tensor:
#      x y z
#    x 1.832490 0.000000 -0.001370 
#    y 0.000000 1.853510 0.000000 
#    z -0.001370 0.000000 1.821630 
# 
# From -- ./inp_files/303125.got.cif
#   From: 2010.06.25/outbox.cif.g09.slc.cpg/sg15_152_cif.got.tgz:303125.got - 2010.06.28 07:06:18.
