data_PCOD8140249
_publ_section_title
;
Structure prediction by ZEFSAII (Michael W. Deem and Ramdas Pophale) SiO2 
 PCOD8140249
Probable space group: C 2/C
;
_chemical_formula_sum "Si O2"
_cell_formula_units_Z 48
_cell_length_a 8.546321
_cell_length_b 27.791541
_cell_length_c 9.018129
_cell_angle_alpha 90.000000
_cell_angle_beta 81.725799
_cell_angle_gamma 90.000000
_cell_volume 2119.648622
_symmetry_space_group_name_H-M "C 2/C"
_symmetry_group_IT_number 15
_symmetry_cell_setting 'monoclinic'
loop_
_space_group_symop_operation_xyz
x,y,z
-x,y,1/2-z
-x,-y,-z
x,-y,1/2+z
1/2+x,1/2+y,z
1/2-x,1/2+y,1/2-z
1/2-x,1/2-y,-z
1/2+x,1/2-y,1/2+z
loop_
_atom_site_type_symbol
_atom_site_label
_atom_site_fract_x
_atom_site_fract_y
_atom_site_fract_z
Si Si1 0.729632 0.463060 0.432434
Si Si2 0.317162 0.163036 0.308498
Si Si3 0.000000 0.400981 0.250000
Si Si4 0.318015 0.750049 0.324696
Si Si5 0.240576 0.336364 0.361778
Si Si6 0.500000 0.589616 0.750000
Si Si7 0.688063 0.054460 0.242052
O O1 0.572920 0.441850 0.375113
O O2 0.736260 0.519254 0.390163
O O3 0.737456 0.459644 0.608904
O O4 0.880535 0.434594 0.353045
O O5 0.500000 0.168212 0.250000
O O6 0.217952 0.195586 0.212260
O O7 0.278090 0.185518 0.473358
O O8 0.258094 0.108395 0.301495
O O9 0.079005 0.365405 0.356526
O O10 0.500000 0.760361 0.250000
O O11 0.250000 0.750000 0.500000
O O12 0.221256 0.792619 0.255674
O O13 0.374821 0.376103 0.343594
O O14 0.500000 0.049162 0.250000
#
# Coordination Sequence:
#
# PCOD8140249 Si02
#       7
#     8   8   4   8   8   4   8
#     4  11  24  43  67 104 142 190 244 304 361 444
#     4  11  26  44  71 105 141 184 243 305 368 437
#     4  10  20  40  74  92 134 182 248 296 352 430
#     4  12  28  47  75 108 146 193 247 307 377 444
#     4  11  24  46  72 100 142 188 239 296 370 440
#     4  10  28  42  72 102 146 192 242 294 380 426
#     4  11  24  42  72 104 143 189 249 300 366 435
#
# _framework density 22.645263
#
# number of rings (size 3 to 8) (size 9 to 14) (size 15 to 20)
#    0.000    1.000    1.667    4.000   12.833    0.667 
#    1.500    0.000    0.000    0.000    0.000    0.000 
#    0.000    0.000    0.000    0.000    0.000    0.000 
#
# Total GULP energy -297478.882685 kJ/mol
# GULP energy per Si atom -12394.953445 kJ/mol
# Density = 2.259372 g / cm^3
# Si number density = 22.645263 Si / 1000 Ang^3
#
#
#
# Elastic Constant Matrix: (Units=GPa)
#
#
# Indices 1 2 3 4 5 6 
#
# 1 96.9593 42.6333 38.9684 0.0000 11.4317 0.0000
# 2 42.6333 167.8232 54.5507 0.0000 7.7033 0.0000
# 3 38.9684 54.5507 171.2404 0.0000 6.2988 0.0000
# 4 0.0000 0.0000 0.0000 28.9680 0.0000 10.3947
# 5 11.4317 7.7033 6.2988 0.0000 34.4707 0.0000
# 6 0.0000 0.0000 0.0000 10.3947 0.0000 53.6062
#
#
#
# Elastic Compliance Matrix: (Units=1/GPa)
#
#
# Indices 1 2 3 4 5 6 
#
# 1 0.012544 -0.002396 -0.001971 0.000000 -0.003264 0.000000
# 2 -0.002396 0.007147 -0.001713 0.000000 -0.000489 0.000000
# 3 -0.001971 -0.001713 0.006842 0.000000 -0.000214 0.000000
# 4 0.000000 0.000000 0.000000 0.037103 0.000000 -0.007194
# 5 -0.003264 -0.000489 -0.000214 0.000000 0.030241 0.000000
# 6 0.000000 0.000000 0.000000 -0.007194 0.000000 0.020050
#
#
# Mechanical properties :
#
#
# Convention : Reuss Voigt Hill
#
# Bulk Modulus (GPa) = 69.58206 78.70308 74.14257
# Shear Modulus (GPa) = 38.20337 43.40034 40.80185
#
# Velocity S-wave (km/s) = 4.11181 4.38257 4.24935
# Velocity P-wave (km/s) = 7.30317 7.77428 7.54241
#
# Compressibility (1/GPa) = 0.01437152
#
# Stress axis : x y z
#
# Youngs Moduli (GPa) = 79.71719 139.92353 146.15561
#
# Poissons Ratio (x) = 0.33527 0.28811
# Poissons Ratio (y) = 0.19101 0.25042
# Poissons Ratio (z) = 0.15714 0.23975
#
# Static dielectric constant tensor:
#      x y z
#    x 4.015030 0.000000 -0.016510 
#    y 0.000000 4.359160 0.000000 
#    z -0.016510 0.000000 4.283350 
# 
# 
# High freq. dielectric constant tensor:
#      x y z
#    x 1.888650 0.000000 0.004510 
#    y 0.000000 1.916120 0.000000 
#    z 0.004510 0.000000 1.898950 
# 
# From -- ./inp_files/26176.got.cif
#   From: 2010.06.25/outbox.cif.g09.slc.cpg/sg15_14_cif.got.tgz:26176.got - 2010.06.28 07:06:18.
