data_PCOD8140725
_publ_section_title
;
Structure prediction by ZEFSAII (Michael W. Deem and Ramdas Pophale) SiO2 
 PCOD8140725
Probable space group: C 2/C
;
_chemical_formula_sum "Si O2"
_cell_formula_units_Z 48
_cell_length_a 10.764851
_cell_length_b 17.580295
_cell_length_c 10.828550
_cell_angle_alpha 90.000000
_cell_angle_beta 79.336098
_cell_angle_gamma 90.000000
_cell_volume 2013.902841
_symmetry_space_group_name_H-M "C 2/C"
_symmetry_group_IT_number 15
_symmetry_cell_setting 'monoclinic'
loop_
_space_group_symop_operation_xyz
x,y,z
-x,y,1/2-z
-x,-y,-z
x,-y,1/2+z
1/2+x,1/2+y,z
1/2-x,1/2+y,1/2-z
1/2-x,1/2-y,-z
1/2+x,1/2-y,1/2+z
loop_
_atom_site_type_symbol
_atom_site_label
_atom_site_fract_x
_atom_site_fract_y
_atom_site_fract_z
Si Si1 0.500000 0.683530 0.750000
Si Si2 0.303263 0.433602 0.365185
Si Si3 0.067925 0.336777 0.356328
Si Si4 0.000000 0.564552 0.250000
Si Si5 0.265795 0.469449 0.637655
Si Si6 0.611330 0.189741 0.398577
Si Si7 0.641141 0.322579 0.759460
O O1 0.593652 0.632714 0.649837
O O2 0.419384 0.734367 0.671686
O O3 0.161114 0.399224 0.396854
O O4 0.313268 0.486522 0.487739
O O5 0.331597 0.480429 0.233302
O O6 0.148150 0.261113 0.315366
O O7 0.000000 0.372619 0.250000
O O8 0.949131 0.306797 0.456714
O O9 0.115520 0.514193 0.175516
O O10 0.051253 0.614980 0.351121
O O11 0.299301 0.380734 0.652506
O O12 0.763863 0.179005 0.376657
O O13 0.500000 0.348053 0.750000
#
# Coordination Sequence:
#
# PCOD8140725 Si02
#       7
#     4   8   8   4   8   8   8
#     4  11  24  44  76 104 135 188 238 282 357 418
#     4  12  27  47  71 103 141 190 235 292 344 429
#     4  11  24  43  71 104 140 175 236 295 353 408
#     4   9  20  40  72  94 125 180 228 290 343 402
#     4  11  26  46  70 100 144 188 235 285 353 414
#     4  10  20  42  73 103 133 174 237 290 343 411
#     4  10  23  44  69 104 139 182 228 297 354 405
#
# _framework density 23.834319000000001
#
# number of rings (size 3 to 8) (size 9 to 14) (size 15 to 20)
#    0.000    1.333    3.333    1.000    2.333    8.000 
#    9.000    0.000    0.000    0.000    0.000    0.000 
#    0.000    0.000    0.000    0.000    0.000    0.000 
#
# Total GULP energy -297492.457863 kJ/mol
# GULP energy per Si atom -12395.519078 kJ/mol
# Density = 2.378007 g / cm^3
# Si number density = 23.834319 Si / 1000 Ang^3
#
#
#
# Elastic Constant Matrix: (Units=GPa)
#
#
# Indices 1 2 3 4 5 6 
#
# 1 109.8872 7.1391 39.6961 0.0000 -16.2737 0.0000
# 2 7.1391 49.8114 21.4018 0.0000 3.3751 0.0000
# 3 39.6961 21.4018 150.8827 0.0000 -10.6820 0.0000
# 4 0.0000 0.0000 0.0000 32.0023 0.0000 -5.1783
# 5 -16.2737 3.3751 -10.6820 0.0000 33.4550 0.0000
# 6 0.0000 0.0000 0.0000 -5.1783 0.0000 18.0860
#
#
#
# Elastic Compliance Matrix: (Units=1/GPa)
#
#
# Indices 1 2 3 4 5 6 
#
# 1 0.010680 -0.000817 -0.002374 0.000000 0.004520 0.000000
# 2 -0.000817 0.021781 -0.003129 0.000000 -0.003594 0.000000
# 3 -0.002374 -0.003129 0.007813 0.000000 0.001656 0.000000
# 4 0.000000 0.000000 0.000000 0.032766 0.000000 0.009381
# 5 0.004520 -0.003594 0.001656 0.000000 0.032981 0.000000
# 6 0.000000 0.000000 0.000000 0.009381 0.000000 0.057977
#
#
# Mechanical properties :
#
#
# Convention : Reuss Voigt Hill
#
# Bulk Modulus (GPa) = 36.18682 49.67280 42.92981
# Shear Modulus (GPa) = 26.90354 32.86495 29.88424
#
# Velocity S-wave (km/s) = 3.36337 3.71737 3.54479
# Velocity P-wave (km/s) = 5.50442 6.26987 5.89957
#
# Compressibility (1/GPa) = 0.02763437
#
# Stress axis : x y z
#
# Youngs Moduli (GPa) = 93.63074 45.91220 127.98701
#
# Poissons Ratio (x) = 0.03751 0.30385
# Poissons Ratio (y) = 0.07649 0.40047
# Poissons Ratio (z) = 0.22228 0.14366
#
# Static dielectric constant tensor:
#      x y z
#    x 4.273360 0.000000 -0.276470 
#    y 0.000000 4.095540 0.000000 
#    z -0.276470 0.000000 4.237340 
# 
# 
# High freq. dielectric constant tensor:
#      x y z
#    x 1.948250 0.000000 -0.018400 
#    y 0.000000 1.936520 0.000000 
#    z -0.018400 0.000000 1.939860 
# 
# From -- ./inp_files/87822.got.cif
#   From: 2010.06.25/outbox.cif.g09.slc.cpg/sg15_44_cif.got.tgz:87822.got - 2010.06.28 07:06:18.
