data_PCOD8140655
_publ_section_title
;
Structure prediction by ZEFSAII (Michael W. Deem and Ramdas Pophale) SiO2 
 PCOD8140655
Probable space group: C 2/C
;
_chemical_formula_sum "Si O2"
_cell_formula_units_Z 40
_cell_length_a 11.683323
_cell_length_b 7.420168
_cell_length_c 18.661505
_cell_angle_alpha 90.000000
_cell_angle_beta 76.584846
_cell_angle_gamma 90.000000
_cell_volume 1573.664687
_symmetry_space_group_name_H-M "C 2/C"
_symmetry_group_IT_number 15
_symmetry_cell_setting 'monoclinic'
loop_
_space_group_symop_operation_xyz
x,y,z
-x,y,1/2-z
-x,-y,-z
x,-y,1/2+z
1/2+x,1/2+y,z
1/2-x,1/2+y,1/2-z
1/2-x,1/2-y,-z
1/2+x,1/2-y,1/2+z
loop_
_atom_site_type_symbol
_atom_site_label
_atom_site_fract_x
_atom_site_fract_y
_atom_site_fract_z
Si Si1 0.290996 0.175489 0.678243
Si Si2 0.534871 0.029661 0.607434
Si Si3 0.350774 0.332808 0.436416
Si Si4 0.228851 0.916494 0.341797
Si Si5 0.877488 0.806726 0.006610
O O1 0.410062 0.058668 0.664272
O O2 0.202408 0.095612 0.631053
O O3 0.226612 0.172678 0.764158
O O4 0.318186 0.380348 0.654864
O O5 0.639521 0.092246 0.644840
O O6 0.533925 0.151752 0.534494
O O7 0.549210 0.818510 0.587821
O O8 0.250000 0.250000 0.500000
O O9 0.412716 0.498156 0.468284
O O10 0.133320 0.814247 0.405376
O O11 0.750000 0.750000 0.000000
#
# Coordination Sequence:
#
# PCOD8140655 Si02
#       5
#     8   8   8   8   8
#     4  11  24  42  69  95 133 181 217 280 351 393
#     4  10  23  43  69  97 131 173 232 279 326 413
#     4  11  21  44  64  97 132 169 225 278 330 403
#     4  10  23  42  64  97 137 172 223 278 346 406
#     4  10  20  42  68  92 136 173 216 285 328 393
#
# _framework density 25.418375000000001
#
# number of rings (size 3 to 8) (size 9 to 14) (size 15 to 20)
#    0.000    1.600    6.000    0.600    5.600    1.600 
#    3.600    0.000    4.400    0.000    0.000    0.000 
#    0.000    0.000    0.000    0.000    0.000    0.000 
#
# Total GULP energy -248021.651917 kJ/mol
# GULP energy per Si atom -12401.082596 kJ/mol
# Density = 2.536052 g / cm^3
# Si number density = 25.418375 Si / 1000 Ang^3
#
#
#
# Elastic Constant Matrix: (Units=GPa)
#
#
# Indices 1 2 3 4 5 6 
#
# 1 83.0246 34.3239 49.7046 0.0000 13.9628 0.0000
# 2 34.3239 107.5893 41.6825 0.0000 1.1217 0.0000
# 3 49.7046 41.6825 206.3375 0.0000 9.1319 0.0000
# 4 0.0000 0.0000 0.0000 43.3775 0.0000 -1.1343
# 5 13.9628 1.1217 9.1319 0.0000 27.3829 0.0000
# 6 0.0000 0.0000 0.0000 -1.1343 0.0000 28.5557
#
#
#
# Elastic Compliance Matrix: (Units=1/GPa)
#
#
# Indices 1 2 3 4 5 6 
#
# 1 0.016717 -0.004147 -0.002862 0.000000 -0.007400 0.000000
# 2 -0.004147 0.011115 -0.001339 0.000000 0.002106 0.000000
# 3 -0.002862 -0.001339 0.005825 0.000000 -0.000429 0.000000
# 4 0.000000 0.000000 0.000000 0.023077 0.000000 0.000917
# 5 -0.007400 0.002106 -0.000429 0.000000 0.040349 0.000000
# 6 0.000000 0.000000 0.000000 0.000917 0.000000 0.035056
#
#
# Mechanical properties :
#
#
# Convention : Reuss Voigt Hill
#
# Bulk Modulus (GPa) = 58.96202 72.04147 65.50174
# Shear Modulus (GPa) = 32.36474 37.94594 35.15534
#
# Velocity S-wave (km/s) = 3.57218 3.86794 3.72300
# Velocity P-wave (km/s) = 6.34515 6.95354 6.65630
#
# Compressibility (1/GPa) = 0.01696007
#
# Stress axis : x y z
#
# Youngs Moduli (GPa) = 59.81987 89.97099 171.66446
#
# Poissons Ratio (x) = 0.37314 0.49124
# Poissons Ratio (y) = 0.24809 0.22994
# Poissons Ratio (z) = 0.17118 0.12051
#
# Static dielectric constant tensor:
#      x y z
#    x 4.379830 0.000000 0.118160 
#    y 0.000000 5.227330 0.000000 
#    z 0.118160 0.000000 5.263720 
# 
# 
# High freq. dielectric constant tensor:
#      x y z
#    x 2.015530 0.000000 0.007690 
#    y 0.000000 2.022540 0.000000 
#    z 0.007690 0.000000 2.018550 
# 
# From -- ./inp_files/235781.got.cif
#   From: 2010.06.25/outbox.cif.g09.slc.cpg/sg15_118_cif.got.tgz:235781.got - 2010.06.28 07:06:18.
