data_PCOD8140095
_publ_section_title
;
Structure prediction by ZEFSAII (Michael W. Deem and Ramdas Pophale) SiO2 
 PCOD8140095
Probable space group: C 2/C
;
_chemical_formula_sum "Si O2"
_cell_formula_units_Z 52
_cell_length_a 11.068132
_cell_length_b 21.117214
_cell_length_c 11.613008
_cell_angle_alpha 90.000000
_cell_angle_beta 113.724642
_cell_angle_gamma 90.000000
_cell_volume 2484.901104
_symmetry_space_group_name_H-M "C 2/C"
_symmetry_group_IT_number 15
_symmetry_cell_setting 'monoclinic'
loop_
_space_group_symop_operation_xyz
x,y,z
-x,y,1/2-z
-x,-y,-z
x,-y,1/2+z
1/2+x,1/2+y,z
1/2-x,1/2+y,1/2-z
1/2-x,1/2-y,-z
1/2+x,1/2-y,1/2+z
loop_
_atom_site_type_symbol
_atom_site_label
_atom_site_fract_x
_atom_site_fract_y
_atom_site_fract_z
Si Si1 0.223380 0.754014 0.356703
Si Si2 0.685104 0.885804 0.804025
Si Si3 0.386770 0.149333 0.799627
Si Si4 0.000000 0.148045 0.750000
Si Si5 0.633404 0.569211 0.628863
Si Si6 0.951348 0.065080 0.354371
Si Si7 0.516348 0.069031 0.449969
O O1 0.250000 0.750000 0.500000
O O2 0.153332 0.689185 0.291323
O O3 0.343252 0.779264 0.321474
O O4 0.129337 0.812617 0.308767
O O5 0.844118 0.886184 0.863863
O O6 0.622599 0.913170 0.662635
O O7 0.628486 0.924388 0.892976
O O8 0.500000 0.158636 0.750000
O O9 0.272985 0.104752 0.698651
O O10 0.446711 0.116667 0.934986
O O11 0.012241 0.105394 0.641685
O O12 0.587032 0.562025 0.479072
O O13 0.634558 0.499642 0.685548
O O14 0.000000 0.087928 0.250000
O O15 0.500000 0.000000 0.500000
#
# Coordination Sequence:
#
# PCOD8140095 Si02
#       7
#     8   8   8   4   8   8   8
#     4  11  22  43  69  95 132 178 233 278 331 414
#     4  11  25  44  68 104 133 187 233 280 347 416
#     4  11  26  43  69 102 137 180 226 291 356 406
#     4  10  20  40  66  94 122 168 224 268 324 390
#     4  10  23  40  64  95 131 174 222 271 341 407
#     4  11  24  40  65  94 138 173 221 278 338 411
#     4  11  25  42  69 103 145 182 230 292 354 426
#
# _framework density 20.926385
#
# number of rings (size 3 to 8) (size 9 to 14) (size 15 to 20)
#    0.000    1.231    2.308    2.769    8.615    1.846 
#    0.000    0.769    0.000    0.000    0.000    0.000 
#    0.000    0.000    0.000    0.000    0.000    0.000 
#
# Total GULP energy -322184.888762 kJ/mol
# GULP energy per Si atom -12391.726491 kJ/mol
# Density = 2.087876 g / cm^3
# Si number density = 20.926385 Si / 1000 Ang^3
#
#
#
# Elastic Constant Matrix: (Units=GPa)
#
#
# Indices 1 2 3 4 5 6 
#
# 1 126.2426 25.5270 47.4385 0.0000 -15.5100 0.0000
# 2 25.5270 97.5149 36.7618 0.0000 -10.1542 0.0000
# 3 47.4385 36.7618 128.7120 0.0000 -7.5438 0.0000
# 4 0.0000 0.0000 0.0000 30.4047 0.0000 -12.8119
# 5 -15.5100 -10.1542 -7.5438 0.0000 28.2725 0.0000
# 6 0.0000 0.0000 0.0000 -12.8119 0.0000 6.0645
#
#
#
# Elastic Compliance Matrix: (Units=1/GPa)
#
#
# Indices 1 2 3 4 5 6 
#
# 1 0.009792 -0.000962 -0.003088 0.000000 0.004203 0.000000
# 2 -0.000962 0.011899 -0.002869 0.000000 0.002980 0.000000
# 3 -0.003088 -0.002869 0.009719 0.000000 -0.000131 0.000000
# 4 0.000000 0.000000 0.000000 0.299567 0.000000 0.632869
# 5 0.004203 0.002980 -0.000131 0.000000 0.038711 0.000000
# 6 0.000000 0.000000 0.000000 0.632869 0.000000 1.501903
#
#
# Mechanical properties :
#
#
# Convention : Reuss Voigt Hill
#
# Bulk Modulus (GPa) = 56.90813 63.54715 60.22764
# Shear Modulus (GPa) = 2.64370 29.13114 15.88742
#
# Velocity S-wave (km/s) = 1.12520 3.73510 2.75836
# Velocity P-wave (km/s) = 5.37974 7.00245 6.24403
#
# Compressibility (1/GPa) = 0.01757218
#
# Stress axis : x y z
#
# Youngs Moduli (GPa) = 102.11905 84.04344 102.88817
#
# Poissons Ratio (x) = 0.08082 0.31774
# Poissons Ratio (y) = 0.09820 0.29522
# Poissons Ratio (z) = 0.31536 0.24115
#
# Static dielectric constant tensor:
#      x y z
#    x 10.904860 0.000000 -0.749920 
#    y 0.000000 3.801530 0.000000 
#    z -0.749920 0.000000 3.792350 
# 
# 
# High freq. dielectric constant tensor:
#      x y z
#    x 1.820550 0.000000 0.001090 
#    y 0.000000 1.824070 0.000000 
#    z 0.001090 0.000000 1.828700 
# 
# From -- ./inp_files/89702.got.cif
#   From: 2010.06.25/outbox.cif.g09.slc.cpg/sg15_45_cif.got.tgz:89702.got - 2010.06.28 07:06:18.
