data_PCOD8140535
_publ_section_title
;
Structure prediction by ZEFSAII (Michael W. Deem and Ramdas Pophale) SiO2 
 PCOD8140535
Probable space group: C 2/C
;
_chemical_formula_sum "Si O2"
_cell_formula_units_Z 56
_cell_length_a 11.876525
_cell_length_b 22.997757
_cell_length_c 11.040548
_cell_angle_alpha 90.000000
_cell_angle_beta 70.746543
_cell_angle_gamma 90.000000
_cell_volume 2846.880866
_symmetry_space_group_name_H-M "C 2/C"
_symmetry_group_IT_number 15
_symmetry_cell_setting 'monoclinic'
loop_
_space_group_symop_operation_xyz
x,y,z
-x,y,1/2-z
-x,-y,-z
x,-y,1/2+z
1/2+x,1/2+y,z
1/2-x,1/2+y,1/2-z
1/2-x,1/2-y,-z
1/2+x,1/2-y,1/2+z
loop_
_atom_site_type_symbol
_atom_site_label
_atom_site_fract_x
_atom_site_fract_y
_atom_site_fract_z
Si Si1 0.869506 0.336015 0.246193
Si Si2 0.854810 0.428130 0.050485
Si Si3 0.499776 0.539810 0.116586
Si Si4 0.772347 0.104908 0.135545
Si Si5 0.614511 0.051146 0.378388
Si Si6 0.725759 0.621489 0.015019
Si Si7 0.134749 0.200716 0.244699
O O1 0.865113 0.368992 0.121008
O O2 0.761872 0.358366 0.368498
O O3 0.848403 0.268104 0.234151
O O4 0.000000 0.348715 0.250000
O O5 0.834380 0.484381 0.143933
O O6 0.744897 0.413267 0.998312
O O7 0.972060 0.444731 0.932298
O O8 0.500000 0.508642 0.250000
O O9 0.372366 0.568928 0.167939
O O10 0.601634 0.587443 0.060154
O O11 0.500000 0.500000 0.000000
O O12 0.651175 0.087521 0.247375
O O13 0.817128 0.170925 0.146815
O O14 0.668216 0.079408 0.480382
O O15 0.717984 0.677873 0.105266
O O16 0.000000 0.185930 0.250000
#
# Coordination Sequence:
#
# PCOD8140535 Si02
#       7
#     8   8   8   8   8   8   8
#     4  11  24  38  64  92 120 161 213 264 299 369
#     4  11  24  38  60  95 123 162 201 259 315 365
#     4  12  24  39  64  94 126 169 209 255 314 384
#     4  11  22  40  61  87 125 167 199 251 317 377
#     4  10  22  38  61  87 126 158 200 252 310 372
#     4  11  20  41  64  90 120 161 208 251 310 371
#     4  10  20  42  64  87 119 164 213 252 307 364
#
# _framework density 19.670650999999999
#
# number of rings (size 3 to 8) (size 9 to 14) (size 15 to 20)
#    0.000    1.143    5.714    1.714    4.000    0.571 
#    0.000    0.000    0.000    1.714    0.000    0.000 
#    0.000    0.000    0.000    0.000    0.000    0.000 
#
# Total GULP energy -346946.357665 kJ/mol
# GULP energy per Si atom -12390.941345 kJ/mol
# Density = 1.962588 g / cm^3
# Si number density = 19.670651 Si / 1000 Ang^3
#
#
#
# Elastic Constant Matrix: (Units=GPa)
#
#
# Indices 1 2 3 4 5 6 
#
# 1 76.2490 34.0852 21.5480 0.0000 15.1934 0.0000
# 2 34.0852 115.5108 43.0144 0.0000 13.4628 0.0000
# 3 21.5480 43.0144 79.6253 0.0000 12.7970 0.0000
# 4 0.0000 0.0000 0.0000 25.7164 0.0000 3.5528
# 5 15.1934 13.4628 12.7970 0.0000 34.8318 0.0000
# 6 0.0000 0.0000 0.0000 3.5528 0.0000 26.2170
#
#
#
# Elastic Compliance Matrix: (Units=1/GPa)
#
#
# Indices 1 2 3 4 5 6 
#
# 1 0.016187 -0.003577 -0.001632 0.000000 -0.005079 0.000000
# 2 -0.003577 0.011784 -0.005225 0.000000 -0.001075 0.000000
# 3 -0.001632 -0.005225 0.016349 0.000000 -0.003275 0.000000
# 4 0.000000 0.000000 0.000000 0.039628 0.000000 -0.005370
# 5 -0.005079 -0.001075 -0.003275 0.000000 0.032543 0.000000
# 6 0.000000 0.000000 0.000000 -0.005370 0.000000 0.038871
#
#
# Mechanical properties :
#
#
# Convention : Reuss Voigt Hill
#
# Bulk Modulus (GPa) = 42.63951 52.07557 47.35754
# Shear Modulus (GPa) = 27.16694 28.86886 28.01790
#
# Velocity S-wave (km/s) = 3.72033 3.83510 3.77815
# Velocity P-wave (km/s) = 6.33863 6.79278 6.56963
#
# Compressibility (1/GPa) = 0.02345243
#
# Stress axis : x y z
#
# Youngs Moduli (GPa) = 61.77774 84.86363 61.16417
#
# Poissons Ratio (x) = 0.30355 0.09982
# Poissons Ratio (y) = 0.22097 0.31958
# Poissons Ratio (z) = 0.10082 0.44341
#
# Static dielectric constant tensor:
#      x y z
#    x 3.652500 0.000000 -0.051110 
#    y 0.000000 3.589000 0.000000 
#    z -0.051110 0.000000 3.439740 
# 
# 
# High freq. dielectric constant tensor:
#      x y z
#    x 1.770770 0.000000 -0.005220 
#    y 0.000000 1.762070 0.000000 
#    z -0.005220 0.000000 1.760400 
# 
# From -- ./inp_files/89552.got.cif
#   From: 2010.06.25/outbox.cif.g09.slc.cpg/sg15_45_cif.got.tgz:89552.got - 2010.06.28 07:06:18.
