data_PCOD8140631
_publ_section_title
;
Structure prediction by ZEFSAII (Michael W. Deem and Ramdas Pophale) SiO2 
 PCOD8140631
Probable space group: C 2/C
;
_chemical_formula_sum "Si O2"
_cell_formula_units_Z 48
_cell_length_a 16.161722
_cell_length_b 8.994843
_cell_length_c 18.086522
_cell_angle_alpha 90.000000
_cell_angle_beta 54.608118
_cell_angle_gamma 90.000000
_cell_volume 2143.412239
_symmetry_space_group_name_H-M "C 2/C"
_symmetry_group_IT_number 15
_symmetry_cell_setting 'monoclinic'
loop_
_space_group_symop_operation_xyz
x,y,z
-x,y,1/2-z
-x,-y,-z
x,-y,1/2+z
1/2+x,1/2+y,z
1/2-x,1/2+y,1/2-z
1/2-x,1/2-y,-z
1/2+x,1/2-y,1/2+z
loop_
_atom_site_type_symbol
_atom_site_label
_atom_site_fract_x
_atom_site_fract_y
_atom_site_fract_z
Si Si1 0.526399 0.066243 0.317717
Si Si2 0.568393 0.381428 0.151235
Si Si3 0.234202 0.082571 0.301596
Si Si4 0.826015 0.073927 0.519078
Si Si5 0.862972 0.589750 0.989522
Si Si6 0.250005 0.100434 0.659904
O O1 0.500000 0.008363 0.250000
O O2 0.485369 0.233526 0.351069
O O3 0.645625 0.058049 0.267473
O O4 0.473329 0.957048 0.403615
O O5 0.500000 0.460153 0.250000
O O6 0.673759 0.336538 0.136868
O O7 0.587362 0.492146 0.073741
O O8 0.205322 0.256654 0.319858
O O9 0.184200 0.003377 0.397147
O O10 0.191159 0.007314 0.248722
O O11 0.864366 0.239876 0.513791
O O12 0.719003 0.066551 0.532783
O O13 0.838771 0.490532 0.073700
#
# Coordination Sequence:
#
# PCOD8140631 Si02
#       6
#     8   8   8   8   8   8
#     4  11  20  39  68  92 119 163 219 252 302 371
#     4  10  20  42  67  92 118 168 215 257 296 382
#     4  12  23  41  64  94 127 166 204 266 314 371
#     4  10  21  38  63  92 126 164 212 254 315 370
#     4  10  21  39  61  93 125 167 208 259 306 381
#     4  11  23  40  64  89 132 161 207 255 326 361
#
# _framework density 22.394197999999999
#
# number of rings (size 3 to 8) (size 9 to 14) (size 15 to 20)
#    0.000    1.333    5.000    2.000    0.000    4.000 
#    6.000    0.833    0.000    0.000    0.000    0.000 
#    0.000    0.000    0.000    0.000    0.000    0.000 
#
# Total GULP energy -297649.856690 kJ/mol
# GULP energy per Si atom -12402.077362 kJ/mol
# Density = 2.234323 g / cm^3
# Si number density = 22.394198 Si / 1000 Ang^3
#
#
#
# Elastic Constant Matrix: (Units=GPa)
#
#
# Indices 1 2 3 4 5 6 
#
# 1 25.4154 9.5542 13.2729 0.0000 -5.5093 0.0000
# 2 9.5542 140.0826 79.1285 0.0000 -3.3321 0.0001
# 3 13.2729 79.1285 173.8898 0.0000 -9.9364 0.0000
# 4 0.0000 0.0000 0.0000 49.8388 0.0000 2.5533
# 5 -5.5093 -3.3321 -9.9364 0.0000 31.7111 0.0000
# 6 0.0000 0.0001 0.0000 2.5533 0.0000 19.4520
#
#
#
# Elastic Compliance Matrix: (Units=1/GPa)
#
#
# Indices 1 2 3 4 5 6 
#
# 1 0.042470 -0.001509 -0.002182 0.000000 0.006536 0.000000
# 2 -0.001509 0.009666 -0.004318 0.000000 -0.000599 0.000000
# 3 -0.002182 -0.004318 0.007977 0.000000 0.001667 0.000000
# 4 0.000000 0.000000 0.000000 0.020201 0.000000 -0.002652
# 5 0.006536 -0.000599 0.001667 0.000000 0.033130 0.000000
# 6 0.000000 0.000000 0.000000 -0.002652 0.000000 0.051757
#
#
# Mechanical properties :
#
#
# Convention : Reuss Voigt Hill
#
# Bulk Modulus (GPa) = 22.67728 60.36654 41.52191
# Shear Modulus (GPa) = 25.52125 36.02920 30.77522
#
# Velocity S-wave (km/s) = 3.37951 4.01542 3.71111
# Velocity P-wave (km/s) = 5.03751 6.96512 6.07822
#
# Compressibility (1/GPa) = 0.04409699
#
# Stress axis : x y z
#
# Youngs Moduli (GPa) = 23.54623 103.45286 125.35560
#
# Poissons Ratio (x) = 0.15609 0.27347
# Poissons Ratio (y) = 0.03553 0.54125
# Poissons Ratio (z) = 0.05137 0.44668
#
# Static dielectric constant tensor:
#      x y z
#    x 3.729700 0.000000 0.008540 
#    y 0.000000 4.040590 0.000000 
#    z 0.008540 0.000000 4.271370 
# 
# 
# High freq. dielectric constant tensor:
#      x y z
#    x 1.855400 0.000000 0.001620 
#    y 0.000000 1.882270 0.000000 
#    z 0.001620 0.000000 1.901810 
# 
# From -- ./inp_files/213743.got.cif
#   From: 2010.06.25/outbox.cif.g09.slc.cpg/sg15_107_cif.got.tgz:213743.got - 2010.06.28 07:06:18.
