data_PCOD8140715
_publ_section_title
;
Structure prediction by ZEFSAII (Michael W. Deem and Ramdas Pophale) SiO2 
 PCOD8140715
Probable space group: C 2/C
;
_chemical_formula_sum "Si O2"
_cell_formula_units_Z 52
_cell_length_a 5.621695
_cell_length_b 26.246388
_cell_length_c 17.548563
_cell_angle_alpha 90.000000
_cell_angle_beta 55.893378
_cell_angle_gamma 90.000000
_cell_volume 2143.909147
_symmetry_space_group_name_H-M "C 2/C"
_symmetry_group_IT_number 15
_symmetry_cell_setting 'monoclinic'
loop_
_space_group_symop_operation_xyz
x,y,z
-x,y,1/2-z
-x,-y,-z
x,-y,1/2+z
1/2+x,1/2+y,z
1/2-x,1/2+y,1/2-z
1/2-x,1/2-y,-z
1/2+x,1/2-y,1/2+z
loop_
_atom_site_type_symbol
_atom_site_label
_atom_site_fract_x
_atom_site_fract_y
_atom_site_fract_z
Si Si1 0.882990 0.925988 0.407934
Si Si2 0.542956 0.170946 0.156315
Si Si3 0.000000 0.138139 0.750000
Si Si4 0.700724 0.275971 0.321447
Si Si5 0.352236 0.471071 0.692777
Si Si6 0.872635 0.155459 0.531292
Si Si7 0.816344 0.604744 0.070290
O O1 0.104239 0.890481 0.413435
O O2 0.590176 0.933520 0.510512
O O3 0.815005 0.898916 0.338305
O O4 0.055949 0.978056 0.367083
O O5 0.500000 0.152201 0.250000
O O6 0.529720 0.232348 0.152626
O O7 0.851289 0.158325 0.070685
O O8 0.317069 0.138315 0.146934
O O9 0.804709 0.175357 0.733899
O O10 0.684186 0.292522 0.412971
O O11 0.000000 0.248097 0.250000
O O12 0.500000 0.471986 0.750000
O O13 0.512470 0.425000 0.619932
O O14 0.000000 0.464763 0.750000
O O15 0.632585 0.143190 0.510850
#
# Coordination Sequence:
#
# PCOD8140715 Si02
#       7
#     8   8   4   8   8   8   8
#     4  10  23  47  74 107 145 198 246 321 376 455
#     4  11  26  45  70 101 146 201 247 314 376 457
#     4  10  20  42  72 106 148 186 254 306 386 436
#     4  11  23  41  69 105 141 195 248 313 374 449
#     4  12  30  48  79 113 154 200 260 320 387 467
#     4  10  25  43  72 102 146 187 253 311 380 453
#     4  11  27  46  73 105 148 197 251 312 384 461
#
# _framework density 24.254760999999998
#
# number of rings (size 3 to 8) (size 9 to 14) (size 15 to 20)
#    0.000    1.231    1.538    1.846   10.769    3.692 
#    0.000    0.000    0.000    0.000    0.000    0.000 
#    0.000    0.000    0.000    0.000    0.000    0.000 
#
# Total GULP energy -322151.359873 kJ/mol
# GULP energy per Si atom -12390.436918 kJ/mol
# Density = 2.419956 g / cm^3
# Si number density = 24.254761 Si / 1000 Ang^3
#
#
#
# Elastic Constant Matrix: (Units=GPa)
#
#
# Indices 1 2 3 4 5 6 
#
# 1 100.3538 29.0769 49.2004 0.0000 7.8247 0.0000
# 2 29.0769 105.8105 57.9917 0.0000 1.5110 0.0000
# 3 49.2004 57.9917 134.8156 0.0000 21.3780 0.0000
# 4 0.0000 0.0000 0.0000 26.5546 0.0000 1.9121
# 5 7.8247 1.5110 21.3780 0.0000 46.4077 0.0000
# 6 0.0000 0.0000 0.0000 1.9121 0.0000 15.5876
#
#
#
# Elastic Compliance Matrix: (Units=1/GPa)
#
#
# Indices 1 2 3 4 5 6 
#
# 1 0.012253 -0.001220 -0.003911 0.000000 -0.000225 0.000000
# 2 -0.001220 0.012701 -0.005378 0.000000 0.002270 0.000000
# 3 -0.003911 -0.005378 0.011895 0.000000 -0.004645 0.000000
# 4 0.000000 0.000000 0.000000 0.037994 0.000000 -0.004661
# 5 -0.000225 0.002270 -0.004645 0.000000 0.023652 0.000000
# 6 0.000000 0.000000 0.000000 -0.004661 0.000000 0.064725
#
#
# Mechanical properties :
#
#
# Convention : Reuss Voigt Hill
#
# Bulk Modulus (GPa) = 63.17043 68.16864 65.66953
# Shear Modulus (GPa) = 26.38288 31.35739 28.87013
#
# Velocity S-wave (km/s) = 3.30167 3.59950 3.45380
# Velocity P-wave (km/s) = 6.37462 6.74103 6.56038
#
# Compressibility (1/GPa) = 0.01583019
#
# Stress axis : x y z
#
# Youngs Moduli (GPa) = 81.60976 78.73151 84.06957
#
# Poissons Ratio (x) = 0.09608 0.32882
# Poissons Ratio (y) = 0.09960 0.45213
# Poissons Ratio (z) = 0.31920 0.42343
#
# Static dielectric constant tensor:
#      x y z
#    x 4.533440 0.000000 0.294020 
#    y 0.000000 4.313860 0.000000 
#    z 0.294020 0.000000 4.652600 
# 
# 
# High freq. dielectric constant tensor:
#      x y z
#    x 1.952060 0.000000 0.006330 
#    y 0.000000 1.961770 0.000000 
#    z 0.006330 0.000000 1.984820 
# 
# From -- ./inp_files/186045.got.cif
#   From: 2010.06.25/outbox.cif.g09.slc.cpg/sg15_94_cif.got.tgz:186045.got - 2010.06.28 07:06:18.
