data_PCOD8140764
_publ_section_title
;
Structure prediction by ZEFSAII (Michael W. Deem and Ramdas Pophale) SiO2 
 PCOD8140764
Probable space group: C 2/C
;
_chemical_formula_sum "Si O2"
_cell_formula_units_Z 56
_cell_length_a 25.265486
_cell_length_b 9.336378
_cell_length_c 18.344343
_cell_angle_alpha 90.000000
_cell_angle_beta 39.388459
_cell_angle_gamma 90.000000
_cell_volume 2745.940364
_symmetry_space_group_name_H-M "C 2/C"
_symmetry_group_IT_number 15
_symmetry_cell_setting 'monoclinic'
loop_
_space_group_symop_operation_xyz
x,y,z
-x,y,1/2-z
-x,-y,-z
x,-y,1/2+z
1/2+x,1/2+y,z
1/2-x,1/2+y,1/2-z
1/2-x,1/2-y,-z
1/2+x,1/2-y,1/2+z
loop_
_atom_site_type_symbol
_atom_site_label
_atom_site_fract_x
_atom_site_fract_y
_atom_site_fract_z
Si Si1 0.679967 0.672761 0.027220
Si Si2 0.078451 0.097276 0.271699
Si Si3 0.963408 0.568965 0.110015
Si Si4 0.986608 0.884551 0.450147
Si Si5 0.033679 0.645132 0.634897
Si Si6 0.320803 0.348799 0.695819
Si Si7 0.282741 0.043150 0.793089
O O1 0.618057 0.591090 0.148957
O O2 0.627736 0.791310 0.036695
O O3 0.750000 0.750000 0.000000
O O4 0.720992 0.558114 0.928462
O O5 0.147504 0.080527 0.261978
O O6 0.028169 0.244060 0.340573
O O7 0.012430 0.965691 0.347950
O O8 0.871303 0.512467 0.227674
O O9 0.958794 0.739910 0.105347
O O10 0.027692 0.510347 0.103155
O O11 0.000000 0.500000 0.000000
O O12 0.890706 0.838479 0.557919
O O13 0.000000 0.000000 0.500000
O O14 0.000000 0.620004 0.750000
O O15 0.286672 0.194122 0.749509
O O16 0.246957 0.438521 0.738992
#
# Coordination Sequence:
#
# PCOD8140764 Si02
#       7
#     8   8   8   8   8   8   8
#     4  11  22  41  70  98 135 175 228 273 335 410
#     4  10  20  43  66  94 129 179 224 269 323 409
#     4  12  23  42  65  94 132 175 224 276 331 401
#     4  10  22  40  65  92 126 172 222 269 328 397
#     4  10  21  41  69  95 126 178 223 265 322 403
#     4  11  23  40  62  99 135 164 227 271 339 390
#     4  12  25  39  64 103 131 172 223 285 338 388
#
# _framework density 20.393743000000001
#
# number of rings (size 3 to 8) (size 9 to 14) (size 15 to 20)
#    0.000    1.143    4.286    2.571    6.000    0.000 
#    0.000    4.286    0.000    0.000    0.000    0.000 
#    0.000    0.000    0.000    0.000    0.000    0.000 
#
# Total GULP energy -347057.466509 kJ/mol
# GULP energy per Si atom -12394.909518 kJ/mol
# Density = 2.034733 g / cm^3
# Si number density = 20.393743 Si / 1000 Ang^3
#
#
#
# Elastic Constant Matrix: (Units=GPa)
#
#
# Indices 1 2 3 4 5 6 
#
# 1 94.9793 31.1583 24.5005 -0.0011 -0.7122 0.0006
# 2 31.1583 128.6052 57.1305 -0.0028 13.7947 0.0025
# 3 24.5005 57.1305 119.7798 -0.0015 -4.1730 0.0022
# 4 -0.0011 -0.0028 -0.0015 30.0000 0.0016 -0.7835
# 5 -0.7122 13.7947 -4.1730 0.0016 21.8695 -0.0016
# 6 0.0006 0.0025 0.0022 -0.7835 -0.0016 37.6363
#
#
#
# Elastic Compliance Matrix: (Units=1/GPa)
#
#
# Indices 1 2 3 4 5 6 
#
# 1 0.011656 -0.002512 -0.001125 0.000000 0.001749 0.000000
# 2 -0.002512 0.011666 -0.005345 0.000001 -0.008461 -0.000001
# 3 -0.001125 -0.005345 0.011320 0.000000 0.005495 0.000000
# 4 0.000000 0.000001 0.000000 0.033352 -0.000003 0.000694
# 5 0.001749 -0.008461 0.005495 -0.000003 0.052168 0.000002
# 6 0.000000 -0.000001 0.000000 0.000694 0.000002 0.026585
#
#
# Mechanical properties :
#
#
# Convention : Reuss Voigt Hill
#
# Bulk Modulus (GPa) = 59.96148 63.21589 61.58869
# Shear Modulus (GPa) = 29.36508 33.27282 31.31895
#
# Velocity S-wave (km/s) = 3.79873 4.04359 3.92307
# Velocity P-wave (km/s) = 6.97898 7.27089 7.12643
#
# Compressibility (1/GPa) = 0.01667737
#
# Stress axis : x y z
#
# Youngs Moduli (GPa) = 85.79290 85.71606 88.34050
#
# Poissons Ratio (x) = 0.21530 0.09940
# Poissons Ratio (y) = 0.21549 0.47222
# Poissons Ratio (z) = 0.09654 0.45819
#
# Static dielectric constant tensor:
#      x y z
#    x -26.606430 0.003670 -16.425680 
#    y 0.003670 4.378940 0.002200 
#    z -16.425680 0.002200 -3.953730 
# 
# 
# High freq. dielectric constant tensor:
#      x y z
#    x 1.789360 0.000000 -0.004700 
#    y 0.000000 1.784130 0.000000 
#    z -0.004700 0.000000 1.810690 
# 
# From -- ./inp_files/222024.got.cif
#   From: 2010.06.25/outbox.cif.g09.slc.cpg/sg15_112_cif.got.tgz:222024.got - 2010.06.28 07:06:18.
