data_PCOD8140101
_publ_section_title
;
Structure prediction by ZEFSAII (Michael W. Deem and Ramdas Pophale) SiO2 
 PCOD8140101
Probable space group: C 2/C
;
_chemical_formula_sum "Si O2"
_cell_formula_units_Z 52
_cell_length_a 8.275995
_cell_length_b 26.917507
_cell_length_c 12.132287
_cell_angle_alpha 90.000000
_cell_angle_beta 68.001151
_cell_angle_gamma 90.000000
_cell_volume 2505.919496
_symmetry_space_group_name_H-M "C 2/C"
_symmetry_group_IT_number 15
_symmetry_cell_setting 'monoclinic'
loop_
_space_group_symop_operation_xyz
x,y,z
-x,y,1/2-z
-x,-y,-z
x,-y,1/2+z
1/2+x,1/2+y,z
1/2-x,1/2+y,1/2-z
1/2-x,1/2-y,-z
1/2+x,1/2-y,1/2+z
loop_
_atom_site_type_symbol
_atom_site_label
_atom_site_fract_x
_atom_site_fract_y
_atom_site_fract_z
Si Si1 0.460365 0.170998 0.018690
Si Si2 0.617691 0.070758 0.981143
Si Si3 0.362641 0.011864 0.190542
Si Si4 0.000000 0.293195 0.750000
Si Si5 0.409953 0.451883 0.576076
Si Si6 0.060252 0.147918 0.109391
Si Si7 0.341659 0.261659 0.590545
O O1 0.573513 0.124919 0.946150
O O2 0.507364 0.173885 0.137363
O O3 0.257933 0.164548 0.047932
O O4 0.518457 0.217809 0.928372
O O5 0.771044 0.071959 0.029905
O O6 0.440161 0.050625 0.082832
O O7 0.680807 0.038827 0.861226
O O8 0.500000 0.999252 0.250000
O O9 0.184124 0.033194 0.285739
O O10 0.178305 0.260900 0.717745
O O11 0.500000 0.500000 0.500000
O O12 0.547340 0.408425 0.567316
O O13 0.000000 0.151509 0.250000
O O14 0.939713 0.185377 0.069155
O O15 0.250000 0.250000 0.500000
#
# Coordination Sequence:
#
# PCOD8140101 Si02
#       7
#     8   8   8   4   8   8   8
#     4  11  23  39  69  94 132 169 222 270 338 398
#     4  10  22  41  64  91 129 176 221 272 337 388
#     4   9  21  39  63  89 127 169 226 271 322 386
#     4  10  20  40  66  96 126 170 214 270 324 400
#     4  11  25  39  64  99 135 175 224 278 336 394
#     4  12  24  40  69  99 130 170 229 278 323 395
#     4  10  22  42  65  96 130 164 213 270 333 397
#
# _framework density 20.750865999999998
#
# number of rings (size 3 to 8) (size 9 to 14) (size 15 to 20)
#    0.000    1.538    1.538    3.231   11.846    0.000 
#    0.000    5.385    0.000    0.000    0.000    0.000 
#    0.000    0.000    0.000    0.000    0.000    0.000 
#
# Total GULP energy -322337.643906 kJ/mol
# GULP energy per Si atom -12397.601689 kJ/mol
# Density = 2.070364 g / cm^3
# Si number density = 20.750866 Si / 1000 Ang^3
#
#
#
# Elastic Constant Matrix: (Units=GPa)
#
#
# Indices 1 2 3 4 5 6 
#
# 1 107.1317 62.5187 36.9300 0.0000 -25.4699 0.0000
# 2 62.5187 151.7279 48.5248 0.0000 -13.9536 0.0000
# 3 36.9300 48.5248 54.6517 0.0000 -12.1728 0.0000
# 4 0.0000 0.0000 0.0000 29.6778 0.0000 -0.6717
# 5 -25.4699 -13.9536 -12.1728 0.0000 39.7276 0.0000
# 6 0.0000 0.0000 0.0000 -0.6717 0.0000 26.3291
#
#
#
# Elastic Compliance Matrix: (Units=1/GPa)
#
#
# Indices 1 2 3 4 5 6 
#
# 1 0.014976 -0.003906 -0.005172 0.000000 0.006645 0.000000
# 2 -0.003906 0.010246 -0.006669 0.000000 -0.000949 0.000000
# 3 -0.005172 -0.006669 0.028391 0.000000 0.003041 0.000000
# 4 0.000000 0.000000 0.000000 0.033715 0.000000 0.000860
# 5 0.006645 -0.000949 0.003041 0.000000 0.030030 0.000000
# 6 0.000000 0.000000 0.000000 0.000860 0.000000 0.038003
#
#
# Mechanical properties :
#
#
# Convention : Reuss Voigt Hill
#
# Bulk Modulus (GPa) = 45.20901 67.71759 56.46330
# Shear Modulus (GPa) = 25.74293 30.18275 27.96284
#
# Velocity S-wave (km/s) = 3.52600 3.81797 3.67488
# Velocity P-wave (km/s) = 6.19764 7.22082 6.72871
#
# Compressibility (1/GPa) = 0.02211948
#
# Stress axis : x y z
#
# Youngs Moduli (GPa) = 66.77261 97.60179 35.22183
#
# Poissons Ratio (x) = 0.38120 0.18217
# Poissons Ratio (y) = 0.26079 0.23490
# Poissons Ratio (z) = 0.34535 0.65093
#
# Static dielectric constant tensor:
#      x y z
#    x 3.993000 0.000000 -0.371240 
#    y 0.000000 4.004460 0.000000 
#    z -0.371240 0.000000 4.148390 
# 
# 
# High freq. dielectric constant tensor:
#      x y z
#    x 1.826420 0.000000 -0.009670 
#    y 0.000000 1.813200 0.000000 
#    z -0.009670 0.000000 1.794920 
# 
# From -- ./inp_files/137188.got.cif
#   From: 2010.06.25/outbox.cif.g09.slc.cpg/sg15_69_cif.got.tgz:137188.got - 2010.06.28 07:06:18.
