data_PCOD8140099
_publ_section_title
;
Structure prediction by ZEFSAII (Michael W. Deem and Ramdas Pophale) SiO2 
 PCOD8140099
Probable space group: C 2/C
;
_chemical_formula_sum "Si O2"
_cell_formula_units_Z 44
_cell_length_a 26.250120
_cell_length_b 12.193860
_cell_length_c 15.336909
_cell_angle_alpha 90.000000
_cell_angle_beta 26.262163
_cell_angle_gamma 90.000000
_cell_volume 2172.216325
_symmetry_space_group_name_H-M "C 2/C"
_symmetry_group_IT_number 15
_symmetry_cell_setting 'monoclinic'
loop_
_space_group_symop_operation_xyz
x,y,z
-x,y,1/2-z
-x,-y,-z
x,-y,1/2+z
1/2+x,1/2+y,z
1/2-x,1/2+y,1/2-z
1/2-x,1/2-y,-z
1/2+x,1/2-y,1/2+z
loop_
_atom_site_type_symbol
_atom_site_label
_atom_site_fract_x
_atom_site_fract_y
_atom_site_fract_z
Si Si1 0.687849 0.364238 0.108961
Si Si2 0.541456 0.616437 0.470356
Si Si3 0.684680 0.991234 0.730590
Si Si4 0.000000 0.596165 0.750000
Si Si5 0.259824 0.996923 0.163678
Si Si6 0.484530 0.165771 0.587828
O O1 0.548684 0.349276 0.314474
O O2 0.715536 0.403225 0.165755
O O3 0.750000 0.250000 0.000000
O O4 0.722368 0.453784 0.983687
O O5 0.500000 0.500000 0.500000
O O6 0.675147 0.603780 0.292644
O O7 0.532546 0.709271 0.411450
O O8 0.741001 0.038684 0.733166
O O9 0.616121 0.091584 0.795642
O O10 0.605940 0.884850 0.870900
O O11 0.109979 0.519969 0.564524
O O12 0.023910 0.672351 0.795419
#
# Coordination Sequence:
#
# PCOD8140099 Si02
#       6
#     8   8   8   4   8   8
#     4  11  21  41  67  93 131 175 214 273 331 388
#     4  10  23  42  61  93 136 164 208 272 335 382
#     4  10  21  39  66  94 126 167 225 266 312 385
#     4  10  20  40  68  88 122 170 228 258 316 388
#     4  10  23  40  61  98 129 169 218 266 322 392
#     4  10  20  40  66  95 125 169 218 269 311 388
#
# _framework density 20.25581
#
# number of rings (size 3 to 8) (size 9 to 14) (size 15 to 20)
#    0.000    1.818    3.636    0.000    0.000    2.909 
#    3.273    0.000    0.000    0.000    0.000    0.000 
#    0.000    0.000    0.000    0.000    0.000    0.000 
#
# Total GULP energy -272641.723901 kJ/mol
# GULP energy per Si atom -12392.805632 kJ/mol
# Density = 2.020971 g / cm^3
# Si number density = 20.255810 Si / 1000 Ang^3
#
#
#
# Elastic Constant Matrix: (Units=GPa)
#
#
# Indices 1 2 3 4 5 6 
#
# 1 135.5465 50.8960 60.1825 0.0000 19.5147 0.0000
# 2 50.8960 101.0569 22.7547 0.0000 9.9718 0.0000
# 3 60.1825 22.7547 107.4952 0.0000 2.9298 0.0000
# 4 0.0000 0.0000 0.0000 28.5240 0.0000 4.7350
# 5 19.5147 9.9718 2.9298 0.0000 34.9671 0.0000
# 6 0.0000 0.0000 0.0000 4.7350 0.0000 8.0383
#
#
#
# Elastic Compliance Matrix: (Units=1/GPa)
#
#
# Indices 1 2 3 4 5 6 
#
# 1 0.012373 -0.004404 -0.005855 0.000000 -0.005159 0.000000
# 2 -0.004404 0.012236 -0.000096 0.000000 -0.001023 0.000000
# 3 -0.005855 -0.000096 0.012540 0.000000 0.002244 0.000000
# 4 0.000000 0.000000 0.000000 0.038858 0.000000 -0.022889
# 5 -0.005159 -0.001023 0.002244 0.000000 0.031581 0.000000
# 6 0.000000 0.000000 0.000000 -0.022889 0.000000 0.137887
#
#
# Mechanical properties :
#
#
# Convention : Reuss Voigt Hill
#
# Bulk Modulus (GPa) = 60.83174 67.97389 64.40282
# Shear Modulus (GPa) = 18.40494 28.32357 23.36425
#
# Velocity S-wave (km/s) = 3.01761 3.74343 3.39995
# Velocity P-wave (km/s) = 6.49910 7.23291 6.87580
#
# Compressibility (1/GPa) = 0.01643879
#
# Stress axis : x y z
#
# Youngs Moduli (GPa) = 80.81798 81.72374 79.74666
#
# Poissons Ratio (x) = 0.35995 0.46688
# Poissons Ratio (y) = 0.35596 0.00769
# Poissons Ratio (z) = 0.47315 0.00788
#
# Static dielectric constant tensor:
#      x y z
#    x 3.971470 0.000000 -0.150130 
#    y 0.000000 3.427350 0.000000 
#    z -0.150130 0.000000 4.397000 
# 
# 
# High freq. dielectric constant tensor:
#      x y z
#    x 1.785960 0.000000 0.000290 
#    y 0.000000 1.774390 0.000000 
#    z 0.000290 0.000000 1.811790 
# 
# From -- ./inp_files/151728.got.cif
#   From: 2010.06.25/outbox.cif.g09.slc.cpg/sg15_76_cif.got.tgz:151728.got - 2010.06.28 07:06:18.
