data_PCOD8140005
_publ_section_title
;
Structure prediction by ZEFSAII (Michael W. Deem and Ramdas Pophale) SiO2 
 PCOD8140005
Probable space group: C 2/C
;
_chemical_formula_sum "Si O2"
_cell_formula_units_Z 40
_cell_length_a 21.995782
_cell_length_b 15.521713
_cell_length_c 8.247879
_cell_angle_alpha 90.000000
_cell_angle_beta 32.672739
_cell_angle_gamma 90.000000
_cell_volume 1520.149482
_symmetry_space_group_name_H-M "C 2/C"
_symmetry_group_IT_number 15
_symmetry_cell_setting 'monoclinic'
loop_
_space_group_symop_operation_xyz
x,y,z
-x,y,1/2-z
-x,-y,-z
x,-y,1/2+z
1/2+x,1/2+y,z
1/2-x,1/2+y,1/2-z
1/2-x,1/2-y,-z
1/2+x,1/2-y,1/2+z
loop_
_atom_site_type_symbol
_atom_site_label
_atom_site_fract_x
_atom_site_fract_y
_atom_site_fract_z
Si Si1 0.874035 0.131539 0.058954
Si Si2 0.000000 0.441833 0.750000
Si Si3 0.375830 0.083527 0.224893
Si Si4 0.311480 0.764749 0.691009
Si Si5 0.500000 0.370853 0.750000
Si Si6 0.359189 0.478924 0.289826
O O1 0.854860 0.047037 0.987897
O O2 0.000000 0.170518 0.750000
O O3 0.782024 0.207009 0.234035
O O4 0.856840 0.083563 0.270779
O O5 0.928846 0.386269 0.779565
O O6 0.079043 0.496083 0.453610
O O7 0.394291 0.155533 0.045418
O O8 0.245804 0.067783 0.561249
O O9 0.390793 0.687840 0.450539
O O10 0.250000 0.750000 0.000000
O O11 0.527034 0.433740 0.537549
#
# Coordination Sequence:
#
# PCOD8140005 Si02
#       6
#     8   4   8   8   4   8
#     4  11  23  43  71 104 133 176 232 289 331 404
#     4  10  21  38  68  99 130 166 224 276 331 394
#     4  10  20  40  64  98 130 173 217 274 332 403
#     4  11  23  43  63  94 138 180 212 276 347 401
#     4  12  23  44  70  93 136 186 218 276 349 398
#     4  11  23  40  73  98 133 173 235 278 336 399
#
# _framework density 26.313200999999999
#
# number of rings (size 3 to 8) (size 9 to 14) (size 15 to 20)
#    0.000    1.200    5.000    3.600    0.000    1.600 
#    1.800    1.000    0.000    0.000    0.000    0.000 
#    0.000    0.000    0.000    0.000    0.000    0.000 
#
# Total GULP energy -247791.068209 kJ/mol
# GULP energy per Si atom -12389.553410 kJ/mol
# Density = 2.625331 g / cm^3
# Si number density = 26.313201 Si / 1000 Ang^3
#
#
#
# Elastic Constant Matrix: (Units=GPa)
#
#
# Indices 1 2 3 4 5 6 
#
# 1 122.4830 12.8676 15.2578 0.0000 -28.8957 0.0000
# 2 12.8676 76.2224 21.7584 0.0000 -4.3415 0.0000
# 3 15.2578 21.7584 86.5570 0.0000 -7.4472 0.0000
# 4 0.0000 0.0000 0.0000 42.9186 0.0000 -2.4781
# 5 -28.8957 -4.3415 -7.4472 0.0000 30.6806 0.0000
# 6 0.0000 0.0000 0.0000 -2.4781 0.0000 27.7666
#
#
#
# Elastic Compliance Matrix: (Units=1/GPa)
#
#
# Indices 1 2 3 4 5 6 
#
# 1 0.010659 -0.001022 -0.000787 0.000000 0.009703 0.000000
# 2 -0.001022 0.014272 -0.003387 0.000000 0.000235 0.000000
# 3 -0.000787 -0.003387 0.012704 0.000000 0.001863 0.000000
# 4 0.000000 0.000000 0.000000 0.023421 0.000000 0.002090
# 5 0.009703 0.000235 0.001863 0.000000 0.042218 0.000000
# 6 0.000000 0.000000 0.000000 0.002090 0.000000 0.036201
#
#
# Mechanical properties :
#
#
# Convention : Reuss Voigt Hill
#
# Bulk Modulus (GPa) = 36.70824 42.78109 39.74466
# Shear Modulus (GPa) = 31.45679 35.96509 33.71094
#
# Velocity S-wave (km/s) = 3.46132 3.70105 3.58319
# Velocity P-wave (km/s) = 5.47312 5.87855 5.67946
#
# Compressibility (1/GPa) = 0.02724184
#
# Stress axis : x y z
#
# Youngs Moduli (GPa) = 93.81785 70.06549 78.71777
#
# Poissons Ratio (x) = 0.07161 0.06196
# Poissons Ratio (y) = 0.09588 0.26665
# Poissons Ratio (z) = 0.07385 0.23734
#
# Static dielectric constant tensor:
#      x y z
#    x 5.259260 0.000000 -0.503320 
#    y 0.000000 4.990640 0.000000 
#    z -0.503320 0.000000 4.670850 
# 
# 
# High freq. dielectric constant tensor:
#      x y z
#    x 2.068000 0.000000 -0.021520 
#    y 0.000000 2.035300 0.000000 
#    z -0.021520 0.000000 2.053250 
# 
# From -- ./inp_files/30542.got.cif
#   From: 2010.06.25/outbox.cif.g09.slc.cpg/sg15_16_cif.got.tgz:30542.got - 2010.06.28 07:06:18.
