data_PCOD8140675
_publ_section_title
;
Structure prediction by ZEFSAII (Michael W. Deem and Ramdas Pophale) SiO2 
 PCOD8140675
Probable space group: C 2/C
;
_chemical_formula_sum "Si O2"
_cell_formula_units_Z 56
_cell_length_a 9.624366
_cell_length_b 22.031486
_cell_length_c 12.512294
_cell_angle_alpha 90.000000
_cell_angle_beta 93.692430
_cell_angle_gamma 90.000000
_cell_volume 2647.587902
_symmetry_space_group_name_H-M "C 2/C"
_symmetry_group_IT_number 15
_symmetry_cell_setting 'monoclinic'
loop_
_space_group_symop_operation_xyz
x,y,z
-x,y,1/2-z
-x,-y,-z
x,-y,1/2+z
1/2+x,1/2+y,z
1/2-x,1/2+y,1/2-z
1/2-x,1/2-y,-z
1/2+x,1/2-y,1/2+z
loop_
_atom_site_type_symbol
_atom_site_label
_atom_site_fract_x
_atom_site_fract_y
_atom_site_fract_z
Si Si1 0.849501 0.877380 0.288856
Si Si2 0.244296 0.764710 0.333049
Si Si3 0.661693 0.649835 0.275687
Si Si4 0.549610 0.796375 0.974509
Si Si5 0.381357 0.953649 0.159002
Si Si6 0.613741 0.907741 0.845861
Si Si7 0.719571 0.145817 0.990749
O O1 0.768349 0.832655 0.206979
O O2 0.766399 0.941275 0.287485
O O3 0.840594 0.844840 0.406570
O O4 0.000000 0.891038 0.250000
O O5 0.289855 0.719132 0.241367
O O6 0.367790 0.765805 0.424880
O O7 0.093915 0.743482 0.373045
O O8 0.500000 0.641751 0.250000
O O9 0.734513 0.605413 0.194623
O O10 0.703081 0.628923 0.396518
O O11 0.590554 0.866114 0.948899
O O12 0.384097 0.796084 0.994906
O O13 0.500000 0.936521 0.250000
O O14 0.394077 0.022346 0.119038
O O15 0.382122 0.909257 0.055308
O O16 0.500000 0.891727 0.750000
#
# Coordination Sequence:
#
# PCOD8140675 Si02
#       7
#     8   8   8   8   8   8   8
#     4  10  24  41  62  92 135 168 218 266 332 385
#     4  10  24  40  63  95 133 176 207 278 334 381
#     4  11  25  42  63  94 137 175 222 265 330 393
#     4  10  21  40  67  97 128 165 228 263 330 396
#     4   9  21  42  67  98 128 171 216 276 327 388
#     4  10  20  42  69  98 132 171 217 276 330 385
#     4  10  23  41  67  95 128 173 220 267 328 394
#
# _framework density 21.151326999999998
#
# number of rings (size 3 to 8) (size 9 to 14) (size 15 to 20)
#    0.857    1.143    1.429    0.857    4.000    5.143 
#    2.571    0.714    0.000    0.000    0.000    0.000 
#    0.000    0.000    0.000    0.000    0.000    0.000 
#
# Total GULP energy -346935.908824 kJ/mol
# GULP energy per Si atom -12390.568172 kJ/mol
# Density = 2.110319 g / cm^3
# Si number density = 21.151327 Si / 1000 Ang^3
#
#
#
# Elastic Constant Matrix: (Units=GPa)
#
#
# Indices 1 2 3 4 5 6 
#
# 1 136.8310 1.8125 29.9762 0.0000 -15.2280 0.0000
# 2 1.8125 61.0105 22.8499 0.0000 2.7934 0.0000
# 3 29.9762 22.8499 91.2718 0.0000 -2.7419 0.0000
# 4 0.0000 0.0000 0.0000 21.5548 0.0000 3.8592
# 5 -15.2280 2.7934 -2.7419 0.0000 31.4209 0.0000
# 6 0.0000 0.0000 0.0000 3.8592 0.0000 17.8961
#
#
#
# Elastic Compliance Matrix: (Units=1/GPa)
#
#
# Indices 1 2 3 4 5 6 
#
# 1 0.008324 0.000622 -0.002777 0.000000 0.003737 0.000000
# 2 0.000622 0.018260 -0.004828 0.000000 -0.001743 0.000000
# 3 -0.002777 -0.004828 0.013084 0.000000 0.000225 0.000000
# 4 0.000000 0.000000 0.000000 0.048257 0.000000 -0.010406
# 5 0.003737 -0.001743 0.000225 0.000000 0.033812 0.000000
# 6 0.000000 0.000000 0.000000 -0.010406 0.000000 0.058122
#
#
# Mechanical properties :
#
#
# Convention : Reuss Voigt Hill
#
# Bulk Modulus (GPa) = 38.90858 44.26560 41.58709
# Shear Modulus (GPa) = 24.70440 29.80600 27.25520
#
# Velocity S-wave (km/s) = 3.42128 3.75798 3.59358
# Velocity P-wave (km/s) = 5.83457 6.30899 6.07641
#
# Compressibility (1/GPa) = 0.02570127
#
# Stress axis : x y z
#
# Youngs Moduli (GPa) = 120.12941 54.76391 76.42978
#
# Poissons Ratio (x) = -0.03405 0.21227
# Poissons Ratio (y) = -0.07470 0.36901
# Poissons Ratio (z) = 0.33364 0.26440
#
# Static dielectric constant tensor:
#      x y z
#    x 3.871380 0.000000 -0.187900 
#    y 0.000000 3.602030 0.000000 
#    z -0.187900 0.000000 3.682250 
# 
# 
# High freq. dielectric constant tensor:
#      x y z
#    x 1.832270 0.000000 -0.011210 
#    y 0.000000 1.811920 0.000000 
#    z -0.011210 0.000000 1.826030 
# 
# From -- ./inp_files/137463.got.cif
#   From: 2010.06.25/outbox.cif.g09.slc.cpg/sg15_69_cif.got.tgz:137463.got - 2010.06.28 07:06:18.
