data_PCOD8140804
_publ_section_title
;
Structure prediction by ZEFSAII (Michael W. Deem and Ramdas Pophale) SiO2 
 PCOD8140804
Probable space group: C 2/C
;
_chemical_formula_sum "Si O2"
_cell_formula_units_Z 44
_cell_length_a 8.244255
_cell_length_b 26.213043
_cell_length_c 10.239775
_cell_angle_alpha 90.000000
_cell_angle_beta 86.831991
_cell_angle_gamma 90.000000
_cell_volume 2209.505380
_symmetry_space_group_name_H-M "C 2/C"
_symmetry_group_IT_number 15
_symmetry_cell_setting 'monoclinic'
loop_
_space_group_symop_operation_xyz
x,y,z
-x,y,1/2-z
-x,-y,-z
x,-y,1/2+z
1/2+x,1/2+y,z
1/2-x,1/2+y,1/2-z
1/2-x,1/2-y,-z
1/2+x,1/2-y,1/2+z
loop_
_atom_site_type_symbol
_atom_site_label
_atom_site_fract_x
_atom_site_fract_y
_atom_site_fract_z
Si Si1 0.332792 0.607943 0.022103
Si Si2 0.435752 0.535717 0.615313
Si Si3 0.110078 0.513986 0.115801
Si Si4 0.660164 0.755619 0.135770
Si Si5 0.692904 0.792302 0.400041
Si Si6 0.500000 0.661057 0.250000
O O1 0.204967 0.564932 0.070125
O O2 0.408082 0.625725 0.153261
O O3 0.482113 0.590348 0.920898
O O4 0.239533 0.652000 0.947766
O O5 0.500000 0.514984 0.750000
O O6 0.500000 0.500000 0.500000
O O7 0.238938 0.532799 0.630440
O O8 0.000000 0.521969 0.250000
O O9 0.000000 0.500000 0.000000
O O10 0.763927 0.781557 0.249956
O O11 0.499461 0.788128 0.112415
O O12 0.629168 0.697085 0.174109
O O13 0.750000 0.750000 0.000000
O O14 0.750000 0.750000 0.500000
#
# Coordination Sequence:
#
# PCOD8140804 Si02
#       6
#     8   8   8   8   8   4
#     4  11  23  41  71  92 130 178 224 265 331 401
#     4  10  23  43  69  91 125 172 217 268 332 399
#     4  11  25  44  65  97 131 165 218 285 339 388
#     4  10  22  40  64  90 137 173 210 271 326 373
#     4  10  20  44  61  93 135 165 217 266 307 395
#     4  10  22  40  64  98 124 170 224 262 318 392
#
# _framework density 19.913958999999998
#
# number of rings (size 3 to 8) (size 9 to 14) (size 15 to 20)
#    0.000    1.818    3.636    2.182    7.636    3.636 
#    9.818    0.000    0.000    0.000    0.000    0.000 
#    0.000    0.000    0.000    0.000    0.000    0.000 
#
# Total GULP energy -272563.510170 kJ/mol
# GULP energy per Si atom -12389.250462 kJ/mol
# Density = 1.986863 g / cm^3
# Si number density = 19.913959 Si / 1000 Ang^3
#
#
#
# Elastic Constant Matrix: (Units=GPa)
#
#
# Indices 1 2 3 4 5 6 
#
# 1 110.8859 59.5607 80.8350 0.0000 13.4757 0.0000
# 2 59.5607 123.4286 66.3374 0.0000 8.8610 0.0000
# 3 80.8350 66.3374 209.8719 0.0000 7.2091 0.0000
# 4 0.0000 0.0000 0.0000 34.4470 0.0000 16.6397
# 5 13.4757 8.8610 7.2091 0.0000 50.7898 0.0000
# 6 0.0000 0.0000 0.0000 16.6397 0.0000 21.0354
#
#
#
# Elastic Compliance Matrix: (Units=1/GPa)
#
#
# Indices 1 2 3 4 5 6 
#
# 1 0.014922 -0.004790 -0.004146 0.000000 -0.002535 0.000000
# 2 -0.004790 0.011380 -0.001736 0.000000 -0.000468 0.000000
# 3 -0.004146 -0.001736 0.006896 0.000000 0.000424 0.000000
# 4 0.000000 0.000000 0.000000 0.046983 0.000000 -0.037165
# 5 -0.002535 -0.000468 0.000424 0.000000 0.020383 0.000000
# 6 0.000000 0.000000 0.000000 -0.037165 0.000000 0.076937
#
#
# Mechanical properties :
#
#
# Convention : Reuss Voigt Hill
#
# Bulk Modulus (GPa) = 84.36625 95.29472 89.83049
# Shear Modulus (GPa) = 24.65529 37.08467 30.86998
#
# Velocity S-wave (km/s) = 3.52247 4.32006 3.94149
# Velocity P-wave (km/s) = 7.68122 8.53469 8.11918
#
# Compressibility (1/GPa) = 0.01185308
#
# Stress axis : x y z
#
# Youngs Moduli (GPa) = 67.01579 87.87361 145.01363
#
# Poissons Ratio (x) = 0.42093 0.60125
# Poissons Ratio (y) = 0.32102 0.25174
# Poissons Ratio (z) = 0.27786 0.15254
#
# Static dielectric constant tensor:
#      x y z
#    x 3.838580 0.000000 0.090470 
#    y 0.000000 3.180760 0.000000 
#    z 0.090470 0.000000 4.227620 
# 
# 
# High freq. dielectric constant tensor:
#      x y z
#    x 1.772950 0.000000 0.010430 
#    y 0.000000 1.769680 0.000000 
#    z 0.010430 0.000000 1.808370 
# 
# From -- ./inp_files/25630.got.cif
#   From: 2010.06.25/outbox.cif.g09.slc.cpg/sg15_13_cif.got.tgz:25630.got - 2010.06.28 07:06:18.
