data_PCOD8140473
_publ_section_title
;
Structure prediction by ZEFSAII (Michael W. Deem and Ramdas Pophale) SiO2 
 PCOD8140473
Probable space group: C 2/C
;
_chemical_formula_sum "Si O2"
_cell_formula_units_Z 40
_cell_length_a 14.366526
_cell_length_b 8.577822
_cell_length_c 27.874816
_cell_angle_alpha 90.000000
_cell_angle_beta 148.022374
_cell_angle_gamma 90.000000
_cell_volume 1819.193888
_symmetry_space_group_name_H-M "C 2/C"
_symmetry_group_IT_number 15
_symmetry_cell_setting 'monoclinic'
loop_
_space_group_symop_operation_xyz
x,y,z
-x,y,1/2-z
-x,-y,-z
x,-y,1/2+z
1/2+x,1/2+y,z
1/2-x,1/2+y,1/2-z
1/2-x,1/2-y,-z
1/2+x,1/2-y,1/2+z
loop_
_atom_site_type_symbol
_atom_site_label
_atom_site_fract_x
_atom_site_fract_y
_atom_site_fract_z
Si Si1 0.263456 0.576068 0.021838
Si Si2 0.565622 0.884296 0.627335
Si Si3 0.976847 0.051603 0.935388
Si Si4 0.098528 0.515816 0.243102
Si Si5 0.448885 0.344664 0.781626
O O1 0.340206 0.484330 0.010173
O O2 0.399919 0.562504 0.124708
O O3 0.250000 0.750000 0.000000
O O4 0.074652 0.507591 0.954998
O O5 0.552224 0.733674 0.587521
O O6 0.767575 0.939321 0.710998
O O7 0.532992 0.869773 0.671197
O O8 0.807585 0.958188 0.841548
O O9 0.000000 0.000000 0.000000
O O10 0.062016 0.338594 0.208961
O O11 0.000000 0.554406 0.250000
O O12 0.500000 0.357513 0.750000
#
# Coordination Sequence:
#
# PCOD8140473 Si02
#       5
#     8   8   8   8   8
#     4  12  24  42  69  98 137 181 234 288 346 409
#     4  11  23  43  72 100 139 184 233 289 346 418
#     4  11  25  44  66 101 139 182 235 285 349 420
#     4  10  20  41  71  95 135 185 226 281 352 409
#     4  10  23  43  65  99 140 181 226 283 352 413
#
# _framework density 21.987760000000002
#
# number of rings (size 3 to 8) (size 9 to 14) (size 15 to 20)
#    0.000    1.200    4.000    1.800    5.600    0.800 
#    0.000    1.000    0.000    0.000    0.000    0.000 
#    0.000    0.000    0.000    0.000    0.000    0.000 
#
# Total GULP energy -247858.391919 kJ/mol
# GULP energy per Si atom -12392.919596 kJ/mol
# Density = 2.193771 g / cm^3
# Si number density = 21.987760 Si / 1000 Ang^3
#
#
#
# Elastic Constant Matrix: (Units=GPa)
#
#
# Indices 1 2 3 4 5 6 
#
# 1 89.0882 38.2265 49.6109 0.0001 -7.7296 0.0000
# 2 38.2265 61.5065 59.7890 -0.0001 -8.1527 0.0000
# 3 49.6109 59.7890 164.2723 0.0001 -1.4553 -0.0005
# 4 0.0001 -0.0001 0.0001 20.9617 0.0000 -5.6308
# 5 -7.7296 -8.1527 -1.4553 0.0000 43.8383 0.0001
# 6 0.0000 0.0000 -0.0005 -5.6308 0.0001 30.0276
#
#
#
# Elastic Compliance Matrix: (Units=1/GPa)
#
#
# Indices 1 2 3 4 5 6 
#
# 1 0.015725 -0.007736 -0.001922 0.000000 0.001270 0.000000
# 2 -0.007736 0.029835 -0.008488 0.000000 0.003903 0.000000
# 3 -0.001922 -0.008488 0.009743 0.000000 -0.001594 0.000000
# 4 0.000000 0.000000 0.000000 0.050237 0.000000 0.009420
# 5 0.001270 0.003903 -0.001594 0.000000 0.023708 0.000000
# 6 0.000000 0.000000 0.000000 0.009420 0.000000 0.035069
#
#
# Mechanical properties :
#
#
# Convention : Reuss Voigt Hill
#
# Bulk Modulus (GPa) = 52.60296 67.79109 60.19703
# Shear Modulus (GPa) = 24.16097 30.11490 27.13793
#
# Velocity S-wave (km/s) = 3.31847 3.70485 3.51697
# Velocity P-wave (km/s) = 6.21761 7.01423 6.62790
#
# Compressibility (1/GPa) = 0.01901034
#
# Stress axis : x y z
#
# Youngs Moduli (GPa) = 63.59328 33.51803 102.63814
#
# Poissons Ratio (x) = 0.25931 0.19726
# Poissons Ratio (y) = 0.49199 0.87116
# Poissons Ratio (z) = 0.12222 0.28449
#
# Static dielectric constant tensor:
#      x y z
#    x 4.025790 0.000000 0.202030 
#    y 0.000000 4.046420 0.000000 
#    z 0.202030 0.000000 4.787930 
# 
# 
# High freq. dielectric constant tensor:
#      x y z
#    x 1.869260 0.000000 0.006120 
#    y 0.000000 1.828040 0.000000 
#    z 0.006120 0.000000 1.894440 
# 
# From -- ./inp_files/150760.got.cif
#   From: 2010.06.25/outbox.cif.g09.slc.cpg/sg15_76_cif.got.tgz:150760.got - 2010.06.28 07:06:18.
