data_PCOD8140387
_publ_section_title
;
Structure prediction by ZEFSAII (Michael W. Deem and Ramdas Pophale) SiO2 
 PCOD8140387
Probable space group: C 2/C
;
_chemical_formula_sum "Si O2"
_cell_formula_units_Z 64
_cell_length_a 28.399474
_cell_length_b 11.415649
_cell_length_c 14.702552
_cell_angle_alpha 90.000000
_cell_angle_beta 39.798178
_cell_angle_gamma 90.000000
_cell_volume 3050.994741
_symmetry_space_group_name_H-M "C 2/C"
_symmetry_group_IT_number 15
_symmetry_cell_setting 'monoclinic'
loop_
_space_group_symop_operation_xyz
x,y,z
-x,y,1/2-z
-x,-y,-z
x,-y,1/2+z
1/2+x,1/2+y,z
1/2-x,1/2+y,1/2-z
1/2-x,1/2-y,-z
1/2+x,1/2-y,1/2+z
loop_
_atom_site_type_symbol
_atom_site_label
_atom_site_fract_x
_atom_site_fract_y
_atom_site_fract_z
Si Si1 0.147910 0.225961 0.857876
Si Si2 0.754058 0.795811 0.855641
Si Si3 0.319307 0.136966 0.370100
Si Si4 0.342456 0.645545 0.929809
Si Si5 0.134860 0.953470 0.902069
Si Si6 0.156204 0.376274 0.166369
Si Si7 0.978699 0.979661 0.180180
Si Si8 0.488596 0.749649 0.163936
O O1 0.208217 0.285325 0.832280
O O2 0.167081 0.269274 0.729680
O O3 0.156702 0.088566 0.863444
O O4 0.065391 0.269242 0.999386
O O5 0.821311 0.885182 0.740335
O O6 0.791335 0.673290 0.831251
O O7 0.697103 0.847453 0.012285
O O8 0.344973 0.210861 0.421844
O O9 0.233657 0.103114 0.501721
O O10 0.360868 0.014409 0.297572
O O11 0.404668 0.592369 0.769131
O O12 0.347997 0.598227 0.023781
O O13 0.046595 0.942913 0.013304
O O14 0.075128 0.321954 0.290789
O O15 0.000000 0.942771 0.250000
O O16 0.961229 0.116309 0.201860
O O17 0.500000 0.792421 0.250000
#
# Coordination Sequence:
#
# PCOD8140387 Si02
#       8
#     8   8   8   8   8   8   8   8
#     4  11  23  43  68  95 128 171 218 262 329 387
#     4  11  24  39  66  95 129 165 221 268 311 386
#     4  11  25  40  61  95 132 174 205 262 327 385
#     4  10  21  40  64  89 131 164 210 260 325 380
#     4  10  21  40  67  97 120 164 217 269 317 372
#     4  11  26  41  62  96 131 172 215 263 318 390
#     4   8  18  35  65  91 120 159 208 269 310 364
#     4  10  20  41  66  94 128 171 215 263 326 376
#
# _framework density 20.976765
#
# number of rings (size 3 to 8) (size 9 to 14) (size 15 to 20)
#    0.000    1.750    2.500    1.500    7.000    1.500 
#    0.000    4.375    0.000    0.000    0.000    0.000 
#    0.000    0.000    0.000    0.000    0.000    0.000 
#
# Total GULP energy -396692.000303 kJ/mol
# GULP energy per Si atom -12396.625009 kJ/mol
# Density = 2.092902 g / cm^3
# Si number density = 20.976765 Si / 1000 Ang^3
#
#
#
# Elastic Constant Matrix: (Units=GPa)
#
#
# Indices 1 2 3 4 5 6 
#
# 1 59.9761 42.6686 17.5706 0.0000 -16.6671 0.0000
# 2 42.6686 122.6570 41.3094 0.0000 -11.3211 0.0001
# 3 17.5706 41.3094 98.3476 0.0000 -25.7708 0.0000
# 4 0.0000 0.0000 0.0000 21.3376 0.0000 -21.8210
# 5 -16.6671 -11.3211 -25.7708 0.0000 30.5419 0.0000
# 6 0.0000 0.0001 0.0000 -21.8210 0.0000 -1.4588
#
#
#
# Elastic Compliance Matrix: (Units=1/GPa)
#
#
# Indices 1 2 3 4 5 6 
#
# 1 0.025600 -0.008518 0.002359 0.000000 0.012804 0.000000
# 2 -0.008518 0.012332 -0.004722 0.000000 -0.004062 0.000000
# 3 0.002359 -0.004722 0.014904 0.000000 0.012113 0.000000
# 4 0.000000 0.000000 0.000000 0.002876 0.000000 -0.043015
# 5 0.012804 -0.004062 0.012113 0.000000 0.048444 0.000000
# 6 0.000000 0.000000 0.000000 -0.043015 0.000000 -0.042062
#
#
# Mechanical properties :
#
#
# Convention : Reuss Voigt Hill
#
# Bulk Modulus (GPa) = 32.18188 53.78644 42.98416
# Shear Modulus (GPa) = 53.07086 22.04629 37.55857
#
# Velocity S-wave (km/s) = 5.03535 3.24541 4.23600
# Velocity P-wave (km/s) = 7.01294 6.30398 6.66789
#
# Compressibility (1/GPa) = 0.03107338
#
# Stress axis : x y z
#
# Youngs Moduli (GPa) = 39.06181 81.09254 67.09593
#
# Poissons Ratio (x) = 0.69078 -0.15830
# Poissons Ratio (y) = 0.33275 0.31684
# Poissons Ratio (z) = -0.09216 0.38294
#
# Static dielectric constant tensor:
#      x y z
#    x 3.797240 0.000000 -0.246340 
#    y 0.000000 3.746410 0.000000 
#    z -0.246340 0.000000 4.088980 
# 
# 
# High freq. dielectric constant tensor:
#      x y z
#    x 1.816150 0.000000 -0.009410 
#    y 0.000000 1.811990 0.000000 
#    z -0.009410 0.000000 1.835980 
# 
# From -- ./inp_files/177794.got.cif
#   From: 2010.06.25/outbox.cif.g09.slc.cpg/sg15_89_cif.got.tgz:177794.got - 2010.06.28 07:06:18.
