data_PCOD8140374
_publ_section_title
;
Structure prediction by ZEFSAII (Michael W. Deem and Ramdas Pophale) SiO2 
 PCOD8140374
Probable space group: C 2/C
;
_chemical_formula_sum "Si O2"
_cell_formula_units_Z 56
_cell_length_a 20.380636
_cell_length_b 9.367796
_cell_length_c 14.266743
_cell_angle_alpha 90.000000
_cell_angle_beta 98.152679
_cell_angle_gamma 90.000000
_cell_volume 2696.302111
_symmetry_space_group_name_H-M "C 2/C"
_symmetry_group_IT_number 15
_symmetry_cell_setting 'monoclinic'
loop_
_space_group_symop_operation_xyz
x,y,z
-x,y,1/2-z
-x,-y,-z
x,-y,1/2+z
1/2+x,1/2+y,z
1/2-x,1/2+y,1/2-z
1/2-x,1/2-y,-z
1/2+x,1/2-y,1/2+z
loop_
_atom_site_type_symbol
_atom_site_label
_atom_site_fract_x
_atom_site_fract_y
_atom_site_fract_z
Si Si1 0.619571 0.275674 0.896002
Si Si2 0.922390 0.027344 0.495453
Si Si3 0.264488 0.687704 0.207855
Si Si4 0.701118 0.465968 0.137380
Si Si5 0.506875 0.054213 0.857685
Si Si6 0.295021 0.058690 0.481760
Si Si7 0.587298 0.141332 0.507512
O O1 0.661368 0.268004 0.808722
O O2 0.551298 0.194922 0.866327
O O3 0.602831 0.437625 0.920304
O O4 0.660759 0.198665 0.987537
O O5 0.878344 0.979044 0.395820
O O6 0.909357 0.192097 0.511693
O O7 0.000000 0.000000 0.500000
O O8 0.269807 0.608391 0.307923
O O9 0.217552 0.827640 0.205046
O O10 0.236042 0.576727 0.126390
O O11 0.736424 0.454230 0.044367
O O12 0.500000 0.000135 0.750000
O O13 0.437809 0.099808 0.892962
O O14 0.537931 0.923360 0.920623
O O15 0.338851 0.916664 0.491361
#
# Coordination Sequence:
#
# PCOD8140374 Si02
#       7
#     8   8   8   8   8   8   8
#     4  10  20  41  66  89 128 174 213 260 334 385
#     4  12  23  42  65  96 133 172 215 270 325 388
#     4  11  23  42  67  97 127 173 216 275 324 386
#     4  11  25  41  68  99 133 172 220 267 332 385
#     4  10  22  42  64  92 127 171 220 263 315 401
#     4  10  21  44  66  88 130 174 211 271 323 391
#     4  10  24  38  67  95 125 175 216 263 328 384
#
# _framework density 20.769186999999999
#
# number of rings (size 3 to 8) (size 9 to 14) (size 15 to 20)
#    0.000    1.429    4.286    0.857    4.000    4.000 
#    0.000    2.143    0.000    0.000    0.000    0.000 
#    0.000    0.000    0.000    0.000    0.000    0.000 
#
# Total GULP energy -347221.377051 kJ/mol
# GULP energy per Si atom -12400.763466 kJ/mol
# Density = 2.072192 g / cm^3
# Si number density = 20.769187 Si / 1000 Ang^3
#
#
#
# Elastic Constant Matrix: (Units=GPa)
#
#
# Indices 1 2 3 4 5 6 
#
# 1 113.4185 46.3488 23.9221 0.0000 12.3939 0.0000
# 2 46.3488 148.8801 27.7200 0.0000 2.3857 0.0000
# 3 23.9221 27.7200 77.3201 0.0000 10.5351 0.0000
# 4 0.0000 0.0000 0.0000 29.0528 0.0000 -4.7742
# 5 12.3939 2.3857 10.5351 0.0000 18.3969 0.0000
# 6 0.0000 0.0000 0.0000 -4.7742 0.0000 21.7696
#
#
#
# Elastic Compliance Matrix: (Units=1/GPa)
#
#
# Indices 1 2 3 4 5 6 
#
# 1 0.011061 -0.003069 -0.001476 0.000000 -0.006208 0.000000
# 2 -0.003069 0.008055 -0.002253 0.000000 0.002314 0.000000
# 3 -0.001476 -0.002253 0.015209 0.000000 -0.007423 0.000000
# 4 0.000000 0.000000 0.000000 0.035707 0.000000 0.007831
# 5 -0.006208 0.002314 -0.007423 0.000000 0.062490 0.000000
# 6 0.000000 0.000000 0.000000 0.007831 0.000000 0.047653
#
#
# Mechanical properties :
#
#
# Convention : Reuss Voigt Hill
#
# Bulk Modulus (GPa) = 48.24399 59.51116 53.87757
# Shear Modulus (GPa) = 24.91515 29.95238 27.43377
#
# Velocity S-wave (km/s) = 3.46731 3.80169 3.63834
# Velocity P-wave (km/s) = 6.26967 6.92721 6.60663
#
# Compressibility (1/GPa) = 0.02072797
#
# Stress axis : x y z
#
# Youngs Moduli (GPa) = 90.40904 124.14995 65.74988
#
# Poissons Ratio (x) = 0.38103 0.09704
# Poissons Ratio (y) = 0.27748 0.14816
# Poissons Ratio (z) = 0.13343 0.27976
#
# Static dielectric constant tensor:
#      x y z
#    x 4.000060 0.000000 0.108450 
#    y 0.000000 3.884510 0.000000 
#    z 0.108450 0.000000 3.588840 
# 
# 
# High freq. dielectric constant tensor:
#      x y z
#    x 1.821350 0.000000 0.009230 
#    y 0.000000 1.818760 0.000000 
#    z 0.009230 0.000000 1.791770 
# 
# From -- ./inp_files/166695.got.cif
#   From: 2010.06.25/outbox.cif.g09.slc.cpg/sg15_84_cif.got.tgz:166695.got - 2010.06.28 07:06:18.
