data_PCOD8140960
_publ_section_title
;
Structure prediction by ZEFSAII (Michael W. Deem and Ramdas Pophale) SiO2 
 PCOD8140960
Probable space group: C 2/C
;
_chemical_formula_sum "Si O2"
_cell_formula_units_Z 40
_cell_length_a 26.521447
_cell_length_b 9.435190
_cell_length_c 24.833503
_cell_angle_alpha 90.000000
_cell_angle_beta 158.746699
_cell_angle_gamma 90.000000
_cell_volume 2252.599369
_symmetry_space_group_name_H-M "C 2/C"
_symmetry_group_IT_number 15
_symmetry_cell_setting 'monoclinic'
loop_
_space_group_symop_operation_xyz
x,y,z
-x,y,1/2-z
-x,-y,-z
x,-y,1/2+z
1/2+x,1/2+y,z
1/2-x,1/2+y,1/2-z
1/2-x,1/2-y,-z
1/2+x,1/2-y,1/2+z
loop_
_atom_site_type_symbol
_atom_site_label
_atom_site_fract_x
_atom_site_fract_y
_atom_site_fract_z
Si Si1 0.342422 0.887856 0.184908
Si Si2 0.338312 0.891198 0.593196
Si Si3 0.338768 0.881494 0.004969
Si Si4 0.321009 0.908021 0.865156
Si Si5 0.865213 0.350258 0.329476
O O1 0.499523 0.842891 0.327110
O O2 0.245146 0.761845 0.067018
O O3 0.322326 0.913523 0.228593
O O4 0.305009 0.033802 0.117231
O O5 0.500000 0.850361 0.750000
O O6 0.250000 0.750000 0.500000
O O7 0.292570 0.998620 0.500721
O O8 0.307144 0.943726 0.914354
O O9 0.198534 0.804024 0.725120
O O10 0.302257 0.050796 0.812983
O O11 0.469152 0.835337 0.000016
#
# Coordination Sequence:
#
# PCOD8140960 Si02
#       5
#     8   8   8   8   8
#     4   9  18  33  51  70  93 123 158 193 230 275
#     4  10  21  34  48  70  98 124 153 192 236 278
#     4   9  18  33  51  70  93 123 158 193 230 275
#     4   9  18  32  49  70  96 124 155 192 232 274
#     4   9  18  32  49  70  96 124 155 192 232 274
#
# _framework density 17.757262999999998
#
# number of rings (size 3 to 8) (size 9 to 14) (size 15 to 20)
#    0.000    2.800    0.000    0.600    0.000    4.000 
#    0.000    0.000    0.000    0.000    0.000    0.000 
#    0.000    0.000    0.000    0.000    0.000    0.000 
#
# Total GULP energy -248030.148784 kJ/mol
# GULP energy per Si atom -12401.507439 kJ/mol
# Density = 1.771685 g / cm^3
# Si number density = 17.757263 Si / 1000 Ang^3
#
#
#
# Elastic Constant Matrix: (Units=GPa)
#
#
# Indices 1 2 3 4 5 6 
#
# 1 62.2392 24.0429 16.0128 -0.0005 -2.1168 -0.0002
# 2 24.0429 67.7973 37.5814 -0.0006 -3.0550 -0.0005
# 3 16.0128 37.5814 60.1243 -0.0014 -8.0689 -0.0011
# 4 -0.0005 -0.0006 -0.0014 38.0821 -0.0007 -1.3769
# 5 -2.1168 -3.0550 -8.0689 -0.0007 16.8093 -0.0004
# 6 -0.0002 -0.0005 -0.0011 -1.3769 -0.0004 32.2491
#
#
#
# Elastic Compliance Matrix: (Units=1/GPa)
#
#
# Indices 1 2 3 4 5 6 
#
# 1 0.018689 -0.005952 -0.001161 0.000000 0.000714 0.000000
# 2 -0.005952 0.024594 -0.014204 0.000000 -0.003098 0.000000
# 3 -0.001161 -0.014204 0.027206 0.000001 0.010332 0.000001
# 4 0.000000 0.000000 0.000001 0.026300 0.000002 0.001123
# 5 0.000714 -0.003098 0.010332 0.000002 0.063978 0.000001
# 6 0.000000 0.000000 0.000001 0.001123 0.000001 0.031057
#
#
# Mechanical properties :
#
#
# Convention : Reuss Voigt Hill
#
# Bulk Modulus (GPa) = 35.89842 38.38165 37.14004
# Shear Modulus (GPa) = 20.51344 24.92966 22.72155
#
# Velocity S-wave (km/s) = 3.40253 3.75095 3.58098
# Velocity P-wave (km/s) = 5.97464 6.35775 6.16917
#
# Compressibility (1/GPa) = 0.02785638
#
# Stress axis : x y z
#
# Youngs Moduli (GPa) = 53.50649 40.65989 36.75627
#
# Poissons Ratio (x) = 0.24200 0.04269
# Poissons Ratio (y) = 0.31846 0.52207
# Poissons Ratio (z) = 0.06214 0.57751
#
# Static dielectric constant tensor:
#      x y z
#    x 3.474480 0.000000 -0.070040 
#    y 0.000000 3.062950 0.000000 
#    z -0.070040 0.000000 3.315530 
# 
# 
# High freq. dielectric constant tensor:
#      x y z
#    x 1.697910 0.000000 -0.005330 
#    y 0.000000 1.669050 0.000000 
#    z -0.005330 0.000000 1.687740 
# 
# From -- ./inp_files/64519.got.cif
#   From: 2010.06.25/outbox.cif.g09.slc.cpg/sg15_33_cif.got.tgz:64519.got - 2010.06.28 07:06:18.
