data_PCOD8140381
_publ_section_title
;
Structure prediction by ZEFSAII (Michael W. Deem and Ramdas Pophale) SiO2 
 PCOD8140381
Probable space group: C 2/C
;
_chemical_formula_sum "Si O2"
_cell_formula_units_Z 48
_cell_length_a 6.967050
_cell_length_b 28.139413
_cell_length_c 15.324124
_cell_angle_alpha 90.000000
_cell_angle_beta 52.916926
_cell_angle_gamma 90.000000
_cell_volume 2396.696344
_symmetry_space_group_name_H-M "C 2/C"
_symmetry_group_IT_number 15
_symmetry_cell_setting 'monoclinic'
loop_
_space_group_symop_operation_xyz
x,y,z
-x,y,1/2-z
-x,-y,-z
x,-y,1/2+z
1/2+x,1/2+y,z
1/2-x,1/2+y,1/2-z
1/2-x,1/2-y,-z
1/2+x,1/2-y,1/2+z
loop_
_atom_site_type_symbol
_atom_site_label
_atom_site_fract_x
_atom_site_fract_y
_atom_site_fract_z
Si Si1 0.500000 0.467179 0.250000
Si Si2 0.882644 0.233709 0.052487
Si Si3 0.270372 0.032143 0.059846
Si Si4 0.767147 0.628517 0.151598
Si Si5 0.503085 0.080665 0.847100
Si Si6 0.000000 0.671740 0.250000
Si Si7 0.641872 0.180050 0.551808
O O1 0.536013 0.501175 0.153506
O O2 0.734100 0.433831 0.189384
O O3 0.718884 0.204171 0.162013
O O4 0.947858 0.278415 0.095226
O O5 0.750000 0.250000 0.000000
O O6 0.118194 0.201213 0.967701
O O7 0.305136 0.073509 0.120569
O O8 0.277419 0.055859 0.960967
O O9 0.500000 0.000000 0.000000
O O10 0.500000 0.640776 0.250000
O O11 0.940419 0.638397 0.184866
O O12 0.821157 0.662246 0.056224
O O13 0.500000 0.062236 0.750000
O O14 0.467367 0.137491 0.860205
#
# Coordination Sequence:
#
# PCOD8140381 Si02
#       7
#     4   8   8   8   8   4   8
#     4  10  20  41  66  92 126 168 210 259 318 378
#     4  11  23  40  62  92 124 162 215 254 308 379
#     4   9  20  41  64  91 127 163 205 267 313 372
#     4  11  20  40  63  88 127 159 210 262 317 370
#     4  10  23  41  62  94 128 168 209 254 322 381
#     4  12  24  37  64  96 116 170 216 257 316 382
#     4  10  23  41  61  88 130 165 200 267 313 367
#
# _framework density 20.027569
#
# number of rings (size 3 to 8) (size 9 to 14) (size 15 to 20)
#    0.000    1.667    4.167    0.000    0.000    4.000 
#    9.000    0.000    0.000    0.000    0.000    0.000 
#    0.000    0.000    0.000    0.000    0.000    0.000 
#
# Total GULP energy -297395.085323 kJ/mol
# GULP energy per Si atom -12391.461888 kJ/mol
# Density = 1.998198 g / cm^3
# Si number density = 20.027569 Si / 1000 Ang^3
#
#
#
# Elastic Constant Matrix: (Units=GPa)
#
#
# Indices 1 2 3 4 5 6 
#
# 1 100.0602 37.6043 31.2649 0.0000 4.8472 0.0000
# 2 37.6043 106.5166 28.1843 0.0000 -7.1343 0.0000
# 3 31.2649 28.1843 91.1637 0.0000 2.2494 0.0000
# 4 0.0000 0.0000 0.0000 39.6405 0.0000 -10.3548
# 5 4.8472 -7.1343 2.2494 0.0000 34.0495 0.0000
# 6 0.0000 0.0000 0.0000 -10.3548 0.0000 24.3267
#
#
#
# Elastic Compliance Matrix: (Units=1/GPa)
#
#
# Indices 1 2 3 4 5 6 
#
# 1 0.012475 -0.003752 -0.003060 0.000000 -0.002360 0.000000
# 2 -0.003752 0.011545 -0.002359 0.000000 0.003109 0.000000
# 3 -0.003060 -0.002359 0.012770 0.000000 -0.000902 0.000000
# 4 0.000000 0.000000 0.000000 0.028383 0.000000 0.012081
# 5 -0.002360 0.003109 -0.000902 0.000000 0.030416 0.000000
# 6 0.000000 0.000000 0.000000 0.012081 0.000000 0.046249
#
#
# Mechanical properties :
#
#
# Convention : Reuss Voigt Hill
#
# Bulk Modulus (GPa) = 54.20835 54.64974 54.42904
# Shear Modulus (GPa) = 30.06062 32.98248 31.52155
#
# Velocity S-wave (km/s) = 3.87843 4.06255 3.97155
# Velocity P-wave (km/s) = 6.86891 7.02511 6.94745
#
# Compressibility (1/GPa) = 0.01844734
#
# Stress axis : x y z
#
# Youngs Moduli (GPa) = 80.16278 86.61434 78.30662
#
# Poissons Ratio (x) = 0.32501 0.23961
# Poissons Ratio (y) = 0.30080 0.18474
# Poissons Ratio (z) = 0.24529 0.20434
#
# Static dielectric constant tensor:
#      x y z
#    x 3.282460 0.000000 -0.191500 
#    y 0.000000 3.929690 0.000000 
#    z -0.191500 0.000000 3.973000 
# 
# 
# High freq. dielectric constant tensor:
#      x y z
#    x 1.756350 0.000000 -0.004950 
#    y 0.000000 1.799880 0.000000 
#    z -0.004950 0.000000 1.795220 
# 
# From -- ./inp_files/130648.got.cif
#   From: 2010.06.25/outbox.cif.g09.slc.cpg/sg15_66_cif.got.tgz:130648.got - 2010.06.28 07:06:18.
