data_PCOD8140338
_publ_section_title
;
Structure prediction by ZEFSAII (Michael W. Deem and Ramdas Pophale) SiO2 
 PCOD8140338
Probable space group: C 2/C
;
_chemical_formula_sum "Si O2"
_cell_formula_units_Z 44
_cell_length_a 10.022575
_cell_length_b 16.626557
_cell_length_c 13.042618
_cell_angle_alpha 90.000000
_cell_angle_beta 94.269174
_cell_angle_gamma 90.000000
_cell_volume 2167.403227
_symmetry_space_group_name_H-M "C 2/C"
_symmetry_group_IT_number 15
_symmetry_cell_setting 'monoclinic'
loop_
_space_group_symop_operation_xyz
x,y,z
-x,y,1/2-z
-x,-y,-z
x,-y,1/2+z
1/2+x,1/2+y,z
1/2-x,1/2+y,1/2-z
1/2-x,1/2-y,-z
1/2+x,1/2-y,1/2+z
loop_
_atom_site_type_symbol
_atom_site_label
_atom_site_fract_x
_atom_site_fract_y
_atom_site_fract_z
Si Si1 0.400755 0.772924 0.539738
Si Si2 0.654433 0.517908 0.123247
Si Si3 0.000000 0.658165 0.250000
Si Si4 0.427890 0.377811 0.508907
Si Si5 0.741624 0.063987 0.163524
Si Si6 0.875020 0.444821 0.488347
O O1 0.250000 0.750000 0.500000
O O2 0.418422 0.787271 0.663268
O O3 0.514571 0.709718 0.513355
O O4 0.425776 0.853908 0.475593
O O5 0.546317 0.570045 0.059921
O O6 0.653192 0.538378 0.243054
O O7 0.629521 0.423192 0.096201
O O8 0.798836 0.548000 0.092177
O O9 0.103836 0.602987 0.193355
O O10 0.310961 0.373333 0.588287
O O11 0.718684 0.977393 0.108135
O O12 0.000000 0.500000 0.500000
#
# Coordination Sequence:
#
# PCOD8140338 Si02
#       6
#     8   8   4   8   8   8
#     4  12  24  44  66  97 138 171 221 277 334 385
#     4  10  20  41  64  93 128 174 220 264 327 397
#     4  12  24  42  72  92 134 180 218 276 338 388
#     4  10  23  39  65  97 132 171 216 278 326 387
#     4  11  21  40  70  92 128 178 223 262 329 398
#     4  11  21  39  68  90 126 175 210 272 322 390
#
# _framework density 20.300791
#
# number of rings (size 3 to 8) (size 9 to 14) (size 15 to 20)
#    0.000    1.091    5.455    0.545    0.000    2.182 
#    0.000    0.000   16.000    0.000    0.000    0.000 
#    0.000    0.000    0.000    0.000    0.000    0.000 
#
# Total GULP energy -272682.236966 kJ/mol
# GULP energy per Si atom -12394.647135 kJ/mol
# Density = 2.025459 g / cm^3
# Si number density = 20.300791 Si / 1000 Ang^3
#
#
#
# Elastic Constant Matrix: (Units=GPa)
#
#
# Indices 1 2 3 4 5 6 
#
# 1 97.7095 51.3390 23.9869 0.0000 -10.8404 0.0000
# 2 51.3390 156.7692 49.9710 0.0000 -7.3041 0.0000
# 3 23.9869 49.9710 117.3965 0.0000 9.3924 0.0000
# 4 0.0000 0.0000 0.0000 26.2822 0.0000 1.1935
# 5 -10.8404 -7.3041 9.3924 0.0000 33.9258 0.0000
# 6 0.0000 0.0000 0.0000 1.1935 0.0000 43.3838
#
#
#
# Elastic Compliance Matrix: (Units=1/GPa)
#
#
# Indices 1 2 3 4 5 6 
#
# 1 0.012883 -0.003599 -0.001398 0.000000 0.003729 0.000000
# 2 -0.003599 0.008602 -0.003050 0.000000 0.001546 0.000000
# 3 -0.001398 -0.003050 0.010421 0.000000 -0.003989 0.000000
# 4 0.000000 0.000000 0.000000 0.038096 0.000000 -0.001048
# 5 0.003729 0.001546 -0.003989 0.000000 0.032105 0.000000
# 6 0.000000 0.000000 0.000000 -0.001048 0.000000 0.023079
#
#
# Mechanical properties :
#
#
# Convention : Reuss Voigt Hill
#
# Bulk Modulus (GPa) = 63.24913 69.16321 66.20617
# Shear Modulus (GPa) = 34.11806 37.15691 35.63749
#
# Velocity S-wave (km/s) = 4.10399 4.28286 4.19438
# Velocity P-wave (km/s) = 7.32671 7.65509 7.49270
#
# Compressibility (1/GPa) = 0.01581049
#
# Stress axis : x y z
#
# Youngs Moduli (GPa) = 77.62424 116.25696 95.95925
#
# Poissons Ratio (x) = 0.41845 0.13419
# Poissons Ratio (y) = 0.27939 0.29264
# Poissons Ratio (z) = 0.10855 0.35454
#
# Static dielectric constant tensor:
#      x y z
#    x 3.883870 0.000000 -0.059310 
#    y 0.000000 4.680700 0.000000 
#    z -0.059310 0.000000 5.545510 
# 
# 
# High freq. dielectric constant tensor:
#      x y z
#    x 1.810790 0.000000 0.011800 
#    y 0.000000 1.781730 0.000000 
#    z 0.011800 0.000000 1.792990 
# 
# From -- ./inp_files/86151.got.cif
#   From: 2010.06.25/outbox.cif.g09.slc.cpg/sg15_44_cif.got.tgz:86151.got - 2010.06.28 07:06:18.
