data_PCOD8140177
_publ_section_title
;
Structure prediction by ZEFSAII (Michael W. Deem and Ramdas Pophale) SiO2 
 PCOD8140177
Probable space group: C 2/C
;
_chemical_formula_sum "Si O2"
_cell_formula_units_Z 56
_cell_length_a 18.015736
_cell_length_b 8.413704
_cell_length_c 25.026720
_cell_angle_alpha 90.000000
_cell_angle_beta 133.843676
_cell_angle_gamma 90.000000
_cell_volume 2736.014560
_symmetry_space_group_name_H-M "C 2/C"
_symmetry_group_IT_number 15
_symmetry_cell_setting 'monoclinic'
loop_
_space_group_symop_operation_xyz
x,y,z
-x,y,1/2-z
-x,-y,-z
x,-y,1/2+z
1/2+x,1/2+y,z
1/2-x,1/2+y,1/2-z
1/2-x,1/2-y,-z
1/2+x,1/2-y,1/2+z
loop_
_atom_site_type_symbol
_atom_site_label
_atom_site_fract_x
_atom_site_fract_y
_atom_site_fract_z
Si Si1 0.634306 0.303000 0.935314
Si Si2 0.720374 0.184141 0.366994
Si Si3 0.248895 0.757179 0.819114
Si Si4 0.834660 0.449877 0.767873
Si Si5 0.389984 0.545828 0.966634
Si Si6 0.959119 0.519914 0.673827
Si Si7 0.117756 0.987226 0.823971
O O1 0.570869 0.154881 0.882277
O O2 0.622127 0.446786 0.888237
O O3 0.750000 0.250000 0.000000
O O4 0.588417 0.360909 0.968115
O O5 0.699675 0.370617 0.359046
O O6 0.729478 0.142289 0.309067
O O7 0.827171 0.119081 0.445554
O O8 0.632462 0.096563 0.356822
O O9 0.192081 0.636995 0.750128
O O10 0.327682 0.663784 0.896426
O O11 0.159923 0.840706 0.809688
O O12 0.309786 0.886989 0.814489
O O13 0.954098 0.418115 0.813467
O O14 0.500000 0.500000 0.000000
O O15 0.000000 0.596508 0.750000
O O16 0.000000 0.033273 0.750000
#
# Coordination Sequence:
#
# PCOD8140177 Si02
#       7
#     8   8   8   8   8   8   8
#     4  12  22  43  66  91 130 177 215 264 335 392
#     4  10  22  41  63  96 130 163 220 280 320 389
#     4  11  23  41  62  95 130 168 215 270 324 396
#     4  10  21  38  65  90 129 163 211 273 334 373
#     4  11  26  45  63  91 138 179 217 268 332 402
#     4  10  20  40  68  95 125 170 222 274 325 390
#     4  12  24  40  71  99 125 167 227 275 329 398
#
# _framework density 20.467727
#
# number of rings (size 3 to 8) (size 9 to 14) (size 15 to 20)
#    0.000    1.143    2.857    5.143    0.000    8.571 
#    2.571    1.429    0.000    0.000    0.000    0.000 
#    0.000    0.000    0.000    0.000    0.000    0.000 
#
# Total GULP energy -347153.096712 kJ/mol
# GULP energy per Si atom -12398.324883 kJ/mol
# Density = 2.042114 g / cm^3
# Si number density = 20.467727 Si / 1000 Ang^3
#
#
#
# Elastic Constant Matrix: (Units=GPa)
#
#
# Indices 1 2 3 4 5 6 
#
# 1 136.5573 35.7713 46.6024 0.0000 -1.7279 0.0000
# 2 35.7713 106.5322 34.7303 0.0000 -4.4451 0.0000
# 3 46.6024 34.7303 87.3524 0.0000 -3.0258 0.0000
# 4 0.0000 0.0000 0.0000 26.4512 0.0000 -3.2833
# 5 -1.7279 -4.4451 -3.0258 0.0000 38.0548 0.0000
# 6 0.0000 0.0000 0.0000 -3.2833 0.0000 30.2238
#
#
#
# Elastic Compliance Matrix: (Units=1/GPa)
#
#
# Indices 1 2 3 4 5 6 
#
# 1 0.009218 -0.001718 -0.004239 0.000000 -0.000119 0.000000
# 2 -0.001718 0.011137 -0.003479 0.000000 0.000946 0.000000
# 3 -0.004239 -0.003479 0.015113 0.000000 0.000603 0.000000
# 4 0.000000 0.000000 0.000000 0.038322 0.000000 0.004163
# 5 -0.000119 0.000946 0.000603 0.000000 0.026431 0.000000
# 6 0.000000 0.000000 0.000000 0.004163 0.000000 0.033539
#
#
# Mechanical properties :
#
#
# Convention : Reuss Voigt Hill
#
# Bulk Modulus (GPa) = 60.25097 62.73890 61.49493
# Shear Modulus (GPa) = 31.61269 33.16849 32.39059
#
# Velocity S-wave (km/s) = 3.93429 4.02994 3.98241
# Velocity P-wave (km/s) = 7.08090 7.23692 7.15934
#
# Compressibility (1/GPa) = 0.01659724
#
# Stress axis : x y z
#
# Youngs Moduli (GPa) = 108.48217 89.78807 66.16737
#
# Poissons Ratio (x) = 0.15429 0.28047
# Poissons Ratio (y) = 0.18641 0.23017
# Poissons Ratio (z) = 0.45983 0.31233
#
# Static dielectric constant tensor:
#      x y z
#    x 3.715610 0.000000 0.205980 
#    y 0.000000 4.184160 0.000000 
#    z 0.205980 0.000000 3.137790 
# 
# 
# High freq. dielectric constant tensor:
#      x y z
#    x 1.810000 0.000000 -0.000470 
#    y 0.000000 1.799980 0.000000 
#    z -0.000470 0.000000 1.793140 
# 
# From -- ./inp_files/276643.got.cif
#   From: 2010.06.25/outbox.cif.g09.slc.cpg/sg15_139_cif.got.tgz:276643.got - 2010.06.28 07:06:18.
