data_PCOD8140031
_publ_section_title
;
Structure prediction by ZEFSAII (Michael W. Deem and Ramdas Pophale) SiO2 
 PCOD8140031
Probable space group: C 2/C
;
_chemical_formula_sum "Si O2"
_cell_formula_units_Z 44
_cell_length_a 26.929643
_cell_length_b 12.335171
_cell_length_c 19.098908
_cell_angle_alpha 90.000000
_cell_angle_beta 19.176273
_cell_angle_gamma 90.000000
_cell_volume 2083.950222
_symmetry_space_group_name_H-M "C 2/C"
_symmetry_group_IT_number 15
_symmetry_cell_setting 'monoclinic'
loop_
_space_group_symop_operation_xyz
x,y,z
-x,y,1/2-z
-x,-y,-z
x,-y,1/2+z
1/2+x,1/2+y,z
1/2-x,1/2+y,1/2-z
1/2-x,1/2-y,-z
1/2+x,1/2-y,1/2+z
loop_
_atom_site_type_symbol
_atom_site_label
_atom_site_fract_x
_atom_site_fract_y
_atom_site_fract_z
Si Si1 0.529740 0.697563 0.099868
Si Si2 0.248100 0.946863 0.487817
Si Si3 0.903971 0.331101 0.621533
Si Si4 0.500000 0.126161 0.750000
Si Si5 0.167555 0.182347 0.551441
Si Si6 0.811514 0.564952 0.746106
O O1 0.366135 0.649753 0.338034
O O2 0.573493 0.795133 0.093647
O O3 0.549942 0.740125 0.994889
O O4 0.642382 0.596665 0.953822
O O5 0.373020 0.950904 0.383529
O O6 0.333697 0.921436 0.301182
O O7 0.161519 0.059670 0.589271
O O8 0.842816 0.446132 0.672761
O O9 0.059330 0.356135 0.458002
O O10 0.771398 0.290355 0.847050
O O11 0.250000 0.250000 0.500000
O O12 0.000000 0.217751 0.750000
#
# Coordination Sequence:
#
# PCOD8140031 Si02
#       6
#     8   8   8   4   8   8
#     4  12  21  39  68 100 135 171 228 281 345 401
#     4  11  22  42  66 100 135 180 220 283 342 407
#     4  10  23  40  64  97 129 173 218 280 338 404
#     4  12  22  34  68 102 138 168 230 284 338 400
#     4  11  27  50  72  92 134 187 231 273 346 416
#     4  10  20  40  65  91 132 174 213 267 347 411
#
# _framework density 21.113748000000001
#
# number of rings (size 3 to 8) (size 9 to 14) (size 15 to 20)
#    0.000    1.091    3.636    3.818    3.818    0.000 
#    3.273    0.909    0.000    0.000    0.000    0.000 
#    0.000    0.000    0.000    0.000    0.000    0.000 
#
# Total GULP energy -272537.751515 kJ/mol
# GULP energy per Si atom -12388.079614 kJ/mol
# Density = 2.106569 g / cm^3
# Si number density = 21.113748 Si / 1000 Ang^3
#
#
#
# Elastic Constant Matrix: (Units=GPa)
#
#
# Indices 1 2 3 4 5 6 
#
# 1 70.8972 45.2180 31.3600 0.0000 -11.6731 0.0000
# 2 45.2180 62.0167 32.6347 0.0000 5.1397 0.0000
# 3 31.3600 32.6347 120.1062 0.0001 -5.9138 0.0000
# 4 0.0000 0.0000 0.0001 37.7053 -0.0001 2.3276
# 5 -11.6731 5.1397 -5.9138 -0.0001 43.3269 0.0001
# 6 0.0000 0.0000 0.0000 2.3276 0.0001 32.8987
#
#
#
# Elastic Compliance Matrix: (Units=1/GPa)
#
#
# Indices 1 2 3 4 5 6 
#
# 1 0.031068 -0.022833 -0.001371 0.000000 0.010892 0.000000
# 2 -0.022833 0.035978 -0.004356 0.000000 -0.011014 0.000000
# 3 -0.001371 -0.004356 0.009942 0.000000 0.001504 0.000000
# 4 0.000000 0.000000 0.000000 0.026638 0.000000 -0.001885
# 5 0.010892 -0.011014 0.001504 0.000000 0.027527 0.000000
# 6 0.000000 0.000000 0.000000 -0.001885 0.000000 0.030530
#
#
# Mechanical properties :
#
#
# Convention : Reuss Voigt Hill
#
# Bulk Modulus (GPa) = 50.33798 52.38284 51.36041
# Shear Modulus (GPa) = 22.18019 32.37333 27.27676
#
# Velocity S-wave (km/s) = 3.24467 3.91996 3.59819
# Velocity P-wave (km/s) = 6.15876 6.73438 6.45299
#
# Compressibility (1/GPa) = 0.01986571
#
# Stress axis : x y z
#
# Youngs Moduli (GPa) = 32.18759 27.79451 100.58544
#
# Poissons Ratio (x) = 0.63464 0.13795
# Poissons Ratio (y) = 0.73495 0.43818
# Poissons Ratio (z) = 0.04414 0.12108
#
# Static dielectric constant tensor:
#      x y z
#    x 3.616190 0.000000 0.036410 
#    y 0.000000 3.824670 0.000000 
#    z 0.036410 0.000000 4.014800 
# 
# 
# High freq. dielectric constant tensor:
#      x y z
#    x 1.803170 0.000000 0.001620 
#    y 0.000000 1.819530 0.000000 
#    z 0.001620 0.000000 1.849350 
# 
# From -- ./inp_files/95732.got.cif
#   From: 2010.06.25/outbox.cif.g09.slc.cpg/sg15_48_cif.got.tgz:95732.got - 2010.06.28 07:06:18.
