data_PCOD8140545
_publ_section_title
;
Structure prediction by ZEFSAII (Michael W. Deem and Ramdas Pophale) SiO2 
 PCOD8140545
Probable space group: C 2/C
;
_chemical_formula_sum "Si O2"
_cell_formula_units_Z 56
_cell_length_a 8.614300
_cell_length_b 26.350857
_cell_length_c 14.042755
_cell_angle_alpha 90.000000
_cell_angle_beta 122.177809
_cell_angle_gamma 90.000000
_cell_volume 2698.003122
_symmetry_space_group_name_H-M "C 2/C"
_symmetry_group_IT_number 15
_symmetry_cell_setting 'monoclinic'
loop_
_space_group_symop_operation_xyz
x,y,z
-x,y,1/2-z
-x,-y,-z
x,-y,1/2+z
1/2+x,1/2+y,z
1/2-x,1/2+y,1/2-z
1/2-x,1/2-y,-z
1/2+x,1/2-y,1/2+z
loop_
_atom_site_type_symbol
_atom_site_label
_atom_site_fract_x
_atom_site_fract_y
_atom_site_fract_z
Si Si1 0.724862 0.835290 0.678000
Si Si2 0.807015 0.436363 0.735246
Si Si3 0.971269 0.907051 0.014232
Si Si4 0.474042 0.689026 0.081975
Si Si5 0.806571 0.550941 0.734038
Si Si6 0.195295 0.871427 0.353648
Si Si7 0.595034 0.779939 0.006048
O O1 0.718881 0.896769 0.685829
O O2 0.826347 0.814271 0.804231
O O3 0.525194 0.809923 0.611527
O O4 0.820546 0.819002 0.611312
O O5 0.637540 0.433686 0.606522
O O6 0.805324 0.493555 0.774221
O O7 0.000000 0.422815 0.750000
O O8 0.053654 0.853327 0.007638
O O9 0.825403 0.897026 0.050143
O O10 0.140941 0.941533 0.104708
O O11 0.465420 0.743354 0.027040
O O12 0.789967 0.587421 0.818071
O O13 0.000000 0.563454 0.750000
O O14 0.318170 0.821224 0.395017
O O15 0.000000 0.854271 0.250000
O O16 0.750000 0.750000 0.000000
#
# Coordination Sequence:
#
# PCOD8140545 Si02
#       7
#     8   8   8   8   8   8   8
#     4  10  24  42  62  96 127 162 212 269 305 384
#     4  10  21  42  68  94 126 167 214 261 323 375
#     4  10  20  42  64  91 130 166 210 261 307 389
#     4  10  23  42  63  92 130 164 213 255 320 367
#     4  10  23  42  64  96 130 166 208 264 324 377
#     4  10  23  42  61  94 128 164 214 257 311 383
#     4  12  24  39  68  90 124 172 210 260 321 371
#
# _framework density 20.756091000000001
#
# number of rings (size 3 to 8) (size 9 to 14) (size 15 to 20)
#    0.000    1.714    1.429    1.714    6.000    0.000 
#   20.571    2.143    0.000    0.000    0.000    0.000 
#    0.000    0.000    0.000    0.000    0.000    0.000 
#
# Total GULP energy -347247.255364 kJ/mol
# GULP energy per Si atom -12401.687692 kJ/mol
# Density = 2.070885 g / cm^3
# Si number density = 20.756091 Si / 1000 Ang^3
#
#
#
# Elastic Constant Matrix: (Units=GPa)
#
#
# Indices 1 2 3 4 5 6 
#
# 1 92.8439 55.3696 37.1894 0.0000 -1.2282 0.0000
# 2 55.3696 147.5053 54.0303 0.0000 -1.8118 0.0000
# 3 37.1894 54.0303 73.4262 0.0000 0.5960 0.0000
# 4 0.0000 0.0000 0.0000 34.2192 0.0000 -0.5278
# 5 -1.2282 -1.8118 0.5960 0.0000 33.3324 0.0000
# 6 0.0000 0.0000 0.0000 -0.5278 0.0000 35.4791
#
#
#
# Elastic Compliance Matrix: (Units=1/GPa)
#
#
# Indices 1 2 3 4 5 6 
#
# 1 0.014992 -0.003888 -0.004736 0.000000 0.000426 0.000000
# 2 -0.003888 0.010302 -0.005616 0.000000 0.000517 0.000000
# 3 -0.004736 -0.005616 0.020157 0.000000 -0.000840 0.000000
# 4 0.000000 0.000000 0.000000 0.029230 0.000000 0.000435
# 5 0.000426 0.000517 -0.000840 0.000000 0.030060 0.000000
# 6 0.000000 0.000000 0.000000 0.000435 0.000000 0.028192
#
#
# Mechanical properties :
#
#
# Convention : Reuss Voigt Hill
#
# Bulk Modulus (GPa) = 58.92026 67.43934 63.17980
# Shear Modulus (GPa) = 29.92768 31.75190 30.83979
#
# Velocity S-wave (km/s) = 3.80132 3.91546 3.85881
# Velocity P-wave (km/s) = 6.90763 7.28032 7.09642
#
# Compressibility (1/GPa) = 0.01697209
#
# Stress axis : x y z
#
# Youngs Moduli (GPa) = 66.70281 97.06697 49.61019
#
# Poissons Ratio (x) = 0.37735 0.23495
# Poissons Ratio (y) = 0.25931 0.27861
# Poissons Ratio (z) = 0.31590 0.54513
#
# Static dielectric constant tensor:
#      x y z
#    x 3.697390 0.000000 0.094960 
#    y 0.000000 3.871590 0.000000 
#    z 0.094960 0.000000 3.779410 
# 
# 
# High freq. dielectric constant tensor:
#      x y z
#    x 1.812920 0.000000 0.009090 
#    y 0.000000 1.820950 0.000000 
#    z 0.009090 0.000000 1.811810 
# 
# From -- ./inp_files/138687.got.cif
#   From: 2010.06.25/outbox.cif.g09.slc.cpg/sg15_70_cif.got.tgz:138687.got - 2010.06.28 07:06:18.
