data_PCOD8140075
_publ_section_title
;
Structure prediction by ZEFSAII (Michael W. Deem and Ramdas Pophale) SiO2 
 PCOD8140075
Probable space group: C 2/C
;
_chemical_formula_sum "Si O2"
_cell_formula_units_Z 48
_cell_length_a 8.304254
_cell_length_b 18.143995
_cell_length_c 27.543968
_cell_angle_alpha 90.000000
_cell_angle_beta 32.094794
_cell_angle_gamma 90.000000
_cell_volume 2205.045341
_symmetry_space_group_name_H-M "C 2/C"
_symmetry_group_IT_number 15
_symmetry_cell_setting 'monoclinic'
loop_
_space_group_symop_operation_xyz
x,y,z
-x,y,1/2-z
-x,-y,-z
x,-y,1/2+z
1/2+x,1/2+y,z
1/2-x,1/2+y,1/2-z
1/2-x,1/2-y,-z
1/2+x,1/2-y,1/2+z
loop_
_atom_site_type_symbol
_atom_site_label
_atom_site_fract_x
_atom_site_fract_y
_atom_site_fract_z
Si Si1 0.288996 0.538856 0.092739
Si Si2 0.818863 0.708491 0.749984
Si Si3 0.167004 0.570388 0.823774
Si Si4 0.709387 0.292928 0.909998
Si Si5 0.335293 0.938859 0.511211
Si Si6 0.170780 0.211763 0.087656
O O1 0.198701 0.622706 0.102052
O O2 0.984938 0.490211 0.173078
O O3 0.500000 0.500000 0.000000
O O4 0.483074 0.538087 0.093115
O O5 0.808387 0.647611 0.710421
O O6 0.485410 0.736876 0.849442
O O7 0.000000 0.676847 0.750000
O O8 0.009260 0.777898 0.680672
O O9 0.500000 0.540256 0.750000
O O10 0.987947 0.579506 0.920320
O O11 0.595121 0.282710 0.884289
O O12 0.426766 0.274556 0.016999
O O13 0.343427 0.865950 0.541760
O O14 0.500000 0.000000 0.500000
#
# Coordination Sequence:
#
# PCOD8140075 Si02
#       6
#     8   8   8   8   8   8
#     4   9  20  38  63  93 127 166 209 259 319 385
#     4  12  26  40  62  96 127 165 219 270 325 392
#     4  11  23  42  65  89 128 170 212 269 326 391
#     4  10  21  41  67  94 126 167 215 265 322 389
#     4  10  22  40  67  96 125 168 216 263 326 395
#     4  10  20  40  66  89 126 170 205 260 327 382
#
# _framework density 21.768260999999999
#
# number of rings (size 3 to 8) (size 9 to 14) (size 15 to 20)
#    0.000    1.667    0.000    6.500    0.000    8.000 
#    0.000    3.333    0.000    0.000    0.000    0.000 
#    0.000    0.000    0.000    0.000    0.000    0.000 
#
# Total GULP energy -297553.739302 kJ/mol
# GULP energy per Si atom -12398.072471 kJ/mol
# Density = 2.171872 g / cm^3
# Si number density = 21.768261 Si / 1000 Ang^3
#
#
#
# Elastic Constant Matrix: (Units=GPa)
#
#
# Indices 1 2 3 4 5 6 
#
# 1 92.4440 45.1034 36.7909 -0.1251 -20.0809 -0.0934
# 2 45.1034 126.9132 28.6721 0.0421 -22.1432 -0.1331
# 3 36.7909 28.6721 81.9257 -0.2840 -17.9033 -0.1776
# 4 -0.1251 0.0421 -0.2840 33.2171 0.1291 -7.7985
# 5 -20.0809 -22.1432 -17.9033 0.1291 36.3020 0.1001
# 6 -0.0934 -0.1331 -0.1776 -7.7985 0.1001 34.7639
#
#
#
# Elastic Compliance Matrix: (Units=1/GPa)
#
#
# Indices 1 2 3 4 5 6 
#
# 1 0.015362 -0.003707 -0.004751 0.000005 0.003894 -0.000007
# 2 -0.003707 0.010061 -0.001080 -0.000049 0.003554 0.000002
# 3 -0.004751 -0.001080 0.015691 0.000118 0.004451 0.000077
# 4 0.000005 -0.000049 0.000118 0.031780 -0.000102 0.007130
# 5 0.003894 0.003554 0.004451 -0.000102 0.034064 -0.000074
# 6 -0.000007 0.000002 0.000077 0.007130 -0.000074 0.030366
#
#
# Mechanical properties :
#
#
# Convention : Reuss Voigt Hill
#
# Bulk Modulus (GPa) = 45.37379 58.04616 51.70998
# Shear Modulus (GPa) = 30.53515 33.57103 32.05309
#
# Velocity S-wave (km/s) = 3.74938 3.93135 3.84144
# Velocity P-wave (km/s) = 6.29548 6.87973 6.59408
#
# Compressibility (1/GPa) = 0.02203915
#
# Stress axis : x y z
#
# Youngs Moduli (GPa) = 65.09360 99.39493 63.73159
#
# Poissons Ratio (x) = 0.36846 0.30277
# Poissons Ratio (y) = 0.24130 0.06882
# Poissons Ratio (z) = 0.30924 0.10733
#
# Static dielectric constant tensor:
#      x y z
#    x 4.212310 -0.000580 -0.366990 
#    y -0.000580 4.074660 0.000630 
#    z -0.366990 0.000630 4.003520 
# 
# 
# High freq. dielectric constant tensor:
#      x y z
#    x 1.843000 0.000010 -0.019900 
#    y 0.000010 1.861830 0.000000 
#    z -0.019900 0.000000 1.851880 
# 
# From -- ./inp_files/308703.got.cif
#   From: 2010.06.25/outbox.cif.g09.slc.cpg/sg15_155_cif.got.tgz:308703.got - 2010.06.28 07:06:18.
