data_PCOD8140635
_publ_section_title
;
Structure prediction by ZEFSAII (Michael W. Deem and Ramdas Pophale) SiO2 
 PCOD8140635
Probable space group: C 2/C
;
_chemical_formula_sum "Si O2"
_cell_formula_units_Z 32
_cell_length_a 9.296841
_cell_length_b 25.392347
_cell_length_c 8.933697
_cell_angle_alpha 90.000000
_cell_angle_beta 134.118990
_cell_angle_gamma 90.000000
_cell_volume 1514.017035
_symmetry_space_group_name_H-M "C 2/C"
_symmetry_group_IT_number 15
_symmetry_cell_setting 'monoclinic'
loop_
_space_group_symop_operation_xyz
x,y,z
-x,y,1/2-z
-x,-y,-z
x,-y,1/2+z
1/2+x,1/2+y,z
1/2-x,1/2+y,1/2-z
1/2-x,1/2-y,-z
1/2+x,1/2-y,1/2+z
loop_
_atom_site_type_symbol
_atom_site_label
_atom_site_fract_x
_atom_site_fract_y
_atom_site_fract_z
Si Si1 0.465403 0.592750 0.058280
Si Si2 0.705881 0.811014 0.475562
Si Si3 0.091563 0.549394 0.653614
Si Si4 0.378351 0.868268 0.805640
O O1 0.500000 0.567865 0.250000
O O2 0.677534 0.597695 0.123654
O O3 0.368913 0.651017 0.014768
O O4 0.331487 0.553228 0.858461
O O5 0.500000 0.826056 0.250000
O O6 0.750000 0.750000 0.500000
O O7 0.694166 0.819861 0.645788
O O8 0.000000 0.552987 0.750000
O O9 0.000000 0.500000 0.500000
O O10 0.036130 0.599192 0.515907
O O11 0.500000 0.848052 0.750000
#
# Coordination Sequence:
#
# PCOD8140635 Si02
#       4
#     8   8   8   8
#     4  10  20  42  67  94 135 177 221 276 334 401
#     4  11  20  41  71  96 128 180 224 271 342 409
#     4  12  23  43  67  98 136 182 227 279 335 401
#     4  11  23  42  65  99 141 169 223 288 330 398
#
# _framework density 21.135825000000001
#
# number of rings (size 3 to 8) (size 9 to 14) (size 15 to 20)
#    0.000    1.000    7.500    3.000    0.000    2.000 
#    0.000    5.000    0.000    0.000    0.000    0.000 
#    0.000    0.000    0.000    0.000    0.000    0.000 
#
# Total GULP energy -198218.183697 kJ/mol
# GULP energy per Si atom -12388.636481 kJ/mol
# Density = 2.108772 g / cm^3
# Si number density = 21.135825 Si / 1000 Ang^3
#
#
#
# Elastic Constant Matrix: (Units=GPa)
#
#
# Indices 1 2 3 4 5 6 
#
# 1 118.4878 2.5029 39.0744 0.0000 5.2774 0.0000
# 2 2.5029 73.0729 41.4809 0.0000 -11.9019 0.0000
# 3 39.0744 41.4809 147.4137 0.0000 25.4945 0.0000
# 4 0.0000 0.0000 0.0000 37.9105 0.0000 3.8521
# 5 5.2774 -11.9019 25.4945 0.0000 38.7199 0.0000
# 6 0.0000 0.0000 0.0000 3.8521 0.0000 16.5576
#
#
#
# Elastic Compliance Matrix: (Units=1/GPa)
#
#
# Indices 1 2 3 4 5 6 
#
# 1 0.009402 0.001724 -0.003213 0.000000 0.001364 0.000000
# 2 0.001724 0.020003 -0.008022 0.000000 0.011196 0.000000
# 3 -0.003213 -0.008022 0.011560 0.000000 -0.009639 0.000000
# 4 0.000000 0.000000 0.000000 0.027017 0.000000 -0.006285
# 5 0.001364 0.011196 -0.009639 0.000000 0.035429 0.000000
# 6 0.000000 0.000000 0.000000 -0.006285 0.000000 0.061857
#
#
# Mechanical properties :
#
#
# Convention : Reuss Voigt Hill
#
# Bulk Modulus (GPa) = 45.57263 56.12121 50.84692
# Shear Modulus (GPa) = 26.09545 35.69868 30.89707
#
# Velocity S-wave (km/s) = 3.51758 4.11422 3.82754
# Velocity P-wave (km/s) = 6.17304 7.01280 6.60628
#
# Compressibility (1/GPa) = 0.02194299
#
# Stress axis : x y z
#
# Youngs Moduli (GPa) = 106.35825 49.99197 86.50704
#
# Poissons Ratio (x) = -0.08620 0.27798
# Poissons Ratio (y) = -0.18339 0.69396
# Poissons Ratio (z) = 0.34177 0.40104
#
# Static dielectric constant tensor:
#      x y z
#    x 3.437590 0.000000 1.633630 
#    y 0.000000 3.818960 0.000000 
#    z 1.633630 0.000000 0.678880 
# 
# 
# High freq. dielectric constant tensor:
#      x y z
#    x 1.814100 0.000000 0.020840 
#    y 0.000000 1.807280 0.000000 
#    z 0.020840 0.000000 1.855210 
# 
# From -- ./inp_files/24732.got.cif
#   From: 2010.06.25/outbox.cif.g09.slc.cpg/sg15_13_cif.got.tgz:24732.got - 2010.06.28 07:06:18.
