data_PCOD8140753
_publ_section_title
;
Structure prediction by ZEFSAII (Michael W. Deem and Ramdas Pophale) SiO2 
 PCOD8140753
Probable space group: C 2/C
;
_chemical_formula_sum "Si O2"
_cell_formula_units_Z 64
_cell_length_a 19.020038
_cell_length_b 8.944895
_cell_length_c 30.891334
_cell_angle_alpha 90.000000
_cell_angle_beta 33.710396
_cell_angle_gamma 90.000000
_cell_volume 2916.840301
_symmetry_space_group_name_H-M "C 2/C"
_symmetry_group_IT_number 15
_symmetry_cell_setting 'monoclinic'
loop_
_space_group_symop_operation_xyz
x,y,z
-x,y,1/2-z
-x,-y,-z
x,-y,1/2+z
1/2+x,1/2+y,z
1/2-x,1/2+y,1/2-z
1/2-x,1/2-y,-z
1/2+x,1/2-y,1/2+z
loop_
_atom_site_type_symbol
_atom_site_label
_atom_site_fract_x
_atom_site_fract_y
_atom_site_fract_z
Si Si1 0.326256 0.667112 0.734208
Si Si2 0.220468 0.670694 0.159159
Si Si3 0.577060 0.295720 0.059713
Si Si4 0.836312 0.615650 0.403964
Si Si5 0.207920 0.171858 0.890395
Si Si6 0.539824 0.166919 0.989569
Si Si7 0.933969 0.680331 0.829509
Si Si8 0.163044 0.170807 0.252401
O O1 0.361585 0.779604 0.756412
O O2 0.438289 0.641587 0.641594
O O3 0.201065 0.738004 0.776099
O O4 0.300109 0.501449 0.763772
O O5 0.140803 0.687380 0.155504
O O6 0.269428 0.499661 0.135293
O O7 0.335471 0.788741 0.100772
O O8 0.624614 0.231976 0.080446
O O9 0.564037 0.172937 0.028765
O O10 0.682852 0.416356 0.988721
O O11 0.922093 0.468037 0.364938
O O12 0.062075 0.208947 0.973943
O O13 0.289826 0.224230 0.890742
O O14 0.247393 0.275626 0.831143
O O15 0.500000 0.000000 0.000000
O O16 0.000000 0.639799 0.750000
O O17 0.014187 0.801857 0.815832
#
# Coordination Sequence:
#
# PCOD8140753 Si02
#       8
#     8   8   8   8   8   8   8   8
#     4  12  25  41  68  98 133 171 220 282 331 399
#     4  10  23  39  68  99 122 181 226 265 336 399
#     4  10  23  41  65  94 138 169 214 283 329 395
#     4   9  21  43  65  95 127 176 218 265 340 395
#     4  10  20  43  65  91 132 173 219 278 322 399
#     4  11  22  41  66  96 135 176 225 277 330 394
#     4   9  21  39  67  89 128 174 222 272 328 398
#     4  11  24  42  62  98 131 170 222 273 341 392
#
# _framework density 21.941551
#
# number of rings (size 3 to 8) (size 9 to 14) (size 15 to 20)
#    0.000    1.750    1.250    1.875    7.000    0.000 
#   13.500    0.625    0.000    0.000    0.000    0.000 
#    0.000    0.000    0.000    0.000    0.000    0.000 
#
# Total GULP energy -396483.582973 kJ/mol
# GULP energy per Si atom -12390.111968 kJ/mol
# Density = 2.189161 g / cm^3
# Si number density = 21.941551 Si / 1000 Ang^3
#
#
#
# Elastic Constant Matrix: (Units=GPa)
#
#
# Indices 1 2 3 4 5 6 
#
# 1 108.6549 41.3625 9.5362 0.0117 2.4132 0.0002
# 2 41.3625 116.9594 9.2642 -0.0076 0.9003 -0.0231
# 3 9.5362 9.2642 50.7501 0.0027 6.5267 -0.0092
# 4 0.0117 -0.0076 0.0027 31.9459 0.0005 -1.2798
# 5 2.4132 0.9003 6.5267 0.0005 29.4492 0.0003
# 6 0.0002 -0.0231 -0.0092 -1.2798 0.0003 27.3280
#
#
#
# Elastic Compliance Matrix: (Units=1/GPa)
#
#
# Indices 1 2 3 4 5 6 
#
# 1 0.010731 -0.003690 -0.001281 -0.000005 -0.000483 -0.000004
# 2 -0.003690 0.009944 -0.001155 0.000004 0.000254 0.000008
# 3 -0.001281 -0.001155 0.020729 -0.000001 -0.004454 0.000006
# 4 -0.000005 0.000004 -0.000001 0.031362 0.000000 0.001469
# 5 -0.000483 0.000254 -0.004454 0.000000 0.034976 -0.000002
# 6 -0.000004 0.000008 0.000006 0.001469 -0.000002 0.036661
#
#
# Mechanical properties :
#
#
# Convention : Reuss Voigt Hill
#
# Bulk Modulus (GPa) = 34.30116 44.07668 39.18892
# Shear Modulus (GPa) = 30.05322 32.15807 31.10565
#
# Velocity S-wave (km/s) = 3.70495 3.83250 3.76927
# Velocity P-wave (km/s) = 5.82831 6.30206 6.06980
#
# Compressibility (1/GPa) = 0.02915353
#
# Stress axis : x y z
#
# Youngs Moduli (GPa) = 93.18579 100.55897 48.24254
#
# Poissons Ratio (x) = 0.37105 0.06179
# Poissons Ratio (y) = 0.34385 0.05570
# Poissons Ratio (z) = 0.11935 0.11611
#
# Static dielectric constant tensor:
#      x y z
#    x 4.298140 0.000010 -0.165840 
#    y 0.000010 3.637320 0.000030 
#    z -0.165840 0.000030 4.333420 
# 
# 
# High freq. dielectric constant tensor:
#      x y z
#    x 1.877690 0.000000 -0.004210 
#    y 0.000000 1.837410 0.000000 
#    z -0.004210 0.000000 1.864470 
# 
# From -- ./inp_files/315692.got.cif
#   From: 2010.06.25/outbox.cif.g09.slc.cpg/sg15_158_cif.got.tgz:315692.got - 2010.06.28 07:06:18.
