data_PCOD8140851
_publ_section_title
;
Structure prediction by ZEFSAII (Michael W. Deem and Ramdas Pophale) SiO2 
 PCOD8140851
Probable space group: C 2/C
;
_chemical_formula_sum "Si O2"
_cell_formula_units_Z 60
_cell_length_a 22.286898
_cell_length_b 14.617599
_cell_length_c 8.467900
_cell_angle_alpha 90.000000
_cell_angle_beta 94.582084
_cell_angle_gamma 90.000000
_cell_volume 2749.863406
_symmetry_space_group_name_H-M "C 2/C"
_symmetry_group_IT_number 15
_symmetry_cell_setting 'monoclinic'
loop_
_space_group_symop_operation_xyz
x,y,z
-x,y,1/2-z
-x,-y,-z
x,-y,1/2+z
1/2+x,1/2+y,z
1/2-x,1/2+y,1/2-z
1/2-x,1/2-y,-z
1/2+x,1/2-y,1/2+z
loop_
_atom_site_type_symbol
_atom_site_label
_atom_site_fract_x
_atom_site_fract_y
_atom_site_fract_z
Si Si1 0.500000 0.806964 0.750000
Si Si2 0.300272 0.034547 0.850953
Si Si3 0.368821 0.310361 0.543330
Si Si4 0.874851 0.362070 0.839801
Si Si5 0.788004 0.966929 0.429699
Si Si6 0.999680 0.808689 0.928919
Si Si7 0.815955 0.286648 0.533293
Si Si8 0.374453 0.369854 0.883485
O O1 0.440531 0.867834 0.770988
O O2 0.487161 0.753238 0.582472
O O3 0.354544 0.962874 0.886804
O O4 0.277402 0.041023 0.666992
O O5 0.234998 0.005704 0.908956
O O6 0.327027 0.130320 0.914609
O O7 0.373150 0.204937 0.490538
O O8 0.318528 0.367156 0.438197
O O9 0.435172 0.355533 0.530735
O O10 0.352846 0.315091 0.723686
O O11 0.824580 0.323915 0.710574
O O12 0.839461 0.035165 0.378176
O O13 0.000000 0.759966 0.750000
O O14 0.946746 0.885288 0.908099
O O15 0.750000 0.250000 0.500000
O O16 0.859976 0.200636 0.520952
#
# Coordination Sequence:
#
# PCOD8140851 Si02
#       8
#     4   8   8   8   8   8   8   8
#     4  10  20  44  70  92 132 174 226 272 342 396
#     4  12  25  42  61  96 131 163 219 270 323 398
#     4  10  24  40  64  94 129 173 215 270 327 390
#     4  11  24  43  67  95 126 173 219 270 331 392
#     4  12  24  40  61  94 135 170 213 265 327 399
#     4   9  20  39  65  98 131 170 227 276 324 399
#     4  12  23  41  67  94 126 172 212 268 331 390
#     4  11  22  41  65  93 128 173 218 270 328 393
#
# _framework density 21.819265000000001
#
# number of rings (size 3 to 8) (size 9 to 14) (size 15 to 20)
#    0.000    1.067    5.333    0.800    1.867    1.067 
#    0.000    0.667    5.867    0.000    0.000    0.000 
#    0.000    0.000    0.000    0.000    0.000    0.000 
#
# Total GULP energy -371650.981934 kJ/mol
# GULP energy per Si atom -12388.366064 kJ/mol
# Density = 2.176960 g / cm^3
# Si number density = 21.819265 Si / 1000 Ang^3
#
#
#
# Elastic Constant Matrix: (Units=GPa)
#
#
# Indices 1 2 3 4 5 6 
#
# 1 88.5931 -0.1549 6.6322 0.0000 4.4197 0.0000
# 2 -0.1549 47.2966 3.9733 0.0000 2.2474 0.0000
# 3 6.6322 3.9733 71.2822 0.0000 2.2151 0.0000
# 4 0.0000 0.0000 0.0000 26.9948 0.0000 -3.6612
# 5 4.4197 2.2474 2.2151 0.0000 31.0919 0.0000
# 6 0.0000 0.0000 0.0000 -3.6612 0.0000 30.0037
#
#
#
# Elastic Compliance Matrix: (Units=1/GPa)
#
#
# Indices 1 2 3 4 5 6 
#
# 1 0.011443 0.000198 -0.001027 0.000000 -0.001568 0.000000
# 2 0.000198 0.021312 -0.001160 0.000000 -0.001486 0.000000
# 3 -0.001027 -0.001160 0.014213 0.000000 -0.000783 0.000000
# 4 0.000000 0.000000 0.000000 0.037668 0.000000 0.004596
# 5 -0.001568 -0.001486 -0.000783 0.000000 0.032549 0.000000
# 6 0.000000 0.000000 0.000000 0.004596 0.000000 0.033890
#
#
# Mechanical properties :
#
#
# Convention : Reuss Voigt Hill
#
# Bulk Modulus (GPa) = 23.26106 25.34145 24.30125
# Shear Modulus (GPa) = 29.51896 30.73283 30.12590
#
# Velocity S-wave (km/s) = 3.68215 3.75709 3.71981
# Velocity P-wave (km/s) = 5.36298 5.51910 5.44160
#
# Compressibility (1/GPa) = 0.04299030
#
# Stress axis : x y z
#
# Youngs Moduli (GPa) = 87.38966 46.92210 70.35666
#
# Poissons Ratio (x) = -0.00930 0.07226
# Poissons Ratio (y) = -0.01732 0.08163
# Poissons Ratio (z) = 0.08975 0.05444
#
# Static dielectric constant tensor:
#      x y z
#    x 4.946320 0.000000 -0.490910 
#    y 0.000000 4.959550 0.000000 
#    z -0.490910 0.000000 4.466030 
# 
# 
# High freq. dielectric constant tensor:
#      x y z
#    x 1.871330 0.000000 0.001770 
#    y 0.000000 1.820230 0.000000 
#    z 0.001770 0.000000 1.872570 
# 
# From -- ./inp_files/61571.got.cif
#   From: 2010.06.25/outbox.cif.g09.slc.cpg/sg15_31_cif.got.tgz:61571.got - 2010.06.28 07:06:18.
