data_PCOD8140823
_publ_section_title
;
Structure prediction by ZEFSAII (Michael W. Deem and Ramdas Pophale) SiO2 
 PCOD8140823
Probable space group: C 2/C
;
_chemical_formula_sum "Si O2"
_cell_formula_units_Z 48
_cell_length_a 5.682015
_cell_length_b 27.325544
_cell_length_c 13.848312
_cell_angle_alpha 90.000000
_cell_angle_beta 91.246580
_cell_angle_gamma 90.000000
_cell_volume 2149.637523
_symmetry_space_group_name_H-M "C 2/C"
_symmetry_group_IT_number 15
_symmetry_cell_setting 'monoclinic'
loop_
_space_group_symop_operation_xyz
x,y,z
-x,y,1/2-z
-x,-y,-z
x,-y,1/2+z
1/2+x,1/2+y,z
1/2-x,1/2+y,1/2-z
1/2-x,1/2-y,-z
1/2+x,1/2-y,1/2+z
loop_
_atom_site_type_symbol
_atom_site_label
_atom_site_fract_x
_atom_site_fract_y
_atom_site_fract_z
Si Si1 0.000000 0.315260 0.750000
Si Si2 0.500000 0.991007 0.250000
Si Si3 0.114752 0.145731 0.649160
Si Si4 0.647727 0.260253 0.394431
Si Si5 0.500000 0.373955 0.750000
Si Si6 0.133472 0.039592 0.371647
Si Si7 0.500000 0.800755 0.250000
Si Si8 0.727643 0.544732 0.579671
O O1 0.983275 0.282962 0.849434
O O2 0.249651 0.344896 0.755574
O O3 0.554738 0.956818 0.343492
O O4 0.281032 0.024848 0.278062
O O5 0.378438 0.164044 0.670540
O O6 0.097685 0.096719 0.586883
O O7 0.000000 0.133917 0.750000
O O8 0.985720 0.188869 0.591022
O O9 0.750000 0.250000 0.500000
O O10 0.834754 0.265137 0.309608
O O11 0.482793 0.408065 0.653832
O O12 0.303990 0.042059 0.467800
O O13 0.937776 0.999806 0.393184
#
# Coordination Sequence:
#
# PCOD8140823 Si02
#       8
#     4   4   8   8   4   8   4   8
#     4  12  27  50  74 108 149 195 252 303 376 438
#     4  12  20  44  67  96 144 193 232 305 373 422
#     4  10  21  40  67  99 136 177 233 292 366 430
#     4  11  25  45  71 103 139 188 239 312 362 446
#     4  12  27  48  76 102 151 199 244 305 364 450
#     4  11  25  44  67 101 143 185 245 296 362 442
#     4  10  20  44  65  96 142 171 238 293 369 426
#     4  11  24  41  69 103 138 186 238 302 368 445
#
# _framework density 22.329345
#
# number of rings (size 3 to 8) (size 9 to 14) (size 15 to 20)
#    0.000    1.000    4.167    3.000    2.333    3.333 
#    0.000    0.000    0.000    0.000    0.000    0.000 
#    0.000    0.000    0.000    0.000    0.000    0.000 
#
# Total GULP energy -297404.106299 kJ/mol
# GULP energy per Si atom -12391.837762 kJ/mol
# Density = 2.227852 g / cm^3
# Si number density = 22.329345 Si / 1000 Ang^3
#
#
#
# Elastic Constant Matrix: (Units=GPa)
#
#
# Indices 1 2 3 4 5 6 
#
# 1 66.2742 22.2419 17.1472 0.0000 9.0491 0.0000
# 2 22.2419 130.3004 47.7836 0.0000 9.5253 0.0000
# 3 17.1472 47.7836 149.3764 0.0000 41.1374 0.0000
# 4 0.0000 0.0000 0.0000 -5.3849 0.0000 -4.4216
# 5 9.0491 9.5253 41.1374 0.0000 37.2962 0.0000
# 6 0.0000 0.0000 0.0000 -4.4216 0.0000 35.8495
#
#
#
# Elastic Compliance Matrix: (Units=1/GPa)
#
#
# Indices 1 2 3 4 5 6 
#
# 1 0.016406 -0.002488 -0.000239 0.000000 -0.003082 0.000000
# 2 -0.002488 0.009110 -0.003094 0.000000 0.001689 0.000000
# 3 -0.000239 -0.003094 0.010741 0.000000 -0.010999 0.000000
# 4 0.000000 0.000000 0.000000 -0.168627 0.000000 -0.020798
# 5 -0.003082 0.001689 -0.010999 0.000000 0.039260 0.000000
# 6 0.000000 0.000000 0.000000 -0.020798 0.000000 0.025329
#
#
# Mechanical properties :
#
#
# Convention : Reuss Voigt Hill
#
# Bulk Modulus (GPa) = 40.62341 57.81071 49.21706
# Shear Modulus (GPa) = -104.31014 30.80404 -36.75305
#
# Velocity S-wave (km/s) = -6.84221 3.71823 -4.06144
# Velocity P-wave (km/s) = 6.64746 6.66182 0.30919
#
# Compressibility (1/GPa) = 0.02461635
#
# Stress axis : x y z
#
# Youngs Moduli (GPa) = 60.95230 109.76558 93.10453
#
# Poissons Ratio (x) = 0.27306 0.02223
# Poissons Ratio (y) = 0.15163 0.28806
# Poissons Ratio (z) = 0.01456 0.33961
#
# Static dielectric constant tensor:
#      x y z
#    x 4.040600 0.000000 0.333930 
#    y 0.000000 4.202060 0.000000 
#    z 0.333930 0.000000 4.231660 
# 
# 
# High freq. dielectric constant tensor:
#      x y z
#    x 1.872410 0.000000 0.022140 
#    y 0.000000 1.889880 0.000000 
#    z 0.022140 0.000000 1.882830 
# 
# From -- ./inp_files/130436.got.cif
#   From: 2010.06.25/outbox.cif.g09.slc.cpg/sg15_66_cif.got.tgz:130436.got - 2010.06.28 07:06:18.
