data_PCOD8140739
_publ_section_title
;
Structure prediction by ZEFSAII (Michael W. Deem and Ramdas Pophale) SiO2 
 PCOD8140739
Probable space group: C 2/C
;
_chemical_formula_sum "Si O2"
_cell_formula_units_Z 48
_cell_length_a 4.997413
_cell_length_b 14.053916
_cell_length_c 30.222152
_cell_angle_alpha 90.000000
_cell_angle_beta 71.030363
_cell_angle_gamma 90.000000
_cell_volume 2007.322832
_symmetry_space_group_name_H-M "C 2/C"
_symmetry_group_IT_number 15
_symmetry_cell_setting 'monoclinic'
loop_
_space_group_symop_operation_xyz
x,y,z
-x,y,1/2-z
-x,-y,-z
x,-y,1/2+z
1/2+x,1/2+y,z
1/2-x,1/2+y,1/2-z
1/2-x,1/2-y,-z
1/2+x,1/2-y,1/2+z
loop_
_atom_site_type_symbol
_atom_site_label
_atom_site_fract_x
_atom_site_fract_y
_atom_site_fract_z
Si Si1 0.083402 0.214352 0.440901
Si Si2 0.052705 0.437774 0.120028
Si Si3 0.500000 0.435458 0.250000
Si Si4 0.022110 0.156012 0.840502
Si Si5 0.500000 0.063977 0.250000
Si Si6 0.453691 0.335685 0.039851
Si Si7 0.082642 0.636617 0.152375
O O1 0.311846 0.299711 0.437416
O O2 0.139317 0.155502 0.392724
O O3 0.766966 0.249939 0.452316
O O4 0.090624 0.145088 0.484185
O O5 0.217245 0.404584 0.155350
O O6 0.286159 0.428095 0.067949
O O7 0.940804 0.544523 0.136229
O O8 0.785874 0.371379 0.122200
O O9 0.512241 0.364798 0.208821
O O10 0.229135 0.502678 0.263568
O O11 0.102415 0.267232 0.842794
O O12 0.645953 0.123622 0.201765
#
# Coordination Sequence:
#
# PCOD8140739 Si02
#       7
#     8   8   4   8   4   8   8
#     4  10  22  38  72  92 140 175 227 264 344 399
#     4  12  24  42  71  99 138 169 231 274 338 395
#     4  12  23  50  63  94 138 176 221 286 337 392
#     4  12  25  44  68  95 135 178 216 284 337 392
#     4  12  27  42  71 100 132 174 233 274 335 412
#     4  10  20  43  63 103 131 181 216 282 327 404
#     4  12  25  45  70 105 128 186 224 281 336 411
#
# _framework density 23.912447
#
# number of rings (size 3 to 8) (size 9 to 14) (size 15 to 20)
#    0.000    0.667    6.667    0.500    0.000    6.000 
#    0.000    1.667    0.000    8.000    0.000    0.000 
#    0.000    0.000    0.000    0.000    0.000    0.000 
#
# Total GULP energy -297334.248603 kJ/mol
# GULP energy per Si atom -12388.927025 kJ/mol
# Density = 2.385802 g / cm^3
# Si number density = 23.912447 Si / 1000 Ang^3
#
#
#
# Elastic Constant Matrix: (Units=GPa)
#
#
# Indices 1 2 3 4 5 6 
#
# 1 99.2144 27.1034 18.6210 0.0000 4.5787 0.0000
# 2 27.1034 125.4760 45.7016 0.0000 1.4790 0.0000
# 3 18.6210 45.7016 199.9410 0.0000 3.8583 0.0000
# 4 0.0000 0.0000 0.0000 51.4141 0.0000 -3.2523
# 5 4.5787 1.4790 3.8583 0.0000 31.2583 0.0000
# 6 0.0000 0.0000 0.0000 -3.2523 0.0000 11.4654
#
#
#
# Elastic Compliance Matrix: (Units=1/GPa)
#
#
# Indices 1 2 3 4 5 6 
#
# 1 0.010822 -0.002142 -0.000491 0.000000 -0.001423 0.000000
# 2 -0.002142 0.009118 -0.001887 0.000000 0.000115 0.000000
# 3 -0.000491 -0.001887 0.005488 0.000000 -0.000516 0.000000
# 4 0.000000 0.000000 0.000000 0.019805 0.000000 0.005618
# 5 -0.001423 0.000115 -0.000516 0.000000 0.032258 0.000000
# 6 0.000000 0.000000 0.000000 0.005618 0.000000 0.088812
#
#
# Mechanical properties :
#
#
# Convention : Reuss Voigt Hill
#
# Bulk Modulus (GPa) = 61.01574 67.49816 64.25695
# Shear Modulus (GPa) = 27.65371 41.04125 34.34748
#
# Velocity S-wave (km/s) = 3.40436 4.14734 3.79408
# Velocity P-wave (km/s) = 6.40504 7.15698 6.79143
#
# Compressibility (1/GPa) = 0.01638921
#
# Stress axis : x y z
#
# Youngs Moduli (GPa) = 92.40298 109.66998 182.20058
#
# Poissons Ratio (x) = 0.23492 0.08942
# Poissons Ratio (y) = 0.19794 0.34380
# Poissons Ratio (z) = 0.04535 0.20694
#
# Static dielectric constant tensor:
#      x y z
#    x 3.991490 0.000000 -0.059090 
#    y 0.000000 3.991630 0.000000 
#    z -0.059090 0.000000 4.939040 
# 
# 
# High freq. dielectric constant tensor:
#      x y z
#    x 1.927500 0.000000 0.003010 
#    y 0.000000 1.920890 0.000000 
#    z 0.003010 0.000000 1.987480 
# 
# From -- ./inp_files/305149.got.cif
#   From: 2010.06.25/outbox.cif.g09.slc.cpg/sg15_153_cif.got.tgz:305149.got - 2010.06.28 07:06:18.
