data_PCOD8140171
_publ_section_title
;
Structure prediction by ZEFSAII (Michael W. Deem and Ramdas Pophale) SiO2 
 PCOD8140171
Probable space group: C 2/C
;
_chemical_formula_sum "Si O2"
_cell_formula_units_Z 56
_cell_length_a 8.699950
_cell_length_b 17.640507
_cell_length_c 20.266556
_cell_angle_alpha 90.000000
_cell_angle_beta 121.164130
_cell_angle_gamma 90.000000
_cell_volume 2661.481298
_symmetry_space_group_name_H-M "C 2/C"
_symmetry_group_IT_number 15
_symmetry_cell_setting 'monoclinic'
loop_
_space_group_symop_operation_xyz
x,y,z
-x,y,1/2-z
-x,-y,-z
x,-y,1/2+z
1/2+x,1/2+y,z
1/2-x,1/2+y,1/2-z
1/2-x,1/2-y,-z
1/2+x,1/2-y,1/2+z
loop_
_atom_site_type_symbol
_atom_site_label
_atom_site_fract_x
_atom_site_fract_y
_atom_site_fract_z
Si Si1 0.925939 0.861525 0.554749
Si Si2 0.000000 0.384035 0.750000
Si Si3 0.186026 0.766462 0.680666
Si Si4 0.823940 0.124238 0.889087
Si Si5 0.104124 0.866338 0.339484
Si Si6 0.000000 0.685239 0.750000
Si Si7 0.709586 0.994563 0.040804
Si Si8 0.744922 0.041930 0.400444
O O1 0.850677 0.836881 0.466629
O O2 0.981858 0.789258 0.611536
O O3 0.126957 0.890989 0.591161
O O4 0.797277 0.921302 0.563709
O O5 0.828814 0.332382 0.729203
O O6 0.947527 0.439791 0.676813
O O7 0.269182 0.706050 0.647037
O O8 0.150460 0.731717 0.744289
O O9 0.615190 0.134334 0.825347
O O10 0.964712 0.156026 0.866659
O O11 0.846299 0.033876 0.899242
O O12 0.217762 0.940178 0.385365
O O13 0.000000 0.889280 0.250000
O O14 0.740877 0.955650 0.977861
O O15 0.500000 0.000000 0.000000
#
# Coordination Sequence:
#
# PCOD8140171 Si02
#       8
#     8   4   8   8   8   4   8   8
#     4  10  22  44  65  89 131 170 214 268 333 393
#     4  10  21  42  66  91 130 166 214 270 322 407
#     4  11  25  42  61  97 133 176 215 264 332 404
#     4  11  21  41  67  91 124 168 218 271 325 389
#     4  12  23  43  65  95 132 171 220 269 331 402
#     4  12  25  40  62  91 130 166 218 268 318 401
#     4  11  24  42  64  98 130 166 220 282 327 392
#     4  10  20  40  68  93 122 168 214 260 337 384
#
# _framework density 21.040913
#
# number of rings (size 3 to 8) (size 9 to 14) (size 15 to 20)
#    0.000    1.143    5.000    1.286    4.000    3.429 
#    3.857    0.000    0.000    0.000    0.000    0.000 
#    0.000    0.000    0.000    0.000    0.000    0.000 
#
# Total GULP energy -347025.926775 kJ/mol
# GULP energy per Si atom -12393.783099 kJ/mol
# Density = 2.099302 g / cm^3
# Si number density = 21.040913 Si / 1000 Ang^3
#
#
#
# Elastic Constant Matrix: (Units=GPa)
#
#
# Indices 1 2 3 4 5 6 
#
# 1 84.4614 28.5661 17.2370 0.0000 11.4021 0.0000
# 2 28.5661 59.3303 39.4018 0.0000 1.5038 0.0000
# 3 17.2370 39.4018 133.7195 0.0000 22.5676 0.0000
# 4 0.0000 0.0000 0.0000 31.3453 0.0000 7.4846
# 5 11.4021 1.5038 22.5676 0.0000 34.7857 0.0000
# 6 0.0000 0.0000 0.0000 7.4846 0.0000 19.6380
#
#
#
# Elastic Compliance Matrix: (Units=1/GPa)
#
#
# Indices 1 2 3 4 5 6 
#
# 1 0.014996 -0.007967 0.001332 0.000000 -0.005435 0.000000
# 2 -0.007967 0.025570 -0.007593 0.000000 0.006432 0.000000
# 3 0.001332 -0.007593 0.010738 0.000000 -0.007075 0.000000
# 4 0.000000 0.000000 0.000000 0.035097 0.000000 -0.013376
# 5 -0.005435 0.006432 -0.007075 0.000000 0.034841 0.000000
# 6 0.000000 0.000000 0.000000 -0.013376 0.000000 0.056020
#
#
# Mechanical properties :
#
#
# Convention : Reuss Voigt Hill
#
# Bulk Modulus (GPa) = 43.76772 49.76899 46.76836
# Shear Modulus (GPa) = 23.43739 29.97422 26.70581
#
# Velocity S-wave (km/s) = 3.34113 3.77844 3.56649
# Velocity P-wave (km/s) = 5.97751 6.53760 6.26382
#
# Compressibility (1/GPa) = 0.02284789
#
# Stress axis : x y z
#
# Youngs Moduli (GPa) = 66.68352 39.10778 93.12675
#
# Poissons Ratio (x) = 0.31157 -0.12402
# Poissons Ratio (y) = 0.53127 0.70712
# Poissons Ratio (z) = -0.08881 0.29695
#
# Static dielectric constant tensor:
#      x y z
#    x 3.697620 0.000000 0.193740 
#    y 0.000000 3.732790 0.000000 
#    z 0.193740 0.000000 4.041690 
# 
# 
# High freq. dielectric constant tensor:
#      x y z
#    x 1.820730 0.000000 0.015930 
#    y 0.000000 1.813740 0.000000 
#    z 0.015930 0.000000 1.843770 
# 
# From -- ./inp_files/232809.got.cif
#   From: 2010.06.25/outbox.cif.g09.slc.cpg/sg15_117_cif.got.tgz:232809.got - 2010.06.28 07:06:18.
