data_PCOD8140024
_publ_section_title
;
Structure prediction by ZEFSAII (Michael W. Deem and Ramdas Pophale) SiO2 
 PCOD8140024
Probable space group: C 2/C
;
_chemical_formula_sum "Si O2"
_cell_formula_units_Z 48
_cell_length_a 13.691957
_cell_length_b 12.160623
_cell_length_c 21.448287
_cell_angle_alpha 90.000000
_cell_angle_beta 42.239560
_cell_angle_gamma 90.000000
_cell_volume 2400.673474
_symmetry_space_group_name_H-M "C 2/C"
_symmetry_group_IT_number 15
_symmetry_cell_setting 'monoclinic'
loop_
_space_group_symop_operation_xyz
x,y,z
-x,y,1/2-z
-x,-y,-z
x,-y,1/2+z
1/2+x,1/2+y,z
1/2-x,1/2+y,1/2-z
1/2-x,1/2-y,-z
1/2+x,1/2-y,1/2+z
loop_
_atom_site_type_symbol
_atom_site_label
_atom_site_fract_x
_atom_site_fract_y
_atom_site_fract_z
Si Si1 0.661706 0.652024 0.073522
Si Si2 0.764398 0.734482 0.839967
Si Si3 0.405177 0.000693 0.460580
Si Si4 0.655179 0.328886 0.827146
Si Si5 0.610797 0.998533 0.246899
Si Si6 0.528570 0.815462 0.487215
O O1 0.650580 0.683938 0.152276
O O2 0.505014 0.635443 0.117626
O O3 0.750000 0.750000 0.000000
O O4 0.742660 0.537136 0.018534
O O5 0.763084 0.780888 0.770830
O O6 0.840620 0.616691 0.805972
O O7 0.593178 0.724531 0.937926
O O8 0.396921 0.127980 0.487260
O O9 0.525288 0.982119 0.351263
O O10 0.442777 0.916036 0.497336
O O11 0.745034 0.430815 0.811250
O O12 0.648283 0.238014 0.885447
O O13 0.500000 0.055217 0.250000
#
# Coordination Sequence:
#
# PCOD8140024 Si02
#       6
#     8   8   8   8   8   8
#     4  11  20  38  65  96 123 160 210 264 313 370
#     4  11  21  40  65  93 124 159 212 264 311 373
#     4  10  20  40  65  88 124 168 209 250 321 370
#     4  12  23  40  64  95 125 163 218 259 313 382
#     4  12  25  40  63  94 127 166 210 266 320 367
#     4  10  21  39  65  89 123 171 202 255 314 381
#
# _framework density 19.994389000000002
#
# number of rings (size 3 to 8) (size 9 to 14) (size 15 to 20)
#    0.000    1.000    6.667    2.500    0.000    0.667 
#    0.000    2.500    0.000    0.000    0.000    0.000 
#    0.000    0.000    0.000    0.000    0.000    0.000 
#
# Total GULP energy -297508.731291 kJ/mol
# GULP energy per Si atom -12396.197137 kJ/mol
# Density = 1.994888 g / cm^3
# Si number density = 19.994389 Si / 1000 Ang^3
#
#
#
# Elastic Constant Matrix: (Units=GPa)
#
#
# Indices 1 2 3 4 5 6 
#
# 1 104.4537 55.9094 45.4688 0.0000 -15.4729 0.0000
# 2 55.9094 79.0694 46.3562 0.0000 -7.2866 0.0000
# 3 45.4688 46.3562 118.4045 -0.0001 5.4010 0.0000
# 4 0.0000 0.0000 -0.0001 32.0611 0.0000 3.9903
# 5 -15.4729 -7.2866 5.4010 0.0000 24.0167 0.0000
# 6 0.0000 0.0000 0.0000 3.9903 0.0000 28.4541
#
#
#
# Elastic Compliance Matrix: (Units=1/GPa)
#
#
# Indices 1 2 3 4 5 6 
#
# 1 0.017526 -0.009550 -0.003409 0.000000 0.009161 0.000000
# 2 -0.009550 0.022685 -0.005302 0.000000 0.001923 0.000000
# 3 -0.003409 -0.005302 0.012129 0.000000 -0.006533 0.000000
# 4 0.000000 0.000000 0.000000 0.031745 0.000000 -0.004452
# 5 0.009161 0.001923 -0.006533 0.000000 0.049592 0.000000
# 6 0.000000 0.000000 0.000000 -0.004452 0.000000 0.035769
#
#
# Mechanical properties :
#
#
# Convention : Reuss Voigt Hill
#
# Bulk Modulus (GPa) = 63.21884 66.37740 64.79812
# Shear Modulus (GPa) = 23.66979 27.18591 25.42785
#
# Velocity S-wave (km/s) = 3.44440 3.69138 3.57003
# Velocity P-wave (km/s) = 6.89242 7.17206 7.03363
#
# Compressibility (1/GPa) = 0.01581807
#
# Stress axis : x y z
#
# Youngs Moduli (GPa) = 57.05727 44.08171 82.44978
#
# Poissons Ratio (x) = 0.42096 0.28111
# Poissons Ratio (y) = 0.54488 0.43714
# Poissons Ratio (z) = 0.19453 0.23372
#
# Static dielectric constant tensor:
#      x y z
#    x 3.933640 0.000000 0.044200 
#    y 0.000000 3.579790 0.000000 
#    z 0.044200 0.000000 3.846340 
# 
# 
# High freq. dielectric constant tensor:
#      x y z
#    x 1.770190 0.000000 0.008990 
#    y 0.000000 1.751590 0.000000 
#    z 0.008990 0.000000 1.799990 
# 
# From -- ./inp_files/181810.got.cif
#   From: 2010.06.25/outbox.cif.g09.slc.cpg/sg15_91_cif.got.tgz:181810.got - 2010.06.28 07:06:18.
