data_PCOD8140744
_publ_section_title
;
Structure prediction by ZEFSAII (Michael W. Deem and Ramdas Pophale) SiO2 
 PCOD8140744
Probable space group: C 2/C
;
_chemical_formula_sum "Si O2"
_cell_formula_units_Z 52
_cell_length_a 18.166698
_cell_length_b 12.452092
_cell_length_c 13.649203
_cell_angle_alpha 90.000000
_cell_angle_beta 125.344326
_cell_angle_gamma 90.000000
_cell_volume 2518.551904
_symmetry_space_group_name_H-M "C 2/C"
_symmetry_group_IT_number 15
_symmetry_cell_setting 'monoclinic'
loop_
_space_group_symop_operation_xyz
x,y,z
-x,y,1/2-z
-x,-y,-z
x,-y,1/2+z
1/2+x,1/2+y,z
1/2-x,1/2+y,1/2-z
1/2-x,1/2-y,-z
1/2+x,1/2-y,1/2+z
loop_
_atom_site_type_symbol
_atom_site_label
_atom_site_fract_x
_atom_site_fract_y
_atom_site_fract_z
Si Si1 0.759005 0.272686 0.894445
Si Si2 0.607841 0.414709 0.192881
Si Si3 0.624558 0.839297 0.153821
Si Si4 0.265118 0.755529 0.625347
Si Si5 0.454594 0.303055 0.526990
Si Si6 0.225876 0.455884 0.733339
Si Si7 0.000000 0.934319 0.750000
O O1 0.673236 0.212280 0.784689
O O2 0.759711 0.396832 0.860656
O O3 0.750000 0.250000 0.000000
O O4 0.853228 0.231818 0.924469
O O5 0.646036 0.311030 0.278399
O O6 0.686626 0.468872 0.188332
O O7 0.572946 0.493823 0.250386
O O8 0.527764 0.382373 0.053120
O O9 0.673146 0.795403 0.094982
O O10 0.520860 0.800018 0.075582
O O11 0.635401 0.969296 0.165010
O O12 0.250000 0.750000 0.500000
O O13 0.278187 0.875513 0.677712
O O14 0.454580 0.359654 0.632610
#
# Coordination Sequence:
#
# PCOD8140744 Si02
#       7
#     8   8   8   8   8   8   4
#     4  11  22  41  66  92 130 166 219 271 314 391
#     4  11  24  41  64  98 126 173 213 276 330 384
#     4  10  23  40  63  93 131 170 212 270 324 379
#     4  10  22  40  63  94 130 171 219 265 323 391
#     4  12  23  44  62  99 130 164 223 275 320 392
#     4  10  20  43  63  94 129 175 212 262 341 380
#     4  12  26  36  68  96 124 172 222 270 334 384
#
# _framework density 20.646784
#
# number of rings (size 3 to 8) (size 9 to 14) (size 15 to 20)
#    0.000    1.231    4.615    4.154    4.308    3.077 
#    0.000    0.000    0.000    2.769    0.000    0.000 
#    0.000    0.000    0.000    0.000    0.000    0.000 
#
# Total GULP energy -322222.309430 kJ/mol
# GULP energy per Si atom -12393.165747 kJ/mol
# Density = 2.059979 g / cm^3
# Si number density = 20.646784 Si / 1000 Ang^3
#
#
#
# Elastic Constant Matrix: (Units=GPa)
#
#
# Indices 1 2 3 4 5 6 
#
# 1 54.9559 22.1937 24.6164 0.0000 -10.5678 0.0000
# 2 22.1937 134.2553 44.7189 0.0000 -8.2641 0.0000
# 3 24.6164 44.7189 116.7476 0.0000 -27.9046 0.0000
# 4 0.0000 0.0000 0.0000 18.6901 0.0000 4.6787
# 5 -10.5678 -8.2641 -27.9046 0.0000 47.3169 0.0000
# 6 0.0000 0.0000 0.0000 4.6787 0.0000 30.6686
#
#
#
# Elastic Compliance Matrix: (Units=1/GPa)
#
#
# Indices 1 2 3 4 5 6 
#
# 1 0.020933 -0.002334 -0.002910 0.000000 0.002552 0.000000
# 2 -0.002334 0.008809 -0.003072 0.000000 -0.000794 0.000000
# 3 -0.002910 -0.003072 0.011725 0.000000 0.005728 0.000000
# 4 0.000000 0.000000 0.000000 0.055629 0.000000 -0.008487
# 5 0.002552 -0.000794 0.005728 0.000000 0.024943 0.000000
# 6 0.000000 0.000000 0.000000 -0.008487 0.000000 0.033901
#
#
# Mechanical properties :
#
#
# Convention : Reuss Voigt Hill
#
# Bulk Modulus (GPa) = 40.26579 54.33519 47.30049
# Shear Modulus (GPa) = 27.64729 33.63046 30.63887
#
# Velocity S-wave (km/s) = 3.66329 4.04028 3.85639
# Velocity P-wave (km/s) = 6.11861 6.93821 6.54126
#
# Compressibility (1/GPa) = 0.02483498
#
# Stress axis : x y z
#
# Youngs Moduli (GPa) = 47.77123 113.52514 85.28967
#
# Poissons Ratio (x) = 0.26498 0.24818
# Poissons Ratio (y) = 0.11150 0.26199
# Poissons Ratio (z) = 0.13901 0.34872
#
# Static dielectric constant tensor:
#      x y z
#    x 3.632580 0.000000 0.026190 
#    y 0.000000 4.052620 0.000000 
#    z 0.026190 0.000000 3.655030 
# 
# 
# High freq. dielectric constant tensor:
#      x y z
#    x 1.796800 0.000000 -0.007160 
#    y 0.000000 1.815020 0.000000 
#    z -0.007160 0.000000 1.812770 
# 
# From -- ./inp_files/167726.got.cif
#   From: 2010.06.25/outbox.cif.g09.slc.cpg/sg15_84_cif.got.tgz:167726.got - 2010.06.28 07:06:18.
