data_PCOD8140358
_publ_section_title
;
Structure prediction by ZEFSAII (Michael W. Deem and Ramdas Pophale) SiO2 
 PCOD8140358
Probable space group: C 2/C
;
_chemical_formula_sum "Si O2"
_cell_formula_units_Z 40
_cell_length_a 17.882691
_cell_length_b 25.419887
_cell_length_c 9.961899
_cell_angle_alpha 90.000000
_cell_angle_beta 154.558071
_cell_angle_gamma 90.000000
_cell_volume 1945.400085
_symmetry_space_group_name_H-M "C 2/C"
_symmetry_group_IT_number 15
_symmetry_cell_setting 'monoclinic'
loop_
_space_group_symop_operation_xyz
x,y,z
-x,y,1/2-z
-x,-y,-z
x,-y,1/2+z
1/2+x,1/2+y,z
1/2-x,1/2+y,1/2-z
1/2-x,1/2-y,-z
1/2+x,1/2-y,1/2+z
loop_
_atom_site_type_symbol
_atom_site_label
_atom_site_fract_x
_atom_site_fract_y
_atom_site_fract_z
Si Si1 0.796592 0.904903 0.392922
Si Si2 0.422336 0.704513 0.483017
Si Si3 0.650367 0.706035 0.604598
Si Si4 0.690737 0.109190 0.015070
Si Si5 0.622807 0.510249 0.074266
O O1 0.764082 0.852465 0.252230
O O2 0.686349 0.902898 0.350255
O O3 0.751458 0.959095 0.242283
O O4 0.000000 0.910292 0.750000
O O5 0.576316 0.720924 0.630756
O O6 0.301572 0.754548 0.309447
O O7 0.320388 0.657155 0.249241
O O8 0.500000 0.685359 0.750000
O O9 0.500000 0.708575 0.250000
O O10 0.749128 0.058828 0.194276
O O11 0.500000 0.127121 0.750000
O O12 0.500000 0.523761 0.750000
O O13 0.500000 0.500000 0.000000
#
# Coordination Sequence:
#
# PCOD8140358 Si02
#       5
#     8   8   8   8   8
#     4  10  20  41  65  92 127 170 215 250 324 378
#     4  12  25  42  65  99 131 166 216 270 323 376
#     4  11  22  42  69  92 129 173 216 260 319 389
#     4  12  25  41  66 100 130 167 220 266 313 388
#     4  11  20  41  70  91 127 172 211 258 319 381
#
# _framework density 20.561323999999999
#
# number of rings (size 3 to 8) (size 9 to 14) (size 15 to 20)
#    0.000    0.800    8.000    2.400    2.800    0.800 
#    0.000    1.000    0.000    0.000    0.000    0.000 
#    0.000    0.000    0.000    0.000    0.000    0.000 
#
# Total GULP energy -248046.311861 kJ/mol
# GULP energy per Si atom -12402.315593 kJ/mol
# Density = 2.051453 g / cm^3
# Si number density = 20.561324 Si / 1000 Ang^3
#
#
#
# Elastic Constant Matrix: (Units=GPa)
#
#
# Indices 1 2 3 4 5 6 
#
# 1 161.6853 39.9731 23.4409 0.0000 -12.4760 0.0000
# 2 39.9731 153.3672 14.0014 -0.0001 4.9548 0.0000
# 3 23.4409 14.0014 38.7125 0.0000 -8.8237 0.0000
# 4 0.0000 -0.0001 0.0000 61.9948 0.0000 -2.5332
# 5 -12.4760 4.9548 -8.8237 0.0000 28.6189 0.0000
# 6 0.0000 0.0000 0.0000 -2.5332 0.0000 35.7594
#
#
#
# Elastic Compliance Matrix: (Units=1/GPa)
#
#
# Indices 1 2 3 4 5 6 
#
# 1 0.007257 -0.001676 -0.003228 0.000000 0.002459 0.000000
# 2 -0.001676 0.007245 -0.002214 0.000000 -0.002668 0.000000
# 3 -0.003228 -0.002214 0.030496 0.000000 0.008379 0.000000
# 4 0.000000 0.000000 0.000000 0.016177 0.000000 0.001146
# 5 0.002459 -0.002668 0.008379 0.000000 0.039059 0.000000
# 6 0.000000 0.000000 0.000000 0.001146 0.000000 0.028046
#
#
# Mechanical properties :
#
#
# Convention : Reuss Voigt Hill
#
# Bulk Modulus (GPa) = 32.50567 56.51067 44.50817
# Shear Modulus (GPa) = 32.72904 43.69792 38.21348
#
# Velocity S-wave (km/s) = 3.99404 4.61504 4.31572
# Velocity P-wave (km/s) = 6.09206 7.47942 6.82111
#
# Compressibility (1/GPa) = 0.03076387
#
# Stress axis : x y z
#
# Youngs Moduli (GPa) = 137.80013 138.01779 32.79111
#
# Poissons Ratio (x) = 0.23134 0.10583
# Poissons Ratio (y) = 0.23098 0.07259
# Poissons Ratio (z) = 0.44475 0.30551
#
# Static dielectric constant tensor:
#      x y z
#    x 4.453830 0.000000 -0.692660 
#    y 0.000000 4.329420 0.000000 
#    z -0.692660 0.000000 4.017770 
# 
# 
# High freq. dielectric constant tensor:
#      x y z
#    x 1.822930 0.000000 -0.007150 
#    y 0.000000 1.826570 0.000000 
#    z -0.007150 0.000000 1.765640 
# 
# From -- ./inp_files/44719.got.cif
#   From: 2010.06.25/outbox.cif.g09.slc.cpg/sg15_23_cif.got.tgz:44719.got - 2010.06.28 07:06:18.
