data_PCOD8140126
_publ_section_title
;
Structure prediction by ZEFSAII (Michael W. Deem and Ramdas Pophale) SiO2 
 PCOD8140126
Probable space group: C 2/C
;
_chemical_formula_sum "Si O2"
_cell_formula_units_Z 52
_cell_length_a 12.980180
_cell_length_b 16.099189
_cell_length_c 20.337152
_cell_angle_alpha 90.000000
_cell_angle_beta 144.047877
_cell_angle_gamma 90.000000
_cell_volume 2495.132446
_symmetry_space_group_name_H-M "C 2/C"
_symmetry_group_IT_number 15
_symmetry_cell_setting 'monoclinic'
loop_
_space_group_symop_operation_xyz
x,y,z
-x,y,1/2-z
-x,-y,-z
x,-y,1/2+z
1/2+x,1/2+y,z
1/2-x,1/2+y,1/2-z
1/2-x,1/2-y,-z
1/2+x,1/2-y,1/2+z
loop_
_atom_site_type_symbol
_atom_site_label
_atom_site_fract_x
_atom_site_fract_y
_atom_site_fract_z
Si Si1 0.905001 0.882658 0.518919
Si Si2 0.109139 0.945102 0.426625
Si Si3 0.469790 0.123546 0.663099
Si Si4 0.726149 0.646959 0.265156
Si Si5 0.833441 0.827531 0.334941
Si Si6 0.022225 0.429578 0.833912
Si Si7 0.000000 0.046808 0.250000
O O1 0.725041 0.852737 0.463826
O O2 0.883162 0.866131 0.430842
O O3 0.065217 0.830916 0.632713
O O4 0.937497 0.981754 0.545222
O O5 0.295553 0.901326 0.538126
O O6 0.968014 0.870091 0.353996
O O7 0.109370 0.988213 0.355437
O O8 0.500000 0.166733 0.750000
O O9 0.636682 0.151085 0.706323
O O10 0.467960 0.026322 0.671685
O O11 0.842039 0.727903 0.342046
O O12 0.644218 0.603776 0.287391
O O13 0.858083 0.586089 0.296220
O O14 0.000000 0.386885 0.750000
#
# Coordination Sequence:
#
# PCOD8140126 Si02
#       7
#     8   8   8   8   8   8   4
#     4   9  19  38  61  86 118 162 207 262 303 362
#     4  10  21  41  65  86 120 169 212 260 298 379
#     4   8  16  31  59  87 107 147 211 254 288 357
#     4  11  24  39  60  92 133 164 196 262 331 369
#     4  11  21  37  61  93 121 162 214 259 307 372
#     4  10  20  40  67  91 117 166 221 258 298 368
#     4  10  24  44  60  92 138 166 200 258 332 378
#
# _framework density 20.840577
#
# number of rings (size 3 to 8) (size 9 to 14) (size 15 to 20)
#    0.000    2.154    0.000    4.154    3.231    1.846 
#    9.692    0.000    0.000    0.000    0.000    0.000 
#    0.000    0.000    0.000    0.000    0.000    0.000 
#
# Total GULP energy -322140.758895 kJ/mol
# GULP energy per Si atom -12390.029188 kJ/mol
# Density = 2.079314 g / cm^3
# Si number density = 20.840577 Si / 1000 Ang^3
#
#
#
# Elastic Constant Matrix: (Units=GPa)
#
#
# Indices 1 2 3 4 5 6 
#
# 1 97.4259 35.5207 31.2498 0.0000 14.7852 0.0000
# 2 35.5207 49.6489 50.2645 -0.0002 1.0475 -0.0002
# 3 31.2498 50.2645 101.6353 -0.0011 18.5702 -0.0009
# 4 0.0000 -0.0002 -0.0011 19.8068 -0.0003 -0.4966
# 5 14.7852 1.0475 18.5702 -0.0003 28.4576 -0.0001
# 6 0.0000 -0.0002 -0.0009 -0.4966 -0.0001 5.7045
#
#
#
# Elastic Compliance Matrix: (Units=1/GPa)
#
#
# Indices 1 2 3 4 5 6 
#
# 1 0.016495 -0.017138 0.005512 0.000000 -0.011536 0.000000
# 2 -0.017138 0.062955 -0.030733 -0.000001 0.026642 -0.000002
# 3 0.005512 -0.030733 0.026863 0.000001 -0.019262 0.000003
# 4 0.000000 -0.000001 0.000001 0.050598 0.000000 0.004405
# 5 -0.011536 0.026642 -0.019262 0.000000 0.052723 -0.000001
# 6 0.000000 -0.000002 0.000003 0.004405 -0.000001 0.175685
#
#
# Mechanical properties :
#
#
# Convention : Reuss Voigt Hill
#
# Bulk Modulus (GPa) = 46.30848 53.64220 49.97534
# Shear Modulus (GPa) = 10.47698 19.57212 15.02455
#
# Velocity S-wave (km/s) = 2.24457 3.06786 2.68792
# Velocity P-wave (km/s) = 5.38387 6.19227 5.80217
#
# Compressibility (1/GPa) = 0.02159432
#
# Stress axis : x y z
#
# Youngs Moduli (GPa) = 60.62283 15.88434 37.22554
#
# Poissons Ratio (x) = 0.27223 -0.20518
# Poissons Ratio (y) = 1.03897 1.14406
# Poissons Ratio (z) = -0.33414 0.48818
#
# Static dielectric constant tensor:
#      x y z
#    x 3.658540 0.000000 0.249260 
#    y 0.000000 3.458390 0.000000 
#    z 0.249260 0.000000 4.243790 
# 
# 
# High freq. dielectric constant tensor:
#      x y z
#    x 1.798450 0.000000 0.018850 
#    y 0.000000 1.790660 0.000000 
#    z 0.018850 0.000000 1.825080 
# 
# From -- ./inp_files/239881.got.cif
#   From: 2010.06.25/outbox.cif.g09.slc.cpg/sg15_120_cif.got.tgz:239881.got - 2010.06.28 07:06:18.
