data_PCOD8140184
_publ_section_title
;
Structure prediction by ZEFSAII (Michael W. Deem and Ramdas Pophale) SiO2 
 PCOD8140184
Probable space group: C 2/C
;
_chemical_formula_sum "Si O2"
_cell_formula_units_Z 40
_cell_length_a 12.717177
_cell_length_b 11.339706
_cell_length_c 19.913933
_cell_angle_alpha 90.000000
_cell_angle_beta 143.023944
_cell_angle_gamma 90.000000
_cell_volume 1727.315317
_symmetry_space_group_name_H-M "C 2/C"
_symmetry_group_IT_number 15
_symmetry_cell_setting 'monoclinic'
loop_
_space_group_symop_operation_xyz
x,y,z
-x,y,1/2-z
-x,-y,-z
x,-y,1/2+z
1/2+x,1/2+y,z
1/2-x,1/2+y,1/2-z
1/2-x,1/2-y,-z
1/2+x,1/2-y,1/2+z
loop_
_atom_site_type_symbol
_atom_site_label
_atom_site_fract_x
_atom_site_fract_y
_atom_site_fract_z
Si Si1 0.362232 0.262375 0.947008
Si Si2 0.738959 0.010017 0.946265
Si Si3 0.564984 0.113129 0.151718
Si Si4 0.500000 0.256627 0.250000
Si Si5 0.556882 0.346763 0.655298
Si Si6 0.000000 0.324210 0.250000
O O1 0.311441 0.389480 0.951792
O O2 0.183545 0.178495 0.862092
O O3 0.434302 0.272484 0.908898
O O4 0.513308 0.203188 0.066819
O O5 0.671369 0.094729 0.851694
O O6 0.574332 0.993150 0.913689
O O7 0.892501 0.066574 0.068735
O O8 0.566018 0.175404 0.223666
O O9 0.766574 0.075153 0.242021
O O10 0.536850 0.254590 0.704429
#
# Coordination Sequence:
#
# PCOD8140184 Si02
#       6
#     8   8   8   4   8   4
#     4  10  20  40  68  97 125 160 210 267 319 376
#     4  11  22  42  68  95 125 167 211 262 320 378
#     4  10  21  39  66  99 126 158 211 264 315 379
#     4   8  15  30  57  92 122 150 187 244 313 364
#     4  11  24  41  63  92 129 175 212 255 315 374
#     4  12  25  44  61  88 134 174 213 256 307 386
#
# _framework density 23.157323999999999
#
# number of rings (size 3 to 8) (size 9 to 14) (size 15 to 20)
#    0.000    1.600    0.000    8.400    0.000    1.600 
#    0.000   12.000    0.000    0.000    0.000    0.000 
#    0.000    0.000    0.000    0.000    0.000    0.000 
#
# Total GULP energy -247780.029361 kJ/mol
# GULP energy per Si atom -12389.001468 kJ/mol
# Density = 2.310462 g / cm^3
# Si number density = 23.157324 Si / 1000 Ang^3
#
#
#
# Elastic Constant Matrix: (Units=GPa)
#
#
# Indices 1 2 3 4 5 6 
#
# 1 102.4036 54.3322 63.0071 0.0000 -1.1296 0.0000
# 2 54.3322 61.2894 68.5114 0.0000 -9.9768 0.0000
# 3 63.0071 68.5114 196.8163 0.0002 26.2511 0.0000
# 4 0.0000 0.0000 0.0002 33.1314 0.0000 6.6769
# 5 -1.1296 -9.9768 26.2511 0.0000 36.7592 0.0000
# 6 0.0000 0.0000 0.0000 6.6769 0.0000 26.1388
#
#
#
# Elastic Compliance Matrix: (Units=1/GPa)
#
#
# Indices 1 2 3 4 5 6 
#
# 1 0.019192 -0.019529 0.001418 0.000000 -0.005723 0.000000
# 2 -0.019529 0.057674 -0.017499 0.000000 0.027549 0.000000
# 3 0.001418 -0.017499 0.012540 0.000000 -0.013661 0.000000
# 4 0.000000 0.000000 0.000000 0.031821 0.000000 -0.008128
# 5 -0.005723 0.027549 -0.013661 0.000000 0.044261 0.000000
# 6 0.000000 0.000000 0.000000 -0.008128 0.000000 0.040334
#
#
# Mechanical properties :
#
#
# Convention : Reuss Voigt Hill
#
# Bulk Modulus (GPa) = 54.99057 81.35674 68.17365
# Shear Modulus (GPa) = 17.66136 30.84979 24.25558
#
# Velocity S-wave (km/s) = 2.76464 3.65387 3.23991
# Velocity P-wave (km/s) = 5.83001 7.28076 6.59540
#
# Compressibility (1/GPa) = 0.01818494
#
# Stress axis : x y z
#
# Youngs Moduli (GPa) = 52.10627 17.33895 79.74209
#
# Poissons Ratio (x) = 0.33862 -0.11305
# Poissons Ratio (y) = 1.01760 1.39538
# Poissons Ratio (z) = -0.07387 0.30341
#
# Static dielectric constant tensor:
#      x y z
#    x 4.376070 0.000000 0.417950 
#    y 0.000000 3.768500 0.000000 
#    z 0.417950 0.000000 5.056760 
# 
# 
# High freq. dielectric constant tensor:
#      x y z
#    x 1.915500 0.000000 0.007850 
#    y 0.000000 1.865240 0.000000 
#    z 0.007850 0.000000 1.954690 
# 
# From -- ./inp_files/237386.got.cif
#   From: 2010.06.25/outbox.cif.g09.slc.cpg/sg15_119_cif.got.tgz:237386.got - 2010.06.28 07:06:18.
