data_PCOD8140050
_publ_section_title
;
Structure prediction by ZEFSAII (Michael W. Deem and Ramdas Pophale) SiO2 
 PCOD8140050
Probable space group: C 2/C
;
_chemical_formula_sum "Si O2"
_cell_formula_units_Z 36
_cell_length_a 21.851531
_cell_length_b 8.376026
_cell_length_c 10.214012
_cell_angle_alpha 90.000000
_cell_angle_beta 67.034451
_cell_angle_gamma 90.000000
_cell_volume 1721.286197
_symmetry_space_group_name_H-M "C 2/C"
_symmetry_group_IT_number 15
_symmetry_cell_setting 'monoclinic'
loop_
_space_group_symop_operation_xyz
x,y,z
-x,y,1/2-z
-x,-y,-z
x,-y,1/2+z
1/2+x,1/2+y,z
1/2-x,1/2+y,1/2-z
1/2-x,1/2-y,-z
1/2+x,1/2-y,1/2+z
loop_
_atom_site_type_symbol
_atom_site_label
_atom_site_fract_x
_atom_site_fract_y
_atom_site_fract_z
Si Si1 0.200291 0.029135 0.717500
Si Si2 0.500000 0.662779 0.250000
Si Si3 0.832413 0.638409 0.179052
Si Si4 0.459878 0.967927 0.162926
Si Si5 0.370547 0.590066 0.475220
O O1 0.197242 0.221764 0.702512
O O2 0.275794 0.983503 0.683273
O O3 0.177163 0.940033 0.607288
O O4 0.152742 0.982085 0.881564
O O5 0.447510 0.552715 0.373447
O O6 0.456204 0.775986 0.189852
O O7 0.886481 0.540318 0.215714
O O8 0.864395 0.722169 0.022407
O O9 0.500000 0.050108 0.250000
O O10 0.500000 0.000000 0.000000
#
# Coordination Sequence:
#
# PCOD8140050 Si02
#       5
#     8   4   8   8   8
#     4  10  24  41  67  96 133 170 216 270 326 392
#     4  10  22  40  72  90 136 168 214 274 318 386
#     4  10  22  42  66  98 128 170 221 263 327 383
#     4  10  20  40  65  95 122 172 219 260 316 383
#     4  10  23  44  63 100 131 175 214 267 336 374
#
# _framework density 20.914591999999999
#
# number of rings (size 3 to 8) (size 9 to 14) (size 15 to 20)
#    2.000    0.000    2.222    0.667    3.111    3.556 
#    6.000    0.000    0.000    0.000    0.000    0.000 
#    0.000    0.000    0.000    0.000    0.000    0.000 
#
# Total GULP energy -223022.096079 kJ/mol
# GULP energy per Si atom -12390.116449 kJ/mol
# Density = 2.086699 g / cm^3
# Si number density = 20.914592 Si / 1000 Ang^3
#
#
#
# Elastic Constant Matrix: (Units=GPa)
#
#
# Indices 1 2 3 4 5 6 
#
# 1 126.2057 36.0126 17.0936 0.0000 17.0587 0.0000
# 2 36.0126 32.2748 -0.3356 0.0000 8.2444 0.0000
# 3 17.0936 -0.3356 92.1400 0.0000 15.8969 0.0000
# 4 0.0000 0.0000 0.0000 18.1176 0.0000 -12.6105
# 5 17.0587 8.2444 15.8969 0.0000 39.4888 0.0000
# 6 0.0000 0.0000 0.0000 -12.6105 0.0000 22.5278
#
#
#
# Elastic Compliance Matrix: (Units=1/GPa)
#
#
# Indices 1 2 3 4 5 6 
#
# 1 0.012190 -0.013188 -0.002016 0.000000 -0.001701 0.000000
# 2 -0.013188 0.047165 0.003583 0.000000 -0.005592 0.000000
# 3 -0.002016 0.003583 0.012056 0.000000 -0.004731 0.000000
# 4 0.000000 0.000000 0.000000 0.090428 0.000000 0.050619
# 5 -0.001701 -0.005592 -0.004731 0.000000 0.029130 0.000000
# 6 0.000000 0.000000 0.000000 0.050619 0.000000 0.072725
#
#
# Mechanical properties :
#
#
# Convention : Reuss Voigt Hill
#
# Bulk Modulus (GPa) = 20.75998 39.57352 30.16675
# Shear Modulus (GPa) = 16.50208 29.21683 22.85945
#
# Velocity S-wave (km/s) = 2.81200 3.74165 3.30963
# Velocity P-wave (km/s) = 4.52667 6.13426 5.39073
#
# Compressibility (1/GPa) = 0.04816961
#
# Stress axis : x y z
#
# Youngs Moduli (GPa) = 82.03683 21.20222 82.94438
#
# Poissons Ratio (x) = 0.27961 0.16721
# Poissons Ratio (y) = 1.08189 -0.29721
# Poissons Ratio (z) = 0.16538 -0.07597
#
# Static dielectric constant tensor:
#      x y z
#    x 3.578420 0.000000 -0.000380 
#    y 0.000000 3.466630 0.000000 
#    z -0.000380 0.000000 3.744490 
# 
# 
# High freq. dielectric constant tensor:
#      x y z
#    x 1.820850 0.000000 -0.005530 
#    y 0.000000 1.785870 0.000000 
#    z -0.005530 0.000000 1.822770 
# 
# From -- ./inp_files/109300.got.cif
#   From: 2010.06.25/outbox.cif.g09.slc.cpg/sg15_55_cif.got.tgz:109300.got - 2010.06.28 07:06:18.
