data_PCOD8140501
_publ_section_title
;
Structure prediction by ZEFSAII (Michael W. Deem and Ramdas Pophale) SiO2 
 PCOD8140501
Probable space group: C 2/C
;
_chemical_formula_sum "Si O2"
_cell_formula_units_Z 48
_cell_length_a 14.198449
_cell_length_b 11.817255
_cell_length_c 21.900330
_cell_angle_alpha 90.000000
_cell_angle_beta 141.755638
_cell_angle_gamma 90.000000
_cell_volume 2274.628710
_symmetry_space_group_name_H-M "C 2/C"
_symmetry_group_IT_number 15
_symmetry_cell_setting 'monoclinic'
loop_
_space_group_symop_operation_xyz
x,y,z
-x,y,1/2-z
-x,-y,-z
x,-y,1/2+z
1/2+x,1/2+y,z
1/2-x,1/2+y,1/2-z
1/2-x,1/2-y,-z
1/2+x,1/2-y,1/2+z
loop_
_atom_site_type_symbol
_atom_site_label
_atom_site_fract_x
_atom_site_fract_y
_atom_site_fract_z
Si Si1 0.257733 0.510364 0.502377
Si Si2 0.549001 0.611924 0.705974
Si Si3 0.322092 0.918013 0.270716
Si Si4 0.388472 0.195770 0.533519
Si Si5 0.994922 0.633622 0.319508
Si Si6 0.126208 0.098216 0.554190
O O1 0.428816 0.543620 0.604473
O O2 0.179259 0.430938 0.515313
O O3 0.256665 0.442681 0.437747
O O4 0.156242 0.620104 0.436436
O O5 0.500000 0.594631 0.750000
O O6 0.718459 0.567366 0.778843
O O7 0.557458 0.741785 0.690373
O O8 0.457425 0.826902 0.348891
O O9 0.215731 0.874922 0.161616
O O10 0.377596 0.043867 0.286169
O O11 0.250000 0.250000 0.500000
O O12 0.436055 0.277812 0.501070
O O13 0.000000 0.615984 0.250000
O O14 0.000000 0.000000 0.500000
#
# Coordination Sequence:
#
# PCOD8140501 Si02
#       6
#     8   8   8   8   8   8
#     4  10  20  42  61  94 129 172 223 276 340 408
#     4  11  25  42  62  95 136 181 222 282 348 408
#     4  11  23  42  69  99 130 180 233 281 346 411
#     4   9  23  40  63 100 138 169 220 286 346 408
#     4  10  21  39  68  92 125 170 225 280 336 416
#     4  11  21  39  70 100 132 172 231 281 339 418
#
# _framework density 21.102345
#
# number of rings (size 3 to 8) (size 9 to 14) (size 15 to 20)
#    0.000    1.667    3.333    0.500    2.333    0.000 
#   12.000    1.667    0.000    0.000    0.000    0.000 
#    0.000    0.000    0.000    0.000    0.000    0.000 
#
# Total GULP energy -297319.373216 kJ/mol
# GULP energy per Si atom -12388.307217 kJ/mol
# Density = 2.105432 g / cm^3
# Si number density = 21.102345 Si / 1000 Ang^3
#
#
#
# Elastic Constant Matrix: (Units=GPa)
#
#
# Indices 1 2 3 4 5 6 
#
# 1 107.8043 48.5517 42.3428 0.0000 14.9428 0.0000
# 2 48.5517 102.8064 47.1465 0.0000 3.7848 0.0000
# 3 42.3428 47.1465 118.3776 0.0000 22.2664 0.0000
# 4 0.0000 0.0000 0.0000 34.1975 0.0000 2.8565
# 5 14.9428 3.7848 22.2664 0.0000 30.8488 0.0000
# 6 0.0000 0.0000 0.0000 2.8565 0.0000 32.7268
#
#
#
# Elastic Compliance Matrix: (Units=1/GPa)
#
#
# Indices 1 2 3 4 5 6 
#
# 1 0.012869 -0.005116 -0.001749 0.000000 -0.004344 0.000000
# 2 -0.005116 0.014073 -0.004532 0.000000 0.004022 0.000000
# 3 -0.001749 -0.004532 0.012281 0.000000 -0.007462 0.000000
# 4 0.000000 0.000000 0.000000 0.029457 0.000000 -0.002571
# 5 -0.004344 0.004022 -0.007462 0.000000 0.039412 0.000000
# 6 0.000000 0.000000 0.000000 -0.002571 0.000000 0.030780
#
#
# Mechanical properties :
#
#
# Convention : Reuss Voigt Hill
#
# Bulk Modulus (GPa) = 60.85906 67.23003 64.04455
# Shear Modulus (GPa) = 29.91469 32.28443 31.09956
#
# Velocity S-wave (km/s) = 3.76919 3.91563 3.84311
# Velocity P-wave (km/s) = 6.91700 7.23679 7.07870
#
# Compressibility (1/GPa) = 0.01643141
#
# Stress axis : x y z
#
# Youngs Moduli (GPa) = 77.70654 71.05767 81.42438
#
# Poissons Ratio (x) = 0.36351 0.14238
# Poissons Ratio (y) = 0.39752 0.36899
# Poissons Ratio (z) = 0.13588 0.32201
#
# Static dielectric constant tensor:
#      x y z
#    x 3.954260 0.000000 0.092330 
#    y 0.000000 4.221820 0.000000 
#    z 0.092330 0.000000 3.883180 
# 
# 
# High freq. dielectric constant tensor:
#      x y z
#    x 1.824380 0.000000 0.013870 
#    y 0.000000 1.834190 0.000000 
#    z 0.013870 0.000000 1.819670 
# 
# From -- ./inp_files/152163.got.cif
#   From: 2010.06.25/outbox.cif.g09.slc.cpg/sg15_77_cif.got.tgz:152163.got - 2010.06.28 07:06:18.
