data_PCOD8140994
_publ_section_title
;
Structure prediction by ZEFSAII (Michael W. Deem and Ramdas Pophale) SiO2 
 PCOD8140994
Probable space group: C 2/C
;
_chemical_formula_sum "Si O2"
_cell_formula_units_Z 44
_cell_length_a 12.502679
_cell_length_b 21.881184
_cell_length_c 9.727533
_cell_angle_alpha 90.000000
_cell_angle_beta 124.088030
_cell_angle_gamma 90.000000
_cell_volume 2203.941230
_symmetry_space_group_name_H-M "C 2/C"
_symmetry_group_IT_number 15
_symmetry_cell_setting 'monoclinic'
loop_
_space_group_symop_operation_xyz
x,y,z
-x,y,1/2-z
-x,-y,-z
x,-y,1/2+z
1/2+x,1/2+y,z
1/2-x,1/2+y,1/2-z
1/2-x,1/2-y,-z
1/2+x,1/2-y,1/2+z
loop_
_atom_site_type_symbol
_atom_site_label
_atom_site_fract_x
_atom_site_fract_y
_atom_site_fract_z
Si Si1 0.363127 0.958410 0.592029
Si Si2 0.119991 0.123554 0.588343
Si Si3 0.500000 0.413676 0.750000
Si Si4 0.185129 0.668616 0.569154
Si Si5 0.082188 0.210671 0.935356
Si Si6 0.700716 0.509047 0.235846
O O1 0.500000 0.982481 0.750000
O O2 0.386299 0.892168 0.537507
O O3 0.308503 0.003672 0.434429
O O4 0.262158 0.959319 0.645682
O O5 0.107071 0.124915 0.413033
O O6 0.243820 0.160079 0.732968
O O7 0.136208 0.055817 0.658404
O O8 0.987397 0.154379 0.542057
O O9 0.421755 0.451872 0.805721
O O10 0.094064 0.727107 0.534130
O O11 0.280594 0.685073 0.513350
O O12 0.000000 0.234768 0.750000
#
# Coordination Sequence:
#
# PCOD8140994 Si02
#       6
#     8   8   4   8   8   8
#     4  11  22  38  58  87 127 161 202 247 312 378
#     4  10  21  34  56  86 119 155 203 256 303 360
#     4  12  22  36  60  88 126 162 204 252 318 360
#     4   9  19  33  56  84 113 153 204 251 298 354
#     4   9  17  33  57  83 113 149 202 259 297 345
#     4  11  23  37  59  91 125 163 204 250 310 369
#
# _framework density 19.964233
#
# number of rings (size 3 to 8) (size 9 to 14) (size 15 to 20)
#    0.000    1.818    1.818    2.727    6.364    0.000 
#    0.000    0.909    0.000    0.000    0.000    0.000 
#    0.000    0.000    0.000    0.000    0.000    0.000 
#
# Total GULP energy -272585.521665 kJ/mol
# GULP energy per Si atom -12390.250985 kJ/mol
# Density = 1.991879 g / cm^3
# Si number density = 19.964233 Si / 1000 Ang^3
#
#
#
# Elastic Constant Matrix: (Units=GPa)
#
#
# Indices 1 2 3 4 5 6 
#
# 1 57.6254 19.3338 14.6596 0.0000 -0.2234 0.0000
# 2 19.3338 77.1977 37.4384 0.0000 3.1493 0.0000
# 3 14.6596 37.4384 141.0022 0.0000 -4.4290 0.0000
# 4 0.0000 0.0000 0.0000 25.5485 0.0000 5.9275
# 5 -0.2234 3.1493 -4.4290 0.0000 25.1204 0.0000
# 6 0.0000 0.0000 0.0000 5.9275 0.0000 12.1850
#
#
#
# Elastic Compliance Matrix: (Units=1/GPa)
#
#
# Indices 1 2 3 4 5 6 
#
# 1 0.019036 -0.004408 -0.000790 0.000000 0.000583 0.000000
# 2 -0.004408 0.016056 -0.003891 0.000000 -0.002738 0.000000
# 3 -0.000790 -0.003891 0.008268 0.000000 0.001939 0.000000
# 4 0.000000 0.000000 0.000000 0.044121 0.000000 -0.021463
# 5 0.000583 -0.002738 0.001939 0.000000 0.040499 0.000000
# 6 0.000000 0.000000 0.000000 -0.021463 0.000000 0.092509
#
#
# Mechanical properties :
#
#
# Convention : Reuss Voigt Hill
#
# Bulk Modulus (GPa) = 39.71114 46.52099 43.11606
# Shear Modulus (GPa) = 20.23791 26.19700 23.21746
#
# Velocity S-wave (km/s) = 3.18733 3.62636 3.41391
# Velocity P-wave (km/s) = 5.78617 6.39427 6.09781
#
# Compressibility (1/GPa) = 0.02518185
#
# Stress axis : x y z
#
# Youngs Moduli (GPa) = 52.53293 62.28055 120.94422
#
# Poissons Ratio (x) = 0.27452 0.09560
# Poissons Ratio (y) = 0.23156 0.47059
# Poissons Ratio (z) = 0.04152 0.24233
#
# Static dielectric constant tensor:
#      x y z
#    x 3.386910 0.000000 0.029620 
#    y 0.000000 3.733120 0.000000 
#    z 0.029620 0.000000 4.068370 
# 
# 
# High freq. dielectric constant tensor:
#      x y z
#    x 1.740570 0.000000 0.017570 
#    y 0.000000 1.772830 0.000000 
#    z 0.017570 0.000000 1.799980 
# 
# From -- ./inp_files/32752.got.cif
#   From: 2010.06.25/outbox.cif.g09.slc.cpg/sg15_17_cif.got.tgz:32752.got - 2010.06.28 07:06:18.
