data_PCOD8140969
_publ_section_title
;
Structure prediction by ZEFSAII (Michael W. Deem and Ramdas Pophale) SiO2 
 PCOD8140969
Probable space group: C 2/C
;
_chemical_formula_sum "Si O2"
_cell_formula_units_Z 56
_cell_length_a 14.206673
_cell_length_b 25.929219
_cell_length_c 8.877146
_cell_angle_alpha 90.000000
_cell_angle_beta 63.811876
_cell_angle_gamma 90.000000
_cell_volume 2934.384256
_symmetry_space_group_name_H-M "C 2/C"
_symmetry_group_IT_number 15
_symmetry_cell_setting 'monoclinic'
loop_
_space_group_symop_operation_xyz
x,y,z
-x,y,1/2-z
-x,-y,-z
x,-y,1/2+z
1/2+x,1/2+y,z
1/2-x,1/2+y,1/2-z
1/2-x,1/2-y,-z
1/2+x,1/2-y,1/2+z
loop_
_atom_site_type_symbol
_atom_site_label
_atom_site_fract_x
_atom_site_fract_y
_atom_site_fract_z
Si Si1 0.644282 0.495181 0.652759
Si Si2 0.334082 0.329054 0.580648
Si Si3 0.027941 0.728768 0.058658
Si Si4 0.775702 0.667253 0.651939
Si Si5 0.197325 0.737574 0.378906
Si Si6 0.953137 0.068410 0.024883
Si Si7 0.304008 0.568490 0.650338
O O1 0.592159 0.538562 0.585779
O O2 0.555886 0.467639 0.820651
O O3 0.725993 0.523989 0.707109
O O4 0.710346 0.453346 0.509064
O O5 0.416468 0.284084 0.487057
O O6 0.269445 0.346084 0.479599
O O7 0.253958 0.311936 0.767351
O O8 0.393618 0.378682 0.600089
O O9 0.000000 0.715888 0.250000
O O10 0.926809 0.727026 0.020539
O O11 0.103341 0.683865 0.943181
O O12 0.706716 0.714170 0.761473
O O13 0.767000 0.618681 0.771298
O O14 0.250000 0.750000 0.500000
O O15 0.073710 0.082300 0.910264
#
# Coordination Sequence:
#
# PCOD8140969 Si02
#       7
#     8   8   8   8   8   8   8
#     4  10  21  34  52  79 117 158 190 241 296 350
#     4  11  22  35  58  87 113 158 196 226 292 353
#     4  11  20  40  62  81 117 155 196 240 282 353
#     4  11  22  36  59  87 114 157 196 228 293 353
#     4  11  24  40  59  87 120 147 195 247 288 341
#     4  11  20  33  53  81 118 153 193 233 295 350
#     4  11  20  34  53  83 118 151 194 239 291 353
#
# _framework density 19.084071000000002
#
# number of rings (size 3 to 8) (size 9 to 14) (size 15 to 20)
#    0.000    1.143    4.286    5.143    2.000    2.286 
#    2.571    0.000    0.000    0.000    0.000   11.000 
#    0.000    0.000    0.000    0.000    0.000    0.000 
#
# Total GULP energy -347208.408648 kJ/mol
# GULP energy per Si atom -12400.300309 kJ/mol
# Density = 1.904063 g / cm^3
# Si number density = 19.084071 Si / 1000 Ang^3
#
#
#
# Elastic Constant Matrix: (Units=GPa)
#
#
# Indices 1 2 3 4 5 6 
#
# 1 84.8728 20.2226 29.5569 0.0000 -10.7067 0.0000
# 2 20.2226 100.3283 40.0872 0.0000 -18.5870 0.0000
# 3 29.5569 40.0872 93.1959 0.0000 -2.9494 0.0000
# 4 0.0000 0.0000 0.0000 37.6005 0.0000 -8.3399
# 5 -10.7067 -18.5870 -2.9494 0.0000 32.0956 0.0000
# 6 0.0000 0.0000 0.0000 -8.3399 0.0000 15.2461
#
#
#
# Elastic Compliance Matrix: (Units=1/GPa)
#
#
# Indices 1 2 3 4 5 6 
#
# 1 0.013803 -0.000416 -0.004072 0.000000 0.003989 0.000000
# 2 -0.000416 0.013579 -0.005480 0.000000 0.007221 0.000000
# 3 -0.004072 -0.005480 0.014277 0.000000 -0.003220 0.000000
# 4 0.000000 0.000000 0.000000 0.030268 0.000000 0.016557
# 5 0.003989 0.007221 -0.003220 0.000000 0.036374 0.000000
# 6 0.000000 0.000000 0.000000 0.016557 0.000000 0.074648
#
#
# Mechanical properties :
#
#
# Convention : Reuss Voigt Hill
#
# Bulk Modulus (GPa) = 46.03762 50.90338 48.47050
# Shear Modulus (GPa) = 23.79532 29.55713 26.67622
#
# Velocity S-wave (km/s) = 3.53493 3.93973 3.74281
# Velocity P-wave (km/s) = 6.39038 6.88669 6.64317
#
# Compressibility (1/GPa) = 0.02172137
#
# Stress axis : x y z
#
# Youngs Moduli (GPa) = 72.44846 73.64519 70.04263
#
# Poissons Ratio (x) = 0.03063 0.28524
# Poissons Ratio (y) = 0.03013 0.38385
# Poissons Ratio (z) = 0.29504 0.40360
#
# Static dielectric constant tensor:
#      x y z
#    x 3.236180 0.000000 0.085890 
#    y 0.000000 3.587960 0.000000 
#    z 0.085890 0.000000 3.764260 
# 
# 
# High freq. dielectric constant tensor:
#      x y z
#    x 1.707180 0.000000 0.016740 
#    y 0.000000 1.741950 0.000000 
#    z 0.016740 0.000000 1.753330 
# 
# From -- ./inp_files/43441.got.cif
#   From: 2010.06.25/outbox.cif.g09.slc.cpg/sg15_22_cif.got.tgz:43441.got - 2010.06.28 07:06:18.
