data_PCOD8140907
_publ_section_title
;
Structure prediction by ZEFSAII (Michael W. Deem and Ramdas Pophale) SiO2 
 PCOD8140907
Probable space group: C 2/C
;
_chemical_formula_sum "Si O2"
_cell_formula_units_Z 56
_cell_length_a 14.574149
_cell_length_b 25.928758
_cell_length_c 8.953868
_cell_angle_alpha 90.000000
_cell_angle_beta 67.346984
_cell_angle_gamma 90.000000
_cell_volume 3122.545069
_symmetry_space_group_name_H-M "C 2/C"
_symmetry_group_IT_number 15
_symmetry_cell_setting 'monoclinic'
loop_
_space_group_symop_operation_xyz
x,y,z
-x,y,1/2-z
-x,-y,-z
x,-y,1/2+z
1/2+x,1/2+y,z
1/2-x,1/2+y,1/2-z
1/2-x,1/2-y,-z
1/2+x,1/2-y,1/2+z
loop_
_atom_site_type_symbol
_atom_site_label
_atom_site_fract_x
_atom_site_fract_y
_atom_site_fract_z
Si Si1 0.948410 0.568636 0.034219
Si Si2 0.754069 0.327900 0.293937
Si Si3 0.863963 0.497755 0.834812
Si Si4 0.859178 0.775052 0.706591
Si Si5 0.176095 0.332490 0.911678
Si Si6 0.572240 0.728931 0.997986
Si Si7 0.177294 0.570863 0.881225
O O1 0.945172 0.530536 0.178057
O O2 0.874516 0.615734 0.115194
O O3 0.917184 0.539007 0.905856
O O4 0.061184 0.586845 0.942228
O O5 0.811784 0.279331 0.186664
O O6 0.798653 0.339575 0.429419
O O7 0.637284 0.313986 0.372476
O O8 0.761351 0.376760 0.179201
O O9 0.792245 0.529945 0.767900
O O10 0.801300 0.456031 0.971551
O O11 0.776631 0.820590 0.752802
O O12 0.956171 0.785204 0.542850
O O13 0.896806 0.771154 0.850377
O O14 0.098101 0.286597 0.927420
#
# Coordination Sequence:
#
# PCOD8140907 Si02
#       7
#     8   8   8   8   8   8   8
#     4  11  18  29  43  63  90 117 143 175 214 257
#     4   9  16  24  41  66  88 114 144 173 216 256
#     4  10  21  30  42  62  89 118 147 176 212 258
#     4   8  14  25  39  62  91 114 142 179 210 251
#     4   9  16  24  41  66  88 114 144 173 216 256
#     4   8  14  25  39  62  91 114 142 179 210 251
#     4  11  18  29  43  63  90 117 143 175 214 257
#
# _framework density 17.934089
#
# number of rings (size 3 to 8) (size 9 to 14) (size 15 to 20)
#    0.000    2.571    1.429    6.000    0.000    1.143 
#    0.000    0.000    0.000    3.429    0.000    9.000 
#    0.000    0.000    0.000    0.000    0.000    0.000 
#
# Total GULP energy -346957.284123 kJ/mol
# GULP energy per Si atom -12391.331576 kJ/mol
# Density = 1.789327 g / cm^3
# Si number density = 17.934089 Si / 1000 Ang^3
#
#
#
# Elastic Constant Matrix: (Units=GPa)
#
#
# Indices 1 2 3 4 5 6 
#
# 1 40.1927 27.2067 28.9889 0.0000 -26.1821 0.0000
# 2 27.2067 107.0905 44.5891 0.0000 -22.1794 0.0000
# 3 28.9889 44.5891 82.1131 0.0000 -16.9123 0.0000
# 4 0.0000 0.0000 0.0000 24.0717 0.0000 -19.7252
# 5 -26.1821 -22.1794 -16.9123 0.0000 34.6740 0.0000
# 6 0.0000 0.0000 0.0000 -19.7252 0.0000 -1.1458
#
#
#
# Elastic Compliance Matrix: (Units=1/GPa)
#
#
# Indices 1 2 3 4 5 6 
#
# 1 0.059730 -0.002347 -0.012042 0.000000 0.037727 0.000000
# 2 -0.002347 0.013002 -0.005429 0.000000 0.003896 0.000000
# 3 -0.012042 -0.005429 0.018665 0.000000 -0.003462 0.000000
# 4 0.000000 0.000000 0.000000 0.002750 0.000000 -0.047341
# 5 0.037727 0.003896 -0.003462 0.000000 0.058131 0.000000
# 6 0.000000 0.000000 0.000000 -0.047341 0.000000 -0.057772
#
#
# Mechanical properties :
#
#
# Convention : Reuss Voigt Hill
#
# Bulk Modulus (GPa) = 19.31994 47.88506 33.60250
# Shear Modulus (GPa) = 33.02624 20.09408 26.56016
#
# Velocity S-wave (km/s) = 4.29597 3.35093 3.85253
# Velocity P-wave (km/s) = 5.95006 6.45989 6.21021
#
# Compressibility (1/GPa) = 0.05175999
#
# Stress axis : x y z
#
# Youngs Moduli (GPa) = 16.74202 76.91351 53.57718
#
# Poissons Ratio (x) = 0.18053 0.64517
# Poissons Ratio (y) = 0.03930 0.29087
# Poissons Ratio (z) = 0.20161 0.41757
#
# Static dielectric constant tensor:
#      x y z
#    x 3.116950 0.000000 -0.297330 
#    y 0.000000 3.352330 0.000000 
#    z -0.297330 0.000000 3.512580 
# 
# 
# High freq. dielectric constant tensor:
#      x y z
#    x 1.643200 0.000000 -0.006250 
#    y 0.000000 1.692970 0.000000 
#    z -0.006250 0.000000 1.684970 
# 
# From -- ./inp_files/43133.got.cif
#   From: 2010.06.25/outbox.cif.g09.slc.cpg/sg15_22_cif.got.tgz:43133.got - 2010.06.28 07:06:18.
