data_PCOD8140060
_publ_section_title
;
Structure prediction by ZEFSAII (Michael W. Deem and Ramdas Pophale) SiO2 
 PCOD8140060
Probable space group: C 2/C
;
_chemical_formula_sum "Si O2"
_cell_formula_units_Z 48
_cell_length_a 12.305377
_cell_length_b 25.265520
_cell_length_c 14.187415
_cell_angle_alpha 90.000000
_cell_angle_beta 149.168046
_cell_angle_gamma 90.000000
_cell_volume 2260.678505
_symmetry_space_group_name_H-M "C 2/C"
_symmetry_group_IT_number 15
_symmetry_cell_setting 'monoclinic'
loop_
_space_group_symop_operation_xyz
x,y,z
-x,y,1/2-z
-x,-y,-z
x,-y,1/2+z
1/2+x,1/2+y,z
1/2-x,1/2+y,1/2-z
1/2-x,1/2-y,-z
1/2+x,1/2-y,1/2+z
loop_
_atom_site_type_symbol
_atom_site_label
_atom_site_fract_x
_atom_site_fract_y
_atom_site_fract_z
Si Si1 0.831484 0.524573 0.760930
Si Si2 0.959692 0.998334 0.620239
Si Si3 0.121863 0.574496 0.428267
Si Si4 0.016838 0.626290 0.533033
Si Si5 0.909618 0.178576 0.281501
Si Si6 0.323604 0.200914 0.696062
O O1 0.683570 0.510720 0.739281
O O2 0.691168 0.535166 0.562160
O O3 0.965498 0.576931 0.882282
O O4 0.990402 0.476602 0.864955
O O5 0.851572 0.054916 0.565103
O O6 0.000000 0.967802 0.750000
O O7 0.141682 0.615956 0.528433
O O8 0.000000 0.601899 0.250000
O O9 0.117446 0.677121 0.658704
O O10 0.771564 0.636997 0.323224
O O11 0.804802 0.236151 0.190120
O O12 0.000000 0.158809 0.250000
O O13 0.094786 0.178294 0.496628
O O14 0.500000 0.185269 0.750000
#
# Coordination Sequence:
#
# PCOD8140060 Si02
#       6
#     8   8   8   8   8   8
#     4  10  23  41  60  97 125 170 228 259 318 389
#     4  10  20  40  66  81 130 181 206 267 323 368
#     4  10  23  44  62  86 130 173 212 271 321 374
#     4  12  23  39  65  97 130 165 225 258 315 404
#     4  11  21  42  64  93 137 173 206 268 334 387
#     4  11  21  40  65  94 133 175 210 262 338 389
#
# _framework density 21.232564
#
# number of rings (size 3 to 8) (size 9 to 14) (size 15 to 20)
#    0.000    1.333    5.000    1.500    0.000    6.000 
#    3.000    0.000    0.000    1.000    0.000    0.000 
#    0.000    0.000    0.000    0.000    0.000    0.000 
#
# Total GULP energy -297618.173326 kJ/mol
# GULP energy per Si atom -12400.757222 kJ/mol
# Density = 2.118424 g / cm^3
# Si number density = 21.232564 Si / 1000 Ang^3
#
#
#
# Elastic Constant Matrix: (Units=GPa)
#
#
# Indices 1 2 3 4 5 6 
#
# 1 87.2370 21.8298 20.7915 -0.0004 -24.5729 -0.0001
# 2 21.8298 51.4541 20.2880 -0.0001 -2.6116 0.0000
# 3 20.7915 20.2880 124.8151 -0.0007 -11.5616 -0.0002
# 4 -0.0004 -0.0001 -0.0007 22.7557 -0.0004 7.5236
# 5 -24.5729 -2.6116 -11.5616 -0.0004 36.5365 0.0000
# 6 -0.0001 0.0000 -0.0002 7.5236 0.0000 22.3496
#
#
#
# Elastic Compliance Matrix: (Units=1/GPa)
#
#
# Indices 1 2 3 4 5 6 
#
# 1 0.015976 -0.005968 -0.000758 0.000000 0.010078 0.000000
# 2 -0.005968 0.023001 -0.003054 0.000000 -0.003336 0.000000
# 3 -0.000758 -0.003054 0.008826 0.000000 0.002065 0.000000
# 4 0.000000 0.000000 0.000000 0.049449 0.000001 -0.016646
# 5 0.010078 -0.003336 0.002065 0.000001 0.034563 0.000000
# 6 0.000000 0.000000 0.000000 -0.016646 0.000000 0.050347
#
#
# Mechanical properties :
#
#
# Convention : Reuss Voigt Hill
#
# Bulk Modulus (GPa) = 35.40451 43.25832 39.33142
# Shear Modulus (GPa) = 23.68162 29.70148 26.69155
#
# Velocity S-wave (km/s) = 3.34330 3.74420 3.54941
# Velocity P-wave (km/s) = 5.62267 6.25378 5.94660
#
# Compressibility (1/GPa) = 0.02824499
#
# Stress axis : x y z
#
# Youngs Moduli (GPa) = 62.59488 43.47578 113.30549
#
# Poissons Ratio (x) = 0.25944 0.08585
# Poissons Ratio (y) = 0.37354 0.34600
# Poissons Ratio (z) = 0.04743 0.13276
#
# Static dielectric constant tensor:
#      x y z
#    x 4.090690 0.000000 -0.223490 
#    y 0.000000 3.487270 0.000000 
#    z -0.223490 0.000000 4.233280 
# 
# 
# High freq. dielectric constant tensor:
#      x y z
#    x 1.822450 0.000000 -0.011040 
#    y 0.000000 1.793000 0.000000 
#    z -0.011040 0.000000 1.863480 
# 
# From -- ./inp_files/148850.got.cif
#   From: 2010.06.25/outbox.cif.g09.slc.cpg/sg15_75_cif.got.tgz:148850.got - 2010.06.28 07:06:18.
