data_PCOD8140039
_publ_section_title
;
Structure prediction by ZEFSAII (Michael W. Deem and Ramdas Pophale) SiO2 
 PCOD8140039
Probable space group: C 2/C
;
_chemical_formula_sum "Si O2"
_cell_formula_units_Z 64
_cell_length_a 15.466605
_cell_length_b 11.908138
_cell_length_c 18.312651
_cell_angle_alpha 90.000000
_cell_angle_beta 77.928535
_cell_angle_gamma 90.000000
_cell_volume 3298.215071
_symmetry_space_group_name_H-M "C 2/C"
_symmetry_group_IT_number 15
_symmetry_cell_setting 'monoclinic'
loop_
_space_group_symop_operation_xyz
x,y,z
-x,y,1/2-z
-x,-y,-z
x,-y,1/2+z
1/2+x,1/2+y,z
1/2-x,1/2+y,1/2-z
1/2-x,1/2-y,-z
1/2+x,1/2-y,1/2+z
loop_
_atom_site_type_symbol
_atom_site_label
_atom_site_fract_x
_atom_site_fract_y
_atom_site_fract_z
Si Si1 0.743619 0.543334 0.344903
Si Si2 0.674801 0.158800 0.424695
Si Si3 0.796010 0.995674 0.815673
Si Si4 0.459077 0.271750 0.146819
Si Si5 0.858727 0.758587 0.314523
Si Si6 0.951432 0.167548 0.331365
Si Si7 0.053534 0.012882 0.416192
Si Si8 0.821554 0.344399 0.408924
O O1 0.714710 0.512154 0.268712
O O2 0.784072 0.666588 0.341616
O O3 0.657558 0.534931 0.412857
O O4 0.816164 0.455062 0.360366
O O5 0.578004 0.196562 0.413347
O O6 0.736237 0.268444 0.407434
O O7 0.670863 0.118365 0.508512
O O8 0.709937 0.054617 0.370767
O O9 0.810506 0.123451 0.837604
O O10 0.881205 0.927949 0.825969
O O11 0.394581 0.250300 0.226203
O O12 0.559935 0.237228 0.144684
O O13 0.458628 0.403243 0.130580
O O14 0.909588 0.278685 0.372497
O O15 0.000000 0.206385 0.250000
O O16 0.019394 0.120618 0.378531
O O17 0.000000 0.000000 0.500000
#
# Coordination Sequence:
#
# PCOD8140039 Si02
#       8
#     8   8   8   8   8   8   8   8
#     4  12  24  41  62  96 130 167 213 265 323 386
#     4  10  20  40  65  92 124 172 203 263 319 390
#     4  11  21  37  64  93 127 164 217 260 322 371
#     4  11  20  40  64  93 126 168 217 251 324 384
#     4  11  23  39  64  97 125 164 216 271 309 388
#     4  11  21  39  62  97 124 164 214 272 309 375
#     4  12  24  39  66  97 129 164 215 273 322 375
#     4  10  23  38  63  96 130 158 212 259 329 379
#
# _framework density 19.404433999999998
#
# number of rings (size 3 to 8) (size 9 to 14) (size 15 to 20)
#    0.000    1.000    6.250    0.750    5.250    0.000 
#    2.250    4.375    0.000    0.000    0.000    0.000 
#    0.000    0.000    0.000    0.000    0.000    0.000 
#
# Total GULP energy -396947.765605 kJ/mol
# GULP energy per Si atom -12404.617675 kJ/mol
# Density = 1.936027 g / cm^3
# Si number density = 19.404434 Si / 1000 Ang^3
#
#
#
# Elastic Constant Matrix: (Units=GPa)
#
#
# Indices 1 2 3 4 5 6 
#
# 1 86.0141 40.7166 34.7295 0.0000 1.5744 0.0000
# 2 40.7166 97.9671 34.8067 0.0000 -4.7642 0.0000
# 3 34.7295 34.8067 80.2536 0.0000 -7.4993 0.0000
# 4 0.0000 0.0000 0.0000 22.3903 0.0000 -3.1682
# 5 1.5744 -4.7642 -7.4993 0.0000 33.3930 0.0000
# 6 0.0000 0.0000 0.0000 -3.1682 0.0000 26.9606
#
#
#
# Elastic Compliance Matrix: (Units=1/GPa)
#
#
# Indices 1 2 3 4 5 6 
#
# 1 0.016080 -0.005025 -0.005022 0.000000 -0.002603 0.000000
# 2 -0.005025 0.013648 -0.003616 0.000000 0.001372 0.000000
# 3 -0.005022 -0.003616 0.016523 0.000000 0.003432 0.000000
# 4 0.000000 0.000000 0.000000 0.045417 0.000000 0.005337
# 5 -0.002603 0.001372 0.003432 0.000000 0.031036 0.000000
# 6 0.000000 0.000000 0.000000 0.005337 0.000000 0.037718
#
#
# Mechanical properties :
#
#
# Convention : Reuss Voigt Hill
#
# Bulk Modulus (GPa) = 52.84576 53.86005 53.35291
# Shear Modulus (GPa) = 25.76550 26.81425 26.28987
#
# Velocity S-wave (km/s) = 3.64787 3.72137 3.68481
# Velocity P-wave (km/s) = 6.71086 6.80306 6.75712
#
# Compressibility (1/GPa) = 0.01892299
#
# Stress axis : x y z
#
# Youngs Moduli (GPa) = 62.18742 73.27263 60.52183
#
# Poissons Ratio (x) = 0.36823 0.30397
# Poissons Ratio (y) = 0.31252 0.21886
# Poissons Ratio (z) = 0.31233 0.26497
#
# Static dielectric constant tensor:
#      x y z
#    x 3.630140 0.000000 0.015710 
#    y 0.000000 3.458470 0.000000 
#    z 0.015710 0.000000 3.570400 
# 
# 
# High freq. dielectric constant tensor:
#      x y z
#    x 1.754530 0.000000 0.009730 
#    y 0.000000 1.746740 0.000000 
#    z 0.009730 0.000000 1.756560 
# 
# From -- ./inp_files/204480.got.cif
#   From: 2010.06.25/outbox.cif.g09.slc.cpg/sg15_103_cif.got.tgz:204480.got - 2010.06.28 07:06:18.
