data_PCOD8140496
_publ_section_title
;
Structure prediction by ZEFSAII (Michael W. Deem and Ramdas Pophale) SiO2 
 PCOD8140496
Probable space group: C 2/C
;
_chemical_formula_sum "Si O2"
_cell_formula_units_Z 48
_cell_length_a 11.204710
_cell_length_b 16.425834
_cell_length_c 20.227720
_cell_angle_alpha 90.000000
_cell_angle_beta 42.032232
_cell_angle_gamma 90.000000
_cell_volume 2492.625673
_symmetry_space_group_name_H-M "C 2/C"
_symmetry_group_IT_number 15
_symmetry_cell_setting 'monoclinic'
loop_
_space_group_symop_operation_xyz
x,y,z
-x,y,1/2-z
-x,-y,-z
x,-y,1/2+z
1/2+x,1/2+y,z
1/2-x,1/2+y,1/2-z
1/2-x,1/2-y,-z
1/2+x,1/2-y,1/2+z
loop_
_atom_site_type_symbol
_atom_site_label
_atom_site_fract_x
_atom_site_fract_y
_atom_site_fract_z
Si Si1 0.950765 0.328636 0.549325
Si Si2 0.755800 0.086195 0.992178
Si Si3 0.371166 0.657188 0.635995
Si Si4 0.156094 0.462536 0.137187
Si Si5 0.292348 0.519974 0.349804
Si Si6 0.100001 0.382171 0.353532
O O1 0.873968 0.239486 0.592891
O O2 0.783978 0.389393 0.619209
O O3 0.091264 0.352493 0.548688
O O4 0.050437 0.328927 0.437649
O O5 0.935368 0.137861 0.914555
O O6 0.751562 0.017407 0.937844
O O7 0.739491 0.042878 0.069897
O O8 0.309221 0.583600 0.614595
O O9 0.237153 0.669528 0.752601
O O10 0.000000 0.492041 0.250000
O O11 0.077722 0.401264 0.114555
O O12 0.500000 0.523139 0.250000
O O13 0.192654 0.467483 0.335037
#
# Coordination Sequence:
#
# PCOD8140496 Si02
#       6
#     8   8   8   8   8   8
#     4  11  23  40  63  90 118 155 198 257 289 337
#     4  11  20  42  62  87 120 158 205 238 289 364
#     4  11  24  38  60  92 126 154 191 249 306 344
#     4  10  21  39  63  83 124 163 193 239 298 358
#     4  11  20  38  71  86 110 156 211 243 278 362
#     4  10  20  42  61  86 120 161 195 241 300 351
#
# _framework density 19.256803000000001
#
# number of rings (size 3 to 8) (size 9 to 14) (size 15 to 20)
#    0.000    1.333    5.000    2.000    0.000    2.667 
#    6.000    0.000    0.000    0.000    0.000    0.000 
#    0.000    0.000    0.000    0.000    0.000    0.000 
#
# Total GULP energy -297734.754708 kJ/mol
# GULP energy per Si atom -12405.614780 kJ/mol
# Density = 1.921297 g / cm^3
# Si number density = 19.256803 Si / 1000 Ang^3
#
#
#
# Elastic Constant Matrix: (Units=GPa)
#
#
# Indices 1 2 3 4 5 6 
#
# 1 60.7964 2.8492 14.0822 0.0008 5.4002 -0.0007
# 2 2.8492 49.2567 30.5125 0.0011 12.5073 -0.0002
# 3 14.0822 30.5125 89.8768 0.0019 10.1107 0.0003
# 4 0.0008 0.0011 0.0019 27.8838 -0.0005 -6.9427
# 5 5.4002 12.5073 10.1107 -0.0005 31.7169 -0.0005
# 6 -0.0007 -0.0002 0.0003 -6.9427 -0.0005 -13.0167
#
#
#
# Elastic Compliance Matrix: (Units=1/GPa)
#
#
# Indices 1 2 3 4 5 6 
#
# 1 0.017285 0.001463 -0.002913 -0.000001 -0.002591 -0.000001
# 2 0.001463 0.027744 -0.008701 -0.000001 -0.008416 0.000000
# 3 -0.002913 -0.008701 0.014619 0.000000 -0.000733 0.000001
# 4 -0.000001 -0.000001 0.000000 0.031659 0.000001 -0.016886
# 5 -0.002591 -0.008416 -0.000733 0.000001 0.035523 -0.000001
# 6 -0.000001 0.000000 0.000001 -0.016886 -0.000001 -0.067818
#
#
# Mechanical properties :
#
#
# Convention : Reuss Voigt Hill
#
# Bulk Modulus (GPa) = 25.41651 32.75753 29.08702
# Shear Modulus (GPa) = 54.09463 19.48253 36.78858
#
# Velocity S-wave (km/s) = 5.30586 3.18421 4.37558
# Velocity P-wave (km/s) = 7.12486 5.52872 6.37692
#
# Compressibility (1/GPa) = 0.03934451
#
# Stress axis : x y z
#
# Youngs Moduli (GPa) = 57.85445 36.04328 68.40244
#
# Poissons Ratio (x) = -0.05273 0.19928
# Poissons Ratio (y) = -0.08463 0.59520
# Poissons Ratio (z) = 0.16855 0.31363
#
# Static dielectric constant tensor:
#      x y z
#    x 3.628780 0.000000 0.030510 
#    y 0.000000 3.230340 0.000000 
#    z 0.030510 0.000000 3.635770 
# 
# 
# High freq. dielectric constant tensor:
#      x y z
#    x 1.760570 0.000000 -0.003010 
#    y 0.000000 1.725440 0.000000 
#    z -0.003010 0.000000 1.759670 
# 
# From -- ./inp_files/143427.got.cif
#   From: 2010.06.25/outbox.cif.g09.slc.cpg/sg15_72_cif.got.tgz:143427.got - 2010.06.28 07:06:18.
