data_PCOD8140332
_publ_section_title
;
Structure prediction by ZEFSAII (Michael W. Deem and Ramdas Pophale) SiO2 
 PCOD8140332
Probable space group: C 2/C
;
_chemical_formula_sum "Si O2"
_cell_formula_units_Z 56
_cell_length_a 27.317258
_cell_length_b 13.591696
_cell_length_c 13.300364
_cell_angle_alpha 90.000000
_cell_angle_beta 34.570792
_cell_angle_gamma 90.000000
_cell_volume 2802.089660
_symmetry_space_group_name_H-M "C 2/C"
_symmetry_group_IT_number 15
_symmetry_cell_setting 'monoclinic'
loop_
_space_group_symop_operation_xyz
x,y,z
-x,y,1/2-z
-x,-y,-z
x,-y,1/2+z
1/2+x,1/2+y,z
1/2-x,1/2+y,1/2-z
1/2-x,1/2-y,-z
1/2+x,1/2-y,1/2+z
loop_
_atom_site_type_symbol
_atom_site_label
_atom_site_fract_x
_atom_site_fract_y
_atom_site_fract_z
Si Si1 0.457052 0.655055 0.035966
Si Si2 0.758123 0.971198 0.106859
Si Si3 0.974315 0.354416 0.526126
Si Si4 0.655869 0.098676 0.428855
Si Si5 0.453636 0.515699 0.230588
Si Si6 0.387917 0.016682 0.794007
Si Si7 0.228837 0.249423 0.152893
O O1 0.524397 0.743732 0.936128
O O2 0.495151 0.584045 0.885616
O O3 0.454647 0.597301 0.143825
O O4 0.363216 0.698894 0.166646
O O5 0.708633 0.992702 0.085890
O O6 0.739777 0.860141 0.174606
O O7 0.728213 0.038783 0.248466
O O8 0.854971 0.004625 0.923247
O O9 0.915327 0.363291 0.527833
O O10 0.942774 0.420590 0.672634
O O11 0.070332 0.387909 0.331446
O O12 0.612089 0.027443 0.585888
O O13 0.697057 0.190178 0.415804
O O14 0.500000 0.560435 0.250000
O O15 0.250000 0.250000 0.000000
#
# Coordination Sequence:
#
# PCOD8140332 Si02
#       7
#     8   8   8   8   8   8   8
#     4  11  23  43  63  90 129 165 207 261 319 373
#     4  11  23  42  63  92 126 165 212 259 314 378
#     4  10  22  39  63  95 123 158 208 261 314 377
#     4  11  23  39  64  93 123 159 211 260 311 373
#     4  11  25  41  63  91 128 168 210 261 311 377
#     4  10  20  41  64  90 126 158 203 266 316 367
#     4  12  21  41  69  89 121 172 212 254 309 383
#
# _framework density 19.985084000000001
#
# number of rings (size 3 to 8) (size 9 to 14) (size 15 to 20)
#    0.000    1.143    4.286    1.286    2.000    1.143 
#    5.143    1.429    0.000    0.000    0.000    0.000 
#    0.000    0.000    0.000    0.000    0.000    0.000 
#
# Total GULP energy -347251.944453 kJ/mol
# GULP energy per Si atom -12401.855159 kJ/mol
# Density = 1.993960 g / cm^3
# Si number density = 19.985084 Si / 1000 Ang^3
#
#
#
# Elastic Constant Matrix: (Units=GPa)
#
#
# Indices 1 2 3 4 5 6 
#
# 1 74.5691 14.3300 27.5187 0.0000 -1.0379 0.0000
# 2 14.3300 74.5050 29.8093 0.0000 2.9432 0.0000
# 3 27.5187 29.8093 102.2592 0.0000 -17.2518 0.0000
# 4 0.0000 0.0000 0.0000 27.1758 0.0000 -5.1798
# 5 -1.0379 2.9432 -17.2518 0.0000 28.6032 0.0000
# 6 0.0000 0.0000 0.0000 -5.1798 0.0000 21.7796
#
#
#
# Elastic Compliance Matrix: (Units=1/GPa)
#
#
# Indices 1 2 3 4 5 6 
#
# 1 0.015098 -0.001237 -0.003995 0.000000 -0.001734 0.000000
# 2 -0.001237 0.015889 -0.005101 0.000000 -0.004757 0.000000
# 3 -0.003995 -0.005101 0.013811 0.000000 0.008710 0.000000
# 4 0.000000 0.000000 0.000000 0.038545 0.000000 0.009167
# 5 -0.001734 -0.004757 0.008710 0.000000 0.040641 0.000000
# 6 0.000000 0.000000 0.000000 0.009167 0.000000 0.048095
#
#
# Mechanical properties :
#
#
# Convention : Reuss Voigt Hill
#
# Bulk Modulus (GPa) = 41.44057 43.84993 42.64525
# Shear Modulus (GPa) = 24.90186 27.49008 26.19597
#
# Velocity S-wave (km/s) = 3.53373 3.71284 3.62439
# Velocity P-wave (km/s) = 6.11804 6.35367 6.23697
#
# Compressibility (1/GPa) = 0.02413094
#
# Stress axis : x y z
#
# Youngs Moduli (GPa) = 66.23275 62.93763 72.40805
#
# Poissons Ratio (x) = 0.07785 0.28927
# Poissons Ratio (y) = 0.08193 0.36937
# Poissons Ratio (z) = 0.26460 0.32106
#
# Static dielectric constant tensor:
#      x y z
#    x 3.762490 0.000000 0.076050 
#    y 0.000000 3.822070 0.000000 
#    z 0.076050 0.000000 3.822000 
# 
# 
# High freq. dielectric constant tensor:
#      x y z
#    x 1.784440 0.000000 -0.008710 
#    y 0.000000 1.780520 0.000000 
#    z -0.008710 0.000000 1.785390 
# 
# From -- ./inp_files/182129.got.cif
#   From: 2010.06.25/outbox.cif.g09.slc.cpg/sg15_92_cif.got.tgz:182129.got - 2010.06.28 07:06:18.
