data_PCOD8140702
_publ_section_title
;
Structure prediction by ZEFSAII (Michael W. Deem and Ramdas Pophale) SiO2 
 PCOD8140702
Probable space group: C 2/C
;
_chemical_formula_sum "Si O2"
_cell_formula_units_Z 32
_cell_length_a 5.009289
_cell_length_b 24.826659
_cell_length_c 8.347048
_cell_angle_alpha 90.000000
_cell_angle_beta 82.094971
_cell_angle_gamma 90.000000
_cell_volume 1028.207142
_symmetry_space_group_name_H-M "C 2/C"
_symmetry_group_IT_number 15
_symmetry_cell_setting 'monoclinic'
loop_
_space_group_symop_operation_xyz
x,y,z
-x,y,1/2-z
-x,-y,-z
x,-y,1/2+z
1/2+x,1/2+y,z
1/2-x,1/2+y,1/2-z
1/2-x,1/2-y,-z
1/2+x,1/2-y,1/2+z
loop_
_atom_site_type_symbol
_atom_site_label
_atom_site_fract_x
_atom_site_fract_y
_atom_site_fract_z
Si Si1 0.192817 0.062947 0.574821
Si Si2 0.500000 0.120790 0.250000
Si Si3 0.203427 0.379819 0.056125
Si Si4 0.597162 0.295302 0.914627
Si Si5 0.500000 0.536634 0.250000
O O1 0.395470 0.108748 0.635335
O O2 0.890761 0.082149 0.648312
O O3 0.214213 0.001602 0.632660
O O4 0.192567 0.066420 0.375376
O O5 0.299869 0.093441 0.129160
O O6 0.681692 0.158329 0.118609
O O7 0.329089 0.319241 0.030732
O O8 0.500000 0.272986 0.750000
O O9 0.750000 0.250000 0.000000
#
# Coordination Sequence:
#
# PCOD8140702 Si02
#       5
#     8   4   8   8   4
#     4  11  24  44  71 104 147 195 257 304 389 446
#     4  10  20  42  71 102 134 206 238 301 372 462
#     4  11  22  41  72 103 142 196 249 307 363 472
#     4  10  23  43  74 114 148 198 254 312 389 461
#     4  10  26  44  71 108 148 202 246 333 370 460
#
# _framework density 31.122133999999999
#
# number of rings (size 3 to 8) (size 9 to 14) (size 15 to 20)
#    0.000    1.500    2.500    1.500    1.750   11.000 
#    0.000    3.750    0.000    0.000    0.000    0.000 
#    0.000    0.000    0.000    0.000    0.000    0.000 
#
# Total GULP energy -198210.189887 kJ/mol
# GULP energy per Si atom -12388.136868 kJ/mol
# Density = 3.105130 g / cm^3
# Si number density = 31.122134 Si / 1000 Ang^3
#
#
#
# Elastic Constant Matrix: (Units=GPa)
#
#
# Indices 1 2 3 4 5 6 
#
# 1 243.6136 105.7758 76.2585 0.0000 37.9474 0.0000
# 2 105.7758 198.3345 71.8815 0.0000 33.8436 0.0000
# 3 76.2585 71.8815 143.0131 0.0000 33.4577 0.0000
# 4 0.0000 0.0000 0.0000 65.7792 0.0000 14.2573
# 5 37.9474 33.8436 33.4577 0.0000 75.3885 0.0000
# 6 0.0000 0.0000 0.0000 14.2573 0.0000 65.3065
#
#
#
# Elastic Compliance Matrix: (Units=1/GPa)
#
#
# Indices 1 2 3 4 5 6 
#
# 1 0.005803 -0.002292 -0.001673 0.000000 -0.001149 0.000000
# 2 -0.002292 0.007238 -0.002149 0.000000 -0.001142 0.000000
# 3 -0.001673 -0.002149 0.009531 0.000000 -0.002423 0.000000
# 4 0.000000 0.000000 0.000000 0.015957 0.000000 -0.003484
# 5 -0.001149 -0.001142 -0.002423 0.000000 0.015431 0.000000
# 6 0.000000 0.000000 0.000000 -0.003484 0.000000 0.016073
#
#
# Mechanical properties :
#
#
# Convention : Reuss Voigt Hill
#
# Bulk Modulus (GPa) = 96.67192 121.42144 109.04668
# Shear Modulus (GPa) = 58.33599 63.36455 60.85027
#
# Velocity S-wave (km/s) = 4.33416 4.51710 4.42657
# Velocity P-wave (km/s) = 7.49507 8.14277 7.82563
#
# Compressibility (1/GPa) = 0.01034427
#
# Stress axis : x y z
#
# Youngs Moduli (GPa) = 172.32545 138.15862 104.91614
#
# Poissons Ratio (x) = 0.31670 0.17555
# Poissons Ratio (y) = 0.39502 0.22542
# Poissons Ratio (z) = 0.28835 0.29684
#
# Static dielectric constant tensor:
#      x y z
#    x 6.446210 0.000000 0.079650 
#    y 0.000000 5.223520 0.000000 
#    z 0.079650 0.000000 7.099200 
# 
# 
# High freq. dielectric constant tensor:
#      x y z
#    x 2.319120 0.000000 0.010120 
#    y 0.000000 2.255630 0.000000 
#    z 0.010120 0.000000 2.370600 
# 
# From -- ./inp_files/20268.got.cif
#   From: 2010.06.25/outbox.cif.g09.slc.cpg/sg15_11_cif.got.tgz:20268.got - 2010.06.28 07:06:18.
