data_PCOD8140271
_publ_section_title
;
Structure prediction by ZEFSAII (Michael W. Deem and Ramdas Pophale) SiO2 
 PCOD8140271
Probable space group: C 2/C
;
_chemical_formula_sum "Si O2"
_cell_formula_units_Z 48
_cell_length_a 29.719546
_cell_length_b 8.787377
_cell_length_c 18.066298
_cell_angle_alpha 90.000000
_cell_angle_beta 30.012376
_cell_angle_gamma 90.000000
_cell_volume 2359.951318
_symmetry_space_group_name_H-M "C 2/C"
_symmetry_group_IT_number 15
_symmetry_cell_setting 'monoclinic'
loop_
_space_group_symop_operation_xyz
x,y,z
-x,y,1/2-z
-x,-y,-z
x,-y,1/2+z
1/2+x,1/2+y,z
1/2-x,1/2+y,1/2-z
1/2-x,1/2-y,-z
1/2+x,1/2-y,1/2+z
loop_
_atom_site_type_symbol
_atom_site_label
_atom_site_fract_x
_atom_site_fract_y
_atom_site_fract_z
Si Si1 0.128398 0.291115 0.454634
Si Si2 0.091830 0.955616 0.904670
Si Si3 0.193054 0.856647 0.376820
Si Si4 0.898613 0.572775 0.920729
Si Si5 0.789070 0.119373 0.044155
Si Si6 0.771744 0.063128 0.904740
O O1 0.075780 0.213227 0.461736
O O2 0.233964 0.284766 0.281901
O O3 0.094783 0.461961 0.516798
O O4 0.123434 0.192785 0.538644
O O5 0.116047 0.066280 0.937339
O O6 0.169554 0.955239 0.731979
O O7 0.000000 0.000000 0.000000
O O8 0.143857 0.732391 0.496721
O O9 0.243958 0.979611 0.357253
O O10 0.000000 0.599398 0.750000
O O11 0.832553 0.493363 0.953866
O O12 0.718259 0.258851 0.133731
O O13 0.809749 0.048287 0.933897
#
# Coordination Sequence:
#
# PCOD8140271 Si02
#       6
#     8   8   8   8   8   8
#     4  10  20  42  65  88 126 180 210 262 328 396
#     4  11  23  39  66  94 126 168 226 268 314 395
#     4  11  20  42  65  89 129 175 215 262 333 387
#     4  11  23  39  64  95 131 169 221 267 327 392
#     4   9  20  35  68  86 120 172 206 265 331 376
#     4  10  20  41  60  94 128 165 216 272 324 385
#
# _framework density 20.339403999999998
#
# number of rings (size 3 to 8) (size 9 to 14) (size 15 to 20)
#    0.000    1.667    5.000    1.000    0.000    6.000 
#    3.000    6.667    0.000    0.000    0.000    0.000 
#    0.000    0.000    0.000    0.000    0.000    0.000 
#
# Total GULP energy -297355.964667 kJ/mol
# GULP energy per Si atom -12389.831861 kJ/mol
# Density = 2.029311 g / cm^3
# Si number density = 20.339404 Si / 1000 Ang^3
#
#
#
# Elastic Constant Matrix: (Units=GPa)
#
#
# Indices 1 2 3 4 5 6 
#
# 1 122.1504 36.6855 28.3423 0.0007 10.6664 -0.0001
# 2 36.6855 82.0773 24.3998 0.0044 5.6223 -0.0004
# 3 28.3423 24.3998 85.8629 0.0029 -3.1004 -0.0003
# 4 0.0007 0.0044 0.0029 25.7083 -0.0006 4.4724
# 5 10.6664 5.6223 -3.1004 -0.0006 31.7876 0.0000
# 6 -0.0001 -0.0004 -0.0003 4.4724 0.0000 26.0672
#
#
#
# Elastic Compliance Matrix: (Units=1/GPa)
#
#
# Indices 1 2 3 4 5 6 
#
# 1 0.010085 -0.003584 -0.002418 0.000001 -0.002986 0.000000
# 2 -0.003584 0.014822 -0.003091 -0.000002 -0.001720 0.000001
# 3 -0.002418 -0.003091 0.013419 -0.000001 0.002667 0.000000
# 4 0.000001 -0.000002 -0.000001 0.040095 0.000001 -0.006879
# 5 -0.002986 -0.001720 0.002667 0.000001 0.033025 0.000000
# 6 0.000000 0.000001 0.000000 -0.006879 0.000000 0.039543
#
#
# Mechanical properties :
#
#
# Convention : Reuss Voigt Hill
#
# Bulk Modulus (GPa) = 49.65317 52.10509 50.87913
# Shear Modulus (GPa) = 28.42693 30.09014 29.25854
#
# Velocity S-wave (km/s) = 3.74254 3.85047 3.79689
# Velocity P-wave (km/s) = 6.56817 6.74104 6.65516
#
# Compressibility (1/GPa) = 0.02013970
#
# Stress axis : x y z
#
# Youngs Moduli (GPa) = 99.15829 67.46549 74.51894
#
# Poissons Ratio (x) = 0.24181 0.18020
# Poissons Ratio (y) = 0.35540 0.23035
# Poissons Ratio (z) = 0.23979 0.20855
#
# Static dielectric constant tensor:
#      x y z
#    x 3.890040 0.000000 0.306930 
#    y 0.000000 4.025530 0.000000 
#    z 0.306930 0.000000 3.579050 
# 
# 
# High freq. dielectric constant tensor:
#      x y z
#    x 1.796630 0.000000 0.021230 
#    y 0.000000 1.805920 0.000000 
#    z 0.021230 0.000000 1.755290 
# 
# From -- ./inp_files/209270.got.cif
#   From: 2010.06.25/outbox.cif.g09.slc.cpg/sg15_105_cif.got.tgz:209270.got - 2010.06.28 07:06:18.
