data_PCOD8140597
_publ_section_title
;
Structure prediction by ZEFSAII (Michael W. Deem and Ramdas Pophale) SiO2 
 PCOD8140597
Probable space group: C 2/C
;
_chemical_formula_sum "Si O2"
_cell_formula_units_Z 40
_cell_length_a 14.310563
_cell_length_b 12.605265
_cell_length_c 10.835612
_cell_angle_alpha 90.000000
_cell_angle_beta 83.401598
_cell_angle_gamma 90.000000
_cell_volume 1941.671679
_symmetry_space_group_name_H-M "C 2/C"
_symmetry_group_IT_number 15
_symmetry_cell_setting 'monoclinic'
loop_
_space_group_symop_operation_xyz
x,y,z
-x,y,1/2-z
-x,-y,-z
x,-y,1/2+z
1/2+x,1/2+y,z
1/2-x,1/2+y,1/2-z
1/2-x,1/2-y,-z
1/2+x,1/2-y,1/2+z
loop_
_atom_site_type_symbol
_atom_site_label
_atom_site_fract_x
_atom_site_fract_y
_atom_site_fract_z
Si Si1 0.593666 0.468677 0.308516
Si Si2 0.555029 0.038266 0.371794
Si Si3 0.661712 0.677179 0.425519
Si Si4 0.269933 0.112071 0.634180
Si Si5 0.016079 0.772375 0.391348
O O1 0.500000 0.497278 0.250000
O O2 0.623347 0.579642 0.357441
O O3 0.673328 0.422544 0.208273
O O4 0.575665 0.378804 0.419052
O O5 0.500000 0.020822 0.250000
O O6 0.573652 0.162971 0.394347
O O7 0.500000 0.000000 0.500000
O O8 0.653842 0.978364 0.350233
O O9 0.694902 0.770902 0.325939
O O10 0.749832 0.632431 0.491565
O O11 0.581158 0.732760 0.520741
O O12 0.000000 0.795231 0.250000
#
# Coordination Sequence:
#
# PCOD8140597 Si02
#       5
#     8   8   8   8   8
#     4  11  24  41  65  97 130 171 220 276 335 401
#     4  11  25  44  69  98 136 177 228 281 334 400
#     4  11  23  43  67  91 134 172 223 270 338 406
#     4  11  25  41  66  97 126 181 222 269 340 403
#     4  10  20  42  66  91 128 176 217 263 336 400
#
# _framework density 20.600805000000001
#
# number of rings (size 3 to 8) (size 9 to 14) (size 15 to 20)
#    0.000    1.200    6.000    0.600    5.600    0.800 
#    0.000    1.000    0.000    0.000    0.000    0.000 
#    0.000    0.000    0.000    0.000    0.000    0.000 
#
# Total GULP energy -247785.666501 kJ/mol
# GULP energy per Si atom -12389.283325 kJ/mol
# Density = 2.055392 g / cm^3
# Si number density = 20.600805 Si / 1000 Ang^3
#
#
#
# Elastic Constant Matrix: (Units=GPa)
#
#
# Indices 1 2 3 4 5 6 
#
# 1 119.3356 84.2120 27.4145 0.0000 -8.2712 0.0000
# 2 84.2120 206.9560 33.2504 0.0000 10.2009 0.0000
# 3 27.4145 33.2504 67.2421 0.0000 -6.1089 0.0000
# 4 0.0000 0.0000 0.0000 19.1518 0.0000 3.4052
# 5 -8.2712 10.2009 -6.1089 0.0000 24.1017 0.0000
# 6 0.0000 0.0000 0.0000 3.4052 0.0000 28.5203
#
#
#
# Elastic Compliance Matrix: (Units=1/GPa)
#
#
# Indices 1 2 3 4 5 6 
#
# 1 0.013002 -0.005248 -0.002148 0.000000 0.006139 0.000000
# 2 -0.005248 0.007580 -0.002112 0.000000 -0.005545 0.000000
# 3 -0.002148 -0.002112 0.017202 0.000000 0.004517 0.000000
# 4 0.000000 0.000000 0.000000 0.053347 0.000000 -0.006369
# 5 0.006139 -0.005545 0.004517 0.000000 0.047089 0.000000
# 6 0.000000 0.000000 0.000000 -0.006369 0.000000 0.035823
#
#
# Mechanical properties :
#
#
# Convention : Reuss Voigt Hill
#
# Bulk Modulus (GPa) = 53.28390 75.92082 64.60236
# Shear Modulus (GPa) = 25.08569 30.93189 28.00879
#
# Velocity S-wave (km/s) = 3.49335 3.87911 3.69127
# Velocity P-wave (km/s) = 6.49557 7.54961 7.04234
#
# Compressibility (1/GPa) = 0.01876740
#
# Stress axis : x y z
#
# Youngs Moduli (GPa) = 76.91031 131.92391 58.13172
#
# Poissons Ratio (x) = 0.69235 0.12487
# Poissons Ratio (y) = 0.40364 0.12279
# Poissons Ratio (z) = 0.16521 0.27867
#
# Static dielectric constant tensor:
#      x y z
#    x 3.940270 0.000000 -0.214580 
#    y 0.000000 4.596150 0.000000 
#    z -0.214580 0.000000 3.725940 
# 
# 
# High freq. dielectric constant tensor:
#      x y z
#    x 1.800000 0.000000 -0.025590 
#    y 0.000000 1.841600 0.000000 
#    z -0.025590 0.000000 1.781920 
# 
# From -- ./inp_files/94511.got.cif
#   From: 2010.06.25/outbox.cif.g09.slc.cpg/sg15_48_cif.got.tgz:94511.got - 2010.06.28 07:06:18.
