data_PCOD8140708
_publ_section_title
;
Structure prediction by ZEFSAII (Michael W. Deem and Ramdas Pophale) SiO2 
 PCOD8140708
Probable space group: C 2/C
;
_chemical_formula_sum "Si O2"
_cell_formula_units_Z 56
_cell_length_a 9.627946
_cell_length_b 29.755972
_cell_length_c 10.551771
_cell_angle_alpha 90.000000
_cell_angle_beta 115.886580
_cell_angle_gamma 90.000000
_cell_volume 2719.641044
_symmetry_space_group_name_H-M "C 2/C"
_symmetry_group_IT_number 15
_symmetry_cell_setting 'monoclinic'
loop_
_space_group_symop_operation_xyz
x,y,z
-x,y,1/2-z
-x,-y,-z
x,-y,1/2+z
1/2+x,1/2+y,z
1/2-x,1/2+y,1/2-z
1/2-x,1/2-y,-z
1/2+x,1/2-y,1/2+z
loop_
_atom_site_type_symbol
_atom_site_label
_atom_site_fract_x
_atom_site_fract_y
_atom_site_fract_z
Si Si1 0.621070 0.124925 0.063139
Si Si2 0.972278 0.460221 0.389415
Si Si3 0.165084 0.158454 0.548631
Si Si4 0.338507 0.593397 0.732320
Si Si5 0.335883 0.672488 0.319243
Si Si6 0.311475 0.828729 0.475799
Si Si7 0.341368 0.770226 0.255060
O O1 0.752506 0.128528 0.225408
O O2 0.592981 0.076226 0.990933
O O3 0.679489 0.155095 0.970895
O O4 0.468514 0.144636 0.065117
O O5 0.000000 0.472146 0.250000
O O6 0.000000 0.500000 0.500000
O O7 0.796002 0.443497 0.331377
O O8 0.146721 0.112306 0.619838
O O9 0.192341 0.203697 0.639541
O O10 0.017183 0.162658 0.399775
O O11 0.500000 0.571258 0.750000
O O12 0.308030 0.636940 0.634870
O O13 0.264214 0.686425 0.424559
O O14 0.310878 0.717228 0.224835
O O15 0.348748 0.785259 0.405105
O O16 0.500000 0.784414 0.250000
#
# Coordination Sequence:
#
# PCOD8140708 Si02
#       7
#     8   8   8   8   8   8   8
#     4  11  23  43  68  90 128 176 219 265 339 402
#     4  11  25  47  78 106 134 172 218 274 341 426
#     4  11  22  41  65  90 128 179 230 265 334 386
#     4  10  20  42  71  96 128 174 217 267 331 398
#     4  12  25  38  59  97 133 172 229 291 325 389
#     4  10  22  39  61  88 128 178 224 277 335 386
#     4  11  23  38  61  86 128 184 236 281 329 386
#
# _framework density 20.590951
#
# number of rings (size 3 to 8) (size 9 to 14) (size 15 to 20)
#    0.000    1.143    4.286    2.143    2.000    3.429 
#    2.571    2.143    0.000    0.000    0.000    0.000 
#    0.000    0.000    0.000    0.000    0.000    0.000 
#
# Total GULP energy -347025.609705 kJ/mol
# GULP energy per Si atom -12393.771775 kJ/mol
# Density = 2.054409 g / cm^3
# Si number density = 20.590951 Si / 1000 Ang^3
#
#
#
# Elastic Constant Matrix: (Units=GPa)
#
#
# Indices 1 2 3 4 5 6 
#
# 1 108.9846 34.9077 27.6897 0.0000 5.4808 0.0000
# 2 34.9077 99.7227 54.5196 0.0000 10.8553 0.0000
# 3 27.6897 54.5196 100.1055 0.0000 14.5276 0.0000
# 4 0.0000 0.0000 0.0000 32.8780 0.0000 -0.7308
# 5 5.4808 10.8553 14.5276 0.0000 36.1213 0.0000
# 6 0.0000 0.0000 0.0000 -0.7308 0.0000 21.4360
#
#
#
# Elastic Compliance Matrix: (Units=1/GPa)
#
#
# Indices 1 2 3 4 5 6 
#
# 1 0.010449 -0.002950 -0.001255 0.000000 -0.000194 0.000000
# 2 -0.002950 0.015165 -0.007271 0.000000 -0.001185 0.000000
# 3 -0.001255 -0.007271 0.014817 0.000000 -0.003584 0.000000
# 4 0.000000 0.000000 0.000000 0.030439 0.000000 0.001038
# 5 -0.000194 -0.001185 -0.003584 0.000000 0.029511 0.000000
# 6 0.000000 0.000000 0.000000 0.001038 0.000000 0.046686
#
#
# Mechanical properties :
#
#
# Convention : Reuss Voigt Hill
#
# Bulk Modulus (GPa) = 57.21663 60.33854 58.77758
# Shear Modulus (GPa) = 28.43405 30.86677 29.65041
#
# Velocity S-wave (km/s) = 3.72008 3.87595 3.79881
# Velocity P-wave (km/s) = 6.80438 7.02835 6.91727
#
# Compressibility (1/GPa) = 0.01747744
#
# Stress axis : x y z
#
# Youngs Moduli (GPa) = 95.70019 65.94263 67.49157
#
# Poissons Ratio (x) = 0.19455 0.08473
# Poissons Ratio (y) = 0.28234 0.49073
# Poissons Ratio (z) = 0.12014 0.47946
#
# Static dielectric constant tensor:
#      x y z
#    x 3.817280 0.000000 -0.085360 
#    y 0.000000 3.406210 0.000000 
#    z -0.085360 0.000000 3.858510 
# 
# 
# High freq. dielectric constant tensor:
#      x y z
#    x 1.822180 0.000000 -0.005710 
#    y 0.000000 1.768320 0.000000 
#    z -0.005710 0.000000 1.812630 
# 
# From -- ./inp_files/82280.got.cif
#   From: 2010.06.25/outbox.cif.g09.slc.cpg/sg15_42_cif.got.tgz:82280.got - 2010.06.28 07:06:18.
