data_PCOD8140974
_publ_section_title
;
Structure prediction by ZEFSAII (Michael W. Deem and Ramdas Pophale) SiO2 
 PCOD8140974
Probable space group: C 2/C
;
_chemical_formula_sum "Si O2"
_cell_formula_units_Z 56
_cell_length_a 13.897500
_cell_length_b 9.703854
_cell_length_c 26.639199
_cell_angle_alpha 90.000000
_cell_angle_beta 124.049751
_cell_angle_gamma 90.000000
_cell_volume 2976.608465
_symmetry_space_group_name_H-M "C 2/C"
_symmetry_group_IT_number 15
_symmetry_cell_setting 'monoclinic'
loop_
_space_group_symop_operation_xyz
x,y,z
-x,y,1/2-z
-x,-y,-z
x,-y,1/2+z
1/2+x,1/2+y,z
1/2-x,1/2+y,1/2-z
1/2-x,1/2-y,-z
1/2+x,1/2-y,1/2+z
loop_
_atom_site_type_symbol
_atom_site_label
_atom_site_fract_x
_atom_site_fract_y
_atom_site_fract_z
Si Si1 0.271688 0.832564 0.407266
Si Si2 0.345829 0.790684 0.317094
Si Si3 0.270196 0.136234 0.381545
Si Si4 0.567688 0.119057 0.367924
Si Si5 0.189861 0.589130 0.218222
Si Si6 0.939277 0.670295 0.677985
Si Si7 0.974243 0.623088 0.030396
O O1 0.333875 0.818641 0.372021
O O2 0.155704 0.742952 0.380625
O O3 0.369681 0.785141 0.476487
O O4 0.243827 0.995736 0.405483
O O5 0.267600 0.658860 0.283114
O O6 0.478995 0.764492 0.341450
O O7 0.314822 0.924622 0.273377
O O8 0.249383 0.106023 0.317239
O O9 0.179630 0.252614 0.368050
O O10 0.400470 0.197908 0.428372
O O11 0.436065 0.163152 0.316006
O O12 0.569425 0.075878 0.427191
O O13 0.595857 0.988378 0.341411
O O14 0.000000 0.691234 0.750000
O O15 0.000000 0.500000 0.000000
#
# Coordination Sequence:
#
# PCOD8140974 Si02
#       7
#     8   8   8   8   8   8   8
#     4  10  21  37  58  84 110 149 191 231 273 336
#     4  10  21  34  54  77 114 144 189 219 284 326
#     4   9  19  37  57  80 108 151 185 223 280 336
#     4  10  22  35  58  86 113 143 191 232 286 324
#     4   9  19  35  51  78 108 150 177 228 271 337
#     4  11  21  36  55  82 115 148 182 232 289 339
#     4   9  18  40  63  79 112 152 189 229 281 340
#
# _framework density 18.813358000000001
#
# number of rings (size 3 to 8) (size 9 to 14) (size 15 to 20)
#    0.000    2.286    1.429    3.000    4.000    1.143 
#    0.000    8.571    0.000    0.000    0.000    0.000 
#    0.000    0.000    0.000    0.000    0.000    0.000 
#
# Total GULP energy -346915.902311 kJ/mol
# GULP energy per Si atom -12389.853654 kJ/mol
# Density = 1.877054 g / cm^3
# Si number density = 18.813358 Si / 1000 Ang^3
#
#
#
# Elastic Constant Matrix: (Units=GPa)
#
#
# Indices 1 2 3 4 5 6 
#
# 1 101.1562 45.1260 18.7701 0.0000 10.3590 0.0000
# 2 45.1260 64.2179 29.6302 0.0000 15.1945 0.0000
# 3 18.7701 29.6302 66.9188 0.0000 10.9837 0.0000
# 4 0.0000 0.0000 0.0000 22.2983 0.0000 4.7299
# 5 10.3590 15.1945 10.9837 0.0000 28.1896 0.0000
# 6 0.0000 0.0000 0.0000 4.7299 0.0000 36.1185
#
#
#
# Elastic Compliance Matrix: (Units=1/GPa)
#
#
# Indices 1 2 3 4 5 6 
#
# 1 0.014416 -0.010406 0.000548 0.000000 0.000098 0.000000
# 2 -0.010406 0.028764 -0.008440 0.000000 -0.008392 0.000000
# 3 0.000548 -0.008440 0.019030 0.000000 -0.003067 0.000000
# 4 0.000000 0.000000 0.000000 0.046128 0.000000 -0.006041
# 5 0.000098 -0.008392 -0.003067 0.000000 0.041156 0.000000
# 6 0.000000 0.000000 0.000000 -0.006041 0.000000 0.028478
#
#
# Mechanical properties :
#
#
# Convention : Reuss Voigt Hill
#
# Bulk Modulus (GPa) = 39.04091 46.59394 42.81743
# Shear Modulus (GPa) = 22.41074 26.57239 24.49156
#
# Velocity S-wave (km/s) = 3.45514 3.76230 3.61199
# Velocity P-wave (km/s) = 6.05921 6.61009 6.34064
#
# Compressibility (1/GPa) = 0.02561415
#
# Stress axis : x y z
#
# Youngs Moduli (GPa) = 69.36601 34.76532 52.54802
#
# Poissons Ratio (x) = 0.36178 -0.02880
# Poissons Ratio (y) = 0.72185 0.44350
# Poissons Ratio (z) = -0.03801 0.29342
#
# Static dielectric constant tensor:
#      x y z
#    x 3.626300 0.000000 0.106790 
#    y 0.000000 3.317690 0.000000 
#    z 0.106790 0.000000 3.629430 
# 
# 
# High freq. dielectric constant tensor:
#      x y z
#    x 1.742350 0.000000 0.000370 
#    y 0.000000 1.701090 0.000000 
#    z 0.000370 0.000000 1.731170 
# 
# From -- ./inp_files/295245.got.cif
#   From: 2010.06.25/outbox.cif.g09.slc.cpg/sg15_148_cif.got.tgz:295245.got - 2010.06.28 07:06:18.
