data_PCOD8140378
_publ_section_title
;
Structure prediction by ZEFSAII (Michael W. Deem and Ramdas Pophale) SiO2 
 PCOD8140378
Probable space group: C 2/C
;
_chemical_formula_sum "Si O2"
_cell_formula_units_Z 52
_cell_length_a 30.028513
_cell_length_b 11.249081
_cell_length_c 12.858654
_cell_angle_alpha 90.000000
_cell_angle_beta 144.119542
_cell_angle_gamma 90.000000
_cell_volume 2545.746575
_symmetry_space_group_name_H-M "C 2/C"
_symmetry_group_IT_number 15
_symmetry_cell_setting 'monoclinic'
loop_
_space_group_symop_operation_xyz
x,y,z
-x,y,1/2-z
-x,-y,-z
x,-y,1/2+z
1/2+x,1/2+y,z
1/2-x,1/2+y,1/2-z
1/2-x,1/2-y,-z
1/2+x,1/2-y,1/2+z
loop_
_atom_site_type_symbol
_atom_site_label
_atom_site_fract_x
_atom_site_fract_y
_atom_site_fract_z
Si Si1 0.351598 0.084411 0.998516
Si Si2 0.434467 0.451294 0.710887
Si Si3 0.723632 0.645439 0.597938
Si Si4 0.538542 0.218062 0.623939
Si Si5 0.000000 0.430148 0.250000
Si Si6 0.802986 0.617227 0.542925
Si Si7 0.550291 0.281736 0.242368
O O1 0.372205 0.212319 0.085480
O O2 0.426142 0.012673 0.103969
O O3 0.307033 0.013074 0.002653
O O4 0.296172 0.102405 0.797526
O O5 0.500000 0.441734 0.750000
O O6 0.352614 0.419141 0.504715
O O7 0.450346 0.357697 0.832329
O O8 0.430855 0.582954 0.753424
O O9 0.735396 0.613611 0.498469
O O10 0.713660 0.788821 0.582418
O O11 0.498121 0.152924 0.644453
O O12 0.618552 0.154850 0.752081
O O13 0.489440 0.209442 0.426377
O O14 0.500000 0.280201 0.250000
#
# Coordination Sequence:
#
# PCOD8140378 Si02
#       7
#     8   8   8   8   4   8   8
#     4  11  23  38  62  97 123 163 202 258 311 363
#     4  10  22  43  65  91 119 168 209 257 311 365
#     4  10  22  43  62  86 127 161 208 252 308 378
#     4  10  20  41  66  92 125 162 212 251 307 376
#     4  10  22  38  66  94 124 168 206 252 314 364
#     4   9  22  40  64  88 120 170 200 250 318 363
#     4  11  23  38  62  97 126 161 208 258 309 364
#
# _framework density 20.426226
#
# number of rings (size 3 to 8) (size 9 to 14) (size 15 to 20)
#    0.000    1.846    1.538    1.385    4.308    1.231 
#    8.308    0.769    0.000    0.000    0.000    0.000 
#    0.000    0.000    0.000    0.000    0.000    0.000 
#
# Total GULP energy -322412.045917 kJ/mol
# GULP energy per Si atom -12400.463305 kJ/mol
# Density = 2.037974 g / cm^3
# Si number density = 20.426226 Si / 1000 Ang^3
#
#
#
# Elastic Constant Matrix: (Units=GPa)
#
#
# Indices 1 2 3 4 5 6 
#
# 1 82.3647 28.4285 34.6777 0.0000 8.2204 0.0000
# 2 28.4285 103.6325 35.5911 0.0000 3.8208 0.0000
# 3 34.6777 35.5911 128.9952 0.0000 2.1366 0.0000
# 4 0.0000 0.0000 0.0000 4.0158 0.0000 -24.1151
# 5 8.2204 3.8208 2.1366 0.0000 26.2091 0.0000
# 6 0.0000 0.0000 0.0000 -24.1151 0.0000 -16.1386
#
#
#
# Elastic Compliance Matrix: (Units=1/GPa)
#
#
# Indices 1 2 3 4 5 6 
#
# 1 0.014843 -0.002847 -0.003139 0.000000 -0.003985 0.000000
# 2 -0.002847 0.011251 -0.002330 0.000000 -0.000557 0.000000
# 3 -0.003139 -0.002330 0.009229 0.000000 0.000572 0.000000
# 4 0.000000 0.000000 0.000000 0.024969 0.000000 -0.037310
# 5 -0.003985 -0.000557 0.000572 0.000000 0.039439 0.000000
# 6 0.000000 0.000000 0.000000 -0.037310 0.000000 -0.006213
#
#
# Mechanical properties :
#
#
# Convention : Reuss Voigt Hill
#
# Bulk Modulus (GPa) = 53.49691 56.93191 55.21441
# Shear Modulus (GPa) = 42.96277 17.23693 30.09985
#
# Velocity S-wave (km/s) = 4.59117 2.90808 3.84290
# Velocity P-wave (km/s) = 7.37240 6.26166 6.83961
#
# Compressibility (1/GPa) = 0.01869267
#
# Stress axis : x y z
#
# Youngs Moduli (GPa) = 67.37234 88.88022 108.35006
#
# Poissons Ratio (x) = 0.25303 0.34008
# Poissons Ratio (y) = 0.19180 0.25243
# Poissons Ratio (z) = 0.21146 0.20707
#
# Static dielectric constant tensor:
#      x y z
#    x 3.579060 0.000000 0.163420 
#    y 0.000000 4.052910 0.000000 
#    z 0.163420 0.000000 3.563310 
# 
# 
# High freq. dielectric constant tensor:
#      x y z
#    x 1.790020 0.000000 0.009220 
#    y 0.000000 1.811330 0.000000 
#    z 0.009220 0.000000 1.788300 
# 
# From -- ./inp_files/126405.got.cif
#   From: 2010.06.25/outbox.cif.g09.slc.cpg/sg15_64_cif.got.tgz:126405.got - 2010.06.28 07:06:18.
