data_PCOD8140660
_publ_section_title
;
Structure prediction by ZEFSAII (Michael W. Deem and Ramdas Pophale) SiO2 
 PCOD8140660
Probable space group: C 2/C
;
_chemical_formula_sum "Si O2"
_cell_formula_units_Z 36
_cell_length_a 11.962045
_cell_length_b 8.578634
_cell_length_c 19.595218
_cell_angle_alpha 90.000000
_cell_angle_beta 122.369763
_cell_angle_gamma 90.000000
_cell_volume 1698.361707
_symmetry_space_group_name_H-M "C 2/C"
_symmetry_group_IT_number 15
_symmetry_cell_setting 'monoclinic'
loop_
_space_group_symop_operation_xyz
x,y,z
-x,y,1/2-z
-x,-y,-z
x,-y,1/2+z
1/2+x,1/2+y,z
1/2-x,1/2+y,1/2-z
1/2-x,1/2-y,-z
1/2+x,1/2-y,1/2+z
loop_
_atom_site_type_symbol
_atom_site_label
_atom_site_fract_x
_atom_site_fract_y
_atom_site_fract_z
Si Si1 0.000000 0.338904 0.250000
Si Si2 0.204136 0.136910 0.396973
Si Si3 0.142753 0.933974 0.027538
Si Si4 0.352565 0.403201 0.228824
Si Si5 0.227545 0.443585 0.805486
O O1 0.074134 0.231436 0.329670
O O2 0.101167 0.451892 0.242853
O O3 0.173000 0.049208 0.457633
O O4 0.331704 0.251465 0.444324
O O5 0.237501 0.002146 0.353416
O O6 0.245188 0.038219 0.104857
O O7 0.000000 0.000000 0.000000
O O8 0.500000 0.389048 0.250000
O O9 0.350826 0.491717 0.301090
O O10 0.291577 0.234448 0.219650
#
# Coordination Sequence:
#
# PCOD8140660 Si02
#       5
#     4   8   8   8   8
#     4  10  20  42  68  94 128 174 220 274 318 392
#     4  10  22  40  65  92 133 167 216 267 324 375
#     4  10  22  40  65  94 130 175 206 268 324 389
#     4  12  24  42  68 100 127 173 219 275 319 386
#     4  11  24  41  68  96 131 170 225 266 331 379
#
# _framework density 21.196897
#
# number of rings (size 3 to 8) (size 9 to 14) (size 15 to 20)
#    0.000    1.333    2.222    4.000    3.111    0.889 
#    0.000    1.111    0.000    0.000    0.000    0.000 
#    0.000    0.000    0.000    0.000    0.000    0.000 
#
# Total GULP energy -223157.043615 kJ/mol
# GULP energy per Si atom -12397.613534 kJ/mol
# Density = 2.114865 g / cm^3
# Si number density = 21.196897 Si / 1000 Ang^3
#
#
#
# Elastic Constant Matrix: (Units=GPa)
#
#
# Indices 1 2 3 4 5 6 
#
# 1 98.9042 53.4894 34.2718 0.0000 -1.5181 0.0000
# 2 53.4894 149.1218 51.1694 0.0000 -10.7292 0.0000
# 3 34.2718 51.1694 117.8866 0.0000 -15.4378 0.0000
# 4 0.0000 0.0000 0.0000 28.2608 0.0000 -8.3590
# 5 -1.5181 -10.7292 -15.4378 0.0000 27.6122 0.0000
# 6 0.0000 0.0000 0.0000 -8.3590 0.0000 40.4255
#
#
#
# Elastic Compliance Matrix: (Units=1/GPa)
#
#
# Indices 1 2 3 4 5 6 
#
# 1 0.013072 -0.004046 -0.002326 0.000000 -0.002154 0.000000
# 2 -0.004046 0.009171 -0.002554 0.000000 0.001913 0.000000
# 3 -0.002326 -0.002554 0.010920 0.000000 0.004985 0.000000
# 4 0.000000 0.000000 0.000000 0.037690 0.000000 0.007793
# 5 -0.002154 0.001913 0.004985 0.000000 0.039628 0.000000
# 6 0.000000 0.000000 0.000000 0.007793 0.000000 0.026348
#
#
# Mechanical properties :
#
#
# Convention : Reuss Voigt Hill
#
# Bulk Modulus (GPa) = 65.31042 71.53040 68.42041
# Shear Modulus (GPa) = 31.29204 34.39185 32.84195
#
# Velocity S-wave (km/s) = 3.84638 4.03239 3.94048
# Velocity P-wave (km/s) = 7.11367 7.44978 7.28366
#
# Compressibility (1/GPa) = 0.01531149
#
# Stress axis : x y z
#
# Youngs Moduli (GPa) = 76.50111 109.03806 91.57096
#
# Poissons Ratio (x) = 0.44111 0.21302
# Poissons Ratio (y) = 0.30949 0.23388
# Poissons Ratio (z) = 0.17796 0.27850
#
# Static dielectric constant tensor:
#      x y z
#    x 3.780020 0.000000 -0.016340 
#    y 0.000000 4.036160 0.000000 
#    z -0.016340 0.000000 4.078730 
# 
# 
# High freq. dielectric constant tensor:
#      x y z
#    x 1.818630 0.000000 -0.009100 
#    y 0.000000 1.839800 0.000000 
#    z -0.009100 0.000000 1.834050 
# 
# From -- ./inp_files/194888.got.cif
#   From: 2010.06.25/outbox.cif.g09.slc.cpg/sg15_98_cif.got.tgz:194888.got - 2010.06.28 07:06:18.
