data_PCOD8140793
_publ_section_title
;
Structure prediction by ZEFSAII (Michael W. Deem and Ramdas Pophale) SiO2 
 PCOD8140793
Probable space group: C 2/C
;
_chemical_formula_sum "Si O2"
_cell_formula_units_Z 44
_cell_length_a 11.931463
_cell_length_b 20.430403
_cell_length_c 9.163464
_cell_angle_alpha 90.000000
_cell_angle_beta 109.750820
_cell_angle_gamma 90.000000
_cell_volume 2102.320522
_symmetry_space_group_name_H-M "C 2/C"
_symmetry_group_IT_number 15
_symmetry_cell_setting 'monoclinic'
loop_
_space_group_symop_operation_xyz
x,y,z
-x,y,1/2-z
-x,-y,-z
x,-y,1/2+z
1/2+x,1/2+y,z
1/2-x,1/2+y,1/2-z
1/2-x,1/2-y,-z
1/2+x,1/2-y,1/2+z
loop_
_atom_site_type_symbol
_atom_site_label
_atom_site_fract_x
_atom_site_fract_y
_atom_site_fract_z
Si Si1 0.500000 0.142517 0.250000
Si Si2 0.175710 0.299100 0.368576
Si Si3 0.959894 0.271941 0.459515
Si Si4 0.525395 0.370132 0.593498
Si Si5 0.289533 0.434574 0.455238
Si Si6 0.732121 0.063313 0.263610
O O1 0.557745 0.188924 0.398743
O O2 0.606097 0.097284 0.238103
O O3 0.250000 0.250000 0.500000
O O4 0.157203 0.270033 0.196782
O O5 0.239801 0.367246 0.371961
O O6 0.055971 0.311355 0.406655
O O7 0.995811 0.196445 0.508528
O O8 0.500000 0.350228 0.750000
O O9 0.433610 0.427708 0.506929
O O10 0.659408 0.394037 0.624525
O O11 0.236336 0.491988 0.335353
O O12 0.247621 0.447376 0.599974
#
# Coordination Sequence:
#
# PCOD8140793 Si02
#       6
#     4   8   8   8   8   8
#     4  12  28  44  60 100 146 174 214 276 334 392
#     4  11  20  42  73  97 122 174 232 268 330 394
#     4  11  23  40  69  99 131 173 223 278 329 392
#     4  10  20  43  71  96 125 170 222 279 329 388
#     4  11  23  43  70  94 131 170 224 271 332 397
#     4  11  26  43  64  94 135 177 218 270 332 402
#
# _framework density 20.929252000000002
#
# number of rings (size 3 to 8) (size 9 to 14) (size 15 to 20)
#    0.000    1.091    5.455    1.636    2.545    2.909 
#    3.273    0.000    0.000    0.000    0.000    0.000 
#    0.000    0.000    0.000    0.000    0.000    0.000 
#
# Total GULP energy -272776.437404 kJ/mol
# GULP energy per Si atom -12398.928973 kJ/mol
# Density = 2.088162 g / cm^3
# Si number density = 20.929252 Si / 1000 Ang^3
#
#
#
# Elastic Constant Matrix: (Units=GPa)
#
#
# Indices 1 2 3 4 5 6 
#
# 1 105.1674 44.3033 30.4317 0.0000 5.9949 0.0000
# 2 44.3033 143.6602 55.0577 0.0000 2.8923 0.0000
# 3 30.4317 55.0577 123.9541 0.0000 11.4708 0.0000
# 4 0.0000 0.0000 0.0000 39.0580 0.0000 12.7364
# 5 5.9949 2.8923 11.4708 0.0000 22.4981 0.0000
# 6 0.0000 0.0000 0.0000 12.7364 0.0000 19.7974
#
#
#
# Elastic Compliance Matrix: (Units=1/GPa)
#
#
# Indices 1 2 3 4 5 6 
#
# 1 0.011225 -0.002935 -0.001270 0.000000 -0.001966 0.000000
# 2 -0.002935 0.009172 -0.003481 0.000000 0.001378 0.000000
# 3 -0.001270 -0.003481 0.010341 0.000000 -0.004486 0.000000
# 4 0.000000 0.000000 0.000000 0.032400 0.000000 -0.020844
# 5 -0.001966 0.001378 -0.004486 0.000000 0.047082 0.000000
# 6 0.000000 0.000000 0.000000 -0.020844 0.000000 0.063921
#
#
# Mechanical properties :
#
#
# Convention : Reuss Voigt Hill
#
# Bulk Modulus (GPa) = 65.08243 70.26301 67.67272
# Shear Modulus (GPa) = 25.68898 32.46997 29.07948
#
# Velocity S-wave (km/s) = 3.50726 3.94307 3.73153
# Velocity P-wave (km/s) = 6.89674 7.37394 7.13933
#
# Compressibility (1/GPa) = 0.01536513
#
# Stress axis : x y z
#
# Youngs Moduli (GPa) = 89.08889 109.02203 96.70536
#
# Poissons Ratio (x) = 0.32001 0.12282
# Poissons Ratio (y) = 0.26150 0.33664
# Poissons Ratio (z) = 0.11315 0.37951
#
# Static dielectric constant tensor:
#      x y z
#    x 4.069100 0.000000 0.353880 
#    y 0.000000 3.923440 0.000000 
#    z 0.353880 0.000000 3.901560 
# 
# 
# High freq. dielectric constant tensor:
#      x y z
#    x 1.819450 0.000000 0.015420 
#    y 0.000000 1.825370 0.000000 
#    z 0.015420 0.000000 1.810820 
# 
# From -- ./inp_files/30976.got.cif
#   From: 2010.06.25/outbox.cif.g09.slc.cpg/sg15_16_cif.got.tgz:30976.got - 2010.06.28 07:06:18.
