data_PCOD8140474
_publ_section_title
;
Structure prediction by ZEFSAII (Michael W. Deem and Ramdas Pophale) SiO2 
 PCOD8140474
Probable space group: C 2/C
;
_chemical_formula_sum "Si O2"
_cell_formula_units_Z 56
_cell_length_a 22.545152
_cell_length_b 9.289845
_cell_length_c 16.348065
_cell_angle_alpha 90.000000
_cell_angle_beta 129.235892
_cell_angle_gamma 90.000000
_cell_volume 2652.018562
_symmetry_space_group_name_H-M "C 2/C"
_symmetry_group_IT_number 15
_symmetry_cell_setting 'monoclinic'
loop_
_space_group_symop_operation_xyz
x,y,z
-x,y,1/2-z
-x,-y,-z
x,-y,1/2+z
1/2+x,1/2+y,z
1/2-x,1/2+y,1/2-z
1/2-x,1/2-y,-z
1/2+x,1/2-y,1/2+z
loop_
_atom_site_type_symbol
_atom_site_label
_atom_site_fract_x
_atom_site_fract_y
_atom_site_fract_z
Si Si1 0.920114 0.532090 0.386371
Si Si2 0.048845 0.771437 0.216953
Si Si3 0.368271 0.740705 0.262123
Si Si4 0.507242 0.564112 0.354218
Si Si5 0.659738 0.327471 0.946862
Si Si6 0.289212 0.616890 0.578504
Si Si7 0.782671 0.397149 0.879482
O O1 0.937122 0.639294 0.328782
O O2 0.878281 0.395691 0.310685
O O3 0.859824 0.605356 0.395092
O O4 0.000000 0.500000 0.500000
O O5 0.128386 0.840706 0.315401
O O6 0.000000 0.709685 0.250000
O O7 0.999525 0.895253 0.127431
O O8 0.442845 0.647516 0.349572
O O9 0.365150 0.743954 0.160711
O O10 0.292135 0.664279 0.233740
O O11 0.500000 0.568835 0.250000
O O12 0.587858 0.639284 0.444394
O O13 0.701693 0.481564 0.974298
O O14 0.712184 0.211309 0.038328
O O15 0.250000 0.750000 0.500000
O O16 0.234653 0.559917 0.604637
#
# Coordination Sequence:
#
# PCOD8140474 Si02
#       7
#     8   8   8   8   8   8   8
#     4  12  30  44  61 100 142 183 222 278 347 402
#     4  11  23  45  70  96 130 176 231 278 332 399
#     4  10  21  42  67  91 129 177 222 270 330 402
#     4   9  16  38  66  91 117 164 222 268 316 389
#     4  10  20  41  71  98 127 173 225 274 336 405
#     4  11  23  39  71 105 127 164 225 288 333 397
#     4  11  25  43  65 101 139 172 225 280 348 412
#
# _framework density 21.115991000000001
#
# number of rings (size 3 to 8) (size 9 to 14) (size 15 to 20)
#    0.000    1.429    5.714    2.571    8.000    1.714 
#    0.000    5.714    0.000    0.000    0.000    0.000 
#    0.000    0.000    0.000    0.000    0.000    0.000 
#
# Total GULP energy -347045.916680 kJ/mol
# GULP energy per Si atom -12394.497024 kJ/mol
# Density = 2.106793 g / cm^3
# Si number density = 21.115991 Si / 1000 Ang^3
#
#
#
# Elastic Constant Matrix: (Units=GPa)
#
#
# Indices 1 2 3 4 5 6 
#
# 1 133.8562 47.0724 39.9975 0.0000 17.8162 0.0000
# 2 47.0724 137.5442 52.8848 0.0000 -1.5831 0.0000
# 3 39.9975 52.8848 57.0729 0.0000 15.9183 0.0000
# 4 0.0000 0.0000 0.0000 17.1725 0.0000 8.5161
# 5 17.8162 -1.5831 15.9183 0.0000 32.9578 0.0000
# 6 0.0000 0.0000 0.0000 8.5161 0.0000 30.7589
#
#
#
# Elastic Compliance Matrix: (Units=1/GPa)
#
#
# Indices 1 2 3 4 5 6 
#
# 1 0.009818 -0.001714 -0.004379 0.000000 -0.003275 0.000000
# 2 -0.001714 0.012928 -0.012955 0.000000 0.007805 0.000000
# 3 -0.004379 -0.012955 0.037106 0.000000 -0.016177 0.000000
# 4 0.000000 0.000000 0.000000 0.067501 0.000000 -0.018689
# 5 -0.003275 0.007805 -0.016177 0.000000 0.040300 0.000000
# 6 0.000000 0.000000 0.000000 -0.018689 0.000000 0.037685
#
#
# Mechanical properties :
#
#
# Convention : Reuss Voigt Hill
#
# Bulk Modulus (GPa) = 45.96291 67.59810 56.78050
# Shear Modulus (GPa) = 19.94531 28.74573 24.34552
#
# Velocity S-wave (km/s) = 3.07670 3.69362 3.39918
# Velocity P-wave (km/s) = 5.86818 7.09032 6.50800
#
# Compressibility (1/GPa) = 0.02175667
#
# Stress axis : x y z
#
# Youngs Moduli (GPa) = 101.85616 77.35262 26.94965
#
# Poissons Ratio (x) = 0.13259 0.11801
# Poissons Ratio (y) = 0.17459 0.34912
# Poissons Ratio (z) = 0.44601 1.00208
#
# Static dielectric constant tensor:
#      x y z
#    x 4.226020 0.000000 0.477850 
#    y 0.000000 3.581880 0.000000 
#    z 0.477850 0.000000 3.620010 
# 
# 
# High freq. dielectric constant tensor:
#      x y z
#    x 1.843030 0.000000 0.031310 
#    y 0.000000 1.836110 0.000000 
#    z 0.031310 0.000000 1.797730 
# 
# From -- ./inp_files/218656.got.cif
#   From: 2010.06.25/outbox.cif.g09.slc.cpg/sg15_110_cif.got.tgz:218656.got - 2010.06.28 07:06:18.
