data_PCOD8140432
_publ_section_title
;
Structure prediction by ZEFSAII (Michael W. Deem and Ramdas Pophale) SiO2 
 PCOD8140432
Probable space group: C 2/C
;
_chemical_formula_sum "Si O2"
_cell_formula_units_Z 40
_cell_length_a 7.847061
_cell_length_b 31.418425
_cell_length_c 11.567289
_cell_angle_alpha 90.000000
_cell_angle_beta 142.333675
_cell_angle_gamma 90.000000
_cell_volume 1742.642221
_symmetry_space_group_name_H-M "C 2/C"
_symmetry_group_IT_number 15
_symmetry_cell_setting 'monoclinic'
loop_
_space_group_symop_operation_xyz
x,y,z
-x,y,1/2-z
-x,-y,-z
x,-y,1/2+z
1/2+x,1/2+y,z
1/2-x,1/2+y,1/2-z
1/2-x,1/2-y,-z
1/2+x,1/2-y,1/2+z
loop_
_atom_site_type_symbol
_atom_site_label
_atom_site_fract_x
_atom_site_fract_y
_atom_site_fract_z
Si Si1 0.074103 0.207238 0.526522
Si Si2 0.171129 0.360856 0.737303
Si Si3 0.713280 0.523204 0.956537
Si Si4 0.515538 0.198899 0.954634
Si Si5 0.667917 0.549510 0.189782
O O1 0.268994 0.190760 0.732987
O O2 0.198142 0.201730 0.463878
O O3 0.983864 0.255847 0.502852
O O4 0.814836 0.176475 0.386768
O O5 0.010214 0.339659 0.542785
O O6 0.351541 0.400498 0.785321
O O7 0.000000 0.382715 0.750000
O O8 0.500000 0.545527 0.750000
O O9 0.608752 0.473643 0.908228
O O10 0.656819 0.546296 0.046214
O O11 0.045658 0.527333 0.105517
#
# Coordination Sequence:
#
# PCOD8140432 Si02
#       5
#     8   8   8   8   8
#     4  10  21  41  66  90 119 172 218 263 312 370
#     4  12  24  40  61  95 138 164 208 267 322 385
#     4  10  20  41  68  90 123 171 210 267 322 383
#     4  10  21  41  66  89 122 169 220 263 311 372
#     4  10  23  42  63  97 128 169 215 263 323 388
#
# _framework density 22.953652999999999
#
# number of rings (size 3 to 8) (size 9 to 14) (size 15 to 20)
#    0.000    1.600    4.000    1.200    0.000    4.800 
#    0.000    8.000    0.000    0.000    0.000    0.000 
#    0.000    0.000    0.000    0.000    0.000    0.000 
#
# Total GULP energy -247820.792188 kJ/mol
# GULP energy per Si atom -12391.039609 kJ/mol
# Density = 2.290141 g / cm^3
# Si number density = 22.953653 Si / 1000 Ang^3
#
#
#
# Elastic Constant Matrix: (Units=GPa)
#
#
# Indices 1 2 3 4 5 6 
#
# 1 47.6718 21.9225 21.9934 0.0000 0.8091 0.0000
# 2 21.9225 160.9742 50.3123 0.0000 -10.2612 0.0000
# 3 21.9934 50.3123 140.0032 0.0000 -15.5140 0.0000
# 4 0.0000 0.0000 0.0000 17.1218 0.0000 16.6441
# 5 0.8091 -10.2612 -15.5140 0.0000 36.0629 0.0000
# 6 0.0000 0.0000 0.0000 16.6441 0.0000 16.5783
#
#
#
# Elastic Compliance Matrix: (Units=1/GPa)
#
#
# Indices 1 2 3 4 5 6 
#
# 1 0.023563 -0.002395 -0.003124 0.000000 -0.002554 0.000000
# 2 -0.002395 0.007273 -0.002102 0.000000 0.001219 0.000000
# 3 -0.003124 -0.002102 0.008747 0.000000 0.003235 0.000000
# 4 0.000000 0.000000 0.000000 2.429329 0.000000 -2.438975
# 5 -0.002554 0.001219 0.003235 0.000000 0.029525 0.000000
# 6 0.000000 0.000000 0.000000 -2.438975 0.000000 2.508980
#
#
# Mechanical properties :
#
#
# Convention : Reuss Voigt Hill
#
# Bulk Modulus (GPa) = 41.08399 59.67840 50.38119
# Shear Modulus (GPa) = 0.99388 30.91400 15.95394
#
# Velocity S-wave (km/s) = 0.65874 3.67386 2.63924
# Velocity P-wave (km/s) = 4.30303 6.63719 5.59323
#
# Compressibility (1/GPa) = 0.02434038
#
# Stress axis : x y z
#
# Youngs Moduli (GPa) = 42.43975 137.49135 114.31973
#
# Poissons Ratio (x) = 0.32935 0.35710
# Poissons Ratio (y) = 0.10166 0.24034
# Poissons Ratio (z) = 0.13257 0.28906
#
# Static dielectric constant tensor:
#      x y z
#    x 4.111300 0.000000 -0.128300 
#    y 0.000000 3.970110 0.000000 
#    z -0.128300 0.000000 4.288900 
# 
# 
# High freq. dielectric constant tensor:
#      x y z
#    x 1.897230 0.000000 -0.021270 
#    y 0.000000 1.899920 0.000000 
#    z -0.021270 0.000000 1.919360 
# 
# From -- ./inp_files/82378.got.cif
#   From: 2010.06.25/outbox.cif.g09.slc.cpg/sg15_42_cif.got.tgz:82378.got - 2010.06.28 07:06:18.
