data_PCOD8140601
_publ_section_title
;
Structure prediction by ZEFSAII (Michael W. Deem and Ramdas Pophale) SiO2 
 PCOD8140601
Probable space group: C 2/C
;
_chemical_formula_sum "Si O2"
_cell_formula_units_Z 52
_cell_length_a 23.731415
_cell_length_b 11.587133
_cell_length_c 11.914847
_cell_angle_alpha 90.000000
_cell_angle_beta 133.161611
_cell_angle_gamma 90.000000
_cell_volume 2389.846474
_symmetry_space_group_name_H-M "C 2/C"
_symmetry_group_IT_number 15
_symmetry_cell_setting 'monoclinic'
loop_
_space_group_symop_operation_xyz
x,y,z
-x,y,1/2-z
-x,-y,-z
x,-y,1/2+z
1/2+x,1/2+y,z
1/2-x,1/2+y,1/2-z
1/2-x,1/2-y,-z
1/2+x,1/2-y,1/2+z
loop_
_atom_site_type_symbol
_atom_site_label
_atom_site_fract_x
_atom_site_fract_y
_atom_site_fract_z
Si Si1 0.390238 0.068676 0.683112
Si Si2 0.545642 0.854382 0.454159
Si Si3 0.172075 0.097329 0.465822
Si Si4 0.188787 0.163864 0.043692
Si Si5 0.202264 0.243808 0.302345
Si Si6 0.853808 0.675792 0.194369
Si Si7 0.500000 0.656676 0.250000
O O1 0.390746 0.115978 0.555379
O O2 0.477067 0.050545 0.852230
O O3 0.348187 0.157346 0.708099
O O4 0.346498 0.946701 0.621061
O O5 0.579851 0.838598 0.623279
O O6 0.503620 0.734184 0.366730
O O7 0.202903 0.129437 0.382431
O O8 0.211862 0.198045 0.597444
O O9 0.079187 0.085759 0.348401
O O10 0.198585 0.972272 0.541383
O O11 0.164018 0.201739 0.134651
O O12 0.274437 0.214640 0.143871
O O13 0.128839 0.223874 0.874326
#
# Coordination Sequence:
#
# PCOD8140601 Si02
#       7
#     8   8   8   8   8   8   4
#     4  10  21  42  69  97 127 171 225 265 336 382
#     4  10  21  41  68  98 126 175 217 276 327 394
#     4  11  23  45  67  96 129 177 219 267 331 393
#     4  11  27  41  65 102 131 172 219 272 332 383
#     4  11  23  44  72  95 127 175 227 267 320 405
#     4  11  24  43  62  96 138 165 215 285 324 385
#     4  10  20  42  66  92 130 172 218 258 330 402
#
# _framework density 21.75872
#
# number of rings (size 3 to 8) (size 9 to 14) (size 15 to 20)
#    0.000    1.538    4.615    1.385    4.308    3.692 
#    2.769    1.538    0.000    0.000    0.000    0.000 
#    0.000    0.000    0.000    0.000    0.000    0.000 
#
# Total GULP energy -322131.122109 kJ/mol
# GULP energy per Si atom -12389.658543 kJ/mol
# Density = 2.170920 g / cm^3
# Si number density = 21.758720 Si / 1000 Ang^3
#
#
#
# Elastic Constant Matrix: (Units=GPa)
#
#
# Indices 1 2 3 4 5 6 
#
# 1 76.6322 34.0032 36.6624 0.0000 -1.2838 0.0000
# 2 34.0032 104.6747 40.5632 0.0000 -19.9525 0.0000
# 3 36.6624 40.5632 128.6658 0.0000 -24.1455 0.0000
# 4 0.0000 0.0000 0.0000 24.0569 0.0000 4.3617
# 5 -1.2838 -19.9525 -24.1455 0.0000 33.7192 0.0000
# 6 0.0000 0.0000 0.0000 4.3617 0.0000 23.4274
#
#
#
# Elastic Compliance Matrix: (Units=1/GPa)
#
#
# Indices 1 2 3 4 5 6 
#
# 1 0.017238 -0.004935 -0.004368 0.000000 -0.005392 0.000000
# 2 -0.004935 0.012951 -0.001472 0.000000 0.006422 0.000000
# 3 -0.004368 -0.001472 0.010728 0.000000 0.006645 0.000000
# 4 0.000000 0.000000 0.000000 0.043020 0.000000 -0.008009
# 5 -0.005392 0.006422 0.006645 0.000000 0.038009 0.000000
# 6 0.000000 0.000000 0.000000 -0.008009 0.000000 0.044176
#
#
# Mechanical properties :
#
#
# Convention : Reuss Voigt Hill
#
# Bulk Modulus (GPa) = 51.63195 59.15894 55.39544
# Shear Modulus (GPa) = 25.75621 29.49027 27.62324
#
# Velocity S-wave (km/s) = 3.44425 3.68548 3.56691
# Velocity P-wave (km/s) = 6.29270 6.73483 6.51751
#
# Compressibility (1/GPa) = 0.01936785
#
# Stress axis : x y z
#
# Youngs Moduli (GPa) = 58.00981 77.21508 93.21746
#
# Poissons Ratio (x) = 0.38105 0.40717
# Poissons Ratio (y) = 0.28627 0.13718
# Poissons Ratio (z) = 0.25339 0.11363
#
# Static dielectric constant tensor:
#      x y z
#    x 3.987880 0.000000 0.158860 
#    y 0.000000 3.743490 0.000000 
#    z 0.158860 0.000000 3.974160 
# 
# 
# High freq. dielectric constant tensor:
#      x y z
#    x 1.848910 0.000000 0.006400 
#    y 0.000000 1.842180 0.000000 
#    z 0.006400 0.000000 1.849780 
# 
# From -- ./inp_files/118072.got.cif
#   From: 2010.06.25/outbox.cif.g09.slc.cpg/sg15_60_cif.got.tgz:118072.got - 2010.06.28 07:06:18.
