data_PCOD8140729
_publ_section_title
;
Structure prediction by ZEFSAII (Michael W. Deem and Ramdas Pophale) SiO2 
 PCOD8140729
Probable space group: C 2/C
;
_chemical_formula_sum "Si O2"
_cell_formula_units_Z 56
_cell_length_a 11.984796
_cell_length_b 29.387753
_cell_length_c 9.552541
_cell_angle_alpha 90.000000
_cell_angle_beta 52.793587
_cell_angle_gamma 90.000000
_cell_volume 2679.668858
_symmetry_space_group_name_H-M "C 2/C"
_symmetry_group_IT_number 15
_symmetry_cell_setting 'monoclinic'
loop_
_space_group_symop_operation_xyz
x,y,z
-x,y,1/2-z
-x,-y,-z
x,-y,1/2+z
1/2+x,1/2+y,z
1/2-x,1/2+y,1/2-z
1/2-x,1/2-y,-z
1/2+x,1/2-y,1/2+z
loop_
_atom_site_type_symbol
_atom_site_label
_atom_site_fract_x
_atom_site_fract_y
_atom_site_fract_z
Si Si1 0.890061 0.630199 0.218036
Si Si2 0.880207 0.309787 0.454841
Si Si3 0.500000 0.428382 0.250000
Si Si4 0.381553 0.974436 0.675238
Si Si5 0.095558 0.791294 0.544972
Si Si6 0.000000 0.078803 0.250000
Si Si7 0.709904 0.506869 0.051641
Si Si8 0.928422 0.866330 0.542814
O O1 0.924940 0.576961 0.173113
O O2 0.730917 0.639261 0.391745
O O3 0.000000 0.649398 0.250000
O O4 0.911855 0.654525 0.053068
O O5 0.868471 0.259639 0.535549
O O6 0.733999 0.319465 0.485074
O O7 0.000000 0.315202 0.250000
O O8 0.637716 0.457976 0.118053
O O9 0.520825 0.396735 0.368967
O O10 0.500000 0.000000 0.500000
O O11 0.245697 0.975942 0.680249
O O12 0.344283 0.000908 0.848220
O O13 0.000000 0.783811 0.750000
O O14 0.009388 0.818188 0.491019
O O15 0.919453 0.111222 0.203246
O O16 0.896091 0.046237 0.419996
#
# Coordination Sequence:
#
# PCOD8140729 Si02
#       8
#     8   8   4   8   8   4   8   8
#     4  12  25  45  63  94 140 180 218 277 341 405
#     4  10  23  43  71 104 132 171 220 281 337 405
#     4  11  24  38  62  96 138 168 216 286 337 390
#     4  12  25  42  63  89 133 184 218 265 332 396
#     4  10  20  42  75 100 131 167 225 281 336 399
#     4  11  20  38  70  94 118 164 228 280 321 380
#     4  11  22  41  61  94 128 168 225 276 325 387
#     4  12  22  42  68  97 129 177 222 279 339 398
#
# _framework density 20.898104
#
# number of rings (size 3 to 8) (size 9 to 14) (size 15 to 20)
#    0.000    0.857    5.000    2.143    0.000    4.571 
#    1.286    0.714    0.000    0.000    0.000    0.000 
#    0.000    0.000    0.000    0.000    0.000    0.000 
#
# Total GULP energy -347209.142135 kJ/mol
# GULP energy per Si atom -12400.326505 kJ/mol
# Density = 2.085054 g / cm^3
# Si number density = 20.898104 Si / 1000 Ang^3
#
#
#
# Elastic Constant Matrix: (Units=GPa)
#
#
# Indices 1 2 3 4 5 6 
#
# 1 116.1008 32.7618 25.8889 0.0000 -1.2559 0.0000
# 2 32.7618 86.6924 23.1711 0.0000 2.5256 0.0000
# 3 25.8889 23.1711 95.8623 0.0000 -3.9302 0.0000
# 4 0.0000 0.0000 0.0000 20.4406 0.0000 7.6801
# 5 -1.2559 2.5256 -3.9302 0.0000 34.6134 0.0000
# 6 0.0000 0.0000 0.0000 7.6801 0.0000 35.4152
#
#
#
# Elastic Compliance Matrix: (Units=1/GPa)
#
#
# Indices 1 2 3 4 5 6 
#
# 1 0.009961 -0.003272 -0.001883 0.000000 0.000386 0.000000
# 2 -0.003272 0.013460 -0.002426 0.000000 -0.001376 0.000000
# 3 -0.001883 -0.002426 0.011585 0.000000 0.001424 0.000000
# 4 0.000000 0.000000 0.000000 0.053262 0.000000 -0.011550
# 5 0.000386 -0.001376 0.001424 0.000000 0.029167 0.000000
# 6 0.000000 0.000000 0.000000 -0.011550 0.000000 0.030741
#
#
# Mechanical properties :
#
#
# Convention : Reuss Voigt Hill
#
# Bulk Modulus (GPa) = 50.39639 51.36653 50.88146
# Shear Modulus (GPa) = 29.41986 32.54943 30.98465
#
# Velocity S-wave (km/s) = 3.75611 3.95084 3.85470
# Velocity P-wave (km/s) = 6.55582 6.74129 6.64920
#
# Compressibility (1/GPa) = 0.01984269
#
# Stress axis : x y z
#
# Youngs Moduli (GPa) = 100.39493 74.29321 86.31803
#
# Poissons Ratio (x) = 0.24310 0.16256
# Poissons Ratio (y) = 0.32850 0.20943
# Poissons Ratio (z) = 0.18907 0.18025
#
# Static dielectric constant tensor:
#      x y z
#    x 4.011820 0.000000 0.237270 
#    y 0.000000 3.925950 0.000000 
#    z 0.237270 0.000000 3.415500 
# 
# 
# High freq. dielectric constant tensor:
#      x y z
#    x 1.825570 0.000000 -0.010400 
#    y 0.000000 1.819430 0.000000 
#    z -0.010400 0.000000 1.806610 
# 
# From -- ./inp_files/35613.got.cif
#   From: 2010.06.25/outbox.cif.g09.slc.cpg/sg15_18_cif.got.tgz:35613.got - 2010.06.28 07:06:18.
