data_PCOD8140821
_publ_section_title
;
Structure prediction by ZEFSAII (Michael W. Deem and Ramdas Pophale) SiO2 
 PCOD8140821
Probable space group: C 2/C
;
_chemical_formula_sum "Si O2"
_cell_formula_units_Z 56
_cell_length_a 19.295349
_cell_length_b 8.393842
_cell_length_c 15.052913
_cell_angle_alpha 90.000000
_cell_angle_beta 92.745147
_cell_angle_gamma 90.000000
_cell_volume 2435.203827
_symmetry_space_group_name_H-M "C 2/C"
_symmetry_group_IT_number 15
_symmetry_cell_setting 'monoclinic'
loop_
_space_group_symop_operation_xyz
x,y,z
-x,y,1/2-z
-x,-y,-z
x,-y,1/2+z
1/2+x,1/2+y,z
1/2-x,1/2+y,1/2-z
1/2-x,1/2-y,-z
1/2+x,1/2-y,1/2+z
loop_
_atom_site_type_symbol
_atom_site_label
_atom_site_fract_x
_atom_site_fract_y
_atom_site_fract_z
Si Si1 0.199406 0.547499 0.844959
Si Si2 0.114546 0.133808 0.103906
Si Si3 0.281276 0.509441 0.526363
Si Si4 0.608424 0.694717 0.391027
Si Si5 0.493345 0.583548 0.653513
Si Si6 0.493319 0.186270 0.997722
Si Si7 0.754827 0.728629 0.814229
O O1 0.124959 0.640251 0.837368
O O2 0.252270 0.628361 0.776572
O O3 0.193325 0.361433 0.815131
O O4 0.228641 0.551091 0.947518
O O5 0.170580 0.179269 0.182781
O O6 0.153604 0.096984 0.014317
O O7 0.067940 0.983600 0.128729
O O8 0.063034 0.281027 0.082476
O O9 0.313316 0.361694 0.582321
O O10 0.244391 0.624102 0.595602
O O11 0.564124 0.558226 0.338395
O O12 0.567415 0.739054 0.477523
O O13 0.500000 0.663921 0.750000
O O14 0.469327 0.724673 0.586305
O O15 0.500000 0.000000 0.000000
#
# Coordination Sequence:
#
# PCOD8140821 Si02
#       7
#     8   8   8   8   8   8   8
#     4  11  24  41  64 104 133 179 223 269 337 398
#     4  10  20  44  65  94 128 181 217 265 343 391
#     4  11  22  43  70  91 139 180 218 274 332 397
#     4  11  22  42  68  96 132 177 221 271 336 401
#     4  11  22  43  72  96 128 172 226 279 333 400
#     4  11  24  42  69  94 129 174 224 275 342 398
#     4  11  25  42  68 100 140 176 223 279 331 405
#
# _framework density 22.996022
#
# number of rings (size 3 to 8) (size 9 to 14) (size 15 to 20)
#    0.000    1.143    2.857    4.714    4.000    1.143 
#    0.000    4.286    0.000    0.000    0.000    0.000 
#    0.000    0.000    0.000    0.000    0.000    0.000 
#
# Total GULP energy -346970.257010 kJ/mol
# GULP energy per Si atom -12391.794893 kJ/mol
# Density = 2.294368 g / cm^3
# Si number density = 22.996022 Si / 1000 Ang^3
#
#
#
# Elastic Constant Matrix: (Units=GPa)
#
#
# Indices 1 2 3 4 5 6 
#
# 1 67.6614 30.4163 14.1777 0.0000 -8.3656 0.0000
# 2 30.4163 123.2506 43.7930 0.0000 3.0942 0.0000
# 3 14.1777 43.7930 103.0362 0.0000 -6.6254 0.0000
# 4 0.0000 0.0000 0.0000 38.2295 0.0000 -7.4989
# 5 -8.3656 3.0942 -6.6254 0.0000 20.5922 0.0000
# 6 0.0000 0.0000 0.0000 -7.4989 0.0000 30.8438
#
#
#
# Elastic Compliance Matrix: (Units=1/GPa)
#
#
# Indices 1 2 3 4 5 6 
#
# 1 0.017828 -0.004604 0.000014 0.000000 0.007939 0.000000
# 2 -0.004604 0.010907 -0.004317 0.000000 -0.004898 0.000000
# 3 0.000014 -0.004317 0.011825 0.000000 0.004459 0.000000
# 4 0.000000 0.000000 0.000000 0.027468 0.000000 0.006678
# 5 0.007939 -0.004898 0.004459 0.000000 0.053958 0.000000
# 6 0.000000 0.000000 0.000000 0.006678 0.000000 0.034045
#
#
# Mechanical properties :
#
#
# Convention : Reuss Voigt Hill
#
# Bulk Modulus (GPa) = 43.96439 52.30246 48.13343
# Shear Modulus (GPa) = 27.55952 31.63718 29.59835
#
# Velocity S-wave (km/s) = 3.46562 3.71316 3.59152
# Velocity P-wave (km/s) = 5.93075 6.41692 6.17862
#
# Compressibility (1/GPa) = 0.02274568
#
# Stress axis : x y z
#
# Youngs Moduli (GPa) = 56.09247 91.68738 84.56689
#
# Poissons Ratio (x) = 0.42212 -0.00120
# Poissons Ratio (y) = 0.25825 0.36508
# Poissons Ratio (z) = -0.00080 0.39582
#
# Static dielectric constant tensor:
#      x y z
#    x 4.066560 0.000000 -0.173510 
#    y 0.000000 4.618760 0.000000 
#    z -0.173510 0.000000 3.978810 
# 
# 
# High freq. dielectric constant tensor:
#      x y z
#    x 1.896220 0.000000 -0.015410 
#    y 0.000000 1.908300 0.000000 
#    z -0.015410 0.000000 1.903210 
# 
# From -- ./inp_files/166674.got.cif
#   From: 2010.06.25/outbox.cif.g09.slc.cpg/sg15_84_cif.got.tgz:166674.got - 2010.06.28 07:06:18.
