data_PCOD8140344
_publ_section_title
;
Structure prediction by ZEFSAII (Michael W. Deem and Ramdas Pophale) SiO2 
 PCOD8140344
Probable space group: C 2/C
;
_chemical_formula_sum "Si O2"
_cell_formula_units_Z 64
_cell_length_a 9.509281
_cell_length_b 29.523388
_cell_length_c 16.582078
_cell_angle_alpha 90.000000
_cell_angle_beta 40.181637
_cell_angle_gamma 90.000000
_cell_volume 3003.695093
_symmetry_space_group_name_H-M "C 2/C"
_symmetry_group_IT_number 15
_symmetry_cell_setting 'monoclinic'
loop_
_space_group_symop_operation_xyz
x,y,z
-x,y,1/2-z
-x,-y,-z
x,-y,1/2+z
1/2+x,1/2+y,z
1/2-x,1/2+y,1/2-z
1/2-x,1/2-y,-z
1/2+x,1/2-y,1/2+z
loop_
_atom_site_type_symbol
_atom_site_label
_atom_site_fract_x
_atom_site_fract_y
_atom_site_fract_z
Si Si1 0.828728 0.911594 0.261874
Si Si2 0.677555 0.186847 0.507315
Si Si3 0.164438 0.192124 0.749289
Si Si4 0.345752 0.413597 0.961521
Si Si5 0.942112 0.448138 0.530796
Si Si6 0.342572 0.064048 0.253557
Si Si7 0.695591 0.527562 0.876518
Si Si8 0.256020 0.763095 0.368160
O O1 0.881038 0.860387 0.213115
O O2 0.593020 0.917368 0.406403
O O3 0.879986 0.940557 0.161485
O O4 0.000000 0.930580 0.250000
O O5 0.418688 0.196429 0.617232
O O6 0.745452 0.135276 0.487715
O O7 0.815744 0.211581 0.518015
O O8 0.750532 0.208903 0.389101
O O9 0.114103 0.221940 0.852162
O O10 0.000000 0.209013 0.750000
O O11 0.300464 0.442528 0.900196
O O12 0.604137 0.413400 0.864962
O O13 0.213270 0.438613 0.093388
O O14 0.946134 0.429356 0.619916
O O15 0.000000 0.500000 0.500000
O O16 0.500000 0.088646 0.250000
O O17 0.354209 0.010202 0.269081
O O18 0.500000 0.500000 0.000000
O O19 0.500000 0.780858 0.250000
#
# Coordination Sequence:
#
# PCOD8140344 Si02
#       8
#     8   8   8   8   8   8   8   8
#     4  11  24  38  62  90 130 173 220 269 319 379
#     4  10  20  41  64  96 119 166 209 258 326 378
#     4  10  21  40  62  99 130 164 208 259 323 390
#     4  11  24  41  64  92 127 168 221 272 319 387
#     4  12  24  39  62  89 126 177 221 269 320 374
#     4  11  25  41  60  87 128 172 221 272 326 377
#     4  10  23  38  60  87 126 172 224 272 317 367
#     4   9  20  38  69  91 127 158 204 262 317 395
#
# _framework density 21.307089999999999
#
# number of rings (size 3 to 8) (size 9 to 14) (size 15 to 20)
#    0.000    1.500    2.500    1.875    7.000    1.500 
#    0.000    0.000    0.000    7.500    0.000    0.000 
#    0.000    0.000    0.000    0.000    0.000    0.000 
#
# Total GULP energy -396447.524051 kJ/mol
# GULP energy per Si atom -12388.985127 kJ/mol
# Density = 2.125859 g / cm^3
# Si number density = 21.307090 Si / 1000 Ang^3
#
#
#
# Elastic Constant Matrix: (Units=GPa)
#
#
# Indices 1 2 3 4 5 6 
#
# 1 195.8521 61.3618 55.0624 0.0000 13.0682 0.0000
# 2 61.3618 108.5810 28.0653 0.0000 15.4699 0.0000
# 3 55.0624 28.0653 65.9266 0.0000 16.9166 0.0000
# 4 0.0000 0.0000 0.0000 15.8139 0.0000 10.6508
# 5 13.0682 15.4699 16.9166 0.0000 41.9045 0.0000
# 6 0.0000 0.0000 0.0000 10.6508 0.0000 34.9917
#
#
#
# Elastic Compliance Matrix: (Units=1/GPa)
#
#
# Indices 1 2 3 4 5 6 
#
# 1 0.007436 -0.002992 -0.005160 0.000000 0.000869 0.000000
# 2 -0.002992 0.011751 -0.001818 0.000000 -0.002671 0.000000
# 3 -0.005160 -0.001818 0.021939 0.000000 -0.006577 0.000000
# 4 0.000000 0.000000 0.000000 0.079542 0.000000 -0.024211
# 5 0.000869 -0.002671 -0.006577 0.000000 0.027234 0.000000
# 6 0.000000 0.000000 0.000000 -0.024211 0.000000 0.035948
#
#
# Mechanical properties :
#
#
# Convention : Reuss Voigt Hill
#
# Bulk Modulus (GPa) = 47.19968 73.25984 60.22976
# Shear Modulus (GPa) = 23.71335 33.60004 28.65669
#
# Velocity S-wave (km/s) = 3.33968 3.97538 3.67132
# Velocity P-wave (km/s) = 6.08864 7.45178 6.80443
#
# Compressibility (1/GPa) = 0.02118658
#
# Stress axis : x y z
#
# Youngs Moduli (GPa) = 134.47923 85.09732 45.58055
#
# Poissons Ratio (x) = 0.25465 0.23518
# Poissons Ratio (y) = 0.40242 0.08286
# Poissons Ratio (z) = 0.69387 0.15469
#
# Static dielectric constant tensor:
#      x y z
#    x 5.066080 0.000000 0.011510 
#    y 0.000000 3.863710 0.000000 
#    z 0.011510 0.000000 3.887990 
# 
# 
# High freq. dielectric constant tensor:
#      x y z
#    x 1.853850 0.000000 0.007990 
#    y 0.000000 1.821890 0.000000 
#    z 0.007990 0.000000 1.822410 
# 
# From -- ./inp_files/194225.got.cif
#   From: 2010.06.25/outbox.cif.g09.slc.cpg/sg15_98_cif.got.tgz:194225.got - 2010.06.28 07:06:18.
