data_PCOD8140550
_publ_section_title
;
Structure prediction by ZEFSAII (Michael W. Deem and Ramdas Pophale) SiO2 
 PCOD8140550
Probable space group: C 2/C
;
_chemical_formula_sum "Si O2"
_cell_formula_units_Z 60
_cell_length_a 8.368014
_cell_length_b 26.547808
_cell_length_c 12.589616
_cell_angle_alpha 90.000000
_cell_angle_beta 92.307979
_cell_angle_gamma 90.000000
_cell_volume 2794.544990
_symmetry_space_group_name_H-M "C 2/C"
_symmetry_group_IT_number 15
_symmetry_cell_setting 'monoclinic'
loop_
_space_group_symop_operation_xyz
x,y,z
-x,y,1/2-z
-x,-y,-z
x,-y,1/2+z
1/2+x,1/2+y,z
1/2-x,1/2+y,1/2-z
1/2-x,1/2-y,-z
1/2+x,1/2-y,1/2+z
loop_
_atom_site_type_symbol
_atom_site_label
_atom_site_fract_x
_atom_site_fract_y
_atom_site_fract_z
Si Si1 0.813162 0.358044 0.756801
Si Si2 0.500000 0.082367 0.750000
Si Si3 0.168558 0.885339 0.539562
Si Si4 0.829034 0.931265 0.586421
Si Si5 0.353204 0.972530 0.440019
Si Si6 0.125806 0.280660 0.567085
Si Si7 0.323380 0.862637 0.074286
Si Si8 0.494771 0.317032 0.125890
O O1 0.731119 0.351262 0.639280
O O2 0.723030 0.406145 0.804241
O O3 0.788443 0.307854 0.828719
O O4 0.000000 0.369893 0.750000
O O5 0.597115 0.047202 0.673792
O O6 0.615956 0.121683 0.810250
O O7 0.303253 0.925610 0.511701
O O8 0.010703 0.917093 0.565118
O O9 0.143408 0.847581 0.438885
O O10 0.705517 0.913058 0.492922
O O11 0.799846 0.991361 0.587020
O O12 0.500000 0.000000 0.500000
O O13 0.250000 0.250000 0.500000
O O14 0.056510 0.325549 0.489231
O O15 0.984332 0.243709 0.605477
O O16 0.159683 0.832889 0.078138
O O17 0.500000 0.330125 0.250000
#
# Coordination Sequence:
#
# PCOD8140550 Si02
#       8
#     8   4   8   8   8   8   8   8
#     4  11  23  41  69 100 138 181 228 290 343 406
#     4  12  24  40  64  96 128 176 224 274 344 396
#     4  11  25  43  69  98 138 179 230 286 345 411
#     4  10  22  42  64  95 135 178 227 277 340 404
#     4  12  25  42  66  99 136 180 230 282 342 417
#     4   9  20  41  65  91 134 176 218 277 344 407
#     4   9  20  39  61  88 128 170 213 272 329 399
#     4  10  20  42  64  92 129 171 219 277 336 399
#
# _framework density 21.470400000000001
#
# number of rings (size 3 to 8) (size 9 to 14) (size 15 to 20)
#    0.000    1.600    1.333    3.600    4.667    0.000 
#    4.800    2.667    0.000    0.000    0.000    0.000 
#    0.000    0.000    0.000    0.000    0.000    0.000 
#
# Total GULP energy -371820.011266 kJ/mol
# GULP energy per Si atom -12394.000376 kJ/mol
# Density = 2.142153 g / cm^3
# Si number density = 21.470400 Si / 1000 Ang^3
#
#
#
# Elastic Constant Matrix: (Units=GPa)
#
#
# Indices 1 2 3 4 5 6 
#
# 1 64.2011 38.1830 42.1634 0.0000 7.1588 0.0000
# 2 38.1830 131.9248 67.4607 0.0000 7.7205 0.0000
# 3 42.1634 67.4607 169.5003 0.0000 13.6556 0.0000
# 4 0.0000 0.0000 0.0000 37.5501 0.0000 -7.1018
# 5 7.1588 7.7205 13.6556 0.0000 36.9610 0.0000
# 6 0.0000 0.0000 0.0000 -7.1018 0.0000 24.3957
#
#
#
# Elastic Compliance Matrix: (Units=1/GPa)
#
#
# Indices 1 2 3 4 5 6 
#
# 1 0.020387 -0.004112 -0.003284 0.000000 -0.001877 0.000000
# 2 -0.004112 0.010359 -0.003082 0.000000 -0.000229 0.000000
# 3 -0.003284 -0.003082 0.008080 0.000000 -0.001706 0.000000
# 4 0.000000 0.000000 0.000000 0.028183 0.000000 0.008204
# 5 -0.001877 -0.000229 -0.001706 0.000000 0.028097 0.000000
# 6 0.000000 0.000000 0.000000 0.008204 0.000000 0.043379
#
#
# Mechanical properties :
#
#
# Convention : Reuss Voigt Hill
#
# Bulk Modulus (GPa) = 55.95117 73.47117 64.71117
# Shear Modulus (GPa) = 30.23010 34.30263 32.26636
#
# Velocity S-wave (km/s) = 3.75639 4.00142 3.88084
# Velocity P-wave (km/s) = 6.70300 7.45939 7.09129
#
# Compressibility (1/GPa) = 0.01787273
#
# Stress axis : x y z
#
# Youngs Moduli (GPa) = 49.05026 96.53048 123.75495
#
# Poissons Ratio (x) = 0.39691 0.40638
# Poissons Ratio (y) = 0.20168 0.38139
# Poissons Ratio (z) = 0.16107 0.29749
#
# Static dielectric constant tensor:
#      x y z
#    x 3.631910 0.000000 -0.458650 
#    y 0.000000 4.332070 0.000000 
#    z -0.458650 0.000000 2.050980 
# 
# 
# High freq. dielectric constant tensor:
#      x y z
#    x 1.822510 0.000000 -0.014560 
#    y 0.000000 1.852880 0.000000 
#    z -0.014560 0.000000 1.855820 
# 
# From -- ./inp_files/81377.got.cif
#   From: 2010.06.25/outbox.cif.g09.slc.cpg/sg15_41_cif.got.tgz:81377.got - 2010.06.28 07:06:18.
