data_PCOD8140235
_publ_section_title
;
Structure prediction by ZEFSAII (Michael W. Deem and Ramdas Pophale) SiO2 
 PCOD8140235
Probable space group: C 2/C
;
_chemical_formula_sum "Si O2"
_cell_formula_units_Z 40
_cell_length_a 8.052994
_cell_length_b 16.875047
_cell_length_c 14.641971
_cell_angle_alpha 90.000000
_cell_angle_beta 62.272862
_cell_angle_gamma 90.000000
_cell_volume 1761.287454
_symmetry_space_group_name_H-M "C 2/C"
_symmetry_group_IT_number 15
_symmetry_cell_setting 'monoclinic'
loop_
_space_group_symop_operation_xyz
x,y,z
-x,y,1/2-z
-x,-y,-z
x,-y,1/2+z
1/2+x,1/2+y,z
1/2-x,1/2+y,1/2-z
1/2-x,1/2-y,-z
1/2+x,1/2-y,1/2+z
loop_
_atom_site_type_symbol
_atom_site_label
_atom_site_fract_x
_atom_site_fract_y
_atom_site_fract_z
Si Si1 0.031029 0.360759 0.107314
Si Si2 0.991419 0.019963 0.648765
Si Si3 0.699035 0.022185 0.076678
Si Si4 0.187683 0.819260 0.317241
Si Si5 0.574564 0.808077 0.560574
O O1 0.030977 0.457205 0.117663
O O2 0.219976 0.328741 0.106238
O O3 0.845555 0.325451 0.200372
O O4 0.030381 0.331533 0.005080
O O5 0.180919 0.001741 0.544848
O O6 0.000000 0.985286 0.750000
O O7 0.971321 0.114750 0.657376
O O8 0.815143 0.983515 0.640695
O O9 0.627494 0.111509 0.097895
O O10 0.081022 0.735771 0.337661
O O11 0.750000 0.750000 0.500000
#
# Coordination Sequence:
#
# PCOD8140235 Si02
#       5
#     8   8   8   8   8
#     4  10  23  44  68  93 137 186 220 274 339 410
#     4  10  20  40  71  97 133 179 224 277 335 405
#     4  10  22  42  70 100 136 179 229 271 338 415
#     4  10  22  42  70  96 132 180 228 272 345 398
#     4  12  23  40  70 103 139 170 221 289 339 396
#
# _framework density 22.710660000000001
#
# number of rings (size 3 to 8) (size 9 to 14) (size 15 to 20)
#    0.000    1.600    2.000    2.400    0.000    0.000 
#    0.000   12.000    4.400    0.000    0.000    0.000 
#    0.000    0.000    0.000    0.000    0.000    0.000 
#
# Total GULP energy -248008.608771 kJ/mol
# GULP energy per Si atom -12400.430439 kJ/mol
# Density = 2.265897 g / cm^3
# Si number density = 22.710660 Si / 1000 Ang^3
#
#
#
# Elastic Constant Matrix: (Units=GPa)
#
#
# Indices 1 2 3 4 5 6 
#
# 1 79.5089 51.9976 52.5423 0.0000 3.9328 0.0000
# 2 51.9976 160.3677 50.7001 0.0000 -12.5316 0.0000
# 3 52.5423 50.7001 120.4377 0.0000 14.9995 0.0000
# 4 0.0000 0.0000 0.0000 33.0398 0.0000 -12.0903
# 5 3.9328 -12.5316 14.9995 0.0000 39.0010 0.0000
# 6 0.0000 0.0000 0.0000 -12.0903 0.0000 21.9913
#
#
#
# Elastic Compliance Matrix: (Units=1/GPa)
#
#
# Indices 1 2 3 4 5 6 
#
# 1 0.019958 -0.004402 -0.006750 0.000000 -0.000831 0.000000
# 2 -0.004402 0.008695 -0.002251 0.000000 0.004104 0.000000
# 3 -0.006750 -0.002251 0.012815 0.000000 -0.004971 0.000000
# 4 0.000000 0.000000 0.000000 0.037889 0.000000 0.020831
# 5 -0.000831 0.004104 -0.004971 0.000000 0.028954 0.000000
# 6 0.000000 0.000000 0.000000 0.020831 0.000000 0.056925
#
#
# Mechanical properties :
#
#
# Convention : Reuss Voigt Hill
#
# Bulk Modulus (GPa) = 68.20729 74.53271 71.37000
# Shear Modulus (GPa) = 25.38973 32.47804 28.93389
#
# Velocity S-wave (km/s) = 3.34723 3.78574 3.57322
# Velocity P-wave (km/s) = 6.71096 7.21102 6.96547
#
# Compressibility (1/GPa) = 0.01466119
#
# Stress axis : x y z
#
# Youngs Moduli (GPa) = 50.10519 115.00453 78.03549
#
# Poissons Ratio (x) = 0.50625 0.52677
# Poissons Ratio (y) = 0.22056 0.17566
# Poissons Ratio (z) = 0.33823 0.25888
#
# Static dielectric constant tensor:
#      x y z
#    x 4.180750 0.000000 0.190350 
#    y 0.000000 4.117030 0.000000 
#    z 0.190350 0.000000 4.021690 
# 
# 
# High freq. dielectric constant tensor:
#      x y z
#    x 1.907560 0.000000 0.011010 
#    y 0.000000 1.886310 0.000000 
#    z 0.011010 0.000000 1.891510 
# 
# From -- ./inp_files/76904.got.cif
#   From: 2010.06.25/outbox.cif.g09.slc.cpg/sg15_39_cif.got.tgz:76904.got - 2010.06.28 07:06:18.
