data_PCOD8140661
_publ_section_title
;
Structure prediction by ZEFSAII (Michael W. Deem and Ramdas Pophale) SiO2 
 PCOD8140661
Probable space group: C 2/C
;
_chemical_formula_sum "Si O2"
_cell_formula_units_Z 56
_cell_length_a 17.510128
_cell_length_b 14.687706
_cell_length_c 18.760631
_cell_angle_alpha 90.000000
_cell_angle_beta 148.691392
_cell_angle_gamma 90.000000
_cell_volume 2507.261068
_symmetry_space_group_name_H-M "C 2/C"
_symmetry_group_IT_number 15
_symmetry_cell_setting 'monoclinic'
loop_
_space_group_symop_operation_xyz
x,y,z
-x,y,1/2-z
-x,-y,-z
x,-y,1/2+z
1/2+x,1/2+y,z
1/2-x,1/2+y,1/2-z
1/2-x,1/2-y,-z
1/2+x,1/2-y,1/2+z
loop_
_atom_site_type_symbol
_atom_site_label
_atom_site_fract_x
_atom_site_fract_y
_atom_site_fract_z
Si Si1 0.674662 0.983351 0.216790
Si Si2 0.586144 0.437658 0.510665
Si Si3 0.520524 0.234215 0.480963
Si Si4 0.788512 0.278814 0.237791
Si Si5 0.865117 0.027590 0.094244
Si Si6 0.828135 0.314118 0.116607
Si Si7 0.643975 0.956598 0.033420
O O1 0.748069 0.058598 0.326496
O O2 0.747750 0.886364 0.292902
O O3 0.704573 0.998181 0.156196
O O4 0.502417 0.985060 0.099187
O O5 0.500000 0.500000 0.500000
O O6 0.547261 0.332340 0.469160
O O7 0.562030 0.467914 0.409853
O O8 0.345454 0.217857 0.338518
O O9 0.567060 0.240093 0.600955
O O10 0.605357 0.151422 0.509928
O O11 0.813240 0.254042 0.176040
O O12 0.000000 0.068988 0.250000
O O13 0.760522 0.968879 0.063304
O O14 0.765186 0.094534 0.967482
O O15 0.000000 0.337736 0.250000
O O16 0.750000 0.250000 0.000000
#
# Coordination Sequence:
#
# PCOD8140661 Si02
#       7
#     8   8   8   8   8   8   8
#     4  10  20  42  68  94 135 179 234 288 352 434
#     4  12  23  42  71  96 136 191 239 290 356 428
#     4  11  24  41  70  96 136 178 241 291 345 420
#     4  11  22  42  65 101 132 176 232 287 345 428
#     4  12  27  44  69 101 147 188 239 297 356 428
#     4  12  25  43  70 103 146 182 228 295 371 433
#     4  10  24  42  68 104 138 183 234 295 362 422
#
# _framework density 22.335131000000001
#
# number of rings (size 3 to 8) (size 9 to 14) (size 15 to 20)
#    0.000    0.857    2.857    3.857    2.000    5.143 
#    0.000    0.000    0.000    0.000    0.000    0.000 
#    0.000    0.000    0.000    0.000    0.000    0.000 
#
# Total GULP energy -346875.348723 kJ/mol
# GULP energy per Si atom -12388.405312 kJ/mol
# Density = 2.228429 g / cm^3
# Si number density = 22.335131 Si / 1000 Ang^3
#
#
#
# Elastic Constant Matrix: (Units=GPa)
#
#
# Indices 1 2 3 4 5 6 
#
# 1 122.4592 16.9782 28.1470 -0.0002 -3.6638 -0.0021
# 2 16.9782 67.0347 14.7787 0.0200 2.2454 0.0275
# 3 28.1470 14.7787 107.7467 0.0418 -4.0016 0.0616
# 4 -0.0002 0.0200 0.0418 5.6319 0.0052 -45.5761
# 5 -3.6638 2.2454 -4.0016 0.0052 32.5146 0.0128
# 6 -0.0021 0.0275 0.0616 -45.5761 0.0128 -32.7367
#
#
#
# Elastic Compliance Matrix: (Units=1/GPa)
#
#
# Indices 1 2 3 4 5 6 
#
# 1 0.008917 -0.001837 -0.002045 -0.000002 0.000880 -0.000003
# 2 -0.001837 0.015819 -0.001746 0.000003 -0.001514 0.000006
# 3 -0.002045 -0.001746 0.010097 0.000006 0.001133 0.000009
# 4 -0.000002 0.000003 0.000006 0.014475 0.000006 -0.020153
# 5 0.000880 -0.001514 0.001133 0.000006 0.031099 0.000005
# 6 -0.000003 0.000006 0.000009 -0.020153 0.000005 -0.002490
#
#
# Mechanical properties :
#
#
# Convention : Reuss Voigt Hill
#
# Bulk Modulus (GPa) = 42.41508 46.33871 44.37689
# Shear Modulus (GPa) = 51.53010 16.90441 34.21725
#
# Velocity S-wave (km/s) = 4.80847 2.75408 3.91831
# Velocity P-wave (km/s) = 7.06117 5.55926 6.35474
#
# Compressibility (1/GPa) = 0.02357652
#
# Stress axis : x y z
#
# Youngs Moduli (GPa) = 112.14532 63.21666 99.04199
#
# Poissons Ratio (x) = 0.11614 0.20252
# Poissons Ratio (y) = 0.20603 0.17293
# Poissons Ratio (z) = 0.22931 0.11038
#
# Static dielectric constant tensor:
#      x y z
#    x 3.947540 0.000060 -0.073160 
#    y 0.000060 0.097840 0.000050 
#    z -0.073160 0.000050 4.503620 
# 
# 
# High freq. dielectric constant tensor:
#      x y z
#    x 1.863880 0.000000 -0.007110 
#    y 0.000000 1.873980 0.000000 
#    z -0.007110 0.000000 1.908130 
# 
# From -- ./inp_files/249282.got.cif
#   From: 2010.06.25/outbox.cif.g09.slc.cpg/sg15_125_cif.got.tgz:249282.got - 2010.06.28 07:06:18.
