data_PCOD8140516
_publ_section_title
;
Structure prediction by ZEFSAII (Michael W. Deem and Ramdas Pophale) SiO2 
 PCOD8140516
Probable space group: C 2/C
;
_chemical_formula_sum "Si O2"
_cell_formula_units_Z 60
_cell_length_a 24.156421
_cell_length_b 9.553819
_cell_length_c 23.052484
_cell_angle_alpha 90.000000
_cell_angle_beta 147.747552
_cell_angle_gamma 90.000000
_cell_volume 2839.124065
_symmetry_space_group_name_H-M "C 2/C"
_symmetry_group_IT_number 15
_symmetry_cell_setting 'monoclinic'
loop_
_space_group_symop_operation_xyz
x,y,z
-x,y,1/2-z
-x,-y,-z
x,-y,1/2+z
1/2+x,1/2+y,z
1/2-x,1/2+y,1/2-z
1/2-x,1/2-y,-z
1/2+x,1/2-y,1/2+z
loop_
_atom_site_type_symbol
_atom_site_label
_atom_site_fract_x
_atom_site_fract_y
_atom_site_fract_z
Si Si1 0.458298 0.536658 0.336537
Si Si2 0.446009 0.808870 0.041634
Si Si3 0.290496 0.397381 0.019987
Si Si4 0.000000 0.001434 0.250000
Si Si5 0.248960 0.386932 0.699028
Si Si6 0.915893 0.226620 0.540805
Si Si7 0.420644 0.991885 0.626622
Si Si8 0.868044 0.653131 0.872925
O O1 0.521031 0.646372 0.431014
O O2 0.488875 0.588606 0.298934
O O3 0.335640 0.547687 0.234341
O O4 0.484559 0.375617 0.376127
O O5 0.528706 0.882898 0.072195
O O6 0.444460 0.881277 0.103402
O O7 0.332143 0.811102 0.914349
O O8 0.393173 0.415048 0.150246
O O9 0.324894 0.381961 0.982332
O O10 0.250000 0.250000 0.000000
O O11 0.197371 0.507294 0.951492
O O12 0.196796 0.511172 0.688716
O O13 0.298913 0.277658 0.787028
O O14 0.936499 0.344737 0.607584
O O15 0.893355 0.305842 0.461418
O O16 0.500000 0.002074 0.750000
#
# Coordination Sequence:
#
# PCOD8140516 Si02
#       8
#     8   8   8   4   8   8   8   8
#     4  10  25  41  69  95 135 178 220 279 340 415
#     4  11  25  47  62 101 140 178 237 276 350 412
#     4   9  21  37  63  96 130 169 225 275 341 396
#     4  10  20  42  62  92 130 178 218 272 336 414
#     4  11  25  44  68  96 133 178 229 282 344 409
#     4  10  23  42  67 101 131 176 232 287 346 408
#     4  11  24  42  68 100 141 182 228 292 343 420
#     4  11  26  43  71  98 136 182 227 292 343 412
#
# _framework density 21.133279000000002
#
# number of rings (size 3 to 8) (size 9 to 14) (size 15 to 20)
#    0.000    1.600    1.333    1.200   14.933    2.133 
#    7.200    3.333    0.000    0.000    0.000    0.000 
#    0.000    0.000    0.000    0.000    0.000    0.000 
#
# Total GULP energy -371718.770288 kJ/mol
# GULP energy per Si atom -12390.625676 kJ/mol
# Density = 2.108518 g / cm^3
# Si number density = 21.133279 Si / 1000 Ang^3
#
#
#
# Elastic Constant Matrix: (Units=GPa)
#
#
# Indices 1 2 3 4 5 6 
#
# 1 93.4440 0.1783 52.9126 0.0000 6.5161 0.0000
# 2 0.1783 37.7349 19.1606 0.0000 7.9682 0.0000
# 3 52.9126 19.1606 133.9071 0.0000 13.2961 0.0000
# 4 0.0000 0.0000 0.0000 25.7397 0.0000 4.3551
# 5 6.5161 7.9682 13.2961 0.0000 43.7084 0.0000
# 6 0.0000 0.0000 0.0000 4.3551 0.0000 35.0381
#
#
#
# Elastic Compliance Matrix: (Units=1/GPa)
#
#
# Indices 1 2 3 4 5 6 
#
# 1 0.014121 0.003134 -0.005942 0.000000 -0.000869 0.000000
# 2 0.003134 0.029999 -0.005095 0.000000 -0.004386 0.000000
# 3 -0.005942 -0.005095 0.010687 0.000000 -0.001436 0.000000
# 4 0.000000 0.000000 0.000000 0.039685 0.000000 -0.004933
# 5 -0.000869 -0.004386 -0.001436 0.000000 0.024245 0.000000
# 6 0.000000 0.000000 0.000000 -0.004933 0.000000 0.029153
#
#
# Mechanical properties :
#
#
# Convention : Reuss Voigt Hill
#
# Bulk Modulus (GPa) = 25.64046 45.50988 35.57517
# Shear Modulus (GPa) = 28.29682 33.75288 31.02485
#
# Velocity S-wave (km/s) = 3.66316 4.00076 3.83568
# Velocity P-wave (km/s) = 5.48186 6.55156 6.04043
#
# Compressibility (1/GPa) = 0.03900086
#
# Stress axis : x y z
#
# Youngs Moduli (GPa) = 70.81753 33.33404 93.56740
#
# Poissons Ratio (x) = -0.10447 0.55597
# Poissons Ratio (y) = -0.22193 0.47676
# Poissons Ratio (z) = 0.42079 0.16985
#
# Static dielectric constant tensor:
#      x y z
#    x 4.670540 0.000000 0.842510 
#    y 0.000000 3.717400 0.000000 
#    z 0.842510 0.000000 4.353640 
# 
# 
# High freq. dielectric constant tensor:
#      x y z
#    x 1.847040 0.000000 0.010170 
#    y 0.000000 1.822380 0.000000 
#    z 0.010170 0.000000 1.826300 
# 
# From -- ./inp_files/283422.got.cif
#   From: 2010.06.25/outbox.cif.g09.slc.cpg/sg15_142_cif.got.tgz:283422.got - 2010.06.28 07:06:18.
