data_PCOD8140843
_publ_section_title
;
Structure prediction by ZEFSAII (Michael W. Deem and Ramdas Pophale) SiO2 
 PCOD8140843
Probable space group: C 2/C
;
_chemical_formula_sum "Si O2"
_cell_formula_units_Z 44
_cell_length_a 8.164020
_cell_length_b 11.527926
_cell_length_c 22.352936
_cell_angle_alpha 90.000000
_cell_angle_beta 72.934703
_cell_angle_gamma 90.000000
_cell_volume 2011.103874
_symmetry_space_group_name_H-M "C 2/C"
_symmetry_group_IT_number 15
_symmetry_cell_setting 'monoclinic'
loop_
_space_group_symop_operation_xyz
x,y,z
-x,y,1/2-z
-x,-y,-z
x,-y,1/2+z
1/2+x,1/2+y,z
1/2-x,1/2+y,1/2-z
1/2-x,1/2-y,-z
1/2+x,1/2-y,1/2+z
loop_
_atom_site_type_symbol
_atom_site_label
_atom_site_fract_x
_atom_site_fract_y
_atom_site_fract_z
Si Si1 0.000000 0.784843 0.750000
Si Si2 0.725884 0.521210 0.281134
Si Si3 0.501907 0.924010 0.327086
Si Si4 0.091821 0.406210 0.450178
Si Si5 0.981034 0.967262 0.408192
Si Si6 0.924468 0.182700 0.493646
O O1 0.159545 0.859389 0.758704
O O2 0.932236 0.700322 0.810233
O O3 0.803567 0.444410 0.218400
O O4 0.565715 0.463399 0.333288
O O5 0.878388 0.528416 0.315183
O O6 0.493634 0.919610 0.398354
O O7 0.290783 0.422873 0.420947
O O8 0.000000 0.500000 0.500000
O O9 0.072029 0.279277 0.480800
O O10 0.087146 0.886213 0.442559
O O11 0.974176 0.097745 0.434073
O O12 0.750000 0.250000 0.500000
#
# Coordination Sequence:
#
# PCOD8140843 Si02
#       6
#     4   8   8   8   8   8
#     4  10  20  44  68  90 128 178 210 276 346 390
#     4  10  21  43  69  93 129 170 223 279 337 399
#     4  10  25  44  64 100 136 170 229 278 333 413
#     4  12  24  44  67  98 140 182 225 280 337 406
#     4  11  24  41  68  99 133 177 228 277 341 406
#     4  11  23  43  65  96 138 182 222 279 337 405
#
# _framework density 21.878533000000001
#
# number of rings (size 3 to 8) (size 9 to 14) (size 15 to 20)
#    0.000    1.455    1.818    3.818    2.545    1.455 
#    9.818   14.545    0.000    0.000    0.000    0.000 
#    0.000    0.000    0.000    0.000    0.000    0.000 
#
# Total GULP energy -272647.031755 kJ/mol
# GULP energy per Si atom -12393.046898 kJ/mol
# Density = 2.182874 g / cm^3
# Si number density = 21.878533 Si / 1000 Ang^3
#
#
#
# Elastic Constant Matrix: (Units=GPa)
#
#
# Indices 1 2 3 4 5 6 
#
# 1 123.4062 65.8442 39.9289 0.0000 -8.9367 0.0000
# 2 65.8442 147.9195 52.8171 0.0000 3.4302 0.0000
# 3 39.9289 52.8171 121.4155 0.0000 -1.3991 0.0000
# 4 0.0000 0.0000 0.0000 28.5729 0.0000 10.7119
# 5 -8.9367 3.4302 -1.3991 0.0000 45.5918 0.0000
# 6 0.0000 0.0000 0.0000 10.7119 0.0000 47.6597
#
#
#
# Elastic Compliance Matrix: (Units=1/GPa)
#
#
# Indices 1 2 3 4 5 6 
#
# 1 0.011205 -0.004427 -0.001730 0.000000 0.002476 0.000000
# 2 -0.004427 0.009776 -0.002816 0.000000 -0.001690 0.000000
# 3 -0.001730 -0.002816 0.010032 0.000000 0.000181 0.000000
# 4 0.000000 0.000000 0.000000 0.038219 0.000000 -0.008590
# 5 0.002476 -0.001690 0.000181 0.000000 0.022552 0.000000
# 6 0.000000 0.000000 0.000000 -0.008590 0.000000 0.022913
#
#
# Mechanical properties :
#
#
# Convention : Reuss Voigt Hill
#
# Bulk Modulus (GPa) = 76.53745 78.88019 77.70882
# Shear Modulus (GPa) = 36.49673 39.97493 38.23583
#
# Velocity S-wave (km/s) = 4.08873 4.27913 4.18502
# Velocity P-wave (km/s) = 7.57292 7.78117 7.67775
#
# Compressibility (1/GPa) = 0.01306550
#
# Stress axis : x y z
#
# Youngs Moduli (GPa) = 89.24856 102.29281 99.67723
#
# Poissons Ratio (x) = 0.45287 0.17248
# Poissons Ratio (y) = 0.39512 0.28071
# Poissons Ratio (z) = 0.15443 0.28807
#
# Static dielectric constant tensor:
#      x y z
#    x 3.913300 0.000000 0.055350 
#    y 0.000000 4.141170 0.000000 
#    z 0.055350 0.000000 4.118730 
# 
# 
# High freq. dielectric constant tensor:
#      x y z
#    x 1.866060 0.000000 -0.001090 
#    y 0.000000 1.851070 0.000000 
#    z -0.001090 0.000000 1.870830 
# 
# From -- ./inp_files/263048.got.cif
#   From: 2010.06.25/outbox.cif.g09.slc.cpg/sg15_132_cif.got.tgz:263048.got - 2010.06.28 07:06:18.
