data_PCOD8140517
_publ_section_title
;
Structure prediction by ZEFSAII (Michael W. Deem and Ramdas Pophale) SiO2 
 PCOD8140517
Probable space group: C 2/C
;
_chemical_formula_sum "Si O2"
_cell_formula_units_Z 56
_cell_length_a 13.239248
_cell_length_b 27.657498
_cell_length_c 8.978338
_cell_angle_alpha 90.000000
_cell_angle_beta 124.807477
_cell_angle_gamma 90.000000
_cell_volume 2699.322916
_symmetry_space_group_name_H-M "C 2/C"
_symmetry_group_IT_number 15
_symmetry_cell_setting 'monoclinic'
loop_
_space_group_symop_operation_xyz
x,y,z
-x,y,1/2-z
-x,-y,-z
x,-y,1/2+z
1/2+x,1/2+y,z
1/2-x,1/2+y,1/2-z
1/2-x,1/2-y,-z
1/2+x,1/2-y,1/2+z
loop_
_atom_site_type_symbol
_atom_site_label
_atom_site_fract_x
_atom_site_fract_y
_atom_site_fract_z
Si Si1 0.439576 0.662528 0.539408
Si Si2 0.404892 0.001449 0.789047
Si Si3 0.952293 0.341161 0.863112
Si Si4 0.171350 0.602061 0.686435
Si Si5 0.254551 0.085369 0.081808
Si Si6 0.242416 0.218679 0.289514
Si Si7 0.827008 0.181712 0.953236
O O1 0.500000 0.672498 0.750000
O O2 0.377692 0.608544 0.482173
O O3 0.330996 0.701910 0.420347
O O4 0.535827 0.671670 0.488951
O O5 0.500000 0.981780 0.750000
O O6 0.360725 0.056416 0.737384
O O7 0.281526 0.967657 0.676831
O O8 0.500000 0.000000 0.000000
O O9 0.863237 0.383756 0.740764
O O10 0.882100 0.301348 0.902678
O O11 0.000000 0.316495 0.750000
O O12 0.056237 0.364195 0.053181
O O13 0.240646 0.584699 0.594359
O O14 0.258392 0.631749 0.868972
O O15 0.171079 0.196965 0.372562
O O16 0.254249 0.276462 0.301132
#
# Coordination Sequence:
#
# PCOD8140517 Si02
#       7
#     8   8   8   8   8   8   8
#     4  11  23  44  70  90 128 184 225 269 324 396
#     4  12  22  37  65  98 133 167 212 280 351 400
#     4   9  19  37  62  94 130 164 208 272 334 389
#     4  11  22  38  63 100 130 166 221 271 339 402
#     4  10  20  42  62  93 135 164 213 283 325 391
#     4  10  25  43  64  96 136 172 220 279 330 390
#     4  11  25  43  64  96 136 177 218 275 334 394
#
# _framework density 20.745944000000001
#
# number of rings (size 3 to 8) (size 9 to 14) (size 15 to 20)
#    0.000    1.429    4.286    0.857    4.000    1.143 
#    0.000    0.714    0.000    0.000    0.000    0.000 
#    0.000    0.000    0.000    0.000    0.000    0.000 
#
# Total GULP energy -346963.508104 kJ/mol
# GULP energy per Si atom -12391.553861 kJ/mol
# Density = 2.069873 g / cm^3
# Si number density = 20.745944 Si / 1000 Ang^3
#
#
#
# Elastic Constant Matrix: (Units=GPa)
#
#
# Indices 1 2 3 4 5 6 
#
# 1 116.6452 36.3416 21.6358 0.0000 3.5418 0.0000
# 2 36.3416 118.0738 38.4760 0.0000 9.3434 0.0000
# 3 21.6358 38.4760 87.0994 0.0000 10.5542 0.0000
# 4 0.0000 0.0000 0.0000 16.2917 0.0000 -4.1523
# 5 3.5418 9.3434 10.5542 0.0000 25.1692 0.0000
# 6 0.0000 0.0000 0.0000 -4.1523 0.0000 30.4120
#
#
#
# Elastic Compliance Matrix: (Units=1/GPa)
#
#
# Indices 1 2 3 4 5 6 
#
# 1 0.009600 -0.002550 -0.001274 0.000000 0.000130 0.000000
# 2 -0.002550 0.010661 -0.003835 0.000000 -0.001991 0.000000
# 3 -0.001274 -0.003835 0.014009 0.000000 -0.004272 0.000000
# 4 0.000000 0.000000 0.000000 0.063594 0.000000 0.008683
# 5 0.000130 -0.001991 -0.004272 0.000000 0.042243 0.000000
# 6 0.000000 0.000000 0.000000 0.008683 0.000000 0.034067
#
#
# Mechanical properties :
#
#
# Convention : Reuss Voigt Hill
#
# Bulk Modulus (GPa) = 52.76269 57.19170 54.97719
# Shear Modulus (GPa) = 25.53498 29.39891 27.46695
#
# Velocity S-wave (km/s) = 3.51214 3.76851 3.64258
# Velocity P-wave (km/s) = 6.47571 6.82371 6.65199
#
# Compressibility (1/GPa) = 0.01895279
#
# Stress axis : x y z
#
# Youngs Moduli (GPa) = 104.16903 93.79709 71.38115
#
# Poissons Ratio (x) = 0.23917 0.09094
# Poissons Ratio (y) = 0.26561 0.27375
# Poissons Ratio (z) = 0.13271 0.35971
#
# Static dielectric constant tensor:
#      x y z
#    x 5.402500 0.000000 0.558380 
#    y 0.000000 3.708750 0.000000 
#    z 0.558380 0.000000 3.802980 
# 
# 
# High freq. dielectric constant tensor:
#      x y z
#    x 1.806370 0.000000 0.000770 
#    y 0.000000 1.805920 0.000000 
#    z 0.000770 0.000000 1.811370 
# 
# From -- ./inp_files/35771.got.cif
#   From: 2010.06.25/outbox.cif.g09.slc.cpg/sg15_18_cif.got.tgz:35771.got - 2010.06.28 07:06:18.
