data_PCOD8140140
_publ_section_title
;
Structure prediction by ZEFSAII (Michael W. Deem and Ramdas Pophale) SiO2 
 PCOD8140140
Probable space group: C 2/C
;
_chemical_formula_sum "Si O2"
_cell_formula_units_Z 64
_cell_length_a 11.581820
_cell_length_b 15.187401
_cell_length_c 25.997019
_cell_angle_alpha 90.000000
_cell_angle_beta 136.470116
_cell_angle_gamma 90.000000
_cell_volume 3149.449148
_symmetry_space_group_name_H-M "C 2/C"
_symmetry_group_IT_number 15
_symmetry_cell_setting 'monoclinic'
loop_
_space_group_symop_operation_xyz
x,y,z
-x,y,1/2-z
-x,-y,-z
x,-y,1/2+z
1/2+x,1/2+y,z
1/2-x,1/2+y,1/2-z
1/2-x,1/2-y,-z
1/2+x,1/2-y,1/2+z
loop_
_atom_site_type_symbol
_atom_site_label
_atom_site_fract_x
_atom_site_fract_y
_atom_site_fract_z
Si Si1 0.649803 0.101258 0.333875
Si Si2 0.050530 0.839281 0.168939
Si Si3 0.559384 0.019583 0.152551
Si Si4 0.059144 0.311045 0.586216
Si Si5 0.886391 0.676917 0.838523
Si Si6 0.711242 0.228938 0.585383
Si Si7 0.380557 0.464877 0.821846
Si Si8 0.572948 0.315733 0.830750
O O1 0.500000 0.140836 0.250000
O O2 0.573016 0.023064 0.343255
O O3 0.711626 0.173672 0.394471
O O4 0.805985 0.068786 0.351295
O O5 0.868771 0.837543 0.137123
O O6 0.070969 0.763050 0.133526
O O7 0.195767 0.825252 0.257445
O O8 0.060858 0.936122 0.147556
O O9 0.525511 0.091399 0.097653
O O10 0.744760 0.039026 0.232847
O O11 0.543396 0.920454 0.127181
O O12 0.227106 0.309261 0.606628
O O13 0.903289 0.288794 0.500178
O O14 0.891695 0.725162 0.894871
O O15 0.001067 0.728058 0.834607
O O16 0.529690 0.401656 0.850920
O O17 0.500000 0.323584 0.750000
#
# Coordination Sequence:
#
# PCOD8140140 Si02
#       8
#     8   8   8   8   8   8   8   8
#     4  10  20  40  67  94 128 167 218 271 312 381
#     4  11  23  42  69  98 125 169 223 269 312 383
#     4  10  22  39  66  96 127 164 215 269 321 370
#     4  12  26  43  63  96 136 173 207 267 330 377
#     4  11  24  42  69  97 124 173 220 265 317 383
#     4  12  25  42  65  94 134 172 216 262 324 383
#     4  10  22  40  67  98 121 164 220 267 320 368
#     4  12  23  42  68  92 131 168 210 266 320 383
#
# _framework density 20.321013000000001
#
# number of rings (size 3 to 8) (size 9 to 14) (size 15 to 20)
#    0.000    1.000    5.000    1.500    3.500    1.500 
#    0.000    0.625    0.000    0.000    0.000    0.000 
#    0.000    0.000    0.000    0.000    0.000    0.000 
#
# Total GULP energy -396839.363149 kJ/mol
# GULP energy per Si atom -12401.230098 kJ/mol
# Density = 2.027476 g / cm^3
# Si number density = 20.321013 Si / 1000 Ang^3
#
#
#
# Elastic Constant Matrix: (Units=GPa)
#
#
# Indices 1 2 3 4 5 6 
#
# 1 109.2783 32.6417 13.9540 0.0000 9.1805 0.0000
# 2 32.6417 123.7660 18.4209 0.0000 -0.6492 0.0000
# 3 13.9540 18.4209 43.6118 0.0000 -7.9144 0.0000
# 4 0.0000 0.0000 0.0000 10.2520 0.0000 3.3935
# 5 9.1805 -0.6492 -7.9144 0.0000 20.6738 0.0000
# 6 0.0000 0.0000 0.0000 3.3935 0.0000 26.6676
#
#
#
# Elastic Compliance Matrix: (Units=1/GPa)
#
#
# Indices 1 2 3 4 5 6 
#
# 1 0.010843 -0.002355 -0.003613 0.000000 -0.006272 0.000000
# 2 -0.002355 0.009161 -0.003089 0.000000 0.000151 0.000000
# 3 -0.003613 -0.003089 0.027580 0.000000 0.012065 0.000000
# 4 0.000000 0.000000 0.000000 0.101832 0.000000 -0.012958
# 5 -0.006272 0.000151 0.012065 0.000000 0.055779 0.000000
# 6 0.000000 0.000000 0.000000 -0.012958 0.000000 0.039148
#
#
# Mechanical properties :
#
#
# Convention : Reuss Voigt Hill
#
# Bulk Modulus (GPa) = 33.93163 45.18770 39.55967
# Shear Modulus (GPa) = 18.36359 25.62798 21.99579
#
# Velocity S-wave (km/s) = 3.00938 3.55513 3.29358
# Velocity P-wave (km/s) = 5.36742 6.25597 5.82865
#
# Compressibility (1/GPa) = 0.02947102
#
# Stress axis : x y z
#
# Youngs Moduli (GPa) = 92.22938 109.15463 36.25862
#
# Poissons Ratio (x) = 0.25704 0.13099
# Poissons Ratio (y) = 0.21718 0.11199
# Poissons Ratio (z) = 0.33320 0.33715
#
# Static dielectric constant tensor:
#      x y z
#    x 3.901780 0.000000 0.096840 
#    y 0.000000 3.791910 0.000000 
#    z 0.096840 0.000000 3.457770 
# 
# 
# High freq. dielectric constant tensor:
#      x y z
#    x 1.811950 0.000000 0.004920 
#    y 0.000000 1.801530 0.000000 
#    z 0.004920 0.000000 1.765060 
# 
# From -- ./inp_files/311218.got.cif
#   From: 2010.06.25/outbox.cif.g09.slc.cpg/sg15_156_cif.got.tgz:311218.got - 2010.06.28 07:06:18.
