data_PCOD8140336
_publ_section_title
;
Structure prediction by ZEFSAII (Michael W. Deem and Ramdas Pophale) SiO2 
 PCOD8140336
Probable space group: C 2/C
;
_chemical_formula_sum "Si O2"
_cell_formula_units_Z 52
_cell_length_a 27.241627
_cell_length_b 14.710042
_cell_length_c 8.550421
_cell_angle_alpha 90.000000
_cell_angle_beta 136.044714
_cell_angle_gamma 90.000000
_cell_volume 2378.233456
_symmetry_space_group_name_H-M "C 2/C"
_symmetry_group_IT_number 15
_symmetry_cell_setting 'monoclinic'
loop_
_space_group_symop_operation_xyz
x,y,z
-x,y,1/2-z
-x,-y,-z
x,-y,1/2+z
1/2+x,1/2+y,z
1/2-x,1/2+y,1/2-z
1/2-x,1/2-y,-z
1/2+x,1/2-y,1/2+z
loop_
_atom_site_type_symbol
_atom_site_label
_atom_site_fract_x
_atom_site_fract_y
_atom_site_fract_z
Si Si1 0.382867 0.737708 0.290191
Si Si2 0.648225 0.064535 0.839553
Si Si3 0.576800 0.713016 0.464829
Si Si4 0.500000 0.633071 0.750000
Si Si5 0.692571 0.577746 0.275005
Si Si6 0.116949 0.065884 0.796269
Si Si7 0.575332 0.084005 0.985450
O O1 0.374698 0.844860 0.308004
O O2 0.381795 0.721286 0.102120
O O3 0.452189 0.699740 0.535845
O O4 0.314599 0.684099 0.198866
O O5 0.635891 0.079319 0.993953
O O6 0.599748 0.979739 0.681870
O O7 0.730569 0.041520 0.000863
O O8 0.500000 0.670637 0.250000
O O9 0.619719 0.650254 0.683095
O O10 0.567287 0.811803 0.525330
O O11 0.544936 0.568354 0.735032
O O12 0.628627 0.525173 0.220525
O O13 0.682775 0.569111 0.066264
O O14 0.500000 0.049036 0.750000
#
# Coordination Sequence:
#
# PCOD8140336 Si02
#       7
#     8   8   8   4   8   8   8
#     4  10  22  39  63  92 130 166 217 265 320 378
#     4  11  23  42  65  90 134 169 215 268 316 393
#     4  10  20  41  64  92 131 161 209 270 329 373
#     4  10  22  38  64 100 122 174 216 270 328 370
#     4  11  24  42  59  94 128 180 215 254 324 389
#     4  11  23  41  65  90 135 168 219 267 314 392
#     4  10  23  40  67  98 123 164 213 272 331 376
#
# _framework density 21.864968000000001
#
# number of rings (size 3 to 8) (size 9 to 14) (size 15 to 20)
#    0.000    1.538    1.538    2.769    1.077    4.923 
#    6.923    8.462    0.000    0.000    0.000    0.000 
#    0.000    0.000    0.000    0.000    0.000    0.000 
#
# Total GULP energy -322361.694165 kJ/mol
# GULP energy per Si atom -12398.526699 kJ/mol
# Density = 2.181520 g / cm^3
# Si number density = 21.864968 Si / 1000 Ang^3
#
#
#
# Elastic Constant Matrix: (Units=GPa)
#
#
# Indices 1 2 3 4 5 6 
#
# 1 73.7502 21.1211 30.8108 0.0000 0.7603 0.0000
# 2 21.1211 99.9520 46.4491 0.0000 -9.0749 0.0000
# 3 30.8108 46.4491 114.1797 0.0000 1.1220 0.0000
# 4 0.0000 0.0000 0.0000 27.1733 0.0000 -5.4356
# 5 0.7603 -9.0749 1.1220 0.0000 39.0434 0.0000
# 6 0.0000 0.0000 0.0000 -5.4356 0.0000 28.4066
#
#
#
# Elastic Compliance Matrix: (Units=1/GPa)
#
#
# Indices 1 2 3 4 5 6 
#
# 1 0.015511 -0.001714 -0.003483 0.000000 -0.000600 0.000000
# 2 -0.001714 0.012891 -0.004813 0.000000 0.003168 0.000000
# 3 -0.003483 -0.004813 0.011669 0.000000 -0.001386 0.000000
# 4 0.000000 0.000000 0.000000 0.038266 0.000000 0.007322
# 5 -0.000600 0.003168 -0.001386 0.000000 0.026400 0.000000
# 6 0.000000 0.000000 0.000000 0.007322 0.000000 0.036604
#
#
# Mechanical properties :
#
#
# Convention : Reuss Voigt Hill
#
# Bulk Modulus (GPa) = 49.86708 53.84932 51.85820
# Shear Modulus (GPa) = 29.75397 31.55805 30.65601
#
# Velocity S-wave (km/s) = 3.69291 3.80322 3.74847
# Velocity P-wave (km/s) = 6.40623 6.63081 6.51949
#
# Compressibility (1/GPa) = 0.02005331
#
# Stress axis : x y z
#
# Youngs Moduli (GPa) = 64.46956 77.57228 85.69419
#
# Poissons Ratio (x) = 0.13295 0.29843
# Poissons Ratio (y) = 0.11049 0.41244
# Poissons Ratio (z) = 0.22452 0.37335
#
# Static dielectric constant tensor:
#      x y z
#    x 3.858530 0.000000 -0.104700 
#    y 0.000000 4.035490 0.000000 
#    z -0.104700 0.000000 3.776200 
# 
# 
# High freq. dielectric constant tensor:
#      x y z
#    x 1.857490 0.000000 -0.004760 
#    y 0.000000 1.860420 0.000000 
#    z -0.004760 0.000000 1.853180 
# 
# From -- ./inp_files/61430.got.cif
#   From: 2010.06.25/outbox.cif.g09.slc.cpg/sg15_31_cif.got.tgz:61430.got - 2010.06.28 07:06:18.
