data_PCOD8140380
_publ_section_title
;
Structure prediction by ZEFSAII (Michael W. Deem and Ramdas Pophale) SiO2 
 PCOD8140380
Probable space group: C 2/C
;
_chemical_formula_sum "Si O2"
_cell_formula_units_Z 52
_cell_length_a 29.142250
_cell_length_b 17.925823
_cell_length_c 15.279049
_cell_angle_alpha 90.000000
_cell_angle_beta 161.566604
_cell_angle_gamma 90.000000
_cell_volume 2523.847995
_symmetry_space_group_name_H-M "C 2/C"
_symmetry_group_IT_number 15
_symmetry_cell_setting 'monoclinic'
loop_
_space_group_symop_operation_xyz
x,y,z
-x,y,1/2-z
-x,-y,-z
x,-y,1/2+z
1/2+x,1/2+y,z
1/2-x,1/2+y,1/2-z
1/2-x,1/2-y,-z
1/2+x,1/2-y,1/2+z
loop_
_atom_site_type_symbol
_atom_site_label
_atom_site_fract_x
_atom_site_fract_y
_atom_site_fract_z
Si Si1 0.000000 0.087766 0.750000
Si Si2 0.377933 0.105752 0.826948
Si Si3 0.298255 0.652230 0.514003
Si Si4 0.030901 0.751348 0.047431
Si Si5 0.563361 0.655700 0.275456
Si Si6 0.354972 0.976882 0.654433
Si Si7 0.415154 0.484107 0.436510
O O1 0.865205 0.137125 0.539260
O O2 0.953216 0.041608 0.580784
O O3 0.215503 0.113448 0.569966
O O4 0.375884 0.059440 0.732497
O O5 0.436113 0.189365 0.924003
O O6 0.488967 0.059067 0.090233
O O7 0.180683 0.716345 0.283509
O O8 0.427230 0.681495 0.811059
O O9 0.225319 0.577609 0.421183
O O10 0.929431 0.779671 0.784187
O O11 0.500000 0.689952 0.250000
O O12 0.448152 0.597490 0.030383
O O13 0.257549 0.986832 0.392306
O O14 0.500000 0.500000 0.500000
#
# Coordination Sequence:
#
# PCOD8140380 Si02
#       7
#     4   8   8   8   8   8   8
#     4  12  22  36  68 102 124 164 234 266 320 402
#     4  10  22  39  68  91 124 171 218 265 332 395
#     4  10  21  39  66  91 126 169 219 271 322 402
#     4  10  22  42  63  88 128 178 215 262 337 389
#     4  12  23  39  62  92 130 164 211 267 323 393
#     4  10  20  41  66  92 126 167 212 275 330 382
#     4  12  21  39  68  94 126 170 214 264 331 387
#
# _framework density 20.603459000000001
#
# number of rings (size 3 to 8) (size 9 to 14) (size 15 to 20)
#    0.000    1.231    5.385    0.462    0.000    1.231 
#    2.769    0.769    0.000    0.000    0.000    0.000 
#    0.000    0.000    0.000    0.000    0.000    0.000 
#
# Total GULP energy -322320.562023 kJ/mol
# GULP energy per Si atom -12396.944693 kJ/mol
# Density = 2.055656 g / cm^3
# Si number density = 20.603459 Si / 1000 Ang^3
#
#
#
# Elastic Constant Matrix: (Units=GPa)
#
#
# Indices 1 2 3 4 5 6 
#
# 1 86.3705 15.8925 30.2578 0.0000 -11.0270 0.0000
# 2 15.8925 63.0452 16.6582 0.0000 -6.2480 0.0000
# 3 30.2578 16.6582 143.7828 0.0000 -4.9968 0.0000
# 4 0.0000 0.0000 0.0000 32.9831 0.0000 1.6992
# 5 -11.0270 -6.2480 -4.9968 0.0000 18.8607 0.0000
# 6 0.0000 0.0000 0.0000 1.6992 0.0000 17.5281
#
#
#
# Elastic Compliance Matrix: (Units=1/GPa)
#
#
# Indices 1 2 3 4 5 6 
#
# 1 0.013661 -0.002153 -0.002395 0.000000 0.006639 0.000000
# 2 -0.002153 0.017176 -0.001396 0.000000 0.004061 0.000000
# 3 -0.002395 -0.001396 0.007626 0.000000 0.000158 0.000000
# 4 0.000000 0.000000 0.000000 0.030471 0.000000 -0.002954
# 5 0.006639 0.004061 0.000158 0.000000 0.058289 0.000000
# 6 0.000000 0.000000 0.000000 -0.002954 0.000000 0.057338
#
#
# Mechanical properties :
#
#
# Convention : Reuss Voigt Hill
#
# Bulk Modulus (GPa) = 37.62810 46.53505 42.08157
# Shear Modulus (GPa) = 24.35401 29.23370 26.79386
#
# Velocity S-wave (km/s) = 3.44180 3.77088 3.61009
# Velocity P-wave (km/s) = 5.83929 6.44938 6.15190
#
# Compressibility (1/GPa) = 0.02657588
#
# Stress axis : x y z
#
# Youngs Moduli (GPa) = 73.20274 58.22205 131.12941
#
# Poissons Ratio (x) = 0.12535 0.31400
# Poissons Ratio (y) = 0.15760 0.18302
# Poissons Ratio (z) = 0.17529 0.08126
#
# Static dielectric constant tensor:
#      x y z
#    x 3.504540 0.000000 -0.082370 
#    y 0.000000 3.849390 0.000000 
#    z -0.082370 0.000000 4.074090 
# 
# 
# High freq. dielectric constant tensor:
#      x y z
#    x 1.766030 0.000000 0.004570 
#    y 0.000000 1.814200 0.000000 
#    z 0.004570 0.000000 1.823820 
# 
# From -- ./inp_files/182921.got.cif
#   From: 2010.06.25/outbox.cif.g09.slc.cpg/sg15_92_cif.got.tgz:182921.got - 2010.06.28 07:06:18.
