data_PCOD8140206
_publ_section_title
;
Structure prediction by ZEFSAII (Michael W. Deem and Ramdas Pophale) SiO2 
 PCOD8140206
Probable space group: C 2/C
;
_chemical_formula_sum "Si O2"
_cell_formula_units_Z 56
_cell_length_a 16.172076
_cell_length_b 8.876699
_cell_length_c 22.014844
_cell_angle_alpha 90.000000
_cell_angle_beta 119.856919
_cell_angle_gamma 90.000000
_cell_volume 2740.866382
_symmetry_space_group_name_H-M "C 2/C"
_symmetry_group_IT_number 15
_symmetry_cell_setting 'monoclinic'
loop_
_space_group_symop_operation_xyz
x,y,z
-x,y,1/2-z
-x,-y,-z
x,-y,1/2+z
1/2+x,1/2+y,z
1/2-x,1/2+y,1/2-z
1/2-x,1/2-y,-z
1/2+x,1/2-y,1/2+z
loop_
_atom_site_type_symbol
_atom_site_label
_atom_site_fract_x
_atom_site_fract_y
_atom_site_fract_z
Si Si1 0.385763 0.186463 0.569955
Si Si2 0.499504 0.926517 0.934412
Si Si3 0.194521 0.717393 0.180910
Si Si4 0.859552 0.025298 0.752586
Si Si5 0.933455 0.026371 0.148406
Si Si6 0.693381 0.384326 0.057118
Si Si7 0.846393 0.170471 0.515199
O O1 0.411539 0.296181 0.635330
O O2 0.384169 0.273333 0.503652
O O3 0.284069 0.113657 0.545996
O O4 0.461679 0.051799 0.597763
O O5 0.397236 0.880400 0.870852
O O6 0.568407 0.784410 0.964276
O O7 0.500000 0.000000 0.000000
O O8 0.281320 0.605918 0.227249
O O9 0.217495 0.829973 0.133676
O O10 0.180907 0.816810 0.236719
O O11 0.898376 0.043005 0.698771
O O12 0.954375 0.989276 0.825963
O O13 0.869961 0.942438 0.077231
O O14 0.661793 0.561095 0.047281
O O15 0.750000 0.250000 0.500000
#
# Coordination Sequence:
#
# PCOD8140206 Si02
#       7
#     8   8   8   8   8   8   8
#     4  10  20  40  69  98 126 169 212 268 333 402
#     4  12  25  41  67 104 135 163 215 286 349 394
#     4  12  26  46  62 100 134 173 224 276 332 389
#     4  11  26  45  66  90 136 184 223 268 321 398
#     4  10  23  46  69  91 130 183 229 260 322 412
#     4  10  21  40  68  97 131 164 216 268 335 394
#     4  11  23  40  71 103 130 169 216 283 340 387
#
# _framework density 20.431495000000002
#
# number of rings (size 3 to 8) (size 9 to 14) (size 15 to 20)
#    0.000    1.143    5.714    0.000    4.000    2.857 
#    0.000    0.000    0.000    0.000    0.000    0.000 
#    0.000    0.000    0.000    0.000    0.000    0.000 
#
# Total GULP energy -347104.776311 kJ/mol
# GULP energy per Si atom -12396.599154 kJ/mol
# Density = 2.038499 g / cm^3
# Si number density = 20.431495 Si / 1000 Ang^3
#
#
#
# Elastic Constant Matrix: (Units=GPa)
#
#
# Indices 1 2 3 4 5 6 
#
# 1 97.7349 57.9534 37.3316 0.0000 17.6755 0.0000
# 2 57.9534 136.9652 44.1292 0.0000 7.6494 0.0000
# 3 37.3316 44.1292 75.9629 0.0000 11.2409 0.0000
# 4 0.0000 0.0000 0.0000 40.3041 0.0000 6.6676
# 5 17.6755 7.6494 11.2409 0.0000 37.9257 0.0000
# 6 0.0000 0.0000 0.0000 6.6676 0.0000 35.9319
#
#
#
# Elastic Compliance Matrix: (Units=1/GPa)
#
#
# Indices 1 2 3 4 5 6 
#
# 1 0.015688 -0.005059 -0.004016 0.000000 -0.005101 0.000000
# 2 -0.005059 0.010617 -0.003884 0.000000 0.001368 0.000000
# 3 -0.004016 -0.003884 0.017781 0.000000 -0.002615 0.000000
# 4 0.000000 0.000000 0.000000 0.025597 0.000000 -0.004750
# 5 -0.005101 0.001368 -0.002615 0.000000 0.029244 0.000000
# 6 0.000000 0.000000 0.000000 -0.004750 0.000000 0.028712
#
#
# Mechanical properties :
#
#
# Convention : Reuss Voigt Hill
#
# Bulk Modulus (GPa) = 55.04110 65.49905 60.27008
# Shear Modulus (GPa) = 31.32583 34.24893 32.78738
#
# Velocity S-wave (km/s) = 3.91987 4.09868 4.01027
# Velocity P-wave (km/s) = 6.89094 7.38420 7.14183
#
# Compressibility (1/GPa) = 0.01816824
#
# Stress axis : x y z
#
# Youngs Moduli (GPa) = 63.74207 94.19100 56.23957
#
# Poissons Ratio (x) = 0.47654 0.22586
# Poissons Ratio (y) = 0.32249 0.21841
# Poissons Ratio (z) = 0.25599 0.36580
#
# Static dielectric constant tensor:
#      x y z
#    x 3.770720 0.000000 0.197780 
#    y 0.000000 4.217110 0.000000 
#    z 0.197780 0.000000 3.709080 
# 
# 
# High freq. dielectric constant tensor:
#      x y z
#    x 1.804690 0.000000 0.011170 
#    y 0.000000 1.810520 0.000000 
#    z 0.011170 0.000000 1.788890 
# 
# From -- ./inp_files/273237.got.cif
#   From: 2010.06.25/outbox.cif.g09.slc.cpg/sg15_137_cif.got.tgz:273237.got - 2010.06.28 07:06:18.
