data_PCOD8140323
_publ_section_title
;
Structure prediction by ZEFSAII (Michael W. Deem and Ramdas Pophale) SiO2 
 PCOD8140323
Probable space group: C 2/C
;
_chemical_formula_sum "Si O2"
_cell_formula_units_Z 32
_cell_length_a 8.150991
_cell_length_b 12.089593
_cell_length_c 13.560745
_cell_angle_alpha 90.000000
_cell_angle_beta 74.768478
_cell_angle_gamma 90.000000
_cell_volume 1289.363563
_symmetry_space_group_name_H-M "C 2/C"
_symmetry_group_IT_number 15
_symmetry_cell_setting 'monoclinic'
loop_
_space_group_symop_operation_xyz
x,y,z
-x,y,1/2-z
-x,-y,-z
x,-y,1/2+z
1/2+x,1/2+y,z
1/2-x,1/2+y,1/2-z
1/2-x,1/2-y,-z
1/2+x,1/2-y,1/2+z
loop_
_atom_site_type_symbol
_atom_site_label
_atom_site_fract_x
_atom_site_fract_y
_atom_site_fract_z
Si Si1 0.751980 0.625247 0.467373
Si Si2 0.885004 0.865482 0.077585
Si Si3 0.310143 0.990024 0.764268
Si Si4 0.876911 0.603503 0.048941
O O1 0.750000 0.750000 0.500000
O O2 0.567904 0.578997 0.528093
O O3 0.776219 0.612218 0.345723
O O4 0.918410 0.568665 0.497321
O O5 0.885896 0.734548 0.067845
O O6 0.820585 0.908263 0.194639
O O7 0.741797 0.921001 0.027278
O O8 0.500000 0.035488 0.750000
O O9 0.282613 0.947691 0.658293
#
# Coordination Sequence:
#
# PCOD8140323 Si02
#       4
#     8   8   8   8
#     4   9  19  38  63  87 127 160 201 254 305 363
#     4  10  20  41  64  88 122 166 206 250 309 367
#     4  10  21  39  61  94 127 156 210 256 304 372
#     4   9  21  41  62  89 124 164 202 256 307 362
#
# _framework density 24.818446999999999
#
# number of rings (size 3 to 8) (size 9 to 14) (size 15 to 20)
#    0.000    2.500    0.000    0.750    0.000    5.000 
#   18.000    5.000    5.500    0.000    0.000    0.000 
#    0.000    0.000    0.000    0.000    0.000    0.000 
#
# Total GULP energy -198374.858015 kJ/mol
# GULP energy per Si atom -12398.428626 kJ/mol
# Density = 2.476196 g / cm^3
# Si number density = 24.818447 Si / 1000 Ang^3
#
#
#
# Elastic Constant Matrix: (Units=GPa)
#
#
# Indices 1 2 3 4 5 6 
#
# 1 174.7415 85.7749 70.2617 0.0000 -34.0490 0.0000
# 2 85.7749 111.0474 48.1673 0.0000 -9.8907 0.0000
# 3 70.2617 48.1673 152.3905 0.0000 -27.0362 0.0000
# 4 0.0000 0.0000 0.0000 42.2203 0.0000 -4.4627
# 5 -34.0490 -9.8907 -27.0362 0.0000 45.7919 0.0000
# 6 0.0000 0.0000 0.0000 -4.4627 0.0000 46.5642
#
#
#
# Elastic Compliance Matrix: (Units=1/GPa)
#
#
# Indices 1 2 3 4 5 6 
#
# 1 0.011145 -0.007314 -0.001828 0.000000 0.005628 0.000000
# 2 -0.007314 0.015241 -0.002040 0.000000 -0.003351 0.000000
# 3 -0.001828 -0.002040 0.008635 0.000000 0.003298 0.000000
# 4 0.000000 0.000000 0.000000 0.023928 0.000000 0.002293
# 5 0.005628 -0.003351 0.003298 0.000000 0.027246 0.000000
# 6 0.000000 0.000000 0.000000 0.002293 0.000000 0.021696
#
#
# Mechanical properties :
#
#
# Convention : Reuss Voigt Hill
#
# Bulk Modulus (GPa) = 79.00894 94.06522 86.53708
# Shear Modulus (GPa) = 37.18250 42.51364 39.84807
#
# Velocity S-wave (km/s) = 3.87483 4.14331 4.01132
# Velocity P-wave (km/s) = 7.20576 7.80212 7.50986
#
# Compressibility (1/GPa) = 0.01265680
#
# Stress axis : x y z
#
# Youngs Moduli (GPa) = 89.72956 65.61292 115.81067
#
# Poissons Ratio (x) = 0.47990 0.21172
# Poissons Ratio (y) = 0.65629 0.23620
# Poissons Ratio (z) = 0.16404 0.13382
#
# Static dielectric constant tensor:
#      x y z
#    x 5.608300 0.000000 -0.359920 
#    y 0.000000 4.854190 0.000000 
#    z -0.359920 0.000000 4.371250 
# 
# 
# High freq. dielectric constant tensor:
#      x y z
#    x 2.014870 0.000000 -0.016780 
#    y 0.000000 2.038640 0.000000 
#    z -0.016780 0.000000 1.972280 
# 
# From -- ./inp_files/75332.got.cif
#   From: 2010.06.25/outbox.cif.g09.slc.cpg/sg15_38_cif.got.tgz:75332.got - 2010.06.28 07:06:18.
