data_PCOD8140691
_publ_section_title
;
Structure prediction by ZEFSAII (Michael W. Deem and Ramdas Pophale) SiO2 
 PCOD8140691
Probable space group: C 2/C
;
_chemical_formula_sum "Si O2"
_cell_formula_units_Z 40
_cell_length_a 13.860663
_cell_length_b 13.316326
_cell_length_c 16.012130
_cell_angle_alpha 90.000000
_cell_angle_beta 40.227092
_cell_angle_gamma 90.000000
_cell_volume 1908.658344
_symmetry_space_group_name_H-M "C 2/C"
_symmetry_group_IT_number 15
_symmetry_cell_setting 'monoclinic'
loop_
_space_group_symop_operation_xyz
x,y,z
-x,y,1/2-z
-x,-y,-z
x,-y,1/2+z
1/2+x,1/2+y,z
1/2-x,1/2+y,1/2-z
1/2-x,1/2-y,-z
1/2+x,1/2-y,1/2+z
loop_
_atom_site_type_symbol
_atom_site_label
_atom_site_fract_x
_atom_site_fract_y
_atom_site_fract_z
Si Si1 0.826756 0.381172 0.786852
Si Si2 0.147584 0.947273 0.373417
Si Si3 0.335577 0.837159 0.392221
Si Si4 0.144152 0.837882 0.209943
Si Si5 0.153673 0.549120 0.049916
O O1 0.750299 0.459134 0.773376
O O2 0.772816 0.266124 0.820494
O O3 0.767922 0.423872 0.914714
O O4 0.001275 0.388406 0.652840
O O5 0.230347 0.873925 0.385402
O O6 0.095950 0.884703 0.328278
O O7 0.000000 0.000000 0.500000
O O8 0.500000 0.801398 0.250000
O O9 0.250000 0.750000 0.500000
O O10 0.366844 0.928391 0.437124
O O11 0.000000 0.812353 0.250000
O O12 0.252606 0.914212 0.090742
#
# Coordination Sequence:
#
# PCOD8140691 Si02
#       5
#     8   8   8   8   8
#     4  10  21  42  65  94 133 176 218 283 341 401
#     4  11  26  45  65 102 143 172 230 294 344 415
#     4  11  24  48  74  98 141 194 237 293 359 419
#     4  12  24  38  71 104 131 183 227 275 351 416
#     4  10  20  42  70  92 135 172 228 277 344 408
#
# _framework density 20.957128999999998
#
# number of rings (size 3 to 8) (size 9 to 14) (size 15 to 20)
#    0.000    1.200    6.000    3.000    2.800    6.400 
#    0.000    0.000    0.000    0.000    0.000    0.000 
#    0.000    0.000    0.000    0.000    0.000    0.000 
#
# Total GULP energy -247787.417630 kJ/mol
# GULP energy per Si atom -12389.370882 kJ/mol
# Density = 2.090943 g / cm^3
# Si number density = 20.957129 Si / 1000 Ang^3
#
#
#
# Elastic Constant Matrix: (Units=GPa)
#
#
# Indices 1 2 3 4 5 6 
#
# 1 79.4307 32.8124 29.4483 -0.0001 -3.2969 0.0000
# 2 32.8124 156.5157 65.2166 0.0000 10.0512 0.0000
# 3 29.4483 65.2166 118.7182 -0.0001 -1.8054 0.0001
# 4 -0.0001 0.0000 -0.0001 45.3077 0.0001 -1.3720
# 5 -3.2969 10.0512 -1.8054 0.0001 22.2137 -0.0001
# 6 0.0000 0.0000 0.0001 -1.3720 -0.0001 13.5511
#
#
#
# Elastic Compliance Matrix: (Units=1/GPa)
#
#
# Indices 1 2 3 4 5 6 
#
# 1 0.014507 -0.002274 -0.002304 0.000000 0.002995 0.000000
# 2 -0.002274 0.009037 -0.004473 0.000000 -0.004790 0.000000
# 3 -0.002304 -0.004473 0.011492 0.000000 0.002616 0.000000
# 4 0.000000 0.000000 0.000000 0.022139 0.000000 0.002242
# 5 0.002995 -0.004790 0.002616 0.000000 0.047842 0.000000
# 6 0.000000 0.000000 0.000000 0.002242 0.000000 0.074022
#
#
# Mechanical properties :
#
#
# Convention : Reuss Voigt Hill
#
# Bulk Modulus (GPa) = 59.05099 67.73546 63.39323
# Shear Modulus (GPa) = 24.65647 31.36032 28.00839
#
# Velocity S-wave (km/s) = 3.43376 3.87253 3.65973
# Velocity P-wave (km/s) = 6.63017 7.23785 6.94067
#
# Compressibility (1/GPa) = 0.01693452
#
# Stress axis : x y z
#
# Youngs Moduli (GPa) = 68.93078 110.65135 87.01652
#
# Poissons Ratio (x) = 0.25158 0.20049
# Poissons Ratio (y) = 0.15672 0.38927
# Poissons Ratio (z) = 0.15882 0.49500
#
# Static dielectric constant tensor:
#      x y z
#    x 3.614070 0.000000 -0.019810 
#    y 0.000000 4.475840 0.000000 
#    z -0.019810 0.000000 3.635100 
# 
# 
# High freq. dielectric constant tensor:
#      x y z
#    x 1.801940 0.000000 -0.010020 
#    y 0.000000 1.837000 0.000000 
#    z -0.010020 0.000000 1.819020 
# 
# From -- ./inp_files/203780.got.cif
#   From: 2010.06.25/outbox.cif.g09.slc.cpg/sg15_102_cif.got.tgz:203780.got - 2010.06.28 07:06:18.
