data_PCOD8140875
_publ_section_title
;
Structure prediction by ZEFSAII (Michael W. Deem and Ramdas Pophale) SiO2 
 PCOD8140875
Probable space group: C 2/C
;
_chemical_formula_sum "Si O2"
_cell_formula_units_Z 44
_cell_length_a 17.333115
_cell_length_b 9.790658
_cell_length_c 13.681495
_cell_angle_alpha 90.000000
_cell_angle_beta 66.691687
_cell_angle_gamma 90.000000
_cell_volume 2132.302027
_symmetry_space_group_name_H-M "C 2/C"
_symmetry_group_IT_number 15
_symmetry_cell_setting 'monoclinic'
loop_
_space_group_symop_operation_xyz
x,y,z
-x,y,1/2-z
-x,-y,-z
x,-y,1/2+z
1/2+x,1/2+y,z
1/2-x,1/2+y,1/2-z
1/2-x,1/2-y,-z
1/2+x,1/2-y,1/2+z
loop_
_atom_site_type_symbol
_atom_site_label
_atom_site_fract_x
_atom_site_fract_y
_atom_site_fract_z
Si Si1 0.323684 0.161464 0.064113
Si Si2 0.000000 0.774444 0.250000
Si Si3 0.940573 0.109728 0.979090
Si Si4 0.771491 0.049216 0.561757
Si Si5 0.879003 0.545744 0.236046
Si Si6 0.993879 0.631937 0.569743
O O1 0.297873 0.314891 0.107527
O O2 0.333900 0.072021 0.155545
O O3 0.250128 0.090538 0.038719
O O4 0.409965 0.175513 0.956728
O O5 0.968392 0.870729 0.353171
O O6 0.925822 0.681581 0.245881
O O7 0.944090 0.250108 0.037749
O O8 0.844630 0.061865 0.027536
O O9 0.000000 0.000000 0.000000
O O10 0.688916 0.984910 0.648834
O O11 0.942933 0.416041 0.192037
O O12 0.000000 0.500000 0.500000
#
# Coordination Sequence:
#
# PCOD8140875 Si02
#       6
#     8   4   8   8   8   8
#     4  10  22  45  61  96 143 172 231 291 340 425
#     4  12  24  46  72 100 136 192 236 276 360 432
#     4  12  25  47  71 104 143 180 236 300 348 422
#     4  11  25  40  67 101 137 180 229 291 354 405
#     4  11  24  41  70  98 130 183 233 279 350 420
#     4  10  20  45  70  91 137 180 220 285 341 415
#
# _framework density 20.634976999999999
#
# number of rings (size 3 to 8) (size 9 to 14) (size 15 to 20)
#    0.000    1.091    5.455    1.091    5.091    3.636 
#    3.273    0.000    0.000    0.000    0.000    0.000 
#    0.000    0.000    0.000    0.000    0.000    0.000 
#
# Total GULP energy -272821.297063 kJ/mol
# GULP energy per Si atom -12400.968048 kJ/mol
# Density = 2.058801 g / cm^3
# Si number density = 20.634977 Si / 1000 Ang^3
#
#
#
# Elastic Constant Matrix: (Units=GPa)
#
#
# Indices 1 2 3 4 5 6 
#
# 1 80.4726 28.5329 9.6149 0.0000 -3.0432 0.0000
# 2 28.5329 101.4609 28.1898 0.0000 1.5231 0.0000
# 3 9.6149 28.1898 84.8192 0.0000 -5.6247 0.0000
# 4 0.0000 0.0000 0.0000 29.3479 0.0000 -4.8379
# 5 -3.0432 1.5231 -5.6247 0.0000 35.0845 0.0000
# 6 0.0000 0.0000 0.0000 -4.8379 0.0000 45.8287
#
#
#
# Elastic Compliance Matrix: (Units=1/GPa)
#
#
# Indices 1 2 3 4 5 6 
#
# 1 0.013872 -0.003866 -0.000199 0.000000 0.001339 0.000000
# 2 -0.003866 0.011975 -0.003637 0.000000 -0.001438 0.000000
# 3 -0.000199 -0.003637 0.013170 0.000000 0.002252 0.000000
# 4 0.000000 0.000000 0.000000 0.034677 0.000000 0.003661
# 5 0.001339 -0.001438 0.002252 0.000000 0.029042 0.000000
# 6 0.000000 0.000000 0.000000 0.003661 0.000000 0.022207
#
#
# Mechanical properties :
#
#
# Convention : Reuss Voigt Hill
#
# Bulk Modulus (GPa) = 42.34819 44.38089 43.36454
# Shear Modulus (GPa) = 33.73385 35.41322 34.57353
#
# Velocity S-wave (km/s) = 4.04764 4.14717 4.09771
# Velocity P-wave (km/s) = 6.51242 6.66980 6.59158
#
# Compressibility (1/GPa) = 0.02361376
#
# Stress axis : x y z
#
# Youngs Moduli (GPa) = 72.08917 83.50503 75.92733
#
# Poissons Ratio (x) = 0.32282 0.01510
# Poissons Ratio (y) = 0.27869 0.27616
# Poissons Ratio (z) = 0.01433 0.30372
#
# Static dielectric constant tensor:
#      x y z
#    x 4.037800 0.000000 -0.230910 
#    y 0.000000 3.804010 0.000000 
#    z -0.230910 0.000000 3.870610 
# 
# 
# High freq. dielectric constant tensor:
#      x y z
#    x 1.822930 0.000000 -0.003150 
#    y 0.000000 1.812020 0.000000 
#    z -0.003150 0.000000 1.795890 
# 
# From -- ./inp_files/159199.got.cif
#   From: 2010.06.25/outbox.cif.g09.slc.cpg/sg15_80_cif.got.tgz:159199.got - 2010.06.28 07:06:18.
