data_PCOD8140132
_publ_section_title
;
Structure prediction by ZEFSAII (Michael W. Deem and Ramdas Pophale) SiO2 
 PCOD8140132
Probable space group: C 2/C
;
_chemical_formula_sum "Si O2"
_cell_formula_units_Z 64
_cell_length_a 18.999865
_cell_length_b 14.112332
_cell_length_c 17.876623
_cell_angle_alpha 90.000000
_cell_angle_beta 140.154374
_cell_angle_gamma 90.000000
_cell_volume 3071.170607
_symmetry_space_group_name_H-M "C 2/C"
_symmetry_group_IT_number 15
_symmetry_cell_setting 'monoclinic'
loop_
_space_group_symop_operation_xyz
x,y,z
-x,y,1/2-z
-x,-y,-z
x,-y,1/2+z
1/2+x,1/2+y,z
1/2-x,1/2+y,1/2-z
1/2-x,1/2-y,-z
1/2+x,1/2-y,1/2+z
loop_
_atom_site_type_symbol
_atom_site_label
_atom_site_fract_x
_atom_site_fract_y
_atom_site_fract_z
Si Si1 0.573851 0.602284 0.925438
Si Si2 0.343034 0.594782 0.674963
Si Si3 0.685032 0.221494 0.769079
Si Si4 0.011844 0.394650 0.349856
Si Si5 0.737750 0.274099 0.645634
Si Si6 0.238898 0.108585 0.414635
Si Si7 0.592580 0.073904 0.268477
Si Si8 0.287663 0.436216 0.447186
O O1 0.442948 0.611021 0.814952
O O2 0.621750 0.607817 0.881352
O O3 0.626435 0.683755 0.019630
O O4 0.607295 0.500399 0.988666
O O5 0.251983 0.673427 0.617388
O O6 0.292153 0.491741 0.647759
O O7 0.561844 0.181599 0.666542
O O8 0.724217 0.259611 0.722059
O O9 0.682351 0.309180 0.822443
O O10 0.765151 0.136765 0.862071
O O11 0.131397 0.376236 0.478900
O O12 0.000000 0.382752 0.250000
O O13 0.972083 0.501698 0.339718
O O14 0.845942 0.339866 0.722153
O O15 0.189290 0.119926 0.457444
O O16 0.500000 0.115300 0.250000
O O17 0.685174 0.007261 0.383581
#
# Coordination Sequence:
#
# PCOD8140132 Si02
#       8
#     8   8   8   8   8   8   8   8
#     4   9  21  42  64  90 123 166 213 267 318 371
#     4  10  23  40  63  96 122 162 222 260 317 382
#     4  11  24  38  59  98 130 167 207 258 333 392
#     4  10  20  40  67  92 119 166 219 265 321 368
#     4  11  24  39  61  93 135 169 203 261 330 391
#     4  11  21  39  64  95 122 163 222 272 307 376
#     4   9  17  35  65  91 114 169 220 260 316 366
#     4   9  18  38  64  89 124 162 219 273 309 364
#
# _framework density 20.83896
#
# number of rings (size 3 to 8) (size 9 to 14) (size 15 to 20)
#    0.000    2.000    3.750    0.750    1.750    6.000 
#    2.250    2.500    0.000    0.000    0.000    0.000 
#    0.000    0.000    0.000    0.000    0.000    0.000 
#
# Total GULP energy -396696.790600 kJ/mol
# GULP energy per Si atom -12396.774706 kJ/mol
# Density = 2.079153 g / cm^3
# Si number density = 20.838960 Si / 1000 Ang^3
#
#
#
# Elastic Constant Matrix: (Units=GPa)
#
#
# Indices 1 2 3 4 5 6 
#
# 1 80.6134 45.3154 40.0569 0.0000 1.5683 0.0000
# 2 45.3154 119.0638 63.4106 0.0000 3.8138 0.0000
# 3 40.0569 63.4106 103.1372 0.0000 0.5873 0.0000
# 4 0.0000 0.0000 0.0000 28.3023 0.0000 15.1511
# 5 1.5683 3.8138 0.5873 0.0000 18.0316 0.0000
# 6 0.0000 0.0000 0.0000 15.1511 0.0000 -20.1315
#
#
#
# Elastic Compliance Matrix: (Units=1/GPa)
#
#
# Indices 1 2 3 4 5 6 
#
# 1 0.016750 -0.004309 -0.003854 0.000000 -0.000420 0.000000
# 2 -0.004309 0.013700 -0.006737 0.000000 -0.002304 0.000000
# 3 -0.003854 -0.006737 0.015327 0.000000 0.001261 0.000000
# 4 0.000000 0.000000 0.000000 0.025186 0.000000 0.018955
# 5 -0.000420 -0.002304 0.001261 0.000000 0.055941 0.000000
# 6 0.000000 0.000000 0.000000 0.018955 0.000000 -0.035408
#
#
# Mechanical properties :
#
#
# Convention : Reuss Voigt Hill
#
# Bulk Modulus (GPa) = 62.58281 66.70892 64.64586
# Shear Modulus (GPa) = 39.48761 15.50926 27.49844
#
# Velocity S-wave (km/s) = 4.35776 2.73104 3.63653
# Velocity P-wave (km/s) = 7.44425 6.48274 6.98007
#
# Compressibility (1/GPa) = 0.01597883
#
# Stress axis : x y z
#
# Youngs Moduli (GPa) = 59.70009 72.99033 65.24386
#
# Poissons Ratio (x) = 0.31454 0.25144
# Poissons Ratio (y) = 0.25726 0.43952
# Poissons Ratio (z) = 0.23007 0.49170
#
# Static dielectric constant tensor:
#      x y z
#    x 3.449560 0.000000 0.218310 
#    y 0.000000 3.959910 0.000000 
#    z 0.218310 0.000000 3.939130 
# 
# 
# High freq. dielectric constant tensor:
#      x y z
#    x 1.781960 0.000000 0.014390 
#    y 0.000000 1.828250 0.000000 
#    z 0.014390 0.000000 1.814530 
# 
# From -- ./inp_files/211425.got.cif
#   From: 2010.06.25/outbox.cif.g09.slc.cpg/sg15_106_cif.got.tgz:211425.got - 2010.06.28 07:06:18.
