data_PCOD8140252
_publ_section_title
;
Structure prediction by ZEFSAII (Michael W. Deem and Ramdas Pophale) SiO2 
 PCOD8140252
Probable space group: C 2/C
;
_chemical_formula_sum "Si O2"
_cell_formula_units_Z 48
_cell_length_a 9.969689
_cell_length_b 28.071587
_cell_length_c 9.013111
_cell_angle_alpha 90.000000
_cell_angle_beta 59.094001
_cell_angle_gamma 90.000000
_cell_volume 2164.293817
_symmetry_space_group_name_H-M "C 2/C"
_symmetry_group_IT_number 15
_symmetry_cell_setting 'monoclinic'
loop_
_space_group_symop_operation_xyz
x,y,z
-x,y,1/2-z
-x,-y,-z
x,-y,1/2+z
1/2+x,1/2+y,z
1/2-x,1/2+y,1/2-z
1/2-x,1/2-y,-z
1/2+x,1/2-y,1/2+z
loop_
_atom_site_type_symbol
_atom_site_label
_atom_site_fract_x
_atom_site_fract_y
_atom_site_fract_z
Si Si1 0.913708 0.539141 0.149842
Si Si2 0.657072 0.276223 0.865965
Si Si3 0.808324 0.966366 0.106136
Si Si4 0.500000 0.801899 0.250000
Si Si5 0.000000 0.251240 0.750000
Si Si6 0.500000 0.510777 0.750000
Si Si7 0.500000 0.648741 0.250000
Si Si8 0.812907 0.387155 0.481486
O O1 0.752782 0.516150 0.293954
O O2 0.889387 0.589582 0.082570
O O3 0.000000 0.553301 0.250000
O O4 0.000000 0.500000 0.000000
O O5 0.606143 0.229056 0.801878
O O6 0.604862 0.321463 0.803977
O O7 0.845942 0.280172 0.780187
O O8 0.566277 0.279337 0.074620
O O9 0.933561 0.953008 0.161857
O O10 0.674417 0.925255 0.163508
O O11 0.874749 0.976489 0.903577
O O12 0.386954 0.835795 0.409262
O O13 0.375248 0.616962 0.406589
#
# Coordination Sequence:
#
# PCOD8140252 Si02
#       8
#     8   8   8   4   4   4   4   8
#     4  12  23  42  64  90 128 179 228 280 341 398
#     4  10  22  45  72  97 138 176 212 266 350 395
#     4  11  21  39  63  87 125 169 223 272 336 390
#     4  11  24  44  69  96 133 184 221 267 328 419
#     4  10  20  40  75 102 122 170 222 262 322 417
#     4  10  21  36  62  86 116 174 212 271 338 394
#     4  11  25  44  66 100 135 178 219 272 330 412
#     4  12  24  40  68  98 132 174 236 277 323 405
#
# _framework density 22.178137
#
# number of rings (size 3 to 8) (size 9 to 14) (size 15 to 20)
#    0.000    1.000    3.333    3.500    2.333    2.667 
#    9.000    5.000    0.000    0.000    0.000    0.000 
#    0.000    0.000    0.000    0.000    0.000    0.000 
#
# Total GULP energy -297352.004912 kJ/mol
# GULP energy per Si atom -12389.666871 kJ/mol
# Density = 2.212766 g / cm^3
# Si number density = 22.178137 Si / 1000 Ang^3
#
#
#
# Elastic Constant Matrix: (Units=GPa)
#
#
# Indices 1 2 3 4 5 6 
#
# 1 148.3151 41.0704 46.4654 0.0000 16.2286 0.0000
# 2 41.0704 88.0808 26.6963 0.0000 13.7014 0.0000
# 3 46.4654 26.6963 118.9899 0.0000 2.5648 0.0000
# 4 0.0000 0.0000 0.0000 16.8389 0.0000 -7.0162
# 5 16.2286 13.7014 2.5648 0.0000 52.5768 0.0000
# 6 0.0000 0.0000 0.0000 -7.0162 0.0000 16.0695
#
#
#
# Elastic Compliance Matrix: (Units=1/GPa)
#
#
# Indices 1 2 3 4 5 6 
#
# 1 0.008575 -0.002920 -0.002656 0.000000 -0.001756 0.000000
# 2 -0.002920 0.013683 -0.001874 0.000000 -0.002573 0.000000
# 3 -0.002656 -0.001874 0.009844 0.000000 0.000828 0.000000
# 4 0.000000 0.000000 0.000000 0.072593 0.000000 0.031695
# 5 -0.001756 -0.002573 0.000828 0.000000 0.020192 0.000000
# 6 0.000000 0.000000 0.000000 0.031695 0.000000 0.076068
#
#
# Mechanical properties :
#
#
# Convention : Reuss Voigt Hill
#
# Bulk Modulus (GPa) = 58.13252 64.87224 61.50238
# Shear Modulus (GPa) = 22.56430 33.17395 27.86913
#
# Velocity S-wave (km/s) = 3.19315 3.87175 3.54871
# Velocity P-wave (km/s) = 6.31375 7.02149 6.67700
#
# Compressibility (1/GPa) = 0.01720207
#
# Stress axis : x y z
#
# Youngs Moduli (GPa) = 116.61501 73.08237 101.58806
#
# Poissons Ratio (x) = 0.21343 0.26977
# Poissons Ratio (y) = 0.34056 0.19038
# Poissons Ratio (z) = 0.30968 0.13696
#
# Static dielectric constant tensor:
#      x y z
#    x 4.255510 0.000000 -0.008490 
#    y 0.000000 3.711960 0.000000 
#    z -0.008490 0.000000 4.175100 
# 
# 
# High freq. dielectric constant tensor:
#      x y z
#    x 1.896550 0.000000 0.004820 
#    y 0.000000 1.846760 0.000000 
#    z 0.004820 0.000000 1.886790 
# 
# From -- ./inp_files/33465.got.cif
#   From: 2010.06.25/outbox.cif.g09.slc.cpg/sg15_17_cif.got.tgz:33465.got - 2010.06.28 07:06:18.
