data_PCOD8140829
_publ_section_title
;
Structure prediction by ZEFSAII (Michael W. Deem and Ramdas Pophale) SiO2 
 PCOD8140829
Probable space group: C 2/C
;
_chemical_formula_sum "Si O2"
_cell_formula_units_Z 36
_cell_length_a 13.244815
_cell_length_b 7.537584
_cell_length_c 23.211666
_cell_angle_alpha 90.000000
_cell_angle_beta 141.474063
_cell_angle_gamma 90.000000
_cell_volume 1443.381004
_symmetry_space_group_name_H-M "C 2/C"
_symmetry_group_IT_number 15
_symmetry_cell_setting 'monoclinic'
loop_
_space_group_symop_operation_xyz
x,y,z
-x,y,1/2-z
-x,-y,-z
x,-y,1/2+z
1/2+x,1/2+y,z
1/2-x,1/2+y,1/2-z
1/2-x,1/2-y,-z
1/2+x,1/2-y,1/2+z
loop_
_atom_site_type_symbol
_atom_site_label
_atom_site_fract_x
_atom_site_fract_y
_atom_site_fract_z
Si Si1 0.361246 0.808744 0.882159
Si Si2 0.853569 0.548238 0.773278
Si Si3 0.779864 0.215263 0.447431
Si Si4 0.310767 0.188968 0.588256
Si Si5 0.000000 0.719320 0.250000
O O1 0.314070 0.640786 0.820452
O O2 0.246090 0.822402 0.886714
O O3 0.344840 0.985347 0.835963
O O4 0.541892 0.784016 0.988469
O O5 0.994793 0.694729 0.828751
O O6 0.895429 0.388075 0.750074
O O7 0.750000 0.250000 0.500000
O O8 0.641601 0.322950 0.348652
O O9 0.755818 0.006084 0.424477
O O10 0.250000 0.250000 0.500000
#
# Coordination Sequence:
#
# PCOD8140829 Si02
#       5
#     8   8   8   8   4
#     4  12  24  45  73 101 143 194 236 295 375 421
#     4  11  24  45  70 103 141 189 241 294 360 433
#     4  11  22  45  70 101 136 190 239 289 357 427
#     4  11  25  45  67  99 150 183 236 306 354 428
#     4  10  20  44  66  92 146 178 228 306 340 412
#
# _framework density 24.94144
#
# number of rings (size 3 to 8) (size 9 to 14) (size 15 to 20)
#    0.000    0.889    8.889    0.667    3.111    0.889 
#    4.000    0.000    0.000    0.000    0.000    0.000 
#    0.000    0.000    0.000    0.000    0.000    0.000 
#
# Total GULP energy -223097.409410 kJ/mol
# GULP energy per Si atom -12394.300523 kJ/mol
# Density = 2.488467 g / cm^3
# Si number density = 24.941440 Si / 1000 Ang^3
#
#
#
# Elastic Constant Matrix: (Units=GPa)
#
#
# Indices 1 2 3 4 5 6 
#
# 1 149.3483 29.5658 64.9260 0.0000 -23.3055 0.0000
# 2 29.5658 21.9540 25.5010 0.0000 3.2004 0.0000
# 3 64.9260 25.5010 229.9510 0.0000 1.6232 0.0000
# 4 0.0000 0.0000 0.0000 30.1009 0.0000 -12.1352
# 5 -23.3055 3.2004 1.6232 0.0000 47.7886 0.0000
# 6 0.0000 0.0000 0.0000 -12.1352 0.0000 28.0814
#
#
#
# Elastic Compliance Matrix: (Units=1/GPa)
#
#
# Indices 1 2 3 4 5 6 
#
# 1 0.011222 -0.014145 -0.001646 0.000000 0.006476 0.000000
# 2 -0.014145 0.070643 -0.003759 0.000000 -0.011502 0.000000
# 3 -0.001646 -0.003759 0.005235 0.000000 -0.000729 0.000000
# 4 0.000000 0.000000 0.000000 0.040231 0.000000 0.017385
# 5 0.006476 -0.011502 -0.000729 0.000000 0.024879 0.000000
# 6 0.000000 0.000000 0.000000 0.017385 0.000000 0.043124
#
#
# Mechanical properties :
#
#
# Convention : Reuss Voigt Hill
#
# Bulk Modulus (GPa) = 20.83330 71.24876 46.04103
# Shear Modulus (GPa) = 19.96544 39.94489 29.95517
#
# Velocity S-wave (km/s) = 2.83237 4.00627 3.46933
# Velocity P-wave (km/s) = 4.36663 7.07310 5.87776
#
# Compressibility (1/GPa) = 0.04800007
#
# Stress axis : x y z
#
# Youngs Moduli (GPa) = 89.11093 14.15576 191.00886
#
# Poissons Ratio (x) = 0.20024 0.31431
# Poissons Ratio (y) = 1.26052 0.71799
# Poissons Ratio (z) = 0.14663 0.05321
#
# Static dielectric constant tensor:
#      x y z
#    x 3.689000 0.000000 1.176550 
#    y 0.000000 4.369810 0.000000 
#    z 1.176550 0.000000 5.278030 
# 
# 
# High freq. dielectric constant tensor:
#      x y z
#    x 1.999010 0.000000 -0.009550 
#    y 0.000000 1.948150 0.000000 
#    z -0.009550 0.000000 2.023900 
# 
# From -- ./inp_files/272440.got.cif
#   From: 2010.06.25/outbox.cif.g09.slc.cpg/sg15_137_cif.got.tgz:272440.got - 2010.06.28 07:06:18.
