data_PCOD8140506
_publ_section_title
;
Structure prediction by ZEFSAII (Michael W. Deem and Ramdas Pophale) SiO2 
 PCOD8140506
Probable space group: C 2/C
;
_chemical_formula_sum "Si O2"
_cell_formula_units_Z 44
_cell_length_a 11.515566
_cell_length_b 13.319442
_cell_length_c 15.665289
_cell_angle_alpha 90.000000
_cell_angle_beta 64.753751
_cell_angle_gamma 90.000000
_cell_volume 2173.252427
_symmetry_space_group_name_H-M "C 2/C"
_symmetry_group_IT_number 15
_symmetry_cell_setting 'monoclinic'
loop_
_space_group_symop_operation_xyz
x,y,z
-x,y,1/2-z
-x,-y,-z
x,-y,1/2+z
1/2+x,1/2+y,z
1/2-x,1/2+y,1/2-z
1/2-x,1/2-y,-z
1/2+x,1/2-y,1/2+z
loop_
_atom_site_type_symbol
_atom_site_label
_atom_site_fract_x
_atom_site_fract_y
_atom_site_fract_z
Si Si1 0.132521 0.953904 0.485512
Si Si2 0.842570 0.374730 0.935585
Si Si3 0.232011 0.938259 0.284313
Si Si4 0.457905 0.371003 0.669813
Si Si5 0.500000 0.977123 0.750000
Si Si6 0.699319 0.791295 0.379556
O O1 0.183096 0.887730 0.388835
O O2 0.095921 0.891086 0.580767
O O3 0.230915 0.042785 0.473963
O O4 0.000000 0.000000 0.500000
O O5 0.964445 0.412578 0.844629
O O6 0.800806 0.274911 0.898997
O O7 0.880168 0.351962 0.022410
O O8 0.218719 0.864997 0.207780
O O9 0.146238 0.038588 0.297018
O O10 0.381857 0.958723 0.252228
O O11 0.500000 0.340185 0.750000
O O12 0.397344 0.273628 0.645656
#
# Coordination Sequence:
#
# PCOD8140506 Si02
#       6
#     8   8   8   8   4   8
#     4   9  17  39  61  84 117 156 196 245 292 343
#     4  10  21  39  62  88 120 154 204 247 291 351
#     4  10  22  39  61  89 121 158 195 244 303 349
#     4  11  22  41  62  88 122 156 200 248 295 352
#     4  10  20  42  62  84 126 160 190 248 296 366
#     4  11  22  38  60  94 116 157 203 243 297 350
#
# _framework density 20.246153
#
# number of rings (size 3 to 8) (size 9 to 14) (size 15 to 20)
#    0.000    1.818    5.455    1.091    1.273    2.182 
#    4.909    0.909    0.000    0.000    0.000    0.000 
#    0.000    0.000    0.000    0.000    0.000    0.000 
#
# Total GULP energy -272568.017997 kJ/mol
# GULP energy per Si atom -12389.455364 kJ/mol
# Density = 2.020007 g / cm^3
# Si number density = 20.246153 Si / 1000 Ang^3
#
#
#
# Elastic Constant Matrix: (Units=GPa)
#
#
# Indices 1 2 3 4 5 6 
#
# 1 80.2057 26.6337 61.1869 0.0000 4.0720 0.0000
# 2 26.6337 71.6791 73.4865 0.0000 5.9299 0.0000
# 3 61.1869 73.4865 218.6437 0.0000 10.8407 0.0000
# 4 0.0000 0.0000 0.0000 36.6616 0.0000 8.2026
# 5 4.0720 5.9299 10.8407 0.0000 41.9971 0.0000
# 6 0.0000 0.0000 0.0000 8.2026 0.0000 9.2789
#
#
#
# Elastic Compliance Matrix: (Units=1/GPa)
#
#
# Indices 1 2 3 4 5 6 
#
# 1 0.016055 -0.002060 -0.003786 0.000000 -0.000288 0.000000
# 2 -0.002060 0.021607 -0.006629 0.000000 -0.001140 0.000000
# 3 -0.003786 -0.006629 0.007898 0.000000 -0.000736 0.000000
# 4 0.000000 0.000000 0.000000 0.034001 0.000000 -0.030057
# 5 -0.000288 -0.001140 -0.000736 0.000000 0.024190 0.000000
# 6 0.000000 0.000000 0.000000 -0.030057 0.000000 0.134342
#
#
# Mechanical properties :
#
#
# Convention : Reuss Voigt Hill
#
# Bulk Modulus (GPa) = 48.52217 77.01587 62.76902
# Shear Modulus (GPa) = 18.52439 31.53562 25.03000
#
# Velocity S-wave (km/s) = 3.02811 3.95094 3.51990
# Velocity P-wave (km/s) = 6.02031 7.67695 6.89854
#
# Compressibility (1/GPa) = 0.02060914
#
# Stress axis : x y z
#
# Youngs Moduli (GPa) = 62.28543 46.28103 126.61738
#
# Poissons Ratio (x) = 0.09533 0.47942
# Poissons Ratio (y) = 0.12830 0.83937
# Poissons Ratio (z) = 0.23583 0.30681
#
# Static dielectric constant tensor:
#      x y z
#    x 3.461100 0.000000 -0.106240 
#    y 0.000000 3.563410 0.000000 
#    z -0.106240 0.000000 5.307140 
# 
# 
# High freq. dielectric constant tensor:
#      x y z
#    x 1.773850 0.000000 0.005130 
#    y 0.000000 1.766700 0.000000 
#    z 0.005130 0.000000 1.825530 
# 
# From -- ./inp_files/143341.got.cif
#   From: 2010.06.25/outbox.cif.g09.slc.cpg/sg15_72_cif.got.tgz:143341.got - 2010.06.28 07:06:18.
