data_PCOD8140920
_publ_section_title
;
Structure prediction by ZEFSAII (Michael W. Deem and Ramdas Pophale) SiO2 
 PCOD8140920
Probable space group: C 2/C
;
_chemical_formula_sum "Si O2"
_cell_formula_units_Z 64
_cell_length_a 27.905161
_cell_length_b 25.047275
_cell_length_c 9.242520
_cell_angle_alpha 90.000000
_cell_angle_beta 32.233215
_cell_angle_gamma 90.000000
_cell_volume 3445.572091
_symmetry_space_group_name_H-M "C 2/C"
_symmetry_group_IT_number 15
_symmetry_cell_setting 'monoclinic'
loop_
_space_group_symop_operation_xyz
x,y,z
-x,y,1/2-z
-x,-y,-z
x,-y,1/2+z
1/2+x,1/2+y,z
1/2-x,1/2+y,1/2-z
1/2-x,1/2-y,-z
1/2+x,1/2-y,1/2+z
loop_
_atom_site_type_symbol
_atom_site_label
_atom_site_fract_x
_atom_site_fract_y
_atom_site_fract_z
Si Si1 0.891331 0.449198 0.177747
Si Si2 0.220068 0.362416 0.545666
Si Si3 0.421202 0.236648 0.734569
Si Si4 0.879156 0.262879 0.783441
Si Si5 0.599102 0.673924 0.979702
Si Si6 0.169124 0.775636 0.793594
Si Si7 0.403719 0.941870 0.808481
Si Si8 0.213269 0.360933 0.893822
O O1 0.877537 0.507586 0.278667
O O2 0.815447 0.410761 0.435661
O O3 0.876410 0.452188 0.043936
O O4 0.990367 0.428408 0.968792
O O5 0.190954 0.300098 0.623713
O O6 0.149737 0.392758 0.623800
O O7 0.221733 0.382190 0.707357
O O8 0.319313 0.368583 0.216647
O O9 0.521159 0.213525 0.493905
O O10 0.393310 0.276927 0.931084
O O11 0.414996 0.271209 0.601122
O O12 0.358936 0.185586 0.905490
O O13 0.882863 0.201172 0.722400
O O14 0.850236 0.263101 0.023313
O O15 0.500000 0.646560 0.250000
O O16 0.250000 0.750000 0.500000
O O17 0.192762 0.836252 0.784612
#
# Coordination Sequence:
#
# PCOD8140920 Si02
#       8
#     8   8   8   8   8   8   8   8
#     4  10  22  41  55  85 112 139 179 222 276 320
#     4  12  21  34  57  81 106 151 187 221 275 326
#     4  10  21  33  50  78 110 152 183 227 270 311
#     4  11  20  34  52  75 113 148 190 220 265 328
#     4  10  21  36  53  79 113 148 189 227 267 322
#     4  10  21  33  47  74 108 149 183 230 264 310
#     4  10  23  38  61  80 111 143 176 226 270 331
#     4  11  21  34  53  77 112 144 185 225 264 330
#
# _framework density 18.574565
#
# number of rings (size 3 to 8) (size 9 to 14) (size 15 to 20)
#    0.000    1.500    2.500    3.750    5.250    2.500 
#    0.000    0.000    0.000    0.000    0.000    5.250 
#    0.000    0.000    0.000    0.000    0.000    0.000 
#
# Total GULP energy -396649.192557 kJ/mol
# GULP energy per Si atom -12395.287267 kJ/mol
# Density = 1.853229 g / cm^3
# Si number density = 18.574565 Si / 1000 Ang^3
#
#
#
# Elastic Constant Matrix: (Units=GPa)
#
#
# Indices 1 2 3 4 5 6 
#
# 1 72.5392 16.2035 26.5874 0.0000 10.0927 0.0000
# 2 16.2035 49.2627 23.3249 0.0000 0.3367 0.0000
# 3 26.5874 23.3249 92.3558 0.0000 9.6444 0.0000
# 4 0.0000 0.0000 0.0000 23.2225 0.0000 -1.4438
# 5 10.0927 0.3367 9.6444 0.0000 35.6432 0.0000
# 6 0.0000 0.0000 0.0000 -1.4438 0.0000 30.8753
#
#
#
# Elastic Compliance Matrix: (Units=1/GPa)
#
#
# Indices 1 2 3 4 5 6 
#
# 1 0.016378 -0.003762 -0.003380 0.000000 -0.003687 0.000000
# 2 -0.003762 0.023988 -0.005210 0.000000 0.002248 0.000000
# 3 -0.003380 -0.005210 0.013390 0.000000 -0.002617 0.000000
# 4 0.000000 0.000000 0.000000 0.043187 0.000000 0.002019
# 5 -0.003687 0.002248 -0.002617 0.000000 0.029787 0.000000
# 6 0.000000 0.000000 0.000000 0.002019 0.000000 0.032483
#
#
# Mechanical properties :
#
#
# Convention : Reuss Voigt Hill
#
# Bulk Modulus (GPa) = 34.42030 38.48770 36.45400
# Shear Modulus (GPa) = 25.82649 27.81766 26.82208
#
# Velocity S-wave (km/s) = 3.73288 3.87411 3.80415
# Velocity P-wave (km/s) = 6.09511 6.38571 6.24210
#
# Compressibility (1/GPa) = 0.02905262
#
# Stress axis : x y z
#
# Youngs Moduli (GPa) = 61.05867 41.68721 74.68377
#
# Poissons Ratio (x) = 0.15681 0.25241
# Poissons Ratio (y) = 0.22967 0.38912
# Poissons Ratio (z) = 0.20636 0.21720
#
# Static dielectric constant tensor:
#      x y z
#    x 4.588600 0.000000 -0.217810 
#    y 0.000000 3.010370 0.000000 
#    z -0.217810 0.000000 3.617890 
# 
# 
# High freq. dielectric constant tensor:
#      x y z
#    x 1.731110 0.000000 0.012670 
#    y 0.000000 1.673600 0.000000 
#    z 0.012670 0.000000 1.730440 
# 
# From -- ./inp_files/70967.got.cif
#   From: 2010.06.25/outbox.cif.g09.slc.cpg/sg15_36_cif.got.tgz:70967.got - 2010.06.28 07:06:18.
