data_PCOD8140315
_publ_section_title
;
Structure prediction by ZEFSAII (Michael W. Deem and Ramdas Pophale) SiO2 
 PCOD8140315
Probable space group: C 2/C
;
_chemical_formula_sum "Si O2"
_cell_formula_units_Z 60
_cell_length_a 25.101172
_cell_length_b 11.332927
_cell_length_c 19.873961
_cell_angle_alpha 90.000000
_cell_angle_beta 28.830014
_cell_angle_gamma 90.000000
_cell_volume 2726.208880
_symmetry_space_group_name_H-M "C 2/C"
_symmetry_group_IT_number 15
_symmetry_cell_setting 'monoclinic'
loop_
_space_group_symop_operation_xyz
x,y,z
-x,y,1/2-z
-x,-y,-z
x,-y,1/2+z
1/2+x,1/2+y,z
1/2-x,1/2+y,1/2-z
1/2-x,1/2-y,-z
1/2+x,1/2-y,1/2+z
loop_
_atom_site_type_symbol
_atom_site_label
_atom_site_fract_x
_atom_site_fract_y
_atom_site_fract_z
Si Si1 0.590892 0.284664 0.381306
Si Si2 0.637581 0.597392 0.696210
Si Si3 0.374744 0.950051 0.964997
Si Si4 0.450196 0.789656 0.374381
Si Si5 0.086365 0.595011 0.930280
Si Si6 0.248819 0.250249 0.820073
Si Si7 0.052946 0.881304 0.857661
Si Si8 0.500000 0.247299 0.250000
O O1 0.652349 0.322684 0.246007
O O2 0.485129 0.210593 0.475829
O O3 0.677098 0.214856 0.333329
O O4 0.541906 0.395005 0.479910
O O5 0.761263 0.547587 0.546651
O O6 0.551036 0.492398 0.809311
O O7 0.592569 0.669993 0.682476
O O8 0.444476 0.835294 0.867149
O O9 0.444986 0.068713 0.874550
O O10 0.352483 0.945153 0.069451
O O11 0.500000 0.738402 0.250000
O O12 0.329205 0.735332 0.527389
O O13 0.531937 0.743563 0.342193
O O14 0.181754 0.629640 0.770561
O O15 0.000000 0.500000 0.000000
O O16 0.324998 0.365458 0.746457
#
# Coordination Sequence:
#
# PCOD8140315 Si02
#       8
#     8   8   8   8   8   8   8   4
#     4  10  21  39  66 100 134 178 223 289 360 413
#     4  12  24  45  68  96 141 184 230 288 359 421
#     4  12  23  47  70  94 140 191 233 291 349 421
#     4  11  24  44  70  99 138 190 238 289 354 418
#     4  11  22  39  70 103 139 177 237 296 349 425
#     4  10  20  41  64 102 135 173 236 284 358 415
#     4  10  23  40  68 101 138 173 229 294 355 422
#     4  12  28  46  66 100 140 190 244 280 348 444
#
# _framework density 22.008585
#
# number of rings (size 3 to 8) (size 9 to 14) (size 15 to 20)
#    0.000    1.067    4.667    3.200    0.933    0.533 
#    0.000    2.667    0.000    0.000    0.000    0.000 
#    0.000    0.000    0.000    0.000    0.000    0.000 
#
# Total GULP energy -371828.525589 kJ/mol
# GULP energy per Si atom -12394.284186 kJ/mol
# Density = 2.195849 g / cm^3
# Si number density = 22.008585 Si / 1000 Ang^3
#
#
#
# Elastic Constant Matrix: (Units=GPa)
#
#
# Indices 1 2 3 4 5 6 
#
# 1 95.4028 27.6572 30.6347 0.0000 -5.4141 0.0000
# 2 27.6572 80.8669 12.8234 0.0001 -3.4836 0.0000
# 3 30.6347 12.8234 81.2669 0.0000 3.3846 0.0000
# 4 0.0000 0.0001 0.0000 33.5966 0.0000 4.1038
# 5 -5.4141 -3.4836 3.3846 0.0000 39.3473 0.0000
# 6 0.0000 0.0000 0.0000 4.1038 0.0000 22.2057
#
#
#
# Elastic Compliance Matrix: (Units=1/GPa)
#
#
# Indices 1 2 3 4 5 6 
#
# 1 0.013078 -0.003691 -0.004425 0.000000 0.001853 0.000000
# 2 -0.003691 0.013792 -0.000817 0.000000 0.000783 0.000000
# 3 -0.004425 -0.000817 0.014181 0.000000 -0.001901 0.000000
# 4 0.000000 0.000000 0.000000 0.030452 0.000000 -0.005628
# 5 0.001853 0.000783 -0.001901 0.000000 0.025903 0.000000
# 6 0.000000 0.000000 0.000000 -0.005628 0.000000 0.046073
#
#
# Mechanical properties :
#
#
# Convention : Reuss Voigt Hill
#
# Bulk Modulus (GPa) = 43.13265 44.41860 43.77563
# Shear Modulus (GPa) = 29.57281 31.45802 30.51541
#
# Velocity S-wave (km/s) = 3.66962 3.78478 3.72764
# Velocity P-wave (km/s) = 6.13151 6.27101 6.20166
#
# Compressibility (1/GPa) = 0.02318429
#
# Stress axis : x y z
#
# Youngs Moduli (GPa) = 76.46461 72.50672 70.51577
#
# Poissons Ratio (x) = 0.26764 0.31201
# Poissons Ratio (y) = 0.28225 0.05764
# Poissons Ratio (z) = 0.33833 0.05927
#
# Static dielectric constant tensor:
#      x y z
#    x 3.942340 0.000000 -0.069780 
#    y 0.000000 3.845350 0.000000 
#    z -0.069780 0.000000 4.078930 
# 
# 
# High freq. dielectric constant tensor:
#      x y z
#    x 1.857920 0.000000 -0.008260 
#    y 0.000000 1.853980 0.000000 
#    z -0.008260 0.000000 1.871100 
# 
# From -- ./inp_files/255533.got.cif
#   From: 2010.06.25/outbox.cif.g09.slc.cpg/sg15_128_cif.got.tgz:255533.got - 2010.06.28 07:06:18.
