data_PCOD8140511
_publ_section_title
;
Structure prediction by ZEFSAII (Michael W. Deem and Ramdas Pophale) SiO2 
 PCOD8140511
Probable space group: C 2/C
;
_chemical_formula_sum "Si O2"
_cell_formula_units_Z 52
_cell_length_a 16.580683
_cell_length_b 14.498698
_cell_length_c 17.512511
_cell_angle_alpha 90.000000
_cell_angle_beta 39.190611
_cell_angle_gamma 90.000000
_cell_volume 2660.294892
_symmetry_space_group_name_H-M "C 2/C"
_symmetry_group_IT_number 15
_symmetry_cell_setting 'monoclinic'
loop_
_space_group_symop_operation_xyz
x,y,z
-x,y,1/2-z
-x,-y,-z
x,-y,1/2+z
1/2+x,1/2+y,z
1/2-x,1/2+y,1/2-z
1/2-x,1/2-y,-z
1/2+x,1/2-y,1/2+z
loop_
_atom_site_type_symbol
_atom_site_label
_atom_site_fract_x
_atom_site_fract_y
_atom_site_fract_z
Si Si1 0.749150 0.022894 0.654780
Si Si2 0.000000 0.059311 0.250000
Si Si3 0.149560 0.149349 0.504293
Si Si4 0.031190 0.506014 0.640092
Si Si5 0.242581 0.140767 0.998532
Si Si6 0.211231 0.643423 0.944760
Si Si7 0.893840 0.065012 0.695520
O O1 0.606173 0.032927 0.795216
O O2 0.776787 0.106034 0.574518
O O3 0.852703 0.020787 0.645793
O O4 0.763140 0.924473 0.603393
O O5 0.876722 0.118688 0.360357
O O6 0.033997 0.004764 0.301689
O O7 0.181800 0.250606 0.452295
O O8 0.178937 0.133510 0.572122
O O9 0.999126 0.141924 0.599420
O O10 0.000000 0.480338 0.750000
O O11 0.130254 0.591330 0.560949
O O12 0.086250 0.415221 0.558463
O O13 0.250000 0.250000 0.000000
O O14 0.267024 0.606930 0.824856
#
# Coordination Sequence:
#
# PCOD8140511 Si02
#       7
#     8   4   8   8   8   8   8
#     4  11  24  42  65  94 132 170 205 268 320 369
#     4  12  22  44  70  88 120 174 220 256 318 376
#     4  11  22  39  67  95 125 167 210 261 322 377
#     4  10  20  42  62  90 128 166 206 257 327 370
#     4  11  24  44  66  93 123 174 219 259 312 381
#     4  11  22  39  67  96 124 167 210 257 321 395
#     4  12  22  44  64  93 133 164 215 264 314 382
#
# _framework density 19.546706
#
# number of rings (size 3 to 8) (size 9 to 14) (size 15 to 20)
#    0.000    0.923    7.692    0.462    5.385    0.615 
#    5.538    0.000    0.000    0.000    0.000    0.000 
#    0.000    0.000    0.000    0.000    0.000    0.000 
#
# Total GULP energy -322349.114824 kJ/mol
# GULP energy per Si atom -12398.042878 kJ/mol
# Density = 1.950222 g / cm^3
# Si number density = 19.546706 Si / 1000 Ang^3
#
#
#
# Elastic Constant Matrix: (Units=GPa)
#
#
# Indices 1 2 3 4 5 6 
#
# 1 93.5328 52.0783 26.9187 0.0001 -10.5766 0.0000
# 2 52.0783 145.7618 54.9666 0.0000 2.0553 0.0000
# 3 26.9187 54.9666 120.4105 0.0001 -30.0941 -0.0001
# 4 0.0001 0.0000 0.0001 14.4243 -0.0001 -6.6536
# 5 -10.5766 2.0553 -30.0941 -0.0001 26.1988 0.0001
# 6 0.0000 0.0000 -0.0001 -6.6536 0.0001 17.9880
#
#
#
# Elastic Compliance Matrix: (Units=1/GPa)
#
#
# Indices 1 2 3 4 5 6 
#
# 1 0.014397 -0.005775 0.001379 0.000000 0.007850 0.000000
# 2 -0.005775 0.011635 -0.006776 0.000000 -0.011028 0.000000
# 3 0.001379 -0.006776 0.015937 0.000000 0.019395 0.000000
# 4 0.000000 0.000000 0.000000 0.083590 0.000000 0.030919
# 5 0.007850 -0.011028 0.019395 0.000000 0.064483 0.000000
# 6 0.000000 0.000000 0.000000 0.030919 0.000000 0.067029
#
#
# Mechanical properties :
#
#
# Convention : Reuss Voigt Hill
#
# Bulk Modulus (GPa) = 50.95278 69.73693 60.34485
# Shear Modulus (GPa) = 17.48515 26.77165 22.12840
#
# Velocity S-wave (km/s) = 2.99412 3.70486 3.36829
# Velocity P-wave (km/s) = 6.17064 7.35227 6.78722
#
# Compressibility (1/GPa) = 0.01962602
#
# Stress axis : x y z
#
# Youngs Moduli (GPa) = 69.45661 85.95053 62.74563
#
# Poissons Ratio (x) = 0.49635 -0.08655
# Poissons Ratio (y) = 0.40110 0.42518
# Poissons Ratio (z) = -0.09581 0.58243
#
# Static dielectric constant tensor:
#      x y z
#    x 3.828530 0.000000 -0.471720 
#    y 0.000000 3.449230 0.000000 
#    z -0.471720 0.000000 4.072490 
# 
# 
# High freq. dielectric constant tensor:
#      x y z
#    x 1.749480 0.000000 -0.016910 
#    y 0.000000 1.751430 0.000000 
#    z -0.016910 0.000000 1.779330 
# 
# From -- ./inp_files/211054.got.cif
#   From: 2010.06.25/outbox.cif.g09.slc.cpg/sg15_106_cif.got.tgz:211054.got - 2010.06.28 07:06:18.
