data_PCOD8140947
_publ_section_title
;
Structure prediction by ZEFSAII (Michael W. Deem and Ramdas Pophale) SiO2 
 PCOD8140947
Probable space group: C 2/C
;
_chemical_formula_sum "Si O2"
_cell_formula_units_Z 56
_cell_length_a 29.541498
_cell_length_b 11.600838
_cell_length_c 13.154439
_cell_angle_alpha 90.000000
_cell_angle_beta 138.167639
_cell_angle_gamma 90.000000
_cell_volume 3006.697295
_symmetry_space_group_name_H-M "C 2/C"
_symmetry_group_IT_number 15
_symmetry_cell_setting 'monoclinic'
loop_
_space_group_symop_operation_xyz
x,y,z
-x,y,1/2-z
-x,-y,-z
x,-y,1/2+z
1/2+x,1/2+y,z
1/2-x,1/2+y,1/2-z
1/2-x,1/2-y,-z
1/2+x,1/2-y,1/2+z
loop_
_atom_site_type_symbol
_atom_site_label
_atom_site_fract_x
_atom_site_fract_y
_atom_site_fract_z
Si Si1 0.357333 0.275846 0.905564
Si Si2 0.143815 0.759539 0.369208
Si Si3 0.821109 0.041751 0.855792
Si Si4 0.252055 0.579451 0.532710
Si Si5 0.000690 0.170250 0.568240
Si Si6 0.977093 0.077457 0.102770
Si Si7 0.240696 0.351567 0.403365
O O1 0.322850 0.402232 0.856232
O O2 0.319667 0.187746 0.769310
O O3 0.357845 0.222653 0.017234
O O4 0.434181 0.268809 0.996931
O O5 0.192625 0.666361 0.397790
O O6 0.177701 0.885376 0.406958
O O7 0.067594 0.754015 0.199240
O O8 0.767980 0.080519 0.680074
O O9 0.801430 0.104209 0.929700
O O10 0.896360 0.083569 0.954213
O O11 0.223711 0.458050 0.447484
O O12 0.990389 0.155532 0.430362
O O13 0.008318 0.049952 0.641423
O O14 0.000000 0.126138 0.250000
O O15 0.250000 0.250000 0.500000
#
# Coordination Sequence:
#
# PCOD8140947 Si02
#       7
#     8   8   8   8   8   8   8
#     4  11  22  37  63  89 121 159 202 253 307 367
#     4  11  21  40  62  87 121 163 201 252 304 378
#     4  11  21  39  58  90 126 159 201 247 316 363
#     4  11  23  38  61  88 123 163 209 248 304 366
#     4  10  21  36  58  88 118 157 205 247 311 365
#     4  10  21  33  58  87 123 157 192 260 313 362
#     4  12  25  38  62  94 127 162 208 260 303 364
#
# _framework density 18.625088000000002
#
# number of rings (size 3 to 8) (size 9 to 14) (size 15 to 20)
#    0.000    1.143    5.714    2.143    2.000    0.000 
#    0.000    0.714    0.000    0.000    0.000    0.000 
#    0.000    0.000    0.000    0.000    0.000    0.000 
#
# Total GULP energy -346989.197130 kJ/mol
# GULP energy per Si atom -12392.471326 kJ/mol
# Density = 1.858270 g / cm^3
# Si number density = 18.625088 Si / 1000 Ang^3
#
#
#
# Elastic Constant Matrix: (Units=GPa)
#
#
# Indices 1 2 3 4 5 6 
#
# 1 99.5997 33.6456 44.3078 0.0000 -2.0654 0.0000
# 2 33.6456 77.1248 33.6167 0.0000 5.5959 0.0000
# 3 44.3078 33.6167 103.3092 0.0000 -8.1513 0.0000
# 4 0.0000 0.0000 0.0000 15.4781 0.0000 -3.5773
# 5 -2.0654 5.5959 -8.1513 0.0000 40.1526 0.0000
# 6 0.0000 0.0000 0.0000 -3.5773 0.0000 21.9584
#
#
#
# Elastic Compliance Matrix: (Units=1/GPa)
#
#
# Indices 1 2 3 4 5 6 
#
# 1 0.013336 -0.003916 -0.004419 0.000000 0.000335 0.000000
# 2 -0.003916 0.016662 -0.004006 0.000000 -0.003337 0.000000
# 3 -0.004419 -0.004006 0.013114 0.000000 0.002993 0.000000
# 4 0.000000 0.000000 0.000000 0.067135 0.000000 0.010937
# 5 0.000335 -0.003337 0.002993 0.000000 0.025995 0.000000
# 6 0.000000 0.000000 0.000000 0.010937 0.000000 0.047323
#
#
# Mechanical properties :
#
#
# Convention : Reuss Voigt Hill
#
# Bulk Modulus (GPa) = 54.25454 55.90820 55.08137
# Shear Modulus (GPa) = 23.32194 26.74871 25.03533
#
# Velocity S-wave (km/s) = 3.54245 3.79379 3.67027
# Velocity P-wave (km/s) = 6.77680 7.01949 6.89921
#
# Compressibility (1/GPa) = 0.01843164
#
# Stress axis : x y z
#
# Youngs Moduli (GPa) = 74.98649 60.01530 76.25151
#
# Poissons Ratio (x) = 0.23502 0.33694
# Poissons Ratio (y) = 0.29364 0.30544
# Poissons Ratio (z) = 0.33135 0.24040
#
# Static dielectric constant tensor:
#      x y z
#    x 3.607750 0.000000 -0.168630 
#    y 0.000000 3.306230 0.000000 
#    z -0.168630 0.000000 3.461130 
# 
# 
# High freq. dielectric constant tensor:
#      x y z
#    x 1.737080 0.000000 -0.012390 
#    y 0.000000 1.689190 0.000000 
#    z -0.012390 0.000000 1.728060 
# 
# From -- ./inp_files/122705.got.cif
#   From: 2010.06.25/outbox.cif.g09.slc.cpg/sg15_62_cif.got.tgz:122705.got - 2010.06.28 07:06:18.
