data_PCOD8140626
_publ_section_title
;
Structure prediction by ZEFSAII (Michael W. Deem and Ramdas Pophale) SiO2 
 PCOD8140626
Probable space group: C 2/C
;
_chemical_formula_sum "Si O2"
_cell_formula_units_Z 64
_cell_length_a 19.850819
_cell_length_b 10.805208
_cell_length_c 22.099804
_cell_angle_alpha 90.000000
_cell_angle_beta 141.864936
_cell_angle_gamma 90.000000
_cell_volume 2927.178098
_symmetry_space_group_name_H-M "C 2/C"
_symmetry_group_IT_number 15
_symmetry_cell_setting 'monoclinic'
loop_
_space_group_symop_operation_xyz
x,y,z
-x,y,1/2-z
-x,-y,-z
x,-y,1/2+z
1/2+x,1/2+y,z
1/2-x,1/2+y,1/2-z
1/2-x,1/2-y,-z
1/2+x,1/2-y,1/2+z
loop_
_atom_site_type_symbol
_atom_site_label
_atom_site_fract_x
_atom_site_fract_y
_atom_site_fract_z
Si Si1 0.913348 0.479469 0.135622
Si Si2 0.174985 0.023521 0.002902
Si Si3 0.069106 0.390202 0.663375
Si Si4 0.294987 0.517592 0.840616
Si Si5 0.642237 0.206338 0.094508
Si Si6 0.432150 0.268105 0.587413
Si Si7 0.137787 0.082633 0.236763
Si Si8 0.519367 0.651197 0.695241
O O1 0.894840 0.334149 0.109660
O O2 0.000000 0.499998 0.250000
O O3 0.957677 0.543658 0.105638
O O4 0.800809 0.545651 0.074579
O O5 0.142693 0.887995 0.955490
O O6 0.156340 0.031356 0.061787
O O7 0.097779 0.127566 0.919364
O O8 0.167774 0.483966 0.746848
O O9 0.063456 0.357394 0.588293
O O10 0.084746 0.262256 0.710317
O O11 0.310105 0.664716 0.846520
O O12 0.361795 0.452987 0.833973
O O13 0.744692 0.117093 0.154566
O O14 0.575100 0.217878 0.985915
O O15 0.558069 0.300740 0.688541
O O16 0.095338 0.969174 0.246847
O O17 0.500000 0.690879 0.750000
#
# Coordination Sequence:
#
# PCOD8140626 Si02
#       8
#     8   8   8   8   8   8   8   8
#     4  12  24  43  65  93 132 165 212 259 316 380
#     4  10  24  42  67  92 123 176 210 259 312 385
#     4  11  23  42  66  93 128 173 208 260 313 379
#     4  10  20  42  67  91 123 166 219 252 319 374
#     4  10  22  41  68  94 127 159 216 266 316 374
#     4  10  24  39  67  96 121 164 214 264 323 367
#     4  10  22  40  64  93 126 168 204 269 315 368
#     4  11  25  42  62  94 134 169 213 254 314 378
#
# _framework density 21.864061
#
# number of rings (size 3 to 8) (size 9 to 14) (size 15 to 20)
#    0.000    1.500    2.500    1.500    5.250    4.500 
#    0.000    0.000    0.000    0.000    0.000    0.000 
#    0.000    0.000    0.000    0.000    0.000    0.000 
#
# Total GULP energy -396939.192457 kJ/mol
# GULP energy per Si atom -12404.349764 kJ/mol
# Density = 2.181430 g / cm^3
# Si number density = 21.864061 Si / 1000 Ang^3
#
#
#
# Elastic Constant Matrix: (Units=GPa)
#
#
# Indices 1 2 3 4 5 6 
#
# 1 77.9947 1.0017 6.7446 0.0000 7.6378 0.0000
# 2 1.0017 60.3539 0.7949 0.0000 3.9561 0.0000
# 3 6.7446 0.7949 35.0251 0.0000 -0.2095 0.0000
# 4 0.0000 0.0000 0.0000 15.2189 0.0000 -2.2017
# 5 7.6378 3.9561 -0.2095 0.0000 18.8154 0.0000
# 6 0.0000 0.0000 0.0000 -2.2017 0.0000 36.1324
#
#
#
# Elastic Compliance Matrix: (Units=1/GPa)
#
#
# Indices 1 2 3 4 5 6 
#
# 1 0.013596 0.000175 -0.002655 0.000000 -0.005585 0.000000
# 2 0.000175 0.016808 -0.000437 0.000000 -0.003610 0.000000
# 3 -0.002655 -0.000437 0.029081 0.000000 0.001494 0.000000
# 4 0.000000 0.000000 0.000000 0.066292 0.000000 0.004039
# 5 -0.005585 -0.003610 0.001494 0.000000 0.056191 0.000000
# 6 0.000000 0.000000 0.000000 0.004039 0.000000 0.027922
#
#
# Mechanical properties :
#
#
# Convention : Reuss Voigt Hill
#
# Bulk Modulus (GPa) = 18.63877 21.16177 19.90027
# Shear Modulus (GPa) = 21.40338 25.02219 23.21279
#
# Velocity S-wave (km/s) = 3.13218 3.38663 3.26189
# Velocity P-wave (km/s) = 4.65017 4.99922 4.82785
#
# Compressibility (1/GPa) = 0.05365162
#
# Stress axis : x y z
#
# Youngs Moduli (GPa) = 73.55258 59.49402 34.38652
#
# Poissons Ratio (x) = -0.01044 0.09131
# Poissons Ratio (y) = -0.01290 0.01502
# Poissons Ratio (z) = 0.19531 0.02599
#
# Static dielectric constant tensor:
#      x y z
#    x 4.033350 0.000000 -0.033300 
#    y 0.000000 3.991160 0.000000 
#    z -0.033300 0.000000 3.695570 
# 
# 
# High freq. dielectric constant tensor:
#      x y z
#    x 1.871170 0.000000 -0.002770 
#    y 0.000000 1.861620 0.000000 
#    z -0.002770 0.000000 1.845010 
# 
# From -- ./inp_files/252576.got.cif
#   From: 2010.06.25/outbox.cif.g09.slc.cpg/sg15_127_cif.got.tgz:252576.got - 2010.06.28 07:06:18.
