data_PCOD8140743
_publ_section_title
;
Structure prediction by ZEFSAII (Michael W. Deem and Ramdas Pophale) SiO2 
 PCOD8140743
Probable space group: C 2/C
;
_chemical_formula_sum "Si O2"
_cell_formula_units_Z 48
_cell_length_a 8.547903
_cell_length_b 12.960181
_cell_length_c 22.985174
_cell_angle_alpha 90.000000
_cell_angle_beta 67.520870
_cell_angle_gamma 90.000000
_cell_volume 2352.877330
_symmetry_space_group_name_H-M "C 2/C"
_symmetry_group_IT_number 15
_symmetry_cell_setting 'monoclinic'
loop_
_space_group_symop_operation_xyz
x,y,z
-x,y,1/2-z
-x,-y,-z
x,-y,1/2+z
1/2+x,1/2+y,z
1/2-x,1/2+y,1/2-z
1/2-x,1/2-y,-z
1/2+x,1/2-y,1/2+z
loop_
_atom_site_type_symbol
_atom_site_label
_atom_site_fract_x
_atom_site_fract_y
_atom_site_fract_z
Si Si1 0.904686 0.505771 0.687263
Si Si2 0.281117 0.252925 0.063998
Si Si3 0.255775 0.918048 0.812716
Si Si4 0.496438 0.934672 0.942270
Si Si5 0.528498 0.754466 0.312352
Si Si6 0.157299 0.989047 0.436695
O O1 0.746986 0.479093 0.751789
O O2 0.057721 0.430220 0.686258
O O3 0.871459 0.482231 0.624020
O O4 0.956421 0.623509 0.686421
O O5 0.446972 0.183197 0.053765
O O6 0.122609 0.213126 0.124677
O O7 0.305410 0.370000 0.079044
O O8 0.250000 0.250000 0.000000
O O9 0.121104 0.966723 0.877395
O O10 0.202383 0.799298 0.809642
O O11 0.307549 0.944021 0.944194
O O12 0.500000 0.000000 0.000000
O O13 0.500000 0.720184 0.250000
O O14 0.000000 0.000000 0.500000
#
# Coordination Sequence:
#
# PCOD8140743 Si02
#       6
#     8   8   8   8   8   8
#     4  10  20  43  63  91 132 162 213 272 319 381
#     4  12  22  40  66  94 125 173 215 258 330 385
#     4  10  21  38  66  91 124 168 211 262 327 380
#     4  11  22  39  66  94 125 174 215 265 326 387
#     4  12  21  39  70  93 123 174 210 263 333 386
#     4  11  23  42  63  93 135 165 214 278 318 386
#
# _framework density 20.400554
#
# number of rings (size 3 to 8) (size 9 to 14) (size 15 to 20)
#    0.000    1.000    6.667    2.000    0.000    0.667 
#    0.000    1.667   11.000    0.000    0.000    0.000 
#    0.000    0.000    0.000    0.000    0.000    0.000 
#
# Total GULP energy -297393.426898 kJ/mol
# GULP energy per Si atom -12391.392787 kJ/mol
# Density = 2.035412 g / cm^3
# Si number density = 20.400554 Si / 1000 Ang^3
#
#
#
# Elastic Constant Matrix: (Units=GPa)
#
#
# Indices 1 2 3 4 5 6 
#
# 1 75.7711 67.8397 41.6800 0.0000 -5.1051 0.0000
# 2 67.8397 109.7022 31.6902 0.0000 7.3034 0.0000
# 3 41.6800 31.6902 219.3248 0.0000 -8.5158 0.0000
# 4 0.0000 0.0000 0.0000 30.8402 0.0000 3.4308
# 5 -5.1051 7.3034 -8.5158 0.0000 32.5358 0.0000
# 6 0.0000 0.0000 0.0000 3.4308 0.0000 38.8638
#
#
#
# Elastic Compliance Matrix: (Units=1/GPa)
#
#
# Indices 1 2 3 4 5 6 
#
# 1 0.034243 -0.020886 -0.003131 0.000000 0.009242 0.000000
# 2 -0.020886 0.022462 0.000405 0.000000 -0.008213 0.000000
# 3 -0.003131 0.000405 0.005125 0.000000 0.000759 0.000000
# 4 0.000000 0.000000 0.000000 0.032747 0.000000 -0.002891
# 5 0.009242 -0.008213 0.000759 0.000000 0.034228 0.000000
# 6 0.000000 0.000000 0.000000 -0.002891 0.000000 0.025986
#
#
# Mechanical properties :
#
#
# Convention : Reuss Voigt Hill
#
# Bulk Modulus (GPa) = 68.46978 76.35755 72.41366
# Shear Modulus (GPa) = 24.16822 38.02050 31.09436
#
# Velocity S-wave (km/s) = 3.44566 4.32174 3.90833
# Velocity P-wave (km/s) = 7.03318 7.90023 7.47928
#
# Compressibility (1/GPa) = 0.01460498
#
# Stress axis : x y z
#
# Youngs Moduli (GPa) = 29.20343 44.52043 195.10745
#
# Poissons Ratio (x) = 0.92987 0.61082
# Poissons Ratio (y) = 0.60996 -0.07899
# Poissons Ratio (z) = 0.09143 -0.01802
#
# Static dielectric constant tensor:
#      x y z
#    x 3.292640 0.000000 -0.211620 
#    y 0.000000 3.633220 0.000000 
#    z -0.211620 0.000000 4.835520 
# 
# 
# High freq. dielectric constant tensor:
#      x y z
#    x 1.755880 0.000000 -0.007410 
#    y 0.000000 1.792520 0.000000 
#    z -0.007410 0.000000 1.843420 
# 
# From -- ./inp_files/263101.got.cif
#   From: 2010.06.25/outbox.cif.g09.slc.cpg/sg15_132_cif.got.tgz:263101.got - 2010.06.28 07:06:18.
