data_PCOD8140835
_publ_section_title
;
Structure prediction by ZEFSAII (Michael W. Deem and Ramdas Pophale) SiO2 
 PCOD8140835
Probable space group: C 2/C
;
_chemical_formula_sum "Si O2"
_cell_formula_units_Z 60
_cell_length_a 17.230193
_cell_length_b 25.399192
_cell_length_c 13.043943
_cell_angle_alpha 90.000000
_cell_angle_beta 27.154990
_cell_angle_gamma 90.000000
_cell_volume 2605.335760
_symmetry_space_group_name_H-M "C 2/C"
_symmetry_group_IT_number 15
_symmetry_cell_setting 'monoclinic'
loop_
_space_group_symop_operation_xyz
x,y,z
-x,y,1/2-z
-x,-y,-z
x,-y,1/2+z
1/2+x,1/2+y,z
1/2-x,1/2+y,1/2-z
1/2-x,1/2-y,-z
1/2+x,1/2-y,1/2+z
loop_
_atom_site_type_symbol
_atom_site_label
_atom_site_fract_x
_atom_site_fract_y
_atom_site_fract_z
Si Si1 0.520955 0.076545 0.426629
Si Si2 0.311144 0.798559 0.494830
Si Si3 0.010012 0.688255 0.357573
Si Si4 0.864436 0.093708 0.319974
Si Si5 0.000000 0.959440 0.250000
Si Si6 0.695426 0.712542 0.349061
Si Si7 0.594902 0.600879 0.454094
Si Si8 0.334604 0.978788 0.325111
O O1 0.449490 0.129247 0.457894
O O2 0.706163 0.088588 0.256641
O O3 0.384679 0.059508 0.672528
O O4 0.533647 0.028285 0.328065
O O5 0.500000 0.816969 0.250000
O O6 0.250000 0.750000 0.500000
O O7 0.183027 0.845503 0.620997
O O8 0.317598 0.785302 0.607311
O O9 0.200578 0.700682 0.169796
O O10 0.000000 0.695888 0.250000
O O11 0.890558 0.730961 0.550319
O O12 0.941887 0.078750 0.117335
O O13 0.692240 0.057804 0.542173
O O14 0.000000 0.082356 0.250000
O O15 0.037073 0.922999 0.306940
O O16 0.849781 0.994862 0.469710
O O17 0.562794 0.664014 0.493462
#
# Coordination Sequence:
#
# PCOD8140835 Si02
#       8
#     8   8   8   8   4   8   8   8
#     4   9  22  45  65  96 131 179 235 277 336 412
#     4  11  24  42  70  99 136 181 223 281 342 416
#     4  11  23  44  68 100 135 180 223 277 334 411
#     4  11  24  41  65 103 137 174 225 282 349 412
#     4  10  20  44  66  98 130 180 232 282 334 410
#     4  10  23  42  66  99 133 174 225 268 340 400
#     4   9  22  42  69  92 133 181 225 278 342 407
#     4  10  21  42  68  94 135 173 226 286 343 402
#
# _framework density 23.029661999999998
#
# number of rings (size 3 to 8) (size 9 to 14) (size 15 to 20)
#    0.000    1.867    0.667    1.600    8.400    1.600 
#    9.600    0.000    0.000    0.000    0.000    0.000 
#    0.000    0.000    0.000    0.000    0.000    0.000 
#
# Total GULP energy -371681.761146 kJ/mol
# GULP energy per Si atom -12389.392038 kJ/mol
# Density = 2.297725 g / cm^3
# Si number density = 23.029662 Si / 1000 Ang^3
#
#
#
# Elastic Constant Matrix: (Units=GPa)
#
#
# Indices 1 2 3 4 5 6 
#
# 1 93.0818 23.4000 23.0047 -0.0415 27.1690 0.0505
# 2 23.4000 156.0420 51.0153 -0.0289 19.4591 0.0510
# 3 23.0047 51.0153 98.4642 -0.0570 20.3925 0.0937
# 4 -0.0415 -0.0289 -0.0570 39.1635 0.0760 1.8011
# 5 27.1690 19.4591 20.3925 0.0760 31.5679 -0.0532
# 6 0.0505 0.0510 0.0937 1.8011 -0.0532 22.4386
#
#
#
# Elastic Compliance Matrix: (Units=1/GPa)
#
#
# Indices 1 2 3 4 5 6 
#
# 1 0.014449 -0.000478 -0.000708 0.000039 -0.011683 -0.000059
# 2 -0.000478 0.007907 -0.003534 0.000005 -0.002180 -0.000008
# 3 -0.000708 -0.003534 0.013363 0.000030 -0.005845 -0.000062
# 4 0.000039 0.000005 0.000030 0.025629 -0.000121 -0.002058
# 5 -0.011683 -0.002180 -0.005845 -0.000121 0.046853 0.000176
# 6 -0.000059 -0.000008 -0.000062 -0.002058 0.000176 0.044732
#
#
# Mechanical properties :
#
#
# Convention : Reuss Voigt Hill
#
# Bulk Modulus (GPa) = 38.05365 60.26981 49.16173
# Shear Modulus (GPa) = 29.21710 35.31185 32.26448
#
# Velocity S-wave (km/s) = 3.56571 3.92001 3.74705
# Velocity P-wave (km/s) = 5.78895 6.83491 6.33356
#
# Compressibility (1/GPa) = 0.02627869
#
# Stress axis : x y z
#
# Youngs Moduli (GPa) = 69.21054 126.46424 74.83458
#
# Poissons Ratio (x) = 0.06048 0.05300
# Poissons Ratio (y) = 0.03310 0.26444
# Poissons Ratio (z) = 0.04902 0.44688
#
# Static dielectric constant tensor:
#      x y z
#    x 4.077230 0.001370 -0.875580 
#    y 0.001370 4.796390 -0.008880 
#    z -0.875580 -0.008880 10.534580 
# 
# 
# High freq. dielectric constant tensor:
#      x y z
#    x 1.881260 -0.000030 0.021880 
#    y -0.000030 1.939640 0.000030 
#    z 0.021880 0.000030 1.908190 
# 
# From -- ./inp_files/108410.got.cif
#   From: 2010.06.25/outbox.cif.g09.slc.cpg/sg15_55_cif.got.tgz:108410.got - 2010.06.28 07:06:18.
