data_PCOD8140684
_publ_section_title
;
Structure prediction by ZEFSAII (Michael W. Deem and Ramdas Pophale) SiO2 
 PCOD8140684
Probable space group: C 2/C
;
_chemical_formula_sum "Si O2"
_cell_formula_units_Z 44
_cell_length_a 20.087951
_cell_length_b 11.171261
_cell_length_c 28.618866
_cell_angle_alpha 90.000000
_cell_angle_beta 19.118605
_cell_angle_gamma 90.000000
_cell_volume 2103.460445
_symmetry_space_group_name_H-M "C 2/C"
_symmetry_group_IT_number 15
_symmetry_cell_setting 'monoclinic'
loop_
_space_group_symop_operation_xyz
x,y,z
-x,y,1/2-z
-x,-y,-z
x,-y,1/2+z
1/2+x,1/2+y,z
1/2-x,1/2+y,1/2-z
1/2-x,1/2-y,-z
1/2+x,1/2-y,1/2+z
loop_
_atom_site_type_symbol
_atom_site_label
_atom_site_fract_x
_atom_site_fract_y
_atom_site_fract_z
Si Si1 0.500000 0.002353 0.250000
Si Si2 0.511816 0.704859 0.621017
Si Si3 0.692275 0.409941 0.087586
Si Si4 0.383593 0.135079 0.919121
Si Si5 0.770658 0.123631 0.142057
Si Si6 0.800757 0.888198 0.174510
O O1 0.688218 0.081188 0.145551
O O2 0.588770 0.923348 0.149746
O O3 0.646748 0.617877 0.563265
O O4 0.646365 0.805731 0.504055
O O5 0.357312 0.762148 0.760118
O O6 0.370480 0.625700 0.681353
O O7 0.500000 0.411051 0.250000
O O8 0.790358 0.542503 0.019421
O O9 0.598235 0.186529 0.796916
O O10 0.250000 0.250000 0.000000
O O11 0.738090 0.024412 0.203892
O O12 0.009405 0.154480 0.982951
#
# Coordination Sequence:
#
# PCOD8140684 Si02
#       6
#     4   8   8   8   8   8
#     4  10  20  42  70  90 122 176 224 262 320 382
#     4  11  22  40  68  96 128 169 211 275 328 388
#     4  11  24  42  64  98 130 167 219 270 329 389
#     4  11  25  44  64  93 132 176 217 268 325 392
#     4  10  21  40  65  95 126 162 222 267 318 387
#     4  10  22  38  61  94 125 166 211 263 316 387
#
# _framework density 20.917912000000001
#
# number of rings (size 3 to 8) (size 9 to 14) (size 15 to 20)
#    0.000    1.455    3.636    2.182    5.091    5.818 
#    0.000    0.909    0.000    0.000    0.000    0.000 
#    0.000    0.000    0.000    0.000    0.000    0.000 
#
# Total GULP energy -272685.939962 kJ/mol
# GULP energy per Si atom -12394.815453 kJ/mol
# Density = 2.087030 g / cm^3
# Si number density = 20.917912 Si / 1000 Ang^3
#
#
#
# Elastic Constant Matrix: (Units=GPa)
#
#
# Indices 1 2 3 4 5 6 
#
# 1 114.0419 28.6020 25.6821 0.1300 -19.4015 -0.0403
# 2 28.6020 61.8073 31.8846 -0.0373 -15.3314 -0.0121
# 3 25.6821 31.8846 127.5071 -0.2681 -15.2085 -0.0181
# 4 0.1300 -0.0373 -0.2681 16.2753 -0.0179 -3.3869
# 5 -19.4015 -15.3314 -15.2085 -0.0179 45.7031 -0.0072
# 6 -0.0403 -0.0121 -0.0181 -3.3869 -0.0072 22.1394
#
#
#
# Elastic Compliance Matrix: (Units=1/GPa)
#
#
# Indices 1 2 3 4 5 6 
#
# 1 0.010364 -0.003649 -0.000829 -0.000101 0.002900 0.000002
# 2 -0.003649 0.020967 -0.004013 0.000017 0.004149 0.000005
# 3 -0.000829 -0.004013 0.009175 0.000156 0.001355 0.000028
# 4 -0.000101 0.000017 0.000156 0.063467 0.000041 0.009709
# 5 0.002900 0.004149 0.001355 0.000041 0.024954 0.000023
# 6 0.000002 0.000005 0.000028 0.009709 0.000023 0.046654
#
#
# Mechanical properties :
#
#
# Convention : Reuss Voigt Hill
#
# Bulk Modulus (GPa) = 42.51078 52.85483 47.68280
# Shear Modulus (GPa) = 24.94940 31.30275 28.12607
#
# Velocity S-wave (km/s) = 3.45734 3.87260 3.67085
# Velocity P-wave (km/s) = 6.02531 6.73191 6.38839
#
# Compressibility (1/GPa) = 0.02352345
#
# Stress axis : x y z
#
# Youngs Moduli (GPa) = 96.48709 47.69289 108.98879
#
# Poissons Ratio (x) = 0.17403 0.09039
# Poissons Ratio (y) = 0.35209 0.43740
# Poissons Ratio (z) = 0.08002 0.19140
#
# Static dielectric constant tensor:
#      x y z
#    x 3.750960 0.000010 -0.198060 
#    y 0.000010 3.629660 0.000700 
#    z -0.198060 0.000700 4.052730 
# 
# 
# High freq. dielectric constant tensor:
#      x y z
#    x 1.813060 0.000000 -0.008860 
#    y 0.000000 1.796570 0.000030 
#    z -0.008860 0.000030 1.840230 
# 
# From -- ./inp_files/317705.got.cif
#   From: 2010.06.25/outbox.cif.g09.slc.cpg/sg15_159_cif.got.tgz:317705.got - 2010.06.28 07:06:18.
