data_PCOD8140622
_publ_section_title
;
Structure prediction by ZEFSAII (Michael W. Deem and Ramdas Pophale) SiO2 
 PCOD8140622
Probable space group: C 2/C
;
_chemical_formula_sum "Si O2"
_cell_formula_units_Z 56
_cell_length_a 8.059714
_cell_length_b 23.836362
_cell_length_c 18.295161
_cell_angle_alpha 90.000000
_cell_angle_beta 47.681871
_cell_angle_gamma 90.000000
_cell_volume 2598.878176
_symmetry_space_group_name_H-M "C 2/C"
_symmetry_group_IT_number 15
_symmetry_cell_setting 'monoclinic'
loop_
_space_group_symop_operation_xyz
x,y,z
-x,y,1/2-z
-x,-y,-z
x,-y,1/2+z
1/2+x,1/2+y,z
1/2-x,1/2+y,1/2-z
1/2-x,1/2-y,-z
1/2+x,1/2-y,1/2+z
loop_
_atom_site_type_symbol
_atom_site_label
_atom_site_fract_x
_atom_site_fract_y
_atom_site_fract_z
Si Si1 0.295577 0.034376 0.972765
Si Si2 0.789720 0.603274 0.119566
Si Si3 0.723786 0.497706 0.219369
Si Si4 0.055961 0.941136 0.405420
Si Si5 0.583197 0.259239 0.951380
Si Si6 0.262409 0.657951 0.977347
Si Si7 0.894791 0.222899 0.353770
O O1 0.561653 0.026427 0.886561
O O2 0.201719 0.072342 0.934367
O O3 0.243390 0.063771 0.064144
O O4 0.169024 0.975006 0.007229
O O5 0.721354 0.565975 0.211332
O O6 0.637859 0.657744 0.155318
O O7 0.047665 0.618999 0.050108
O O8 0.500000 0.471174 0.250000
O O9 0.719137 0.477587 0.304596
O O10 0.977156 0.881276 0.395706
O O11 0.726693 0.202475 0.922322
O O12 0.568804 0.270497 0.869196
O O13 0.706116 0.310581 0.954527
O O14 0.336594 0.253511 0.059386
O O15 0.000000 0.251627 0.250000
#
# Coordination Sequence:
#
# PCOD8140622 Si02
#       7
#     8   8   8   8   8   8   8
#     4  11  23  40  59  90 135 175 214 271 323 399
#     4  11  21  39  64  92 128 168 218 265 337 386
#     4  12  22  38  60  92 130 171 224 266 314 411
#     4  11  23  39  63  90 133 173 217 268 329 386
#     4   9  21  42  67  94 127 165 227 269 342 390
#     4  10  20  42  67  90 126 180 211 279 332 394
#     4  10  21  40  67  96 125 166 211 282 331 401
#
# _framework density 21.54776
#
# number of rings (size 3 to 8) (size 9 to 14) (size 15 to 20)
#    0.000    1.429    2.857    3.000    0.000    0.000 
#    0.000   15.000    0.000    0.000    0.000    0.000 
#    0.000    0.000    0.000    0.000    0.000    0.000 
#
# Total GULP energy -347191.897064 kJ/mol
# GULP energy per Si atom -12399.710609 kJ/mol
# Density = 2.149872 g / cm^3
# Si number density = 21.547760 Si / 1000 Ang^3
#
#
#
# Elastic Constant Matrix: (Units=GPa)
#
#
# Indices 1 2 3 4 5 6 
#
# 1 98.9903 31.4224 24.8573 0.0000 17.8433 0.0000
# 2 31.4224 80.7297 22.4542 0.0000 12.3134 0.0000
# 3 24.8573 22.4542 93.0634 0.0000 15.1980 0.0000
# 4 0.0000 0.0000 0.0000 21.0499 0.0000 -1.0969
# 5 17.8433 12.3134 15.1980 0.0000 35.2472 0.0000
# 6 0.0000 0.0000 0.0000 -1.0969 0.0000 35.2136
#
#
#
# Elastic Compliance Matrix: (Units=1/GPa)
#
#
# Indices 1 2 3 4 5 6 
#
# 1 0.012492 -0.003727 -0.001740 0.000000 -0.004272 0.000000
# 2 -0.003727 0.014805 -0.002195 0.000000 -0.002339 0.000000
# 3 -0.001740 -0.002195 0.012339 0.000000 -0.003673 0.000000
# 4 0.000000 0.000000 0.000000 0.047584 0.000000 0.001482
# 5 -0.004272 -0.002339 -0.003673 0.000000 0.032935 0.000000
# 6 0.000000 0.000000 0.000000 0.001482 0.000000 0.028444
#
#
# Mechanical properties :
#
#
# Convention : Reuss Voigt Hill
#
# Bulk Modulus (GPa) = 41.12917 47.80567 44.46742
# Shear Modulus (GPa) = 29.06549 31.23875 30.15212
#
# Velocity S-wave (km/s) = 3.67670 3.81168 3.74480
# Velocity P-wave (km/s) = 6.09533 6.45027 6.27531
#
# Compressibility (1/GPa) = 0.02431365
#
# Stress axis : x y z
#
# Youngs Moduli (GPa) = 80.05226 67.54584 81.04096
#
# Poissons Ratio (x) = 0.25173 0.14099
# Poissons Ratio (y) = 0.29833 0.17786
# Poissons Ratio (z) = 0.13927 0.14824
#
# Static dielectric constant tensor:
#      x y z
#    x 4.143670 0.000000 0.040730 
#    y 0.000000 3.872030 0.000000 
#    z 0.040730 0.000000 3.722070 
# 
# 
# High freq. dielectric constant tensor:
#      x y z
#    x 1.863020 0.000000 -0.003210 
#    y 0.000000 1.839170 0.000000 
#    z -0.003210 0.000000 1.827240 
# 
# From -- ./inp_files/193190.got.cif
#   From: 2010.06.25/outbox.cif.g09.slc.cpg/sg15_97_cif.got.tgz:193190.got - 2010.06.28 07:06:18.
