data_PCOD8140710
_publ_section_title
;
Structure prediction by ZEFSAII (Michael W. Deem and Ramdas Pophale) SiO2 
 PCOD8140710
Probable space group: C 2/C
;
_chemical_formula_sum "Si O2"
_cell_formula_units_Z 64
_cell_length_a 26.791356
_cell_length_b 15.285588
_cell_length_c 10.607711
_cell_angle_alpha 90.000000
_cell_angle_beta 137.618629
_cell_angle_gamma 90.000000
_cell_volume 2928.185134
_symmetry_space_group_name_H-M "C 2/C"
_symmetry_group_IT_number 15
_symmetry_cell_setting 'monoclinic'
loop_
_space_group_symop_operation_xyz
x,y,z
-x,y,1/2-z
-x,-y,-z
x,-y,1/2+z
1/2+x,1/2+y,z
1/2-x,1/2+y,1/2-z
1/2-x,1/2-y,-z
1/2+x,1/2-y,1/2+z
loop_
_atom_site_type_symbol
_atom_site_label
_atom_site_fract_x
_atom_site_fract_y
_atom_site_fract_z
Si Si1 0.700197 0.719000 0.019191
Si Si2 0.734328 0.938917 0.700559
Si Si3 0.827168 0.871735 0.652162
Si Si4 0.789739 0.368284 0.259691
Si Si5 0.978656 0.064285 0.349184
Si Si6 0.589388 0.790813 0.149493
Si Si7 0.938698 0.768094 0.400322
Si Si8 0.916387 0.350576 0.088373
O O1 0.618478 0.699252 0.811598
O O2 0.750000 0.750000 0.000000
O O3 0.730871 0.630431 0.137639
O O4 0.698824 0.803404 0.104503
O O5 0.779201 0.934869 0.653238
O O6 0.646248 0.924629 0.518819
O O7 0.741406 0.037079 0.762927
O O8 0.771349 0.827453 0.448027
O O9 0.890268 0.924291 0.694123
O O10 0.864574 0.795765 0.807664
O O11 0.869650 0.374237 0.336452
O O12 0.000000 0.027134 0.250000
O O13 0.023964 0.153218 0.453537
O O14 0.000000 0.000000 0.500000
O O15 0.592203 0.788632 0.306650
O O16 0.503785 0.784853 0.947346
O O17 0.900652 0.705473 0.433137
O O18 0.000000 0.391297 0.250000
#
# Coordination Sequence:
#
# PCOD8140710 Si02
#       8
#     8   8   8   8   8   8   8   8
#     4  12  27  43  69 102 149 186 233 304 369 432
#     4  12  26  44  71 109 138 186 243 295 370 434
#     4  11  24  45  72  97 138 180 244 292 353 432
#     4  12  27  43  71 103 139 184 237 299 362 424
#     4  11  27  45  71 107 147 196 241 300 373 448
#     4  10  20  45  70  97 127 189 235 286 341 425
#     4  10  23  43  72  98 142 187 237 291 367 429
#     4  10  20  42  71  98 130 183 238 280 343 424
#
# _framework density 21.856542000000001
#
# number of rings (size 3 to 8) (size 9 to 14) (size 15 to 20)
#    0.000    1.000    3.750    3.000    7.000    0.500 
#    2.250    1.250    0.000    0.000    0.000    0.000 
#    0.000    0.000    0.000    0.000    0.000    0.000 
#
# Total GULP energy -396716.205013 kJ/mol
# GULP energy per Si atom -12397.381407 kJ/mol
# Density = 2.180680 g / cm^3
# Si number density = 21.856542 Si / 1000 Ang^3
#
#
#
# Elastic Constant Matrix: (Units=GPa)
#
#
# Indices 1 2 3 4 5 6 
#
# 1 156.9555 41.5062 58.3398 0.0000 11.9483 0.0000
# 2 41.5062 77.2378 25.4328 0.0000 -0.0854 0.0000
# 3 58.3398 25.4328 128.8309 0.0000 7.8707 0.0000
# 4 0.0000 0.0000 0.0000 26.4873 0.0000 -2.7330
# 5 11.9483 -0.0854 7.8707 0.0000 33.3969 0.0000
# 6 0.0000 0.0000 0.0000 -2.7330 0.0000 30.5512
#
#
#
# Elastic Compliance Matrix: (Units=1/GPa)
#
#
# Indices 1 2 3 4 5 6 
#
# 1 0.008652 -0.003647 -0.003052 0.000000 -0.002385 0.000000
# 2 -0.003647 0.015400 -0.001492 0.000000 0.001696 0.000000
# 3 -0.003052 -0.001492 0.009509 0.000000 -0.001153 0.000000
# 4 0.000000 0.000000 0.000000 0.038106 0.000000 0.003409
# 5 -0.002385 0.001696 -0.001153 0.000000 0.031072 0.000000
# 6 0.000000 0.000000 0.000000 0.003409 0.000000 0.033037
#
#
# Mechanical properties :
#
#
# Convention : Reuss Voigt Hill
#
# Bulk Modulus (GPa) = 58.21287 68.17576 63.19432
# Shear Modulus (GPa) = 31.66865 33.93677 32.80271
#
# Velocity S-wave (km/s) = 3.81061 3.94471 3.87824
# Velocity P-wave (km/s) = 6.78623 7.21164 7.00217
#
# Compressibility (1/GPa) = 0.01717833
#
# Stress axis : x y z
#
# Youngs Moduli (GPa) = 115.58415 64.93476 105.16028
#
# Poissons Ratio (x) = 0.23681 0.32097
# Poissons Ratio (y) = 0.42152 0.15693
# Poissons Ratio (z) = 0.35278 0.09690
#
# Static dielectric constant tensor:
#      x y z
#    x 4.199400 0.000000 0.269400 
#    y 0.000000 3.656140 0.000000 
#    z 0.269400 0.000000 4.205200 
# 
# 
# High freq. dielectric constant tensor:
#      x y z
#    x 1.881320 0.000000 0.013500 
#    y 0.000000 1.829370 0.000000 
#    z 0.013500 0.000000 1.865910 
# 
# From -- ./inp_files/123561.got.cif
#   From: 2010.06.25/outbox.cif.g09.slc.cpg/sg15_62_cif.got.tgz:123561.got - 2010.06.28 07:06:18.
