data_PCOD8140158
_publ_section_title
;
Structure prediction by ZEFSAII (Michael W. Deem and Ramdas Pophale) SiO2 
 PCOD8140158
Probable space group: C 2/C
;
_chemical_formula_sum "Si O2"
_cell_formula_units_Z 52
_cell_length_a 8.619059
_cell_length_b 16.177920
_cell_length_c 24.689846
_cell_angle_alpha 90.000000
_cell_angle_beta 48.357109
_cell_angle_gamma 90.000000
_cell_volume 2572.743015
_symmetry_space_group_name_H-M "C 2/C"
_symmetry_group_IT_number 15
_symmetry_cell_setting 'monoclinic'
loop_
_space_group_symop_operation_xyz
x,y,z
-x,y,1/2-z
-x,-y,-z
x,-y,1/2+z
1/2+x,1/2+y,z
1/2-x,1/2+y,1/2-z
1/2-x,1/2-y,-z
1/2+x,1/2-y,1/2+z
loop_
_atom_site_type_symbol
_atom_site_label
_atom_site_fract_x
_atom_site_fract_y
_atom_site_fract_z
Si Si1 0.317956 0.311268 0.832493
Si Si2 0.668591 0.467934 0.071016
Si Si3 0.500000 0.212390 0.250000
Si Si4 0.134372 0.481980 0.271893
Si Si5 0.965076 0.539748 0.093126
Si Si6 0.893769 0.892240 0.660687
Si Si7 0.121970 0.169692 0.819142
O O1 0.500000 0.337833 0.750000
O O2 0.115401 0.368674 0.874488
O O3 0.428494 0.324838 0.865158
O O4 0.244189 0.217601 0.838781
O O5 0.802434 0.493568 0.092188
O O6 0.499890 0.540145 0.095546
O O7 0.562581 0.380714 0.109906
O O8 0.809567 0.454118 0.985951
O O9 0.306140 0.156448 0.315188
O O10 0.452142 0.265243 0.208210
O O11 0.007597 0.489319 0.357173
O O12 0.319593 0.550172 0.228874
O O13 0.221405 0.389715 0.248785
O O14 0.000000 0.501562 0.250000
#
# Coordination Sequence:
#
# PCOD8140158 Si02
#       7
#     8   8   4   8   8   8   8
#     4  11  19  36  61  89 120 156 198 251 307 353
#     4   9  22  41  62  90 122 161 202 251 296 371
#     4  12  20  34  62  88 122 158 202 258 298 360
#     4  11  21  36  61  90 114 152 206 256 281 352
#     4  10  20  40  68  86 120 166 205 239 309 363
#     4  10  21  37  61  87 117 160 207 244 299 358
#     4  11  23  35  59  94 122 152 199 258 305 348
#
# _framework density 20.21189
#
# number of rings (size 3 to 8) (size 9 to 14) (size 15 to 20)
#    0.000    1.538    3.846    1.385    0.000    0.615 
#    0.000    3.077    6.769    3.692    0.000    0.000 
#    0.000    0.000    0.000    0.000    0.000    0.000 
#
# Total GULP energy -322197.051861 kJ/mol
# GULP energy per Si atom -12392.194302 kJ/mol
# Density = 2.016589 g / cm^3
# Si number density = 20.211890 Si / 1000 Ang^3
#
#
#
# Elastic Constant Matrix: (Units=GPa)
#
#
# Indices 1 2 3 4 5 6 
#
# 1 79.4052 54.8821 41.6074 -0.0001 -11.0882 -0.0004
# 2 54.8821 133.7643 61.8499 -0.0003 -13.0561 0.0000
# 3 41.6074 61.8499 158.3134 -0.0006 -14.0337 -0.0004
# 4 -0.0001 -0.0003 -0.0006 25.8445 0.0002 -11.8240
# 5 -11.0882 -13.0561 -14.0337 0.0002 27.8347 0.0004
# 6 -0.0004 0.0000 -0.0004 -11.8240 0.0004 39.4904
#
#
#
# Elastic Compliance Matrix: (Units=1/GPa)
#
#
# Indices 1 2 3 4 5 6 
#
# 1 0.018519 -0.006295 -0.002110 0.000000 0.003361 0.000000
# 2 -0.006295 0.011447 -0.002684 0.000000 0.001508 0.000000
# 3 -0.002110 -0.002684 0.008095 0.000000 0.001982 0.000000
# 4 0.000000 0.000000 0.000000 0.044835 0.000000 0.013424
# 5 0.003361 0.001508 0.001982 0.000000 0.038972 0.000000
# 6 0.000000 0.000000 0.000000 0.013424 0.000000 0.029342
#
#
# Mechanical properties :
#
#
# Convention : Reuss Voigt Hill
#
# Bulk Modulus (GPa) = 62.95590 76.46241 69.70916
# Shear Modulus (GPa) = 27.98272 32.84349 30.41310
#
# Velocity S-wave (km/s) = 3.72488 4.03545 3.88327
# Velocity P-wave (km/s) = 7.05090 7.72177 7.39395
#
# Compressibility (1/GPa) = 0.01588413
#
# Stress axis : x y z
#
# Youngs Moduli (GPa) = 53.99812 87.36185 123.52665
#
# Poissons Ratio (x) = 0.54990 0.26065
# Poissons Ratio (y) = 0.33989 0.33154
# Poissons Ratio (z) = 0.11394 0.23448
#
# Static dielectric constant tensor:
#      x y z
#    x 3.719490 0.000000 -0.244330 
#    y 0.000000 3.766290 0.000000 
#    z -0.244330 0.000000 3.627780 
# 
# 
# High freq. dielectric constant tensor:
#      x y z
#    x 1.783330 0.000000 -0.020640 
#    y 0.000000 1.799130 0.000000 
#    z -0.020640 0.000000 1.766680 
# 
# From -- ./inp_files/288598.got.cif
#   From: 2010.06.25/outbox.cif.g09.slc.cpg/sg15_145_cif.got.tgz:288598.got - 2010.06.28 07:06:18.
