data_PCOD8140905
_publ_section_title
;
Structure prediction by ZEFSAII (Michael W. Deem and Ramdas Pophale) SiO2 
 PCOD8140905
Probable space group: C 2/C
;
_chemical_formula_sum "Si O2"
_cell_formula_units_Z 28
_cell_length_a 7.804416
_cell_length_b 13.081636
_cell_length_c 10.921140
_cell_angle_alpha 90.000000
_cell_angle_beta 61.862053
_cell_angle_gamma 90.000000
_cell_volume 983.213404
_symmetry_space_group_name_H-M "C 2/C"
_symmetry_group_IT_number 15
_symmetry_cell_setting 'monoclinic'
loop_
_space_group_symop_operation_xyz
x,y,z
-x,y,1/2-z
-x,-y,-z
x,-y,1/2+z
1/2+x,1/2+y,z
1/2-x,1/2+y,1/2-z
1/2-x,1/2-y,-z
1/2+x,1/2-y,1/2+z
loop_
_atom_site_type_symbol
_atom_site_label
_atom_site_fract_x
_atom_site_fract_y
_atom_site_fract_z
Si Si1 0.262845 0.672427 0.179599
Si Si2 0.000000 0.017853 0.250000
Si Si3 0.678119 0.020339 0.029338
Si Si4 0.340949 0.315404 0.075674
O O1 0.331847 0.590487 0.255575
O O2 0.109722 0.615980 0.138050
O O3 0.194136 0.774017 0.273838
O O4 0.432748 0.695172 0.026392
O O5 0.881838 0.950422 0.388957
O O6 0.739918 0.926983 0.098938
O O7 0.500000 0.000000 0.000000
O O8 0.250000 0.250000 0.000000
#
# Coordination Sequence:
#
# PCOD8140905 Si02
#       4
#     8   4   8   8
#     4  11  23  48  82 115 160 213 266 333 411 479
#     4  10  20  48  76 114 154 212 268 334 404 476
#     4  11  26  50  83 116 160 214 272 337 411 481
#     4  11  21  50  81 117 161 209 266 334 403 487
#
# _framework density 28.478052000000002
#
# number of rings (size 3 to 8) (size 9 to 14) (size 15 to 20)
#    0.000    1.143    5.714    3.429    0.000    1.143 
#   20.571    8.571    6.286    0.000    0.000    0.000 
#    0.000    0.000    0.000    0.000    0.000    0.000 
#
# Total GULP energy -173446.114030 kJ/mol
# GULP energy per Si atom -12389.008145 kJ/mol
# Density = 2.841323 g / cm^3
# Si number density = 28.478052 Si / 1000 Ang^3
#
#
#
# Elastic Constant Matrix: (Units=GPa)
#
#
# Indices 1 2 3 4 5 6 
#
# 1 134.1485 30.7290 59.8369 0.0000 25.7793 0.0000
# 2 30.7290 118.9768 97.7542 0.0000 37.2550 0.0000
# 3 59.8369 97.7542 197.5848 0.0000 11.3717 0.0000
# 4 0.0000 0.0000 0.0000 64.8351 0.0000 22.7865
# 5 25.7793 37.2550 11.3717 0.0000 33.5491 0.0000
# 6 0.0000 0.0000 0.0000 22.7865 0.0000 42.3113
#
#
#
# Elastic Compliance Matrix: (Units=1/GPa)
#
#
# Indices 1 2 3 4 5 6 
#
# 1 0.011042 0.005590 -0.005369 0.000000 -0.012873 0.000000
# 2 0.005590 0.027705 -0.013648 0.000000 -0.030434 0.000000
# 3 -0.005369 -0.013648 0.012575 0.000000 0.015019 0.000000
# 4 0.000000 0.000000 0.000000 0.019025 0.000000 -0.010246
# 5 -0.012873 -0.030434 0.015019 0.000000 0.068404 0.000000
# 6 0.000000 0.000000 0.000000 -0.010246 0.000000 0.029152
#
#
# Mechanical properties :
#
#
# Convention : Reuss Voigt Hill
#
# Bulk Modulus (GPa) = 40.86917 91.92781 66.39849
# Shear Modulus (GPa) = 24.64112 45.63175 35.13643
#
# Velocity S-wave (km/s) = 2.94473 4.00728 3.51637
# Velocity P-wave (km/s) = 5.09355 7.33221 6.31290
#
# Compressibility (1/GPa) = 0.02446832
#
# Stress axis : x y z
#
# Youngs Moduli (GPa) = 90.55920 36.09499 79.52295
#
# Poissons Ratio (x) = -0.20177 0.42695
# Poissons Ratio (y) = -0.50623 1.08533
# Poissons Ratio (z) = 0.48620 0.49263
#
# Static dielectric constant tensor:
#      x y z
#    x 5.171330 0.000000 0.241420 
#    y 0.000000 8.148490 0.000000 
#    z 0.241420 0.000000 5.374820 
# 
# 
# High freq. dielectric constant tensor:
#      x y z
#    x 2.171200 0.000000 0.002760 
#    y 0.000000 2.140850 0.000000 
#    z 0.002760 0.000000 2.179390 
# 
# From -- ./inp_files/75034.got.cif
#   From: 2010.06.25/outbox.cif.g09.slc.cpg/sg15_38_cif.got.tgz:75034.got - 2010.06.28 07:06:18.
