data_PCOD8140360
_publ_section_title
;
Structure prediction by ZEFSAII (Michael W. Deem and Ramdas Pophale) SiO2 
 PCOD8140360
Probable space group: C 2/C
;
_chemical_formula_sum "Si O2"
_cell_formula_units_Z 56
_cell_length_a 12.017709
_cell_length_b 17.040922
_cell_length_c 16.576152
_cell_angle_alpha 90.000000
_cell_angle_beta 128.216376
_cell_angle_gamma 90.000000
_cell_volume 2667.130415
_symmetry_space_group_name_H-M "C 2/C"
_symmetry_group_IT_number 15
_symmetry_cell_setting 'monoclinic'
loop_
_space_group_symop_operation_xyz
x,y,z
-x,y,1/2-z
-x,-y,-z
x,-y,1/2+z
1/2+x,1/2+y,z
1/2-x,1/2+y,1/2-z
1/2-x,1/2-y,-z
1/2+x,1/2-y,1/2+z
loop_
_atom_site_type_symbol
_atom_site_label
_atom_site_fract_x
_atom_site_fract_y
_atom_site_fract_z
Si Si1 0.668152 0.569869 0.598546
Si Si2 0.159207 0.928035 0.799982
Si Si3 0.147539 0.105274 0.778939
Si Si4 0.870404 0.313927 0.139593
Si Si5 0.870400 0.695169 0.455531
Si Si6 0.118593 0.103263 0.100573
Si Si7 0.825331 0.265020 0.448988
O O1 0.639460 0.596047 0.678329
O O2 0.823760 0.596949 0.638870
O O3 0.551083 0.610747 0.487526
O O4 0.665388 0.477234 0.577668
O O5 0.285794 0.885525 0.904066
O O6 0.175964 0.905567 0.715448
O O7 0.000000 0.900942 0.750000
O O8 0.183754 0.019547 0.830851
O O9 0.259669 0.168674 0.861056
O O10 0.000000 0.134258 0.750000
O O11 0.736347 0.265123 0.110403
O O12 0.000000 0.284921 0.250000
O O13 0.917867 0.301779 0.069679
O O14 0.010942 0.707910 0.464413
O O15 0.192096 0.180753 0.100396
O O16 0.750000 0.250000 0.500000
#
# Coordination Sequence:
#
# PCOD8140360 Si02
#       7
#     8   8   8   8   8   8   8
#     4  10  20  41  65  93 127 171 222 273 320 388
#     4  10  22  41  67  97 131 175 220 273 327 389
#     4  10  23  41  65  95 132 179 222 265 326 394
#     4  11  23  39  66  97 128 161 208 279 332 381
#     4  11  25  40  63  99 128 167 216 266 334 382
#     4  10  22  39  65  93 128 175 224 260 323 397
#     4  12  26  43  63  97 132 179 221 269 330 398
#
# _framework density 20.996348999999999
#
# number of rings (size 3 to 8) (size 9 to 14) (size 15 to 20)
#    0.000    1.429    1.429    3.000    6.000    4.000 
#    0.000    3.571    0.000    0.000    0.000    0.000 
#    0.000    0.000    0.000    0.000    0.000    0.000 
#
# Total GULP energy -347086.601488 kJ/mol
# GULP energy per Si atom -12395.950053 kJ/mol
# Density = 2.094856 g / cm^3
# Si number density = 20.996349 Si / 1000 Ang^3
#
#
#
# Elastic Constant Matrix: (Units=GPa)
#
#
# Indices 1 2 3 4 5 6 
#
# 1 119.9734 49.3160 32.2959 0.0000 16.1587 0.0000
# 2 49.3160 122.8681 46.3348 0.0000 11.6162 0.0000
# 3 32.2959 46.3348 110.9243 0.0000 23.7822 0.0000
# 4 0.0000 0.0000 0.0000 31.0349 0.0000 -2.1168
# 5 16.1587 11.6162 23.7822 0.0000 17.6718 0.0000
# 6 0.0000 0.0000 0.0000 -2.1168 0.0000 11.2374
#
#
#
# Elastic Compliance Matrix: (Units=1/GPa)
#
#
# Indices 1 2 3 4 5 6 
#
# 1 0.010846 -0.003632 -0.000037 0.000000 -0.007480 0.000000
# 2 -0.003632 0.010898 -0.003754 0.000000 0.001210 0.000000
# 3 -0.000037 -0.003754 0.014137 0.000000 -0.016523 0.000000
# 4 0.000000 0.000000 0.000000 0.032641 0.000000 0.006149
# 5 -0.007480 0.001210 -0.016523 0.000000 0.084868 0.000000
# 6 0.000000 0.000000 0.000000 0.006149 0.000000 0.090147
#
#
# Mechanical properties :
#
#
# Convention : Reuss Voigt Hill
#
# Bulk Modulus (GPa) = 47.54190 67.73991 57.64090
# Shear Modulus (GPa) = 18.83990 27.04341 22.94165
#
# Velocity S-wave (km/s) = 2.99874 3.59277 3.30911
# Velocity P-wave (km/s) = 5.88914 7.03871 6.48943
#
# Compressibility (1/GPa) = 0.02103408
#
# Stress axis : x y z
#
# Youngs Moduli (GPa) = 92.20399 91.76024 70.73815
#
# Poissons Ratio (x) = 0.33328 0.00261
# Poissons Ratio (y) = 0.33489 0.26556
# Poissons Ratio (z) = 0.00340 0.34448
#
# Static dielectric constant tensor:
#      x y z
#    x 3.750830 0.000000 0.060150 
#    y 0.000000 4.190910 0.000000 
#    z 0.060150 0.000000 3.784320 
# 
# 
# High freq. dielectric constant tensor:
#      x y z
#    x 1.810070 0.000000 -0.002120 
#    y 0.000000 1.838750 0.000000 
#    z -0.002120 0.000000 1.824200 
# 
# From -- ./inp_files/146141.got.cif
#   From: 2010.06.25/outbox.cif.g09.slc.cpg/sg15_74_cif.got.tgz:146141.got - 2010.06.28 07:06:18.
