data_PCOD8141642
_publ_section_title
;
Structure prediction by ZEFSAII (Michael W. Deem and Ramdas Pophale) SiO2 
 PCOD8141642
Probable space group: C 2/C
;
_chemical_formula_sum "Si O2"
_cell_formula_units_Z 32
_cell_length_a 17.509195
_cell_length_b 15.257414
_cell_length_c 13.445485
_cell_angle_alpha 90.000000
_cell_angle_beta 153.158178
_cell_angle_gamma 90.000000
_cell_volume 1621.844381
_symmetry_space_group_name_H-M "C 2/C"
_symmetry_group_IT_number 15
_symmetry_cell_setting 'monoclinic'
loop_
_space_group_symop_operation_xyz
x,y,z
-x,y,1/2-z
-x,-y,-z
x,-y,1/2+z
1/2+x,1/2+y,z
1/2-x,1/2+y,1/2-z
1/2-x,1/2-y,-z
1/2+x,1/2-y,1/2+z
loop_
_atom_site_type_symbol
_atom_site_label
_atom_site_fract_x
_atom_site_fract_y
_atom_site_fract_z
Si Si1 0.663620 0.299574 0.489305
Si Si2 0.666542 0.135149 0.819381
Si Si3 0.480931 0.139068 0.062812
Si Si4 0.500000 0.006050 0.250000
Si Si5 0.500000 0.718141 0.250000
O O1 0.750000 0.250000 0.500000
O O2 0.595656 0.233368 0.495495
O O3 0.811971 0.361568 0.705472
O O4 0.500000 0.349668 0.250000
O O5 0.591836 0.107908 0.626560
O O6 0.574055 0.223251 0.747708
O O7 0.644540 0.055581 0.871253
O O8 0.864114 0.154943 0.040500
O O9 0.418922 0.067916 0.071416
#
# Coordination Sequence:
#
# PCOD8141642 Si02
#       5
#     8   8   8   4   4
#     4   9  17  32  54  80 107 139 176 227 260 306
#     4  10  21  37  61  79 105 149 179 227 276 313
#     4  11  19  36  58  82 110 146 182 217 278 323
#     4  11  22  36  52  79 124 140 174 227 268 332
#     4   9  20  42  58  81 106 132 200 233 250 326
#
# _framework density 19.730623999999999
#
# number of rings (size 3 to 8) (size 9 to 14) (size 15 to 20)
#    0.000    2.000    3.750    2.250    0.000    0.000 
#    2.250    1.250    0.000    0.000    0.000    0.000 
#    0.000    0.000    0.000    0.000    0.000    0.000 
#
# Total GULP energy -198312.438062 kJ/mol
# GULP energy per Si atom -12394.527379 kJ/mol
# Density = 1.968572 g / cm^3
# Si number density = 19.730624 Si / 1000 Ang^3
#
#
#
# Elastic Constant Matrix: (Units=GPa)
#
#
# Indices 1 2 3 4 5 6 
#
# 1 82.2209 29.3682 62.8967 0.0000 -9.4617 0.0000
# 2 29.3682 78.1233 49.8766 0.0000 -5.7758 0.0000
# 3 62.8967 49.8766 172.5581 0.0000 -4.5875 0.0000
# 4 0.0000 0.0000 0.0000 13.8531 0.0000 -4.4772
# 5 -9.4617 -5.7758 -4.5875 0.0000 33.4369 0.0000
# 6 0.0000 0.0000 0.0000 -4.4772 0.0000 22.3032
#
#
#
# Elastic Compliance Matrix: (Units=1/GPa)
#
#
# Indices 1 2 3 4 5 6 
#
# 1 0.017908 -0.002879 -0.005594 0.000000 0.003802 0.000000
# 2 -0.002879 0.016308 -0.003624 0.000000 0.001505 0.000000
# 3 -0.005594 -0.003624 0.008855 0.000000 -0.000994 0.000000
# 4 0.000000 0.000000 0.000000 0.077194 0.000000 0.015496
# 5 0.003802 0.001505 -0.000994 0.000000 0.031107 0.000000
# 6 0.000000 0.000000 0.000000 0.015496 0.000000 0.047947
#
#
# Mechanical properties :
#
#
# Convention : Reuss Voigt Hill
#
# Bulk Modulus (GPa) = 52.97800 68.57615 60.77708
# Shear Modulus (GPa) = 21.75753 26.63602 24.19678
#
# Velocity S-wave (km/s) = 3.32434 3.67820 3.50574
# Velocity P-wave (km/s) = 6.45321 7.27121 6.87439
#
# Compressibility (1/GPa) = 0.01887576
#
# Stress axis : x y z
#
# Youngs Moduli (GPa) = 55.84224 61.32070 112.92821
#
# Poissons Ratio (x) = 0.17657 0.63171
# Poissons Ratio (y) = 0.16079 0.40926
# Poissons Ratio (z) = 0.31237 0.22223
#
# Static dielectric constant tensor:
#      x y z
#    x 3.656620 0.000000 0.328980 
#    y 0.000000 3.770730 0.000000 
#    z 0.328980 0.000000 4.240820 
# 
# 
# High freq. dielectric constant tensor:
#      x y z
#    x 1.770400 0.000000 0.000790 
#    y 0.000000 1.743350 0.000000 
#    z 0.000790 0.000000 1.767760 
# 
# From -- ./inp_files/27696.got.cif
#   From: 2010.06.25/outbox.cif.g09.slc.cpg/sg15_14_cif.got.tgz:27696.got - 2010.06.28 07:06:18.
