data_PCOD8141682
_publ_section_title
;
Structure prediction by ZEFSAII (Michael W. Deem and Ramdas Pophale) SiO2 
 PCOD8141682
Probable space group: C 2/C
;
_chemical_formula_sum "Si O2"
_cell_formula_units_Z 60
_cell_length_a 11.735297
_cell_length_b 22.149736
_cell_length_c 19.039405
_cell_angle_alpha 90.000000
_cell_angle_beta 143.111892
_cell_angle_gamma 90.000000
_cell_volume 2970.648341
_symmetry_space_group_name_H-M "C 2/C"
_symmetry_group_IT_number 15
_symmetry_cell_setting 'monoclinic'
loop_
_space_group_symop_operation_xyz
x,y,z
-x,y,1/2-z
-x,-y,-z
x,-y,1/2+z
1/2+x,1/2+y,z
1/2-x,1/2+y,1/2-z
1/2-x,1/2-y,-z
1/2+x,1/2-y,1/2+z
loop_
_atom_site_type_symbol
_atom_site_label
_atom_site_fract_x
_atom_site_fract_y
_atom_site_fract_z
Si Si1 0.000000 0.318738 0.750000
Si Si2 0.651362 0.666899 0.501300
Si Si3 0.367163 0.567475 0.617536
Si Si4 0.008970 0.631573 0.499433
Si Si5 0.465601 0.788950 0.357141
Si Si6 0.077487 0.260967 0.643072
Si Si7 0.606030 0.648737 0.999015
Si Si8 0.343287 0.570312 0.115408
O O1 0.070723 0.276120 0.721972
O O2 0.180658 0.359561 0.863796
O O3 0.542354 0.727924 0.429433
O O4 0.877049 0.681726 0.617335
O O5 0.562465 0.639613 0.528054
O O6 0.613793 0.616947 0.424624
O O7 0.500000 0.578089 0.750000
O O8 0.165705 0.595233 0.535430
O O9 0.443188 0.600594 0.585552
O O10 0.348621 0.497440 0.588537
O O11 0.087869 0.665102 0.606920
O O12 0.919268 0.679033 0.401232
O O13 0.857287 0.581844 0.447118
O O14 0.272539 0.774651 0.220290
O O15 0.903108 0.216831 0.537074
O O16 0.500000 0.581727 0.250000
#
# Coordination Sequence:
#
# PCOD8141682 Si02
#       8
#     4   8   8   8   8   8   8   8
#     4  12  24  38  58  94 134 168 212 258 322 400
#     4  10  21  41  59  93 130 162 211 258 323 378
#     4  11  25  43  64  93 127 172 221 263 316 375
#     4  11  21  40  63  93 125 161 210 263 317 379
#     4  10  21  37  61  93 125 161 201 259 321 383
#     4  12  22  37  61  95 129 166 204 263 330 389
#     4  12  25  39  61  96 132 169 208 266 326 383
#     4  10  23  41  67  90 122 174 221 266 308 376
#
# _framework density 20.197611999999999
#
# number of rings (size 3 to 8) (size 9 to 14) (size 15 to 20)
#    0.000    1.067    4.000    2.400    2.800    1.067 
#    0.000    0.000    0.000    3.200    0.000    0.000 
#    0.000    0.000    0.000    0.000    0.000    0.000 
#
# Total GULP energy -372046.400197 kJ/mol
# GULP energy per Si atom -12401.546673 kJ/mol
# Density = 2.015164 g / cm^3
# Si number density = 20.197612 Si / 1000 Ang^3
#
#
#
# Elastic Constant Matrix: (Units=GPa)
#
#
# Indices 1 2 3 4 5 6 
#
# 1 93.7908 18.8225 -0.1547 -0.0002 -11.5702 0.0005
# 2 18.8225 66.8598 14.4237 0.0018 -11.7656 0.0001
# 3 -0.1547 14.4237 60.3076 -0.0007 4.8153 0.0002
# 4 -0.0002 0.0018 -0.0007 54.5535 0.0009 -6.0716
# 5 -11.5702 -11.7656 4.8153 0.0009 21.1568 -0.0007
# 6 0.0005 0.0001 0.0002 -6.0716 -0.0007 15.6479
#
#
#
# Elastic Compliance Matrix: (Units=1/GPa)
#
#
# Indices 1 2 3 4 5 6 
#
# 1 0.011779 -0.002483 0.000224 0.000000 0.005010 0.000000
# 2 -0.002483 0.018581 -0.005263 -0.000001 0.010173 0.000000
# 3 0.000224 -0.005263 0.018399 0.000001 -0.006992 0.000000
# 4 0.000000 -0.000001 0.000001 0.019158 -0.000001 0.007434
# 5 0.005010 0.010173 -0.006992 -0.000001 0.057255 0.000002
# 6 0.000000 0.000000 0.000000 0.007434 0.000002 0.066791
#
#
# Mechanical properties :
#
#
# Convention : Reuss Voigt Hill
#
# Bulk Modulus (GPa) = 29.65931 31.90458 30.78194
# Shear Modulus (GPa) = 22.91015 30.79609 26.85312
#
# Velocity S-wave (km/s) = 3.37159 3.90903 3.65021
# Velocity P-wave (km/s) = 5.46564 6.01702 5.74795
#
# Compressibility (1/GPa) = 0.03371623
#
# Stress axis : x y z
#
# Youngs Moduli (GPa) = 84.89931 53.81793 54.35033
#
# Poissons Ratio (x) = 0.13361 -0.01217
# Poissons Ratio (y) = 0.21078 0.28603
# Poissons Ratio (z) = -0.01902 0.28323
#
# Static dielectric constant tensor:
#      x y z
#    x 3.882740 0.000000 0.097050 
#    y 0.000000 3.656750 0.000000 
#    z 0.097050 0.000000 3.699490 
# 
# 
# High freq. dielectric constant tensor:
#      x y z
#    x 1.805100 0.000000 0.003970 
#    y 0.000000 1.773410 0.000000 
#    z 0.003970 0.000000 1.791740 
# 
# From -- ./inp_files/200964.got.cif
#   From: 2010.06.25/outbox.cif.g09.slc.cpg/sg15_101_cif.got.tgz:200964.got - 2010.06.28 07:06:18.
