data_PCOD8141336
_publ_section_title
;
Structure prediction by ZEFSAII (Michael W. Deem and Ramdas Pophale) SiO2 
 PCOD8141336
Probable space group: C 2/C
;
_chemical_formula_sum "Si O2"
_cell_formula_units_Z 56
_cell_length_a 31.785874
_cell_length_b 11.042478
_cell_length_c 9.190562
_cell_angle_alpha 90.000000
_cell_angle_beta 125.329629
_cell_angle_gamma 90.000000
_cell_volume 2631.764650
_symmetry_space_group_name_H-M "C 2/C"
_symmetry_group_IT_number 15
_symmetry_cell_setting 'monoclinic'
loop_
_space_group_symop_operation_xyz
x,y,z
-x,y,1/2-z
-x,-y,-z
x,-y,1/2+z
1/2+x,1/2+y,z
1/2-x,1/2+y,1/2-z
1/2-x,1/2-y,-z
1/2+x,1/2-y,1/2+z
loop_
_atom_site_type_symbol
_atom_site_label
_atom_site_fract_x
_atom_site_fract_y
_atom_site_fract_z
Si Si1 0.194397 0.231316 0.223747
Si Si2 0.402624 0.873473 0.130374
Si Si3 0.453292 0.661497 0.743522
Si Si4 0.694397 0.268684 0.053842
Si Si5 0.864564 0.000000 0.979128
Si Si6 0.402624 0.873473 0.480122
Si Si7 0.453292 0.661497 0.069646
O O1 0.250000 0.250000 0.254485
O O2 0.202289 0.269446 0.404578
O O3 0.153367 0.326250 0.076744
O O4 0.173088 0.093896 0.177146
O O5 0.407216 0.880818 0.314431
O O6 0.443675 0.779592 0.149213
O O7 0.346633 0.826250 0.963277
O O8 0.414047 0.000000 0.078095
O O9 0.500000 0.595285 0.750000
O O10 0.402970 0.575436 0.660209
O O11 0.443675 0.779592 0.625485
O O12 0.470269 0.697215 0.940537
O O13 0.673088 0.406104 0.015206
O O14 0.902970 0.075436 0.951670
O O15 0.500000 0.595285 0.250000
#
# Coordination Sequence:
#
# PCOD8141336 Si02
#       7
#     8   8   8   8   8   8   8
#     4   9  19  35  56  83 116 157 199 242 292 347
#     4  10  21  38  60  86 121 160 201 249 298 353
#     4  11  23  39  61  89 120 157 201 248 303 361
#     4   9  19  35  56  83 116 157 199 242 292 347
#     4  10  21  36  60  86 122 156 195 248 296 350
#     4  10  21  38  60  86 121 160 201 249 298 353
#     4  11  23  39  61  89 120 157 201 248 303 361
#
# _framework density 21.278499
#
# number of rings (size 3 to 8) (size 9 to 14) (size 15 to 20)
#    0.000    2.000    0.000    3.000    2.000    5.143 
#    0.000    2.857    0.000    5.143    0.000    0.000 
#    0.000    0.000    0.000    0.000    0.000    0.000 
#
# Total GULP energy -346900.833020 kJ/mol
# GULP energy per Si atom -12389.315465 kJ/mol
# Density = 2.123007 g / cm^3
# Si number density = 21.278499 Si / 1000 Ang^3
#
#
#
# Elastic Constant Matrix: (Units=GPa)
#
#
# Indices 1 2 3 4 5 6 
#
# 1 104.8533 36.5194 54.0744 0.0000 9.1279 0.0000
# 2 36.5194 127.4429 34.1686 0.0000 2.7272 0.0000
# 3 54.0744 34.1686 103.1069 0.0000 -7.1017 0.0000
# 4 0.0000 0.0000 0.0000 21.9700 0.0000 -2.7810
# 5 9.1279 2.7272 -7.1017 0.0000 40.2831 0.0000
# 6 0.0000 0.0000 0.0000 -2.7810 0.0000 19.5726
#
#
#
# Elastic Compliance Matrix: (Units=1/GPa)
#
#
# Indices 1 2 3 4 5 6 
#
# 1 0.014316 -0.002103 -0.007111 0.000000 -0.004355 0.000000
# 2 -0.002103 0.008969 -0.001902 0.000000 -0.000466 0.000000
# 3 -0.007111 -0.001902 0.014352 0.000000 0.004270 0.000000
# 4 0.000000 0.000000 0.000000 0.046350 0.000000 0.006586
# 5 -0.004355 -0.000466 0.004270 0.000000 0.026596 0.000000
# 6 0.000000 0.000000 0.000000 0.006586 0.000000 0.052028
#
#
# Mechanical properties :
#
#
# Convention : Reuss Voigt Hill
#
# Bulk Modulus (GPa) = 64.90735 64.99201 64.94968
# Shear Modulus (GPa) = 26.31897 30.40784 28.36340
#
# Velocity S-wave (km/s) = 3.52075 3.78437 3.65493
# Velocity P-wave (km/s) = 6.86276 7.05018 6.95710
#
# Compressibility (1/GPa) = 0.01540658
#
# Stress axis : x y z
#
# Youngs Moduli (GPa) = 69.85237 111.49555 69.67450
#
# Poissons Ratio (x) = 0.23442 0.49547
# Poissons Ratio (y) = 0.14687 0.13250
# Poissons Ratio (z) = 0.49673 0.21203
#
# Static dielectric constant tensor:
#      x y z
#    x 4.110580 0.000000 0.418580 
#    y 0.000000 3.739340 0.000000 
#    z 0.418580 0.000000 3.749760 
# 
# 
# High freq. dielectric constant tensor:
#      x y z
#    x 1.836570 0.000000 0.018690 
#    y 0.000000 1.836340 0.000000 
#    z 0.018690 0.000000 1.820460 
# 
# From -- ./inp_files/69439.got.cif
#   From: 2010.06.25/outbox.cif.g09.slc.cpg/sg15_35_cif.got.tgz:69439.got - 2010.06.28 07:06:18.
