data_PCOD8141258
_publ_section_title
;
Structure prediction by ZEFSAII (Michael W. Deem and Ramdas Pophale) SiO2 
 PCOD8141258
Probable space group: C 2/C
;
_chemical_formula_sum "Si O2"
_cell_formula_units_Z 52
_cell_length_a 16.231709
_cell_length_b 31.981749
_cell_length_c 4.988127
_cell_angle_alpha 90.000000
_cell_angle_beta 75.432639
_cell_angle_gamma 90.000000
_cell_volume 2506.185339
_symmetry_space_group_name_H-M "C 2/C"
_symmetry_group_IT_number 15
_symmetry_cell_setting 'monoclinic'
loop_
_space_group_symop_operation_xyz
x,y,z
-x,y,1/2-z
-x,-y,-z
x,-y,1/2+z
1/2+x,1/2+y,z
1/2-x,1/2+y,1/2-z
1/2-x,1/2-y,-z
1/2+x,1/2-y,1/2+z
loop_
_atom_site_type_symbol
_atom_site_label
_atom_site_fract_x
_atom_site_fract_y
_atom_site_fract_z
Si Si1 0.731804 0.908994 0.893219
Si Si2 0.402660 0.973663 0.312073
Si Si3 0.669527 0.313485 0.155077
Si Si4 0.000000 0.969552 0.250000
Si Si5 0.340474 0.409740 0.313809
Si Si6 0.780817 0.686280 0.073853
Si Si7 0.943906 0.741567 0.056596
O O1 0.765073 0.924058 0.576625
O O2 0.698481 0.861985 0.892858
O O3 0.651751 0.934210 0.061543
O O4 0.810218 0.914724 0.033649
O O5 0.500000 0.959368 0.250000
O O6 0.381933 0.012172 0.527622
O O7 0.636285 0.361127 0.155636
O O8 0.745971 0.307596 0.303926
O O9 0.589406 0.285718 0.302370
O O10 0.708022 0.298097 0.839976
O O11 0.080725 0.939406 0.192773
O O12 0.000000 0.000000 0.500000
O O13 0.867152 0.711400 0.041178
O O14 0.000000 0.720980 0.250000
O O15 0.000000 0.750402 0.750000
#
# Coordination Sequence:
#
# PCOD8141258 Si02
#       7
#     8   8   8   4   8   8   8
#     4  10  21  39  62  87 113 160 200 241 295 359
#     4  10  21  36  56  85 117 149 191 240 289 346
#     4  10  21  41  63  83 116 164 200 246 294 363
#     4  12  26  42  60  90 128 158 192 258 316 350
#     4  10  23  40  61  87 115 155 206 240 294 365
#     4  10  21  40  61  84 121 158 200 245 306 361
#     4  12  24  37  59  95 122 153 202 249 307 357
#
# _framework density 20.748664999999999
#
# number of rings (size 3 to 8) (size 9 to 14) (size 15 to 20)
#    0.000    1.538    0.000    4.615    1.077    4.308 
#    1.385    2.308    0.000    0.000    0.000    0.000 
#    0.000    0.000    0.000    0.000    0.000    0.000 
#
# Total GULP energy -322480.706529 kJ/mol
# GULP energy per Si atom -12403.104097 kJ/mol
# Density = 2.070144 g / cm^3
# Si number density = 20.748665 Si / 1000 Ang^3
#
#
#
# Elastic Constant Matrix: (Units=GPa)
#
#
# Indices 1 2 3 4 5 6 
#
# 1 81.6505 66.9604 32.8383 0.0000 -13.4697 0.0000
# 2 66.9604 106.0328 45.0414 0.0000 -22.1729 0.0000
# 3 32.8383 45.0414 113.2880 0.0000 -16.6825 0.0000
# 4 0.0000 0.0000 0.0000 20.3881 0.0000 5.0761
# 5 -13.4697 -22.1729 -16.6825 0.0000 36.1013 0.0000
# 6 0.0000 0.0000 0.0000 5.0761 0.0000 19.4021
#
#
#
# Elastic Compliance Matrix: (Units=1/GPa)
#
#
# Indices 1 2 3 4 5 6 
#
# 1 0.025553 -0.015757 -0.001248 0.000000 -0.000721 0.000000
# 2 -0.015757 0.022070 -0.003302 0.000000 0.006151 0.000000
# 3 -0.001248 -0.003302 0.010874 0.000000 0.002532 0.000000
# 4 0.000000 0.000000 0.000000 0.052466 0.000000 -0.013727
# 5 -0.000721 0.006151 0.002532 0.000000 0.032378 0.000000
# 6 0.000000 0.000000 0.000000 -0.013727 0.000000 0.055132
#
#
# Mechanical properties :
#
#
# Convention : Reuss Voigt Hill
#
# Bulk Modulus (GPa) = 55.91775 65.62796 60.77285
# Shear Modulus (GPa) = 20.40407 25.58703 22.99555
#
# Velocity S-wave (km/s) = 3.13931 3.51549 3.33271
# Velocity P-wave (km/s) = 6.33632 6.94095 6.64552
#
# Compressibility (1/GPa) = 0.01788341
#
# Stress axis : x y z
#
# Youngs Moduli (GPa) = 39.13486 45.30943 91.95964
#
# Poissons Ratio (x) = 0.71395 0.11478
# Poissons Ratio (y) = 0.61665 0.30362
# Poissons Ratio (z) = 0.04885 0.14960
#
# Static dielectric constant tensor:
#      x y z
#    x 3.653390 0.000000 0.136870 
#    y 0.000000 3.791530 0.000000 
#    z 0.136870 0.000000 4.132910 
# 
# 
# High freq. dielectric constant tensor:
#      x y z
#    x 1.807650 0.000000 0.006110 
#    y 0.000000 1.811320 0.000000 
#    z 0.006110 0.000000 1.835810 
# 
# From -- ./inp_files/9023.got.cif
#   From: 2010.06.25/outbox.cif.g09.slc.cpg/sg15_5_cif.got.tgz:9023.got - 2010.06.28 07:06:18.
