data_PCOD8141918
_publ_section_title
;
Structure prediction by ZEFSAII (Michael W. Deem and Ramdas Pophale) SiO2 
 PCOD8141918
Probable space group: C 2/C
;
_chemical_formula_sum "Si O2"
_cell_formula_units_Z 60
_cell_length_a 25.576922
_cell_length_b 9.129363
_cell_length_c 29.227139
_cell_angle_alpha 90.000000
_cell_angle_beta 25.931101
_cell_angle_gamma 90.000000
_cell_volume 2984.314733
_symmetry_space_group_name_H-M "C 2/C"
_symmetry_group_IT_number 15
_symmetry_cell_setting 'monoclinic'
loop_
_space_group_symop_operation_xyz
x,y,z
-x,y,1/2-z
-x,-y,-z
x,-y,1/2+z
1/2+x,1/2+y,z
1/2-x,1/2+y,1/2-z
1/2-x,1/2-y,-z
1/2+x,1/2-y,1/2+z
loop_
_atom_site_type_symbol
_atom_site_label
_atom_site_fract_x
_atom_site_fract_y
_atom_site_fract_z
Si Si1 0.756894 0.321767 0.255139
Si Si2 0.284884 0.607013 0.307399
Si Si3 0.527529 0.269097 0.380488
Si Si4 0.952956 0.957320 0.884993
Si Si5 0.220515 0.682384 0.610247
Si Si6 0.500000 0.638388 0.250000
Si Si7 0.681970 0.954136 0.713501
Si Si8 0.342770 0.810146 0.095045
O O1 0.736679 0.166264 0.296566
O O2 0.640893 0.352697 0.314190
O O3 0.782297 0.446998 0.271298
O O4 0.864823 0.310973 0.132803
O O5 0.428665 0.628518 0.191498
O O6 0.228983 0.704321 0.392045
O O7 0.245481 0.442482 0.349268
O O8 0.448775 0.384149 0.413140
O O9 0.564437 0.140325 0.316681
O O10 0.464409 0.182186 0.471406
O O11 0.971040 0.967823 0.815744
O O12 0.832280 0.867881 0.991173
O O13 0.161510 0.545674 0.683634
O O14 0.115942 0.757444 0.663397
O O15 0.789996 0.843824 0.619953
#
# Coordination Sequence:
#
# PCOD8141918 Si02
#       8
#     8   8   8   8   8   4   8   8
#     4  10  22  36  55  89 129 171 214 256 289 361
#     4  10  22  38  59  91 129 164 211 260 297 367
#     4  11  23  35  63  88 130 172 210 255 311 369
#     4  11  21  42  65  92 120 166 205 259 324 376
#     4  10  22  42  69  92 120 162 206 263 320 379
#     4  10  24  42  70  94 122 148 212 274 318 386
#     4  10  21  38  58  90 129 163 207 257 304 365
#     4  11  20  35  56  86 127 168 211 249 303 359
#
# _framework density 20.105118999999998
#
# number of rings (size 3 to 8) (size 9 to 14) (size 15 to 20)
#    0.000    1.600    4.000    2.000    0.000    8.000 
#    0.000    0.667    0.000    4.800    0.000    0.000 
#    0.000    0.000    0.000    0.000    0.000    0.000 
#
# Total GULP energy -371765.059099 kJ/mol
# GULP energy per Si atom -12392.168637 kJ/mol
# Density = 2.005936 g / cm^3
# Si number density = 20.105119 Si / 1000 Ang^3
#
#
#
# Elastic Constant Matrix: (Units=GPa)
#
#
# Indices 1 2 3 4 5 6 
#
# 1 92.7170 32.1808 38.3254 0.0048 15.6934 -0.0185
# 2 32.1808 87.4925 29.7610 0.0060 7.9869 -0.0102
# 3 38.3254 29.7610 127.3174 0.0014 19.5264 -0.0071
# 4 0.0048 0.0060 0.0014 25.0260 -0.0038 1.9700
# 5 15.6934 7.9869 19.5264 -0.0038 27.2365 0.0132
# 6 -0.0185 -0.0102 -0.0071 1.9700 0.0132 19.0474
#
#
#
# Elastic Compliance Matrix: (Units=1/GPa)
#
#
# Indices 1 2 3 4 5 6 
#
# 1 0.014035 -0.003828 -0.002541 -0.000004 -0.005142 0.000015
# 2 -0.003828 0.013536 -0.001956 -0.000003 -0.000361 0.000003
# 3 -0.002541 -0.001956 0.009847 -0.000001 -0.005021 0.000004
# 4 -0.000004 -0.000003 -0.000001 0.040286 0.000011 -0.004167
# 5 -0.005142 -0.000361 -0.005021 0.000011 0.043384 -0.000038
# 6 0.000015 0.000003 0.000004 -0.004167 -0.000038 0.052932
#
#
# Mechanical properties :
#
#
# Convention : Reuss Voigt Hill
#
# Bulk Modulus (GPa) = 48.15584 56.45128 52.30356
# Shear Modulus (GPa) = 25.30435 28.07929 26.69182
#
# Velocity S-wave (km/s) = 3.55153 3.74120 3.64760
# Velocity P-wave (km/s) = 6.38920 6.84113 6.61902
#
# Compressibility (1/GPa) = 0.02076591
#
# Stress axis : x y z
#
# Youngs Moduli (GPa) = 71.24947 73.87657 101.55584
#
# Poissons Ratio (x) = 0.28283 0.25809
# Poissons Ratio (y) = 0.27277 0.19868
# Poissons Ratio (z) = 0.18107 0.14453
#
# Static dielectric constant tensor:
#      x y z
#    x 3.478290 -0.000010 0.231720 
#    y -0.000010 3.710710 0.000010 
#    z 0.231720 0.000010 3.719460 
# 
# 
# High freq. dielectric constant tensor:
#      x y z
#    x 1.762390 0.000000 0.021880 
#    y 0.000000 1.790470 0.000000 
#    z 0.021880 0.000000 1.790280 
# 
# From -- ./inp_files/302043.got.cif
#   From: 2010.06.25/outbox.cif.g09.slc.cpg/sg15_152_cif.got.tgz:302043.got - 2010.06.28 07:06:18.
