data_PCOD8141525
_publ_section_title
;
Structure prediction by ZEFSAII (Michael W. Deem and Ramdas Pophale) SiO2 
 PCOD8141525
Probable space group: C 2/C
;
_chemical_formula_sum "Si O2"
_cell_formula_units_Z 32
_cell_length_a 12.386954
_cell_length_b 7.648423
_cell_length_c 14.415497
_cell_angle_alpha 90.000000
_cell_angle_beta 90.642421
_cell_angle_gamma 90.000000
_cell_volume 1365.647909
_symmetry_space_group_name_H-M "C 2/C"
_symmetry_group_IT_number 15
_symmetry_cell_setting 'monoclinic'
loop_
_space_group_symop_operation_xyz
x,y,z
-x,y,1/2-z
-x,-y,-z
x,-y,1/2+z
1/2+x,1/2+y,z
1/2-x,1/2+y,1/2-z
1/2-x,1/2-y,-z
1/2+x,1/2-y,1/2+z
loop_
_atom_site_type_symbol
_atom_site_label
_atom_site_fract_x
_atom_site_fract_y
_atom_site_fract_z
Si Si1 0.670566 0.965643 0.975971
Si Si2 0.837688 0.032860 0.824594
Si Si3 0.965726 0.655765 0.387896
Si Si4 0.331046 0.855563 0.327305
O O1 0.768006 0.042640 0.918039
O O2 0.593658 0.852694 0.906523
O O3 0.711171 0.851129 0.065278
O O4 0.598544 0.128492 0.015006
O O5 0.877830 0.836312 0.804007
O O6 0.940863 0.156940 0.841463
O O7 0.769724 0.104123 0.738239
O O8 0.924966 0.501391 0.317122
#
# Coordination Sequence:
#
# PCOD8141525 Si02
#       4
#     8   8   8   8
#     4   9  21  41  58  85 123 153 196 251 298 351
#     4  12  20  38  66  79 125 158 191 255 299 351
#     4   9  21  40  56  88 117 151 205 239 296 368
#     4  10  21  37  57  91 111 156 204 237 302 365
#
# _framework density 23.432103000000001
#
# number of rings (size 3 to 8) (size 9 to 14) (size 15 to 20)
#    1.500    0.500    2.500    1.500    0.000    2.000 
#    0.000    0.000    5.500    0.000    0.000    0.000 
#    0.000    0.000    0.000    0.000    0.000    0.000 
#
# Total GULP energy -198318.389897 kJ/mol
# GULP energy per Si atom -12394.899369 kJ/mol
# Density = 2.337877 g / cm^3
# Si number density = 23.432103 Si / 1000 Ang^3
#
#
#
# Elastic Constant Matrix: (Units=GPa)
#
#
# Indices 1 2 3 4 5 6 
#
# 1 23.8169 18.7199 12.4106 0.0000 12.5753 0.0000
# 2 18.7199 167.6768 50.4178 0.0000 21.3267 0.0000
# 3 12.4106 50.4178 132.0302 0.0000 29.6509 0.0000
# 4 0.0000 0.0000 0.0000 37.5193 0.0000 12.0425
# 5 12.5753 21.3267 29.6509 0.0000 31.3536 0.0000
# 6 0.0000 0.0000 0.0000 12.0425 0.0000 11.2148
#
#
#
# Elastic Compliance Matrix: (Units=1/GPa)
#
#
# Indices 1 2 3 4 5 6 
#
# 1 0.055323 -0.003838 0.000841 0.000000 -0.020373 0.000000
# 2 -0.003838 0.007193 -0.002073 0.000000 -0.001393 0.000000
# 3 0.000841 -0.002073 0.010215 0.000000 -0.008588 0.000000
# 4 0.000000 0.000000 0.000000 0.040670 0.000000 -0.043672
# 5 -0.020373 -0.001393 -0.008588 0.000000 0.049134 0.000000
# 6 0.000000 0.000000 0.000000 -0.043672 0.000000 0.136062
#
#
# Mechanical properties :
#
#
# Convention : Reuss Voigt Hill
#
# Bulk Modulus (GPa) = 15.97699 54.06894 35.02297
# Shear Modulus (GPa) = 15.16985 32.14924 23.65955
#
# Velocity S-wave (km/s) = 2.54716 3.70809 3.18104
# Velocity P-wave (km/s) = 3.93496 6.43880 5.33582
#
# Compressibility (1/GPa) = 0.06259000
#
# Stress axis : x y z
#
# Youngs Moduli (GPa) = 18.07578 139.02737 97.89302
#
# Poissons Ratio (x) = 0.53357 -0.08230
# Poissons Ratio (y) = 0.06937 0.20295
# Poissons Ratio (z) = -0.01520 0.28823
#
# Static dielectric constant tensor:
#      x y z
#    x 3.573630 0.000000 0.055440 
#    y 0.000000 4.128250 0.000000 
#    z 0.055440 0.000000 4.257810 
# 
# 
# High freq. dielectric constant tensor:
#      x y z
#    x 1.893860 0.000000 0.005420 
#    y 0.000000 1.921320 0.000000 
#    z 0.005420 0.000000 1.941410 
# 
# From -- ./inp_files/202068.got.cif
#   From: 2010.06.25/outbox.cif.g09.slc.cpg/sg15_102_cif.got.tgz:202068.got - 2010.06.28 07:06:18.
