data_PCOD8141163
_publ_section_title
;
Structure prediction by ZEFSAII (Michael W. Deem and Ramdas Pophale) SiO2 
 PCOD8141163
Probable space group: C 2/C
;
_chemical_formula_sum "Si O2"
_cell_formula_units_Z 48
_cell_length_a 14.846624
_cell_length_b 15.017807
_cell_length_c 10.225542
_cell_angle_alpha 90.000000
_cell_angle_beta 95.312780
_cell_angle_gamma 90.000000
_cell_volume 2270.130626
_symmetry_space_group_name_H-M "C 2/C"
_symmetry_group_IT_number 15
_symmetry_cell_setting 'monoclinic'
loop_
_space_group_symop_operation_xyz
x,y,z
-x,y,1/2-z
-x,-y,-z
x,-y,1/2+z
1/2+x,1/2+y,z
1/2-x,1/2+y,1/2-z
1/2-x,1/2-y,-z
1/2+x,1/2-y,1/2+z
loop_
_atom_site_type_symbol
_atom_site_label
_atom_site_fract_x
_atom_site_fract_y
_atom_site_fract_z
Si Si1 0.763630 0.724930 0.295362
Si Si2 0.500874 0.400594 0.450074
Si Si3 0.153548 0.108381 0.785081
Si Si4 0.601971 0.751581 0.446114
Si Si5 0.805445 0.531899 0.270626
Si Si6 0.913213 0.547439 0.545692
O O1 0.779385 0.807224 0.200296
O O2 0.659804 0.724239 0.327107
O O3 0.831508 0.744954 0.422556
O O4 0.785460 0.633056 0.224220
O O5 0.500000 0.500000 0.500000
O O6 0.426576 0.387400 0.329308
O O7 0.604473 0.389632 0.418326
O O8 0.477134 0.322962 0.552081
O O9 0.212223 0.021775 0.759297
O O10 0.559927 0.849999 0.423506
O O11 0.836752 0.535190 0.425706
O O12 0.879054 0.493359 0.178910
O O13 0.000000 0.500000 0.500000
#
# Coordination Sequence:
#
# PCOD8141163 Si02
#       6
#     8   8   8   8   8   8
#     4   9  18  35  60  86 113 159 208 237 299 366
#     4  10  21  35  61  87 121 156 205 251 300 361
#     4  10  21  37  58  90 120 156 204 253 296 362
#     4   9  18  36  61  85 116 162 202 247 294 373
#     4  11  23  40  67  87 122 161 204 251 303 368
#     4  11  24  41  64  91 121 159 206 255 306 361
#
# _framework density 21.144158000000001
#
# number of rings (size 3 to 8) (size 9 to 14) (size 15 to 20)
#    0.000    2.000    1.667    1.500    7.000    0.000 
#    0.000    2.500    3.667    0.000    0.000    0.000 
#    0.000    0.000    0.000    0.000    0.000    0.000 
#
# Total GULP energy -297450.855327 kJ/mol
# GULP energy per Si atom -12393.785639 kJ/mol
# Density = 2.109603 g / cm^3
# Si number density = 21.144158 Si / 1000 Ang^3
#
#
#
# Elastic Constant Matrix: (Units=GPa)
#
#
# Indices 1 2 3 4 5 6 
#
# 1 88.0157 54.7372 28.9677 0.0000 -48.4569 0.0000
# 2 54.7372 198.9209 52.8186 0.0000 -43.7765 0.0000
# 3 28.9677 52.8186 66.5352 0.0000 -38.2964 0.0000
# 4 0.0000 0.0000 0.0000 35.0888 0.0000 -9.9095
# 5 -48.4569 -43.7765 -38.2964 0.0000 46.6382 0.0000
# 6 0.0000 0.0000 0.0000 -9.9095 0.0000 42.3699
#
#
#
# Elastic Compliance Matrix: (Units=1/GPa)
#
#
# Indices 1 2 3 4 5 6 
#
# 1 0.030362 -0.002932 0.010774 0.000000 0.037641 0.000000
# 2 -0.002932 0.006962 -0.004252 0.000000 -0.000003 0.000000
# 3 0.010774 -0.004252 0.033867 0.000000 0.035013 0.000000
# 4 0.000000 0.000000 0.000000 0.030515 0.000000 0.007137
# 5 0.037641 -0.000003 0.035013 0.000000 0.089299 0.000000
# 6 0.000000 0.000000 0.000000 0.007137 0.000000 0.025271
#
#
# Mechanical properties :
#
#
# Convention : Reuss Voigt Hill
#
# Bulk Modulus (GPa) = 12.75965 69.61320 41.18643
# Shear Modulus (GPa) = 21.25677 39.28260 30.26968
#
# Velocity S-wave (km/s) = 3.17413 4.31495 3.78774
# Velocity P-wave (km/s) = 4.41374 7.60392 6.21695
#
# Compressibility (1/GPa) = 0.07837206
#
# Stress axis : x y z
#
# Youngs Moduli (GPa) = 32.93546 143.62946 29.52739
#
# Poissons Ratio (x) = 0.42111 -0.31813
# Poissons Ratio (y) = 0.09656 0.12555
# Poissons Ratio (z) = -0.35485 0.61072
#
# Static dielectric constant tensor:
#      x y z
#    x 3.855820 0.000000 -0.388470 
#    y 0.000000 3.730010 0.000000 
#    z -0.388470 0.000000 3.827130 
# 
# 
# High freq. dielectric constant tensor:
#      x y z
#    x 1.820500 0.000000 -0.028890 
#    y 0.000000 1.848290 0.000000 
#    z -0.028890 0.000000 1.807910 
# 
# From -- ./inp_files/96287.got.cif
#   From: 2010.06.25/outbox.cif.g09.slc.cpg/sg15_49_cif.got.tgz:96287.got - 2010.06.28 07:06:18.
