data_PCOD8141908
_publ_section_title
;
Structure prediction by ZEFSAII (Michael W. Deem and Ramdas Pophale) SiO2 
 PCOD8141908
Probable space group: C 2/C
;
_chemical_formula_sum "Si O2"
_cell_formula_units_Z 40
_cell_length_a 22.996535
_cell_length_b 8.006236
_cell_length_c 27.210970
_cell_angle_alpha 90.000000
_cell_angle_beta 20.716491
_cell_angle_gamma 90.000000
_cell_volume 1772.245915
_symmetry_space_group_name_H-M "C 2/C"
_symmetry_group_IT_number 15
_symmetry_cell_setting 'monoclinic'
loop_
_space_group_symop_operation_xyz
x,y,z
-x,y,1/2-z
-x,-y,-z
x,-y,1/2+z
1/2+x,1/2+y,z
1/2-x,1/2+y,1/2-z
1/2-x,1/2-y,-z
1/2+x,1/2-y,1/2+z
loop_
_atom_site_type_symbol
_atom_site_label
_atom_site_fract_x
_atom_site_fract_y
_atom_site_fract_z
Si Si1 0.306156 0.382825 0.565167
Si Si2 0.327836 0.881965 0.402773
Si Si3 0.545913 0.890851 0.618323
Si Si4 0.427481 0.262670 0.073912
Si Si5 0.417590 0.913897 0.136671
O O1 0.283159 0.564305 0.556733
O O2 0.348240 0.253915 0.489095
O O3 0.450808 0.383748 0.491347
O O4 0.138517 0.325109 0.724440
O O5 0.500000 0.800945 0.250000
O O6 0.250000 0.750000 0.500000
O O7 0.364628 0.053450 0.402818
O O8 0.536803 0.050756 0.588598
O O9 0.256281 0.357782 0.203411
O O10 0.395030 0.087551 0.125973
O O11 0.505008 0.228432 0.959090
#
# Coordination Sequence:
#
# PCOD8141908 Si02
#       5
#     8   8   8   8   8
#     4  10  21  40  62  84 117 157 202 245 295 361
#     4  10  23  40  60  89 119 152 197 249 303 355
#     4  10  22  39  60  87 117 157 201 246 299 358
#     4  10  21  38  58  86 119 157 199 248 302 357
#     4  10  22  37  58  87 120 157 202 247 301 360
#
# _framework density 22.570231
#
# number of rings (size 3 to 8) (size 9 to 14) (size 15 to 20)
#    0.000    2.000    0.000    3.000    0.000    9.600 
#    0.000    0.000    0.000    0.000    0.000    0.000 
#    0.000    0.000    0.000    0.000    0.000    0.000 
#
# Total GULP energy -247992.307637 kJ/mol
# GULP energy per Si atom -12399.615382 kJ/mol
# Density = 2.251886 g / cm^3
# Si number density = 22.570231 Si / 1000 Ang^3
#
#
#
# Elastic Constant Matrix: (Units=GPa)
#
#
# Indices 1 2 3 4 5 6 
#
# 1 82.0598 25.2169 45.9364 0.0655 5.6916 -0.0451
# 2 25.2169 62.8771 55.1840 0.1073 3.7649 -0.1052
# 3 45.9364 55.1840 130.7973 0.0705 20.4873 -0.0440
# 4 0.0655 0.1073 0.0705 33.3167 -0.0241 13.7066
# 5 5.6916 3.7649 20.4873 -0.0241 37.7169 0.0126
# 6 -0.0451 -0.1052 -0.0440 13.7066 0.0126 35.8390
#
#
#
# Elastic Compliance Matrix: (Units=1/GPa)
#
#
# Indices 1 2 3 4 5 6 
#
# 1 0.015373 -0.002222 -0.004517 -0.000019 0.000356 0.000014
# 2 -0.002222 0.026025 -0.010761 -0.000093 0.003583 0.000095
# 3 -0.004517 -0.010761 0.014752 0.000018 -0.006257 -0.000024
# 4 -0.000019 -0.000093 0.000018 0.035620 0.000030 -0.013623
# 5 0.000356 0.003583 -0.006257 0.000030 0.029501 -0.000019
# 6 0.000014 0.000095 -0.000024 -0.013623 -0.000019 0.033113
#
#
# Mechanical properties :
#
#
# Convention : Reuss Voigt Hill
#
# Bulk Modulus (GPa) = 47.28121 58.71209 52.99665
# Shear Modulus (GPa) = 25.45376 31.33431 28.39404
#
# Velocity S-wave (km/s) = 3.36185 3.73004 3.55072
# Velocity P-wave (km/s) = 6.00528 6.67985 6.35153
#
# Compressibility (1/GPa) = 0.02115005
#
# Stress axis : x y z
#
# Youngs Moduli (GPa) = 65.04837 38.42427 67.78731
#
# Poissons Ratio (x) = 0.08538 0.30622
# Poissons Ratio (y) = 0.14454 0.72945
# Poissons Ratio (z) = 0.29384 0.41348
#
# Static dielectric constant tensor:
#      x y z
#    x 4.383540 0.000210 0.103190 
#    y 0.000210 3.813610 -0.000230 
#    z 0.103190 -0.000230 4.141170 
# 
# 
# High freq. dielectric constant tensor:
#      x y z
#    x 1.907610 0.000000 0.014720 
#    y 0.000000 1.872590 0.000000 
#    z 0.014720 0.000000 1.894540 
# 
# From -- ./inp_files/318462.got.cif
#   From: 2010.06.25/outbox.cif.g09.slc.cpg/sg15_160_cif.got.tgz:318462.got - 2010.06.28 07:06:18.
