data_PCOD8141241
_publ_section_title
;
Structure prediction by ZEFSAII (Michael W. Deem and Ramdas Pophale) SiO2 
 PCOD8141241
Probable space group: C 2/C
;
_chemical_formula_sum "Si O2"
_cell_formula_units_Z 48
_cell_length_a 26.656742
_cell_length_b 9.476570
_cell_length_c 9.882239
_cell_angle_alpha 90.000000
_cell_angle_beta 100.321805
_cell_angle_gamma 90.000000
_cell_volume 2455.997294
_symmetry_space_group_name_H-M "C 2/C"
_symmetry_group_IT_number 15
_symmetry_cell_setting 'monoclinic'
loop_
_space_group_symop_operation_xyz
x,y,z
-x,y,1/2-z
-x,-y,-z
x,-y,1/2+z
1/2+x,1/2+y,z
1/2-x,1/2+y,1/2-z
1/2-x,1/2-y,-z
1/2+x,1/2-y,1/2+z
loop_
_atom_site_type_symbol
_atom_site_label
_atom_site_fract_x
_atom_site_fract_y
_atom_site_fract_z
Si Si1 0.607979 0.938501 0.548653
Si Si2 0.225843 0.560287 0.103716
Si Si3 0.892223 0.882976 0.408869
Si Si4 0.441680 0.439894 0.707748
Si Si5 0.558374 0.884482 0.249633
Si Si6 0.725811 0.617734 0.647315
O O1 0.666895 0.978858 0.592473
O O2 0.595818 0.782660 0.598187
O O3 0.593135 0.950166 0.384272
O O4 0.574406 0.049173 0.615249
O O5 0.259541 0.450299 0.203307
O O6 0.238324 0.716751 0.162797
O O7 0.240954 0.545391 0.954169
O O8 0.925789 0.952162 0.543717
O O9 0.833227 0.907530 0.414669
O O10 0.906301 0.954709 0.274648
O O11 0.500000 0.488022 0.750000
O O12 0.433077 0.282500 0.758809
O O13 0.500000 0.921452 0.250000
#
# Coordination Sequence:
#
# PCOD8141241 Si02
#       6
#     8   8   8   8   8   8
#     4  10  21  36  55  81 110 141 179 221 266 316
#     4  10  21  37  56  79 109 143 179 221 267 316
#     4  10  21  36  55  81 110 141 179 221 266 316
#     4  10  21  37  57  81 109 142 179 219 266 319
#     4  10  21  37  57  81 109 142 179 219 266 319
#     4  10  21  37  56  79 109 143 179 221 267 316
#
# _framework density 19.543997000000001
#
# number of rings (size 3 to 8) (size 9 to 14) (size 15 to 20)
#    0.000    2.000    0.000    3.000    0.000    6.667 
#    0.000    0.000    0.000    0.000    0.000    0.000 
#    0.000    0.000    0.000    0.000    0.000    0.000 
#
# Total GULP energy -297771.537658 kJ/mol
# GULP energy per Si atom -12407.147402 kJ/mol
# Density = 1.949951 g / cm^3
# Si number density = 19.543997 Si / 1000 Ang^3
#
#
#
# Elastic Constant Matrix: (Units=GPa)
#
#
# Indices 1 2 3 4 5 6 
#
# 1 61.4866 13.4656 5.5083 0.0000 1.3052 0.0000
# 2 13.4656 37.8389 15.6387 0.0000 -5.2337 0.0000
# 3 5.5083 15.6387 43.1489 0.0000 1.3094 0.0000
# 4 0.0000 0.0000 0.0000 34.9891 0.0000 -3.4749
# 5 1.3052 -5.2337 1.3094 0.0000 40.0885 0.0000
# 6 0.0000 0.0000 0.0000 -3.4749 0.0000 26.9855
#
#
#
# Elastic Compliance Matrix: (Units=1/GPa)
#
#
# Indices 1 2 3 4 5 6 
#
# 1 0.017719 -0.006573 0.000164 0.000000 -0.001440 0.000000
# 2 -0.006573 0.034328 -0.011757 0.000000 0.005080 0.000000
# 3 0.000164 -0.011757 0.027490 0.000000 -0.002438 0.000000
# 4 0.000000 0.000000 0.000000 0.028951 0.000000 0.003728
# 5 -0.001440 0.005080 -0.002438 0.000000 0.025735 0.000000
# 6 0.000000 0.000000 0.000000 0.003728 0.000000 0.037537
#
#
# Mechanical properties :
#
#
# Convention : Reuss Voigt Hill
#
# Bulk Modulus (GPa) = 23.14494 23.52216 23.33355
# Shear Modulus (GPa) = 22.47266 27.60340 25.03803
#
# Velocity S-wave (km/s) = 3.39462 3.76223 3.58314
# Velocity P-wave (km/s) = 5.21851 5.56185 5.39291
#
# Compressibility (1/GPa) = 0.04320599
#
# Stress axis : x y z
#
# Youngs Moduli (GPa) = 56.43667 29.13032 36.37713
#
# Poissons Ratio (x) = 0.19146 -0.00596
# Poissons Ratio (y) = 0.37093 0.42768
# Poissons Ratio (z) = -0.00925 0.34248
#
# Static dielectric constant tensor:
#      x y z
#    x 3.608870 0.000000 0.077800 
#    y 0.000000 3.447380 0.000000 
#    z 0.077800 0.000000 3.435510 
# 
# 
# High freq. dielectric constant tensor:
#      x y z
#    x 1.774850 0.000000 0.004240 
#    y 0.000000 1.752770 0.000000 
#    z 0.004240 0.000000 1.762690 
# 
# From -- ./inp_files/60629.got.cif
#   From: 2010.06.25/outbox.cif.g09.slc.cpg/sg15_31_cif.got.tgz:60629.got - 2010.06.28 07:06:18.
