data_PCOD8141800
_publ_section_title
;
Structure prediction by ZEFSAII (Michael W. Deem and Ramdas Pophale) SiO2 
 PCOD8141800
Probable space group: C 2/C
;
_chemical_formula_sum "Si O2"
_cell_formula_units_Z 48
_cell_length_a 22.137658
_cell_length_b 11.686819
_cell_length_c 24.131561
_cell_angle_alpha 90.000000
_cell_angle_beta 20.159097
_cell_angle_gamma 90.000000
_cell_volume 2151.612850
_symmetry_space_group_name_H-M "C 2/C"
_symmetry_group_IT_number 15
_symmetry_cell_setting 'monoclinic'
loop_
_space_group_symop_operation_xyz
x,y,z
-x,y,1/2-z
-x,-y,-z
x,-y,1/2+z
1/2+x,1/2+y,z
1/2-x,1/2+y,1/2-z
1/2-x,1/2-y,-z
1/2+x,1/2-y,1/2+z
loop_
_atom_site_type_symbol
_atom_site_label
_atom_site_fract_x
_atom_site_fract_y
_atom_site_fract_z
Si Si1 0.378027 0.735187 0.502903
Si Si2 0.036674 0.975626 0.632347
Si Si3 0.679840 0.122126 0.771043
Si Si4 0.502032 0.904178 0.894898
Si Si5 0.153037 0.163154 0.761306
Si Si6 0.225435 0.555917 0.477872
O O1 0.502531 0.638874 0.368470
O O2 0.495253 0.814109 0.442538
O O3 0.235325 0.667628 0.662371
O O4 0.298228 0.812426 0.521537
O O5 0.228709 0.958905 0.496100
O O6 0.890280 0.995435 0.804081
O O7 0.014986 0.085509 0.611002
O O8 0.826033 0.152277 0.690450
O O9 0.641840 0.985961 0.805847
O O10 0.604993 0.792328 0.786219
O O11 0.336707 0.873874 0.075912
O O12 0.440969 0.976491 0.893419
#
# Coordination Sequence:
#
# PCOD8141800 Si02
#       6
#     8   8   8   8   8   8
#     4  11  21  39  64  96 123 163 208 263 320 365
#     4  10  21  37  65  89 125 166 207 260 315 369
#     4  11  24  39  65  94 131 160 211 260 315 379
#     4  10  24  42  62  91 127 166 211 257 311 374
#     4  11  24  41  64  89 130 170 207 255 316 379
#     4   9  20  42  61  92 123 161 213 264 310 367
#
# _framework density 22.308844000000001
#
# number of rings (size 3 to 8) (size 9 to 14) (size 15 to 20)
#    0.000    1.667    1.667    2.000    4.667    1.333 
#    0.000    0.000    0.000    0.000    0.000    0.000 
#    0.000    0.000    0.000    0.000    0.000    0.000 
#
# Total GULP energy -297475.606862 kJ/mol
# GULP energy per Si atom -12394.816953 kJ/mol
# Density = 2.225807 g / cm^3
# Si number density = 22.308844 Si / 1000 Ang^3
#
#
#
# Elastic Constant Matrix: (Units=GPa)
#
#
# Indices 1 2 3 4 5 6 
#
# 1 101.9189 60.9710 31.9735 0.0232 -15.3082 -0.0090
# 2 60.9710 189.3059 39.3827 -0.0142 -15.0979 -0.0022
# 3 31.9735 39.3827 44.2290 -0.0175 -9.4101 -0.0013
# 4 0.0232 -0.0142 -0.0175 41.5275 -0.0053 -3.5002
# 5 -15.3082 -15.0979 -9.4101 -0.0053 18.0293 -0.0009
# 6 -0.0090 -0.0022 -0.0013 -3.5002 -0.0009 24.1492
#
#
#
# Elastic Compliance Matrix: (Units=1/GPa)
#
#
# Indices 1 2 3 4 5 6 
#
# 1 0.014543 -0.002779 -0.006645 -0.000011 0.006553 0.000003
# 2 -0.002779 0.007135 -0.004022 0.000002 0.001516 0.000000
# 3 -0.006645 -0.004022 0.032709 0.000017 0.008063 0.000002
# 4 -0.000011 0.000002 0.000017 0.024378 0.000009 0.003533
# 5 0.006553 0.001516 0.008063 0.000009 0.066507 0.000007
# 6 0.000003 0.000000 0.000002 0.003533 0.000007 0.041921
#
#
# Mechanical properties :
#
#
# Convention : Reuss Voigt Hill
#
# Bulk Modulus (GPa) = 36.36766 66.67869 51.52318
# Shear Modulus (GPa) = 22.39639 30.28299 26.33969
#
# Velocity S-wave (km/s) = 3.17191 3.68835 3.43984
# Velocity P-wave (km/s) = 5.45454 6.93486 6.23876
#
# Compressibility (1/GPa) = 0.02749696
#
# Stress axis : x y z
#
# Youngs Moduli (GPa) = 68.76187 140.15201 30.57223
#
# Poissons Ratio (x) = 0.38948 0.20314
# Poissons Ratio (y) = 0.19109 0.12295
# Poissons Ratio (z) = 0.45689 0.56365
#
# Static dielectric constant tensor:
#      x y z
#    x 4.144190 -0.000050 -0.313770 
#    y -0.000050 4.034230 0.000140 
#    z -0.313770 0.000140 3.723720 
# 
# 
# High freq. dielectric constant tensor:
#      x y z
#    x 1.870210 0.000000 -0.015870 
#    y 0.000000 1.886770 0.000010 
#    z -0.015870 0.000010 1.859670 
# 
# From -- ./inp_files/60619.got.cif
#   From: 2010.06.25/outbox.cif.g09.slc.cpg/sg15_31_cif.got.tgz:60619.got - 2010.06.28 07:06:18.
