data_PCOD8141061
_publ_section_title
;
Structure prediction by ZEFSAII (Michael W. Deem and Ramdas Pophale) SiO2 
 PCOD8141061
Probable space group: C 2/C
;
_chemical_formula_sum "Si O2"
_cell_formula_units_Z 48
_cell_length_a 27.511005
_cell_length_b 9.524951
_cell_length_c 16.419286
_cell_angle_alpha 90.000000
_cell_angle_beta 147.205081
_cell_angle_gamma 90.000000
_cell_volume 2330.392773
_symmetry_space_group_name_H-M "C 2/C"
_symmetry_group_IT_number 15
_symmetry_cell_setting 'monoclinic'
loop_
_space_group_symop_operation_xyz
x,y,z
-x,y,1/2-z
-x,-y,-z
x,-y,1/2+z
1/2+x,1/2+y,z
1/2-x,1/2+y,1/2-z
1/2-x,1/2-y,-z
1/2+x,1/2-y,1/2+z
loop_
_atom_site_type_symbol
_atom_site_label
_atom_site_fract_x
_atom_site_fract_y
_atom_site_fract_z
Si Si1 0.734524 0.815633 0.636295
Si Si2 0.571808 0.309573 0.657058
Si Si3 0.435982 0.625862 0.836958
Si Si4 0.762543 0.127760 0.705940
Si Si5 0.160345 0.696787 0.415561
Si Si6 0.417524 0.900991 0.189754
O O1 0.822748 0.790513 0.707279
O O2 0.723593 0.695519 0.687465
O O3 0.650284 0.803386 0.457091
O O4 0.738594 0.965384 0.687016
O O5 0.545431 0.462593 0.655723
O O6 0.520131 0.295974 0.497994
O O7 0.542462 0.188780 0.678767
O O8 0.352375 0.642163 0.779980
O O9 0.419271 0.700680 0.726242
O O10 0.678794 0.198938 0.538888
O O11 0.250000 0.750000 0.500000
O O12 0.135868 0.538051 0.353548
O O13 0.500000 0.950963 0.250000
#
# Coordination Sequence:
#
# PCOD8141061 Si02
#       6
#     8   8   8   8   8   8
#     4  10  21  35  54  80 113 147 187 235 285 342
#     4  10  21  37  57  83 114 151 192 235 285 342
#     4   9  19  37  57  80 113 150 191 234 281 340
#     4   9  19  35  54  80 110 144 186 234 283 336
#     4   9  20  38  58  81 113 150 188 236 289 342
#     4  11  23  38  58  86 115 146 192 243 286 341
#
# _framework density 20.597386
#
# number of rings (size 3 to 8) (size 9 to 14) (size 15 to 20)
#    0.000    2.333    0.000    2.500    0.000    7.333 
#    0.000    0.833    0.000    0.000    0.000    0.000 
#    0.000    0.000    0.000    0.000    0.000    0.000 
#
# Total GULP energy -297552.735011 kJ/mol
# GULP energy per Si atom -12398.030625 kJ/mol
# Density = 2.055051 g / cm^3
# Si number density = 20.597386 Si / 1000 Ang^3
#
#
#
# Elastic Constant Matrix: (Units=GPa)
#
#
# Indices 1 2 3 4 5 6 
#
# 1 45.5946 30.9955 3.8047 0.0000 3.3511 0.0000
# 2 30.9955 89.8134 25.9671 0.0000 -11.5852 0.0000
# 3 3.8047 25.9671 95.5248 0.0000 1.2389 0.0000
# 4 0.0000 0.0000 0.0000 38.8191 0.0000 -8.6365
# 5 3.3511 -11.5852 1.2389 0.0000 24.3127 0.0000
# 6 0.0000 0.0000 0.0000 -8.6365 0.0000 28.6535
#
#
#
# Elastic Compliance Matrix: (Units=1/GPa)
#
#
# Indices 1 2 3 4 5 6 
#
# 1 0.031225 -0.012823 0.002379 0.000000 -0.010535 0.000000
# 2 -0.012823 0.018269 -0.004594 0.000000 0.010707 0.000000
# 3 0.002379 -0.004594 0.011663 0.000000 -0.003111 0.000000
# 4 0.000000 0.000000 0.000000 0.027612 0.000000 0.008323
# 5 -0.010535 0.010707 -0.003111 0.000000 0.047843 0.000000
# 6 0.000000 0.000000 0.000000 0.008323 0.000000 0.037408
#
#
# Mechanical properties :
#
#
# Convention : Reuss Voigt Hill
#
# Bulk Modulus (GPa) = 32.17478 39.16304 35.66891
# Shear Modulus (GPa) = 23.31461 29.70144 26.50803
#
# Velocity S-wave (km/s) = 3.36805 3.80149 3.59132
# Velocity P-wave (km/s) = 5.54795 6.19058 5.87805
#
# Compressibility (1/GPa) = 0.03108024
#
# Stress axis : x y z
#
# Youngs Moduli (GPa) = 32.02531 54.73785 85.74137
#
# Poissons Ratio (x) = 0.70190 -0.20395
# Poissons Ratio (y) = 0.41066 0.39392
# Poissons Ratio (z) = -0.07618 0.25148
#
# Static dielectric constant tensor:
#      x y z
#    x 3.301640 0.000000 -0.065310 
#    y 0.000000 3.728410 0.000000 
#    z -0.065310 0.000000 4.186710 
# 
# 
# High freq. dielectric constant tensor:
#      x y z
#    x 1.770700 0.000000 -0.001010 
#    y 0.000000 1.800700 0.000000 
#    z -0.001010 0.000000 1.827850 
# 
# From -- ./inp_files/208933.got.cif
#   From: 2010.06.25/outbox.cif.g09.slc.cpg/sg15_105_cif.got.tgz:208933.got - 2010.06.28 07:06:18.
