data_PCOD8141782
_publ_section_title
;
Structure prediction by ZEFSAII (Michael W. Deem and Ramdas Pophale) SiO2 
 PCOD8141782
Probable space group: C 2/C
;
_chemical_formula_sum "Si O2"
_cell_formula_units_Z 32
_cell_length_a 5.210366
_cell_length_b 28.979926
_cell_length_c 12.269815
_cell_angle_alpha 90.000000
_cell_angle_beta 49.603221
_cell_angle_gamma 90.000000
_cell_volume 1410.964379
_symmetry_space_group_name_H-M "C 2/C"
_symmetry_group_IT_number 15
_symmetry_cell_setting 'monoclinic'
loop_
_space_group_symop_operation_xyz
x,y,z
-x,y,1/2-z
-x,-y,-z
x,-y,1/2+z
1/2+x,1/2+y,z
1/2-x,1/2+y,1/2-z
1/2-x,1/2-y,-z
1/2+x,1/2-y,1/2+z
loop_
_atom_site_type_symbol
_atom_site_label
_atom_site_fract_x
_atom_site_fract_y
_atom_site_fract_z
Si Si1 0.858240 0.569921 0.113810
Si Si2 0.217673 0.656169 0.088179
Si Si3 0.272893 0.704743 0.420713
Si Si4 0.136636 0.476601 0.102286
O O1 0.500000 0.592293 0.250000
O O2 0.160526 0.601937 0.076089
O O3 0.873318 0.518184 0.155465
O O4 0.886412 0.565418 0.976084
O O5 0.593904 0.666133 0.028389
O O6 0.000000 0.672370 0.250000
O O7 0.095600 0.686931 0.017786
O O8 0.500000 0.712224 0.250000
O O9 0.250000 0.750000 0.500000
O O10 0.000000 0.453320 0.250000
O O11 0.500000 0.500000 0.000000
#
# Coordination Sequence:
#
# PCOD8141782 Si02
#       4
#     8   8   8   8
#     4  11  22  37  63  91 123 171 223 275 321 383
#     4  10  21  37  64  94 118 162 215 259 311 387
#     4  10  21  39  65  91 123 159 204 257 319 392
#     4  11  23  39  62  89 128 176 221 268 330 384
#
# _framework density 22.679524000000001
#
# number of rings (size 3 to 8) (size 9 to 14) (size 15 to 20)
#    0.000    1.500    2.500    3.750    3.500    0.000 
#    0.000    1.250    5.500    0.000    0.000    0.000 
#    0.000    0.000    0.000    0.000    0.000    0.000 
#
# Total GULP energy -198228.704457 kJ/mol
# GULP energy per Si atom -12389.294029 kJ/mol
# Density = 2.262790 g / cm^3
# Si number density = 22.679524 Si / 1000 Ang^3
#
#
#
# Elastic Constant Matrix: (Units=GPa)
#
#
# Indices 1 2 3 4 5 6 
#
# 1 132.9685 34.1811 48.6811 0.0000 31.0900 0.0000
# 2 34.1811 106.8439 36.6756 0.0000 25.7033 0.0000
# 3 48.6811 36.6756 114.8365 0.0000 27.6649 0.0000
# 4 0.0000 0.0000 0.0000 26.4855 0.0000 14.3972
# 5 31.0900 25.7033 27.6649 0.0000 34.0990 0.0000
# 6 0.0000 0.0000 0.0000 14.3972 0.0000 52.8894
#
#
#
# Elastic Compliance Matrix: (Units=1/GPa)
#
#
# Indices 1 2 3 4 5 6 
#
# 1 0.010190 -0.000809 -0.002449 0.000000 -0.006695 0.000000
# 2 -0.000809 0.011862 -0.001826 0.000000 -0.006723 0.000000
# 3 -0.002449 -0.001826 0.011758 0.000000 -0.005930 0.000000
# 4 0.000000 0.000000 0.000000 0.044314 0.000000 -0.012063
# 5 -0.006695 -0.006723 -0.005930 0.000000 0.045309 0.000000
# 6 0.000000 0.000000 0.000000 -0.012063 0.000000 0.022191
#
#
# Mechanical properties :
#
#
# Convention : Reuss Voigt Hill
#
# Bulk Modulus (GPa) = 42.29564 65.96937 54.13250
# Shear Modulus (GPa) = 30.54876 38.36885 34.45880
#
# Velocity S-wave (km/s) = 3.67410 4.11759 3.90215
# Velocity P-wave (km/s) = 6.05710 7.19422 6.65001
#
# Compressibility (1/GPa) = 0.02364310
#
# Stress axis : x y z
#
# Youngs Moduli (GPa) = 98.13216 84.30068 85.04918
#
# Poissons Ratio (x) = 0.06820 0.20826
# Poissons Ratio (y) = 0.07939 0.15530
# Poissons Ratio (z) = 0.24030 0.15394
#
# Static dielectric constant tensor:
#      x y z
#    x 4.849930 0.000000 0.388080 
#    y 0.000000 3.827590 0.000000 
#    z 0.388080 0.000000 3.875590 
# 
# 
# High freq. dielectric constant tensor:
#      x y z
#    x 1.918330 0.000000 0.029500 
#    y 0.000000 1.878610 0.000000 
#    z 0.029500 0.000000 1.857950 
# 
# From -- ./inp_files/20122.got.cif
#   From: 2010.06.25/outbox.cif.g09.slc.cpg/sg15_11_cif.got.tgz:20122.got - 2010.06.28 07:06:18.
