data_PCOD8141456
_publ_section_title
;
Structure prediction by ZEFSAII (Michael W. Deem and Ramdas Pophale) SiO2 
 PCOD8141456
Probable space group: C 2/C
;
_chemical_formula_sum "Si O2"
_cell_formula_units_Z 48
_cell_length_a 22.732227
_cell_length_b 10.962704
_cell_length_c 15.469788
_cell_angle_alpha 90.000000
_cell_angle_beta 141.885652
_cell_angle_gamma 90.000000
_cell_volume 2379.540579
_symmetry_space_group_name_H-M "C 2/C"
_symmetry_group_IT_number 15
_symmetry_cell_setting 'monoclinic'
loop_
_space_group_symop_operation_xyz
x,y,z
-x,y,1/2-z
-x,-y,-z
x,-y,1/2+z
1/2+x,1/2+y,z
1/2-x,1/2+y,1/2-z
1/2-x,1/2-y,-z
1/2+x,1/2-y,1/2+z
loop_
_atom_site_type_symbol
_atom_site_label
_atom_site_fract_x
_atom_site_fract_y
_atom_site_fract_z
Si Si1 0.464525 0.209784 0.080784
Si Si2 0.705296 0.256968 0.043326
Si Si3 0.403500 0.444684 0.675443
Si Si4 0.144124 0.795139 0.381611
Si Si5 0.407708 0.751362 0.329172
Si Si6 0.955286 0.564930 0.605451
O O1 0.575676 0.224232 0.235147
O O2 0.396437 0.278156 0.069211
O O3 0.436373 0.066740 0.040763
O O4 0.449243 0.276711 0.971565
O O5 0.794436 0.280525 0.210102
O O6 0.750000 0.250000 0.000000
O O7 0.635655 0.371854 0.953939
O O8 0.644582 0.138592 0.002381
O O9 0.500000 0.500570 0.750000
O O10 0.342548 0.562899 0.628881
O O11 0.418601 0.363660 0.778235
O O12 0.250000 0.750000 0.500000
O O13 0.466146 0.864793 0.359272
O O14 0.000000 0.541122 0.750000
#
# Coordination Sequence:
#
# PCOD8141456 Si02
#       6
#     8   8   8   8   8   8
#     4  11  26  44  60  96 134 163 213 264 321 381
#     4  10  21  36  67  95 120 163 216 254 314 372
#     4  11  20  43  67  91 128 167 214 261 315 385
#     4  11  26  44  66  87 127 180 209 252 334 386
#     4  11  24  40  66  99 124 162 217 269 312 370
#     4  12  20  41  69  90 131 174 207 262 317 386
#
# _framework density 20.171959999999999
#
# number of rings (size 3 to 8) (size 9 to 14) (size 15 to 20)
#    0.000    1.000    8.333    0.500    7.000    2.000 
#    3.000    0.000    0.000    0.000    0.000    0.000 
#    0.000    0.000    0.000    0.000    0.000    0.000 
#
# Total GULP energy -297476.090855 kJ/mol
# GULP energy per Si atom -12394.837119 kJ/mol
# Density = 2.012605 g / cm^3
# Si number density = 20.171960 Si / 1000 Ang^3
#
#
#
# Elastic Constant Matrix: (Units=GPa)
#
#
# Indices 1 2 3 4 5 6 
#
# 1 73.7427 37.9014 67.8637 0.0000 4.0216 0.0000
# 2 37.9014 136.4771 39.9075 0.0000 1.4068 0.0000
# 3 67.8637 39.9075 134.4514 0.0000 2.4955 0.0000
# 4 0.0000 0.0000 0.0000 14.7149 0.0000 10.3935
# 5 4.0216 1.4068 2.4955 0.0000 41.6066 0.0000
# 6 0.0000 0.0000 0.0000 10.3935 0.0000 22.7697
#
#
#
# Elastic Compliance Matrix: (Units=1/GPa)
#
#
# Indices 1 2 3 4 5 6 
#
# 1 0.027183 -0.003864 -0.012541 0.000000 -0.001745 0.000000
# 2 -0.003864 0.008574 -0.000597 0.000000 0.000119 0.000000
# 3 -0.012541 -0.000597 0.013938 0.000000 0.000396 0.000000
# 4 0.000000 0.000000 0.000000 0.100294 0.000000 -0.045781
# 5 -0.001745 0.000119 0.000396 0.000000 0.024175 0.000000
# 6 0.000000 0.000000 0.000000 -0.045781 0.000000 0.064815
#
#
# Mechanical properties :
#
#
# Convention : Reuss Voigt Hill
#
# Bulk Modulus (GPa) = 63.73309 70.66850 67.20080
# Shear Modulus (GPa) = 17.97181 29.08482 23.52831
#
# Velocity S-wave (km/s) = 2.98808 3.80128 3.41895
# Velocity P-wave (km/s) = 6.60063 7.37397 6.99799
#
# Compressibility (1/GPa) = 0.01569044
#
# Stress axis : x y z
#
# Youngs Moduli (GPa) = 36.78728 116.63786 71.74838
#
# Poissons Ratio (x) = 0.45068 0.89982
# Poissons Ratio (y) = 0.14214 0.04281
# Poissons Ratio (z) = 0.46136 0.06960
#
# Static dielectric constant tensor:
#      x y z
#    x 3.857410 0.000000 0.545540 
#    y 0.000000 1.806600 0.000000 
#    z 0.545540 0.000000 5.263720 
# 
# 
# High freq. dielectric constant tensor:
#      x y z
#    x 1.779990 0.000000 0.016580 
#    y 0.000000 1.792060 0.000000 
#    z 0.016580 0.000000 1.788340 
# 
# From -- ./inp_files/167926.got.cif
#   From: 2010.06.25/outbox.cif.g09.slc.cpg/sg15_84_cif.got.tgz:167926.got - 2010.06.28 07:06:18.
