data_PCOD8141368
_publ_section_title
;
Structure prediction by ZEFSAII (Michael W. Deem and Ramdas Pophale) SiO2 
 PCOD8141368
Probable space group: C 2/C
;
_chemical_formula_sum "Si O2"
_cell_formula_units_Z 44
_cell_length_a 14.423783
_cell_length_b 16.125775
_cell_length_c 10.054574
_cell_angle_alpha 90.000000
_cell_angle_beta 68.427190
_cell_angle_gamma 90.000000
_cell_volume 2174.821172
_symmetry_space_group_name_H-M "C 2/C"
_symmetry_group_IT_number 15
_symmetry_cell_setting 'monoclinic'
loop_
_space_group_symop_operation_xyz
x,y,z
-x,y,1/2-z
-x,-y,-z
x,-y,1/2+z
1/2+x,1/2+y,z
1/2-x,1/2+y,1/2-z
1/2-x,1/2-y,-z
1/2+x,1/2-y,1/2+z
loop_
_atom_site_type_symbol
_atom_site_label
_atom_site_fract_x
_atom_site_fract_y
_atom_site_fract_z
Si Si1 0.709149 0.617716 0.003372
Si Si2 0.497684 0.428483 0.604221
Si Si3 0.189119 0.450451 0.556140
Si Si4 0.500000 0.944061 0.250000
Si Si5 0.840193 0.348471 0.186139
Si Si6 0.295062 0.335544 0.701907
O O1 0.724069 0.518415 0.993634
O O2 0.772025 0.656104 0.852310
O O3 0.591921 0.633883 0.039251
O O4 0.743354 0.658871 0.125080
O O5 0.500000 0.467639 0.750000
O O6 0.500000 0.500000 0.500000
O O7 0.397745 0.381132 0.629723
O O8 0.083462 0.496087 0.640564
O O9 0.194834 0.411864 0.407165
O O10 0.210894 0.379010 0.654145
O O11 0.450535 0.880840 0.168988
O O12 0.826238 0.256257 0.136478
#
# Coordination Sequence:
#
# PCOD8141368 Si02
#       6
#     8   8   8   4   8   8
#     4  10  21  39  63  88 122 165 206 242 309 378
#     4  10  21  36  61  88 121 161 203 246 299 373
#     4  11  22  43  65  90 122 167 205 255 305 375
#     4  10  24  42  66  90 124 168 214 242 312 382
#     4  11  24  40  65  93 123 159 207 262 307 360
#     4  11  23  40  62  93 130 154 205 264 310 354
#
# _framework density 20.231548
#
# number of rings (size 3 to 8) (size 9 to 14) (size 15 to 20)
#    0.000    1.455    1.818    3.818    6.364    1.455 
#    3.273    0.000    0.000    0.000    0.000    0.000 
#    0.000    0.000    0.000    0.000    0.000    0.000 
#
# Total GULP energy -272636.180511 kJ/mol
# GULP energy per Si atom -12392.553660 kJ/mol
# Density = 2.018550 g / cm^3
# Si number density = 20.231548 Si / 1000 Ang^3
#
#
#
# Elastic Constant Matrix: (Units=GPa)
#
#
# Indices 1 2 3 4 5 6 
#
# 1 96.5818 22.3495 36.5246 0.0000 -4.1880 0.0000
# 2 22.3495 110.1121 22.5242 0.0000 3.8818 0.0000
# 3 36.5246 22.5242 66.7118 0.0000 -4.6543 0.0000
# 4 0.0000 0.0000 0.0000 21.8652 0.0000 8.8884
# 5 -4.1880 3.8818 -4.6543 0.0000 31.5198 0.0000
# 6 0.0000 0.0000 0.0000 8.8884 0.0000 25.1093
#
#
#
# Elastic Compliance Matrix: (Units=1/GPa)
#
#
# Indices 1 2 3 4 5 6 
#
# 1 0.013253 -0.001345 -0.006737 0.000000 0.000932 0.000000
# 2 -0.001345 0.009983 -0.002761 0.000000 -0.001816 0.000000
# 3 -0.006737 -0.002761 0.019776 0.000000 0.002365 0.000000
# 4 0.000000 0.000000 0.000000 0.053422 0.000000 -0.018911
# 5 0.000932 -0.001816 0.002365 0.000000 0.032423 0.000000
# 6 0.000000 0.000000 0.000000 -0.018911 0.000000 0.046520
#
#
# Mechanical properties :
#
#
# Convention : Reuss Voigt Hill
#
# Bulk Modulus (GPa) = 46.89047 48.46692 47.67869
# Shear Modulus (GPa) = 24.48908 28.49934 26.49421
#
# Velocity S-wave (km/s) = 3.48291 3.75728 3.62270
# Velocity P-wave (km/s) = 6.27706 6.54454 6.41219
#
# Compressibility (1/GPa) = 0.02132630
#
# Stress axis : x y z
#
# Youngs Moduli (GPa) = 75.45292 100.16595 50.56714
#
# Poissons Ratio (x) = 0.13470 0.34068
# Poissons Ratio (y) = 0.10147 0.13963
# Poissons Ratio (z) = 0.50834 0.27658
#
# Static dielectric constant tensor:
#      x y z
#    x 3.782230 0.000000 0.075730 
#    y 0.000000 4.109260 0.000000 
#    z 0.075730 0.000000 3.707270 
# 
# 
# High freq. dielectric constant tensor:
#      x y z
#    x 1.794790 0.000000 0.001810 
#    y 0.000000 1.787410 0.000000 
#    z 0.001810 0.000000 1.795260 
# 
# From -- ./inp_files/39149.got.cif
#   From: 2010.06.25/outbox.cif.g09.slc.cpg/sg15_20_cif.got.tgz:39149.got - 2010.06.28 07:06:18.
