data_PCOD8141791
_publ_section_title
;
Structure prediction by ZEFSAII (Michael W. Deem and Ramdas Pophale) SiO2 
 PCOD8141791
Probable space group: C 2/C
;
_chemical_formula_sum "Si O2"
_cell_formula_units_Z 40
_cell_length_a 5.232919
_cell_length_b 16.407660
_cell_length_c 22.512024
_cell_angle_alpha 90.000000
_cell_angle_beta 63.292767
_cell_angle_gamma 90.000000
_cell_volume 1726.671276
_symmetry_space_group_name_H-M "C 2/C"
_symmetry_group_IT_number 15
_symmetry_cell_setting 'monoclinic'
loop_
_space_group_symop_operation_xyz
x,y,z
-x,y,1/2-z
-x,-y,-z
x,-y,1/2+z
1/2+x,1/2+y,z
1/2-x,1/2+y,1/2-z
1/2-x,1/2-y,-z
1/2+x,1/2-y,1/2+z
loop_
_atom_site_type_symbol
_atom_site_label
_atom_site_fract_x
_atom_site_fract_y
_atom_site_fract_z
Si Si1 0.805932 0.927625 0.498101
Si Si2 0.675671 0.215756 0.571359
Si Si3 0.429080 0.952377 0.093373
Si Si4 0.171189 0.439623 0.791739
Si Si5 0.866511 0.699560 0.397416
O O1 0.808031 0.912670 0.426313
O O2 0.831712 0.840603 0.528776
O O3 0.498354 0.962140 0.552872
O O4 0.000000 0.000000 0.500000
O O5 0.750000 0.250000 0.500000
O O6 0.689174 0.115417 0.571616
O O7 0.875951 0.249138 0.602033
O O8 0.346269 0.242881 0.618560
O O9 0.318662 0.977084 0.169937
O O10 0.500000 0.411542 0.750000
O O11 0.991213 0.367803 0.840467
O O12 0.000000 0.462170 0.750000
#
# Coordination Sequence:
#
# PCOD8141791 Si02
#       5
#     8   8   8   8   8
#     4  10  21  37  64  96 133 172 210 272 336 405
#     4  12  23  41  65 108 140 167 202 278 358 424
#     4  10  24  38  65  98 131 169 221 273 333 396
#     4  11  26  48  68  90 126 182 240 278 313 388
#     4  11  25  41  67  95 137 176 217 268 348 410
#
# _framework density 23.165960999999999
#
# number of rings (size 3 to 8) (size 9 to 14) (size 15 to 20)
#    0.000    1.200    2.000    3.000   14.000    0.000 
#    0.000    6.000    0.000    0.000    0.000    0.000 
#    0.000    0.000    0.000    0.000    0.000    0.000 
#
# Total GULP energy -247855.551394 kJ/mol
# GULP energy per Si atom -12392.777570 kJ/mol
# Density = 2.311323 g / cm^3
# Si number density = 23.165961 Si / 1000 Ang^3
#
#
#
# Elastic Constant Matrix: (Units=GPa)
#
#
# Indices 1 2 3 4 5 6 
#
# 1 150.2388 44.2214 36.3327 0.0000 29.5713 0.0000
# 2 44.2214 128.6333 36.2048 0.0000 11.0041 0.0000
# 3 36.3327 36.2048 99.9056 0.0000 26.2363 0.0000
# 4 0.0000 0.0000 0.0000 20.5834 0.0000 -2.7540
# 5 29.5713 11.0041 26.2363 0.0000 33.1334 0.0000
# 6 0.0000 0.0000 0.0000 -2.7540 0.0000 46.8539
#
#
#
# Elastic Compliance Matrix: (Units=1/GPa)
#
#
# Indices 1 2 3 4 5 6 
#
# 1 0.008773 -0.002273 -0.000642 0.000000 -0.006566 0.000000
# 2 -0.002273 0.009253 -0.002843 0.000000 0.001208 0.000000
# 3 -0.000642 -0.002843 0.013730 0.000000 -0.009354 0.000000
# 4 0.000000 0.000000 0.000000 0.048968 0.000000 0.002878
# 5 -0.006566 0.001208 -0.009354 0.000000 0.043047 0.000000
# 6 0.000000 0.000000 0.000000 0.002878 0.000000 0.021512
#
#
# Mechanical properties :
#
#
# Convention : Reuss Voigt Hill
#
# Bulk Modulus (GPa) = 49.41348 68.03281 58.72315
# Shear Modulus (GPa) = 30.57222 37.58207 34.07714
#
# Velocity S-wave (km/s) = 3.63671 4.03214 3.83952
# Velocity P-wave (km/s) = 6.24586 7.14905 6.71266
#
# Compressibility (1/GPa) = 0.02023739
#
# Stress axis : x y z
#
# Youngs Moduli (GPa) = 113.98637 108.07782 72.83321
#
# Poissons Ratio (x) = 0.24571 0.04677
# Poissons Ratio (y) = 0.25915 0.20709
# Poissons Ratio (z) = 0.07320 0.30731
#
# Static dielectric constant tensor:
#      x y z
#    x 4.664010 0.000000 0.102660 
#    y 0.000000 -22.540050 0.000000 
#    z 0.102660 0.000000 4.013150 
# 
# 
# High freq. dielectric constant tensor:
#      x y z
#    x 1.943170 0.000000 0.007460 
#    y 0.000000 1.930530 0.000000 
#    z 0.007460 0.000000 1.877090 
# 
# From -- ./inp_files/226738.got.cif
#   From: 2010.06.25/outbox.cif.g09.slc.cpg/sg15_114_cif.got.tgz:226738.got - 2010.06.28 07:06:18.
