data_PCOD8141729
_publ_section_title
;
Structure prediction by ZEFSAII (Michael W. Deem and Ramdas Pophale) SiO2 
 PCOD8141729
Probable space group: C 2/C
;
_chemical_formula_sum "Si O2"
_cell_formula_units_Z 56
_cell_length_a 11.566951
_cell_length_b 19.973456
_cell_length_c 11.569097
_cell_angle_alpha 90.000000
_cell_angle_beta 105.977042
_cell_angle_gamma 90.000000
_cell_volume 2569.585505
_symmetry_space_group_name_H-M "C 2/C"
_symmetry_group_IT_number 15
_symmetry_cell_setting 'monoclinic'
loop_
_space_group_symop_operation_xyz
x,y,z
-x,y,1/2-z
-x,-y,-z
x,-y,1/2+z
1/2+x,1/2+y,z
1/2-x,1/2+y,1/2-z
1/2-x,1/2-y,-z
1/2+x,1/2-y,1/2+z
loop_
_atom_site_type_symbol
_atom_site_label
_atom_site_fract_x
_atom_site_fract_y
_atom_site_fract_z
Si Si1 0.120974 0.589945 0.528089
Si Si2 0.403769 0.432359 0.819851
Si Si3 0.248547 0.144703 0.385085
Si Si4 0.115819 0.453318 0.426615
Si Si5 0.719854 0.427513 0.223419
Si Si6 0.008426 0.287517 0.614671
Si Si7 0.556768 0.346466 0.023242
O O1 0.127752 0.534071 0.429552
O O2 0.246593 0.590163 0.634568
O O3 0.020700 0.568573 0.593149
O O4 0.090727 0.660278 0.459740
O O5 0.500000 0.451758 0.750000
O O6 0.318895 0.372083 0.752607
O O7 0.328987 0.499048 0.820893
O O8 0.467742 0.404766 0.953028
O O9 0.301285 0.074629 0.446801
O O10 0.355741 0.195518 0.387108
O O11 0.153015 0.174983 0.450634
O O12 0.158410 0.421652 0.318238
O O13 0.623222 0.373277 0.155818
O O14 0.979601 0.217295 0.544005
O O15 0.000000 0.283068 0.750000
#
# Coordination Sequence:
#
# PCOD8141729 Si02
#       7
#     8   8   8   8   8   8   8
#     4  10  21  37  62  94 128 157 199 257 322 373
#     4  10  21  39  64  90 116 160 215 264 311 357
#     4   9  19  41  66  87 118 166 213 258 311 372
#     4   9  19  35  61  96 123 148 203 263 317 372
#     4  11  21  38  65  93 119 162 210 260 315 368
#     4  11  25  42  60  93 128 167 204 257 318 380
#     4  10  23  42  59  88 128 173 213 251 297 380
#
# _framework density 21.793399000000001
#
# number of rings (size 3 to 8) (size 9 to 14) (size 15 to 20)
#    0.000    2.000    1.429    1.286    2.000    1.714 
#    2.571    8.571    0.000    0.000    0.000    0.000 
#    0.000    0.000    0.000    0.000    0.000    0.000 
#
# Total GULP energy -347159.817409 kJ/mol
# GULP energy per Si atom -12398.564907 kJ/mol
# Density = 2.174380 g / cm^3
# Si number density = 21.793399 Si / 1000 Ang^3
#
#
#
# Elastic Constant Matrix: (Units=GPa)
#
#
# Indices 1 2 3 4 5 6 
#
# 1 42.4178 22.2064 28.3690 0.0000 8.5494 0.0000
# 2 22.2064 115.2570 47.5697 0.0000 -2.9545 0.0000
# 3 28.3690 47.5697 101.6984 0.0000 11.7765 0.0000
# 4 0.0000 0.0000 0.0000 20.5971 0.0000 3.0949
# 5 8.5494 -2.9545 11.7765 0.0000 22.9713 0.0000
# 6 0.0000 0.0000 0.0000 3.0949 0.0000 32.1849
#
#
#
# Elastic Compliance Matrix: (Units=1/GPa)
#
#
# Indices 1 2 3 4 5 6 
#
# 1 0.031375 -0.003847 -0.005893 0.000000 -0.009151 0.000000
# 2 -0.003847 0.011621 -0.004998 0.000000 0.005489 0.000000
# 3 -0.005893 -0.004998 0.014496 0.000000 -0.005881 0.000000
# 4 0.000000 0.000000 0.000000 0.049262 0.000000 -0.004737
# 5 -0.009151 0.005489 -0.005881 0.000000 0.050659 0.000000
# 6 0.000000 0.000000 0.000000 -0.004737 0.000000 0.031526
#
#
# Mechanical properties :
#
#
# Convention : Reuss Voigt Hill
#
# Bulk Modulus (GPa) = 35.69538 50.62926 43.16232
# Shear Modulus (GPa) = 21.95353 25.89921 23.92637
#
# Velocity S-wave (km/s) = 3.17732 3.45105 3.31701
# Velocity P-wave (km/s) = 5.46580 6.25792 5.87523
#
# Compressibility (1/GPa) = 0.02801483
#
# Stress axis : x y z
#
# Youngs Moduli (GPa) = 31.87293 86.05024 68.98587
#
# Poissons Ratio (x) = 0.33107 0.40652
# Poissons Ratio (y) = 0.12263 0.34480
# Poissons Ratio (z) = 0.18782 0.43010
#
# Static dielectric constant tensor:
#      x y z
#    x 3.951850 0.000000 0.109030 
#    y 0.000000 3.659210 0.000000 
#    z 0.109030 0.000000 3.764350 
# 
# 
# High freq. dielectric constant tensor:
#      x y z
#    x 1.853970 0.000000 0.006440 
#    y 0.000000 1.840270 0.000000 
#    z 0.006440 0.000000 1.856140 
# 
# From -- ./inp_files/89663.got.cif
#   From: 2010.06.25/outbox.cif.g09.slc.cpg/sg15_45_cif.got.tgz:89663.got - 2010.06.28 07:06:18.
