data_PCOD8141510
_publ_section_title
;
Structure prediction by ZEFSAII (Michael W. Deem and Ramdas Pophale) SiO2 
 PCOD8141510
Probable space group: C 2/C
;
_chemical_formula_sum "Si O2"
_cell_formula_units_Z 44
_cell_length_a 7.044114
_cell_length_b 12.320076
_cell_length_c 25.417766
_cell_angle_alpha 90.000000
_cell_angle_beta 98.631843
_cell_angle_gamma 90.000000
_cell_volume 2180.870447
_symmetry_space_group_name_H-M "C 2/C"
_symmetry_group_IT_number 15
_symmetry_cell_setting 'monoclinic'
loop_
_space_group_symop_operation_xyz
x,y,z
-x,y,1/2-z
-x,-y,-z
x,-y,1/2+z
1/2+x,1/2+y,z
1/2-x,1/2+y,1/2-z
1/2-x,1/2-y,-z
1/2+x,1/2-y,1/2+z
loop_
_atom_site_type_symbol
_atom_site_label
_atom_site_fract_x
_atom_site_fract_y
_atom_site_fract_z
Si Si1 0.890128 0.753309 0.793346
Si Si2 0.538059 0.519370 0.332337
Si Si3 0.671853 0.525984 0.573226
Si Si4 0.000000 0.164629 0.750000
Si Si5 0.316992 0.634587 0.522187
Si Si6 0.594854 0.085488 0.617701
O O1 0.981026 0.873328 0.798666
O O2 0.668016 0.749737 0.768486
O O3 0.912159 0.697048 0.850447
O O4 0.000000 0.691950 0.750000
O O5 0.448828 0.532920 0.386460
O O6 0.456375 0.413490 0.298330
O O7 0.770491 0.503716 0.347040
O O8 0.542062 0.630430 0.549756
O O9 0.710825 0.449546 0.525710
O O10 0.875459 0.551910 0.606307
O O11 0.250000 0.750000 0.500000
O O12 0.175918 0.603543 0.563240
#
# Coordination Sequence:
#
# PCOD8141510 Si02
#       6
#     8   8   8   4   8   8
#     4  11  22  38  60  85 113 156 195 237 303 351
#     4  10  21  39  57  83 119 148 191 249 285 347
#     4  10  21  37  57  83 114 153 190 239 299 342
#     4  10  22  40  56  84 120 146 196 250 284 354
#     4  10  21  37  57  83 116 150 193 241 289 351
#     4  10  22  37  58  85 117 149 195 243 287 356
#
# _framework density 20.175429999999999
#
# number of rings (size 3 to 8) (size 9 to 14) (size 15 to 20)
#    0.000    1.818    0.909    2.727    0.000    3.636 
#    1.636    0.000    0.000    0.000    0.000    0.000 
#    0.000    0.000    0.000    0.000    0.000    0.000 
#
# Total GULP energy -272636.382743 kJ/mol
# GULP energy per Si atom -12392.562852 kJ/mol
# Density = 2.012951 g / cm^3
# Si number density = 20.175430 Si / 1000 Ang^3
#
#
#
# Elastic Constant Matrix: (Units=GPa)
#
#
# Indices 1 2 3 4 5 6 
#
# 1 133.3521 57.2080 43.0351 0.0000 30.6519 0.0000
# 2 57.2080 88.7635 30.9621 0.0000 13.9463 0.0000
# 3 43.0351 30.9621 103.1993 0.0000 1.2639 0.0000
# 4 0.0000 0.0000 0.0000 10.8995 0.0000 7.3756
# 5 30.6519 13.9463 1.2639 0.0000 50.5911 0.0000
# 6 0.0000 0.0000 0.0000 7.3756 0.0000 28.3984
#
#
#
# Elastic Compliance Matrix: (Units=1/GPa)
#
#
# Indices 1 2 3 4 5 6 
#
# 1 0.012474 -0.005957 -0.003343 0.000000 -0.005832 0.000000
# 2 -0.005957 0.016031 -0.002316 0.000000 -0.000752 0.000000
# 3 -0.003343 -0.002316 0.011750 0.000000 0.002371 0.000000
# 4 0.000000 0.000000 0.000000 0.111310 0.000000 -0.028909
# 5 -0.005832 -0.000752 0.002371 0.000000 0.023448 0.000000
# 6 0.000000 0.000000 0.000000 -0.028909 0.000000 0.042721
#
#
# Mechanical properties :
#
#
# Convention : Reuss Voigt Hill
#
# Bulk Modulus (GPa) = 58.74650 65.30281 62.02465
# Shear Modulus (GPa) = 20.27230 30.91844 25.59537
#
# Velocity S-wave (km/s) = 3.17330 3.91894 3.56566
# Velocity P-wave (km/s) = 6.52744 7.27428 6.91096
#
# Compressibility (1/GPa) = 0.01702229
#
# Stress axis : x y z
#
# Youngs Moduli (GPa) = 80.16744 62.37768 85.10616
#
# Poissons Ratio (x) = 0.37158 0.28452
# Poissons Ratio (y) = 0.47756 0.19714
# Poissons Ratio (z) = 0.26801 0.14449
#
# Static dielectric constant tensor:
#      x y z
#    x 3.843720 0.000000 0.084310 
#    y 0.000000 3.307360 0.000000 
#    z 0.084310 0.000000 4.002580 
# 
# 
# High freq. dielectric constant tensor:
#      x y z
#    x 1.796660 0.000000 -0.001180 
#    y 0.000000 1.757760 0.000000 
#    z -0.001180 0.000000 1.819390 
# 
# From -- ./inp_files/285398.got.cif
#   From: 2010.06.25/outbox.cif.g09.slc.cpg/sg15_143_cif.got.tgz:285398.got - 2010.06.28 07:06:18.
