data_PCOD8141484
_publ_section_title
;
Structure prediction by ZEFSAII (Michael W. Deem and Ramdas Pophale) SiO2 
 PCOD8141484
Probable space group: C 2/C
;
_chemical_formula_sum "Si O2"
_cell_formula_units_Z 52
_cell_length_a 11.553717
_cell_length_b 28.826571
_cell_length_c 8.967257
_cell_angle_alpha 90.000000
_cell_angle_beta 120.857401
_cell_angle_gamma 90.000000
_cell_volume 2563.820128
_symmetry_space_group_name_H-M "C 2/C"
_symmetry_group_IT_number 15
_symmetry_cell_setting 'monoclinic'
loop_
_space_group_symop_operation_xyz
x,y,z
-x,y,1/2-z
-x,-y,-z
x,-y,1/2+z
1/2+x,1/2+y,z
1/2-x,1/2+y,1/2-z
1/2-x,1/2-y,-z
1/2+x,1/2-y,1/2+z
loop_
_atom_site_type_symbol
_atom_site_label
_atom_site_fract_x
_atom_site_fract_y
_atom_site_fract_z
Si Si1 0.864765 0.889471 0.594910
Si Si2 0.887957 0.560272 0.446272
Si Si3 0.807410 0.811439 0.761791
Si Si4 0.772667 0.280185 0.365915
Si Si5 0.012255 0.650459 0.092094
Si Si6 0.500000 0.011669 0.250000
Si Si7 0.042561 0.848114 0.123464
O O1 0.757200 0.923111 0.596717
O O2 0.847709 0.835216 0.632462
O O3 0.873443 0.885587 0.420597
O O4 0.000000 0.911076 0.750000
O O5 0.984499 0.605805 0.516882
O O6 0.921859 0.519998 0.582312
O O7 0.893642 0.541706 0.278463
O O8 0.822496 0.755636 0.769959
O O9 0.650439 0.821038 0.686866
O O10 0.903458 0.833161 0.952604
O O11 0.750000 0.250000 0.500000
O O12 0.633325 0.303410 0.222838
O O13 0.887526 0.318356 0.460898
O O14 0.000000 0.630582 0.250000
O O15 0.000000 0.872986 0.250000
#
# Coordination Sequence:
#
# PCOD8141484 Si02
#       7
#     8   8   8   8   8   4   8
#     4   9  22  42  62  88 128 164 201 254 314 383
#     4  10  22  42  66  96 123 156 203 252 333 374
#     4  10  21  37  55  80 126 170 211 252 311 347
#     4  12  22  32  56  88 124 166 224 267 294 351
#     4  11  20  35  59  89 126 164 206 261 303 365
#     4  10  22  42  70  94 122 154 194 266 316 404
#     4  11  21  37  57  82 115 169 213 258 299 363
#
# _framework density 20.282235
#
# number of rings (size 3 to 8) (size 9 to 14) (size 15 to 20)
#    0.000    1.538    3.846    0.923    2.154    0.615 
#    0.000    5.385    0.000    0.000    0.000    0.000 
#    0.000    0.000    0.000    0.000    0.000    0.000 
#
# Total GULP energy -322114.801097 kJ/mol
# GULP energy per Si atom -12389.030811 kJ/mol
# Density = 2.023607 g / cm^3
# Si number density = 20.282235 Si / 1000 Ang^3
#
#
#
# Elastic Constant Matrix: (Units=GPa)
#
#
# Indices 1 2 3 4 5 6 
#
# 1 137.1393 59.8066 56.0805 0.0000 -14.9337 0.0000
# 2 59.8066 102.5556 35.1591 0.0000 -9.4790 0.0000
# 3 56.0805 35.1591 83.7497 0.0000 -14.8682 0.0000
# 4 0.0000 0.0000 0.0000 16.8617 0.0000 -1.0171
# 5 -14.9337 -9.4790 -14.8682 0.0000 39.4809 0.0000
# 6 0.0000 0.0000 0.0000 -1.0171 0.0000 19.0917
#
#
#
# Elastic Compliance Matrix: (Units=1/GPa)
#
#
# Indices 1 2 3 4 5 6 
#
# 1 0.011870 -0.004859 -0.005699 0.000000 0.001177 0.000000
# 2 -0.004859 0.013417 -0.002286 0.000000 0.000522 0.000000
# 3 -0.005699 -0.002286 0.017399 0.000000 0.003848 0.000000
# 4 0.000000 0.000000 0.000000 0.059497 0.000000 0.003170
# 5 0.001177 0.000522 0.003848 0.000000 0.027348 0.000000
# 6 0.000000 0.000000 0.000000 0.003170 0.000000 0.052548
#
#
# Mechanical properties :
#
#
# Convention : Reuss Voigt Hill
#
# Bulk Modulus (GPa) = 58.83439 69.50410 64.16925
# Shear Modulus (GPa) = 23.42651 26.58009 25.00330
#
# Velocity S-wave (km/s) = 3.40225 3.62402 3.51489
# Velocity P-wave (km/s) = 6.67118 7.20099 6.94114
#
# Compressibility (1/GPa) = 0.01699686
#
# Stress axis : x y z
#
# Youngs Moduli (GPa) = 84.24748 74.53502 57.47310
#
# Poissons Ratio (x) = 0.36219 0.32756
# Poissons Ratio (y) = 0.40939 0.13137
# Poissons Ratio (z) = 0.48015 0.17037
#
# Static dielectric constant tensor:
#      x y z
#    x 4.121890 0.000000 -0.191550 
#    y 0.000000 3.711790 0.000000 
#    z -0.191550 0.000000 3.753620 
# 
# 
# High freq. dielectric constant tensor:
#      x y z
#    x 1.810110 0.000000 -0.006950 
#    y 0.000000 1.773050 0.000000 
#    z -0.006950 0.000000 1.783180 
# 
# From -- ./inp_files/35371.got.cif
#   From: 2010.06.25/outbox.cif.g09.slc.cpg/sg15_18_cif.got.tgz:35371.got - 2010.06.28 07:06:18.
