data_PCOD8141226
_publ_section_title
;
Structure prediction by ZEFSAII (Michael W. Deem and Ramdas Pophale) SiO2 
 PCOD8141226
Probable space group: C 2/C
;
_chemical_formula_sum "Si O2"
_cell_formula_units_Z 56
_cell_length_a 5.057147
_cell_length_b 16.847517
_cell_length_c 32.249304
_cell_angle_alpha 90.000000
_cell_angle_beta 108.278228
_cell_angle_gamma 90.000000
_cell_volume 2609.019063
_symmetry_space_group_name_H-M "C 2/C"
_symmetry_group_IT_number 15
_symmetry_cell_setting 'monoclinic'
loop_
_space_group_symop_operation_xyz
x,y,z
-x,y,1/2-z
-x,-y,-z
x,-y,1/2+z
1/2+x,1/2+y,z
1/2-x,1/2+y,1/2-z
1/2-x,1/2-y,-z
1/2+x,1/2-y,1/2+z
loop_
_atom_site_type_symbol
_atom_site_label
_atom_site_fract_x
_atom_site_fract_y
_atom_site_fract_z
Si Si1 0.273206 0.158184 0.388354
Si Si2 0.839010 0.657927 0.166701
Si Si3 0.349532 0.907799 0.522676
Si Si4 0.241172 0.907798 0.022676
Si Si5 0.500000 0.946697 0.750000
Si Si6 0.719789 0.341816 0.111646
Si Si7 0.827799 0.842075 0.166701
Si Si8 0.000000 0.946700 0.250000
O O1 0.399885 0.138161 0.349634
O O2 0.443211 0.105495 0.429070
O O3 0.304577 0.250000 0.402284
O O4 0.947073 0.136154 0.371490
O O5 0.859469 0.750001 0.179730
O O6 0.848421 0.607713 0.208856
O O7 0.495081 0.869668 0.488468
O O8 0.041212 0.869667 0.511533
O O9 0.278754 0.000000 0.514378
O O10 0.226935 0.894504 0.070930
O O11 0.726655 0.999998 0.738328
O O12 0.461114 0.363851 0.128509
O O13 0.001352 0.361838 0.150366
O O14 0.987000 0.892290 0.208856
#
# Coordination Sequence:
#
# PCOD8141226 Si02
#       8
#     8   8   8   8   4   8   8   4
#     4  10  21  37  60  86 111 149 198 239 282 340
#     4  10  22  41  61  84 118 156 191 234 292 348
#     4  10  21  36  54  80 115 153 190 233 290 346
#     4  10  21  36  54  80 115 153 190 233 290 346
#     4  12  25  40  61  92 120 148 194 240 285 342
#     4  10  21  37  60  86 111 149 198 239 282 340
#     4  10  22  41  61  84 118 156 191 234 292 348
#     4  12  25  40  61  92 120 148 194 240 285 342
#
# _framework density 21.464003999999999
#
# number of rings (size 3 to 8) (size 9 to 14) (size 15 to 20)
#    0.000    1.714    0.000    3.857    0.000    4.571 
#    0.000    5.714    0.000    0.000    0.000    0.000 
#    0.000    0.000    0.000    0.000    0.000    0.000 
#
# Total GULP energy -347155.007806 kJ/mol
# GULP energy per Si atom -12398.393136 kJ/mol
# Density = 2.141515 g / cm^3
# Si number density = 21.464004 Si / 1000 Ang^3
#
#
#
# Elastic Constant Matrix: (Units=GPa)
#
#
# Indices 1 2 3 4 5 6 
#
# 1 137.4611 41.5054 30.9895 0.0000 -2.5111 0.0000
# 2 41.5054 41.8477 40.5639 0.0000 -0.0434 0.0000
# 3 30.9895 40.5639 102.3108 0.0000 0.9277 0.0000
# 4 0.0000 0.0000 0.0000 27.0011 0.0000 0.1613
# 5 -2.5111 -0.0434 0.9277 0.0000 25.4649 0.0000
# 6 0.0000 0.0000 0.0000 0.1613 0.0000 23.4077
#
#
#
# Elastic Compliance Matrix: (Units=1/GPa)
#
#
# Indices 1 2 3 4 5 6 
#
# 1 0.010557 -0.011956 0.001534 0.000000 0.000965 0.000000
# 2 -0.011956 0.052364 -0.017135 0.000000 -0.000465 0.000000
# 3 0.001534 -0.017135 0.016107 0.000000 -0.000465 0.000000
# 4 0.000000 0.000000 0.000000 0.037037 0.000000 -0.000255
# 5 0.000965 -0.000465 -0.000465 0.000000 0.039381 0.000000
# 6 0.000000 0.000000 0.000000 -0.000255 0.000000 0.042723
#
#
# Mechanical properties :
#
#
# Convention : Reuss Voigt Hill
#
# Bulk Modulus (GPa) = 41.81856 56.41527 49.11692
# Shear Modulus (GPa) = 19.13837 26.41212 22.77524
#
# Velocity S-wave (km/s) = 2.98929 3.51170 3.26097
# Velocity P-wave (km/s) = 5.60713 6.54090 6.09193
#
# Compressibility (1/GPa) = 0.02391283
#
# Stress axis : x y z
#
# Youngs Moduli (GPa) = 94.72642 19.09708 62.08299
#
# Poissons Ratio (x) = 0.22833 -0.09524
# Poissons Ratio (y) = 1.13259 1.06382
# Poissons Ratio (z) = -0.14532 0.32724
#
# Static dielectric constant tensor:
#      x y z
#    x 4.472250 0.000000 -0.040200 
#    y 0.000000 3.697980 0.000000 
#    z -0.040200 0.000000 3.577310 
# 
# 
# High freq. dielectric constant tensor:
#      x y z
#    x 1.869980 0.000000 -0.001440 
#    y 0.000000 1.823620 0.000000 
#    z -0.001440 0.000000 1.837910 
# 
# From -- ./inp_files/286128.got.cif
#   From: 2010.06.25/outbox.cif.g09.slc.cpg/sg15_144_cif.got.tgz:286128.got - 2010.06.28 07:06:18.
