data_PCOD8141813
_publ_section_title
;
Structure prediction by ZEFSAII (Michael W. Deem and Ramdas Pophale) SiO2 
 PCOD8141813
Probable space group: C 2/C
;
_chemical_formula_sum "Si O2"
_cell_formula_units_Z 40
_cell_length_a 8.045943
_cell_length_b 17.597529
_cell_length_c 17.657044
_cell_angle_alpha 90.000000
_cell_angle_beta 45.131425
_cell_angle_gamma 90.000000
_cell_volume 1771.844257
_symmetry_space_group_name_H-M "C 2/C"
_symmetry_group_IT_number 15
_symmetry_cell_setting 'monoclinic'
loop_
_space_group_symop_operation_xyz
x,y,z
-x,y,1/2-z
-x,-y,-z
x,-y,1/2+z
1/2+x,1/2+y,z
1/2-x,1/2+y,1/2-z
1/2-x,1/2-y,-z
1/2+x,1/2-y,1/2+z
loop_
_atom_site_type_symbol
_atom_site_label
_atom_site_fract_x
_atom_site_fract_y
_atom_site_fract_z
Si Si1 0.080607 0.583795 0.305594
Si Si2 0.917160 0.239483 0.544584
Si Si3 0.524634 0.661215 0.129653
Si Si4 0.216594 0.859829 0.044680
Si Si5 0.258599 0.492374 0.887741
O O1 0.245689 0.658208 0.237162
O O2 0.243341 0.523635 0.301598
O O3 0.000000 0.549281 0.250000
O O4 0.852318 0.608660 0.426137
O O5 0.663656 0.279603 0.639663
O O6 0.914402 0.183197 0.475019
O O7 0.990511 0.189793 0.593700
O O8 0.104420 0.306309 0.467127
O O9 0.618354 0.576043 0.108835
O O10 0.120624 0.927098 0.129846
O O11 0.000000 0.500000 0.000000
#
# Coordination Sequence:
#
# PCOD8141813 Si02
#       5
#     8   8   8   8   8
#     4  11  21  39  63  94 125 172 216 265 318 377
#     4  10  21  37  65  99 121 166 210 258 326 389
#     4  11  21  37  67  93 126 165 217 257 318 387
#     4  10  21  42  66  91 127 168 215 259 323 386
#     4  10  21  39  64  90 121 169 216 257 315 390
#
# _framework density 22.575347000000001
#
# number of rings (size 3 to 8) (size 9 to 14) (size 15 to 20)
#    0.000    1.600    6.000    0.600    0.000    0.800 
#    0.000    0.000   17.600    9.600    0.000    0.000 
#    0.000    0.000    0.000    0.000    0.000    0.000 
#
# Total GULP energy -247808.078143 kJ/mol
# GULP energy per Si atom -12390.403907 kJ/mol
# Density = 2.252396 g / cm^3
# Si number density = 22.575347 Si / 1000 Ang^3
#
#
#
# Elastic Constant Matrix: (Units=GPa)
#
#
# Indices 1 2 3 4 5 6 
#
# 1 121.9760 68.8465 21.2346 -0.0011 27.6609 0.0009
# 2 68.8465 141.6316 35.2027 0.0000 16.1820 -0.0002
# 3 21.2346 35.2027 67.7595 -0.0001 4.4631 0.0000
# 4 -0.0011 0.0000 -0.0001 15.6254 0.0004 7.3857
# 5 27.6609 16.1820 4.4631 0.0004 31.9870 -0.0002
# 6 0.0009 -0.0002 0.0000 7.3857 -0.0002 33.9306
#
#
#
# Elastic Compliance Matrix: (Units=1/GPa)
#
#
# Indices 1 2 3 4 5 6 
#
# 1 0.013287 -0.005249 -0.000863 0.000001 -0.008715 -0.000001
# 2 -0.005249 0.010600 -0.003843 0.000000 -0.000287 0.000000
# 3 -0.000863 -0.003843 0.017004 0.000000 0.000318 0.000000
# 4 0.000001 0.000000 0.000000 0.071338 -0.000002 -0.015528
# 5 -0.008715 -0.000287 0.000318 -0.000002 0.038900 0.000001
# 6 -0.000001 0.000000 0.000000 -0.015528 0.000001 0.032852
#
#
# Mechanical properties :
#
#
# Convention : Reuss Voigt Hill
#
# Bulk Modulus (GPa) = 47.66108 64.65941 56.16024
# Shear Modulus (GPa) = 23.70956 30.04748 26.87852
#
# Velocity S-wave (km/s) = 3.24426 3.65223 3.45427
# Velocity P-wave (km/s) = 5.93224 6.81827 6.39063
#
# Compressibility (1/GPa) = 0.02098148
#
# Stress axis : x y z
#
# Youngs Moduli (GPa) = 75.25968 94.33961 58.80881
#
# Poissons Ratio (x) = 0.49516 0.05076
# Poissons Ratio (y) = 0.39501 0.22601
# Poissons Ratio (z) = 0.06496 0.36257
#
# Static dielectric constant tensor:
#      x y z
#    x 4.662570 0.000000 0.402010 
#    y 0.000000 4.726060 0.000010 
#    z 0.402010 0.000010 6.146560 
# 
# 
# High freq. dielectric constant tensor:
#      x y z
#    x 1.908060 0.000000 -0.002930 
#    y 0.000000 1.879250 0.000000 
#    z -0.002930 0.000000 1.867100 
# 
# From -- ./inp_files/190172.got.cif
#   From: 2010.06.25/outbox.cif.g09.slc.cpg/sg15_96_cif.got.tgz:190172.got - 2010.06.28 07:06:18.
