data_PCOD8141546
_publ_section_title
;
Structure prediction by ZEFSAII (Michael W. Deem and Ramdas Pophale) SiO2 
 PCOD8141546
Probable space group: C 2/C
;
_chemical_formula_sum "Si O2"
_cell_formula_units_Z 40
_cell_length_a 8.776920
_cell_length_b 20.100257
_cell_length_c 10.366473
_cell_angle_alpha 90.000000
_cell_angle_beta 82.480990
_cell_angle_gamma 90.000000
_cell_volume 1813.110791
_symmetry_space_group_name_H-M "C 2/C"
_symmetry_group_IT_number 15
_symmetry_cell_setting 'monoclinic'
loop_
_space_group_symop_operation_xyz
x,y,z
-x,y,1/2-z
-x,-y,-z
x,-y,1/2+z
1/2+x,1/2+y,z
1/2-x,1/2+y,1/2-z
1/2-x,1/2-y,-z
1/2+x,1/2-y,1/2+z
loop_
_atom_site_type_symbol
_atom_site_label
_atom_site_fract_x
_atom_site_fract_y
_atom_site_fract_z
Si Si1 0.215597 0.183639 0.427394
Si Si2 0.000000 0.721495 0.250000
Si Si3 0.000000 0.768809 0.750000
Si Si4 0.180875 0.051916 0.872554
Si Si5 0.679557 0.449433 0.082041
Si Si6 0.717885 0.297160 0.387244
O O1 0.250000 0.250000 0.500000
O O2 0.359115 0.174635 0.311683
O O3 0.215670 0.124312 0.529122
O O4 0.050832 0.184972 0.367256
O O5 0.947257 0.773969 0.146619
O O6 0.144835 0.719558 0.725697
O O7 0.249224 0.041324 0.719500
O O8 0.218893 0.125380 0.920423
O O9 0.000732 0.038998 0.886990
O O10 0.252985 0.001333 0.970449
O O11 0.750000 0.250000 0.500000
#
# Coordination Sequence:
#
# PCOD8141546 Si02
#       6
#     8   4   4   8   8   8
#     4  11  21  38  61  87 120 158 200 253 305 360
#     4  10  22  36  58  90 122 152 202 256 304 356
#     4  10  22  34  58  90 116 150 200 248 298 354
#     4  10  21  37  58  87 120 158 202 248 301 362
#     4  10  21  37  59  86 121 160 200 248 302 360
#     4  11  21  37  60  88 119 156 199 246 297 359
#
# _framework density 22.061532
#
# number of rings (size 3 to 8) (size 9 to 14) (size 15 to 20)
#    0.000    1.600    0.000    7.200    0.000    6.400 
#    0.000    1.000    0.000    7.200    0.000    0.000 
#    0.000    0.000    0.000    0.000    0.000    0.000 
#
# Total GULP energy -247862.930392 kJ/mol
# GULP energy per Si atom -12393.146520 kJ/mol
# Density = 2.201132 g / cm^3
# Si number density = 22.061532 Si / 1000 Ang^3
#
#
#
# Elastic Constant Matrix: (Units=GPa)
#
#
# Indices 1 2 3 4 5 6 
#
# 1 70.9684 16.1965 20.4472 0.0000 18.6001 0.0000
# 2 16.1965 146.1317 89.7178 0.0000 21.0700 0.0000
# 3 20.4472 89.7178 155.5385 0.0000 33.8732 0.0000
# 4 0.0000 0.0000 0.0000 43.5517 0.0000 3.1324
# 5 18.6001 21.0700 33.8732 0.0000 30.1949 0.0000
# 6 0.0000 0.0000 0.0000 3.1324 0.0000 21.9081
#
#
#
# Elastic Compliance Matrix: (Units=1/GPa)
#
#
# Indices 1 2 3 4 5 6 
#
# 1 0.016840 -0.000617 0.000407 0.000000 -0.010399 0.000000
# 2 -0.000617 0.010630 -0.005978 0.000000 -0.000331 0.000000
# 3 0.000407 -0.005978 0.011870 0.000000 -0.009395 0.000000
# 4 0.000000 0.000000 0.000000 0.023200 0.000000 -0.003317
# 5 -0.010399 -0.000331 -0.009395 0.000000 0.050295 0.000000
# 6 0.000000 0.000000 0.000000 -0.003317 0.000000 0.046119
#
#
# Mechanical properties :
#
#
# Convention : Reuss Voigt Hill
#
# Bulk Modulus (GPa) = 37.08743 69.48463 53.28603
# Shear Modulus (GPa) = 27.72878 35.54940 31.63909
#
# Velocity S-wave (km/s) = 3.54910 4.01855 3.79110
# Velocity P-wave (km/s) = 5.80019 7.28669 6.58552
#
# Compressibility (1/GPa) = 0.02696331
#
# Stress axis : x y z
#
# Youngs Moduli (GPa) = 59.38274 94.07753 84.24419
#
# Poissons Ratio (x) = 0.05802 -0.03427
# Poissons Ratio (y) = 0.03662 0.50363
# Poissons Ratio (z) = -0.02415 0.56241
#
# Static dielectric constant tensor:
#      x y z
#    x 2.572450 0.000000 0.999550 
#    y 0.000000 1.643200 0.000000 
#    z 0.999550 0.000000 3.786800 
# 
# 
# High freq. dielectric constant tensor:
#      x y z
#    x 1.843200 0.000000 -0.000950 
#    y 0.000000 1.848570 0.000000 
#    z -0.000950 0.000000 1.892410 
# 
# From -- ./inp_files/76752.got.cif
#   From: 2010.06.25/outbox.cif.g09.slc.cpg/sg15_39_cif.got.tgz:76752.got - 2010.06.28 07:06:18.
