data_PCOD8141492
_publ_section_title
;
Structure prediction by ZEFSAII (Michael W. Deem and Ramdas Pophale) SiO2 
 PCOD8141492
Probable space group: C 2/C
;
_chemical_formula_sum "Si O2"
_cell_formula_units_Z 40
_cell_length_a 7.829032
_cell_length_b 22.948704
_cell_length_c 9.864307
_cell_angle_alpha 90.000000
_cell_angle_beta 94.292631
_cell_angle_gamma 90.000000
_cell_volume 1767.310281
_symmetry_space_group_name_H-M "C 2/C"
_symmetry_group_IT_number 15
_symmetry_cell_setting 'monoclinic'
loop_
_space_group_symop_operation_xyz
x,y,z
-x,y,1/2-z
-x,-y,-z
x,-y,1/2+z
1/2+x,1/2+y,z
1/2-x,1/2+y,1/2-z
1/2-x,1/2-y,-z
1/2+x,1/2-y,1/2+z
loop_
_atom_site_type_symbol
_atom_site_label
_atom_site_fract_x
_atom_site_fract_y
_atom_site_fract_z
Si Si1 0.308223 0.476449 0.788964
Si Si2 0.111718 0.824459 0.891589
Si Si3 0.795784 0.562697 0.487631
Si Si4 0.976564 0.262256 0.895492
Si Si5 0.101181 0.381238 0.896473
O O1 0.500000 0.481191 0.750000
O O2 0.197270 0.479430 0.644316
O O3 0.277165 0.416491 0.875875
O O4 0.254677 0.530805 0.877691
O O5 0.150977 0.888573 0.951341
O O6 0.290145 0.791906 0.879778
O O7 0.000000 0.829249 0.750000
O O8 0.001410 0.788129 0.993408
O O9 0.988557 0.588557 0.509356
O O10 0.000000 0.232892 0.750000
O O11 0.120980 0.312663 0.934557
O O12 0.000000 0.383273 0.750000
#
# Coordination Sequence:
#
# PCOD8141492 Si02
#       5
#     8   8   8   8   8
#     4  11  21  35  55  82 115 151 194 242 292 350
#     4  10  21  38  59  85 118 154 194 244 299 352
#     4  10  21  37  56  80 115 156 195 237 293 357
#     4   9  19  38  61  86 115 151 197 243 293 359
#     4   8  17  36  59  80 112 154 190 237 300 357
#
# _framework density 22.633265000000002
#
# number of rings (size 3 to 8) (size 9 to 14) (size 15 to 20)
#    0.000    2.400    0.000    3.000    0.000    1.600 
#    0.000    6.000    0.000    1.200    0.000    0.000 
#    0.000    1.600    0.000    0.000    0.000    0.000 
#
# Total GULP energy -247785.035360 kJ/mol
# GULP energy per Si atom -12389.251768 kJ/mol
# Density = 2.258175 g / cm^3
# Si number density = 22.633265 Si / 1000 Ang^3
#
#
#
# Elastic Constant Matrix: (Units=GPa)
#
#
# Indices 1 2 3 4 5 6 
#
# 1 49.9031 20.7096 27.0481 0.0000 -29.0780 0.0000
# 2 20.7096 111.8270 84.9927 0.0000 -23.1350 0.0000
# 3 27.0481 84.9927 119.1978 0.0000 -34.1007 0.0000
# 4 0.0000 0.0000 0.0000 41.2869 0.0000 -10.4998
# 5 -29.0780 -23.1350 -34.1007 0.0000 39.0487 0.0000
# 6 0.0000 0.0000 0.0000 -10.4998 0.0000 31.2003
#
#
#
# Elastic Compliance Matrix: (Units=1/GPa)
#
#
# Indices 1 2 3 4 5 6 
#
# 1 0.035565 -0.001587 0.000491 0.000000 0.025973 0.000000
# 2 -0.001587 0.019611 -0.014180 0.000000 -0.001946 0.000000
# 3 0.000491 -0.014180 0.021449 0.000000 0.010696 0.000000
# 4 0.000000 0.000000 0.000000 0.026488 0.000000 0.008914
# 5 0.025973 -0.001946 0.010696 0.000000 0.053138 0.000000
# 6 0.000000 0.000000 0.000000 0.008914 0.000000 0.035051
#
#
# Mechanical properties :
#
#
# Convention : Reuss Voigt Hill
#
# Bulk Modulus (GPa) = 21.70393 60.71430 41.20912
# Shear Modulus (GPa) = 21.07835 32.18567 26.63201
#
# Velocity S-wave (km/s) = 3.05503 3.77510 3.43399
# Velocity P-wave (km/s) = 4.69622 6.77387 5.82837
#
# Compressibility (1/GPa) = 0.04607460
#
# Stress axis : x y z
#
# Youngs Moduli (GPa) = 28.11734 50.99153 46.62267
#
# Poissons Ratio (x) = 0.08090 -0.02291
# Poissons Ratio (y) = 0.04461 0.66112
# Poissons Ratio (z) = -0.01382 0.72307
#
# Static dielectric constant tensor:
#      x y z
#    x 4.274060 0.000000 -0.530650 
#    y 0.000000 4.505060 0.000000 
#    z -0.530650 0.000000 4.121930 
# 
# 
# High freq. dielectric constant tensor:
#      x y z
#    x 1.892460 0.000000 -0.033040 
#    y 0.000000 1.888550 0.000000 
#    z -0.033040 0.000000 1.873240 
# 
# From -- ./inp_files/23608.got.cif
#   From: 2010.06.25/outbox.cif.g09.slc.cpg/sg15_12_cif.got.tgz:23608.got - 2010.06.28 07:06:18.
