data_PCOD8141376
_publ_section_title
;
Structure prediction by ZEFSAII (Michael W. Deem and Ramdas Pophale) SiO2 
 PCOD8141376
Probable space group: C 2/C
;
_chemical_formula_sum "Si O2"
_cell_formula_units_Z 40
_cell_length_a 14.927237
_cell_length_b 16.761855
_cell_length_c 13.594967
_cell_angle_alpha 90.000000
_cell_angle_beta 144.170023
_cell_angle_gamma 90.000000
_cell_volume 1991.218809
_symmetry_space_group_name_H-M "C 2/C"
_symmetry_group_IT_number 15
_symmetry_cell_setting 'monoclinic'
loop_
_space_group_symop_operation_xyz
x,y,z
-x,y,1/2-z
-x,-y,-z
x,-y,1/2+z
1/2+x,1/2+y,z
1/2-x,1/2+y,1/2-z
1/2-x,1/2-y,-z
1/2+x,1/2-y,1/2+z
loop_
_atom_site_type_symbol
_atom_site_label
_atom_site_fract_x
_atom_site_fract_y
_atom_site_fract_z
Si Si1 0.339561 0.012479 0.650132
Si Si2 0.523085 0.254139 0.485100
Si Si3 0.829936 0.908485 0.134101
Si Si4 0.689247 0.161338 0.338239
Si Si5 0.755041 0.141010 0.780197
O O1 0.500000 0.042743 0.750000
O O2 0.225647 0.994484 0.456826
O O3 0.359054 0.930438 0.731415
O O4 0.264562 0.080665 0.648624
O O5 0.445225 0.220856 0.314516
O O6 0.653466 0.318120 0.577224
O O7 0.592942 0.183292 0.613263
O O8 0.387892 0.296069 0.427577
O O9 0.814105 0.905762 0.236316
O O10 0.000000 0.892089 0.250000
O O11 0.722096 0.838933 0.986506
#
# Coordination Sequence:
#
# PCOD8141376 Si02
#       5
#     8   8   8   8   8
#     4  10  23  42  59  86 118 164 209 239 287 358
#     4  10  21  36  61  92 121 160 183 251 306 353
#     4  10  21  37  59  94 118 158 188 240 305 346
#     4   9  21  36  54  91 122 148 201 227 306 354
#     4  11  22  40  63  88 124 153 202 245 301 355
#
# _framework density 20.088200000000001
#
# number of rings (size 3 to 8) (size 9 to 14) (size 15 to 20)
#    1.200    0.800    2.000    1.200    0.000   11.200 
#    0.000    3.000    0.000    0.000    0.000    0.000 
#    0.000    0.000    0.000    0.000    0.000    0.000 
#
# Total GULP energy -247792.329107 kJ/mol
# GULP energy per Si atom -12389.616455 kJ/mol
# Density = 2.004248 g / cm^3
# Si number density = 20.088200 Si / 1000 Ang^3
#
#
#
# Elastic Constant Matrix: (Units=GPa)
#
#
# Indices 1 2 3 4 5 6 
#
# 1 92.5735 49.3372 46.6003 0.0000 17.3918 0.0000
# 2 49.3372 58.4157 39.7870 0.0000 5.0956 0.0000
# 3 46.6003 39.7870 85.2226 0.0000 20.5336 -0.0001
# 4 0.0000 0.0000 0.0000 15.6251 0.0000 11.9517
# 5 17.3918 5.0956 20.5336 0.0000 23.4309 0.0000
# 6 0.0000 0.0000 -0.0001 11.9517 0.0000 14.6969
#
#
#
# Elastic Compliance Matrix: (Units=1/GPa)
#
#
# Indices 1 2 3 4 5 6 
#
# 1 0.023140 -0.017365 -0.001670 0.000000 -0.011936 0.000000
# 2 -0.017365 0.038838 -0.012305 0.000000 0.015227 0.000000
# 3 -0.001670 -0.012305 0.022119 0.000000 -0.015468 0.000000
# 4 0.000000 0.000000 0.000000 0.169323 0.000000 -0.137695
# 5 -0.011936 0.015227 -0.015468 0.000000 0.061782 0.000000
# 6 0.000000 0.000000 0.000000 -0.137695 0.000000 0.180016
#
#
# Mechanical properties :
#
#
# Convention : Reuss Voigt Hill
#
# Bulk Modulus (GPa) = 46.69461 56.40674 51.55067
# Shear Modulus (GPa) = 8.84896 17.44973 13.14934
#
# Velocity S-wave (km/s) = 2.10110 2.95049 2.56125
# Velocity P-wave (km/s) = 5.40198 6.30458 5.87065
#
# Compressibility (1/GPa) = 0.02141575
#
# Stress axis : x y z
#
# Youngs Moduli (GPa) = 43.21482 25.74799 45.20984
#
# Poissons Ratio (x) = 0.44712 0.07552
# Poissons Ratio (y) = 0.75043 0.55632
# Poissons Ratio (z) = 0.07218 0.31684
#
# Static dielectric constant tensor:
#      x y z
#    x 3.268930 0.000000 0.224830 
#    y 0.000000 3.509440 0.000000 
#    z 0.224830 0.000000 3.904420 
# 
# 
# High freq. dielectric constant tensor:
#      x y z
#    x 1.753220 0.000000 0.032550 
#    y 0.000000 1.766660 0.000000 
#    z 0.032550 0.000000 1.789780 
# 
# From -- ./inp_files/48149.got.cif
#   From: 2010.06.25/outbox.cif.g09.slc.cpg/sg15_25_cif.got.tgz:48149.got - 2010.06.28 07:06:18.
