data_PCOD8141997
_publ_section_title
;
Structure prediction by ZEFSAII (Michael W. Deem and Ramdas Pophale) SiO2 
 PCOD8141997
Probable space group: C 2/C
;
_chemical_formula_sum "Si O2"
_cell_formula_units_Z 56
_cell_length_a 10.384429
_cell_length_b 9.340368
_cell_length_c 26.966803
_cell_angle_alpha 90.000000
_cell_angle_beta 75.554210
_cell_angle_gamma 90.000000
_cell_volume 2532.933117
_symmetry_space_group_name_H-M "C 2/C"
_symmetry_group_IT_number 15
_symmetry_cell_setting 'monoclinic'
loop_
_space_group_symop_operation_xyz
x,y,z
-x,y,1/2-z
-x,-y,-z
x,-y,1/2+z
1/2+x,1/2+y,z
1/2-x,1/2+y,1/2-z
1/2-x,1/2-y,-z
1/2+x,1/2-y,1/2+z
loop_
_atom_site_type_symbol
_atom_site_label
_atom_site_fract_x
_atom_site_fract_y
_atom_site_fract_z
Si Si1 0.173595 0.902519 0.627015
Si Si2 0.062961 0.678903 0.445445
Si Si3 0.857530 0.560277 0.967799
Si Si4 0.848316 0.404957 0.777039
Si Si5 0.595028 0.544708 0.535281
Si Si6 0.282415 0.898614 0.193043
Si Si7 0.083649 0.614135 0.644966
O O1 0.319470 0.833484 0.605175
O O2 0.095816 0.776906 0.663936
O O3 0.096089 0.943890 0.583761
O O4 0.179737 0.039588 0.662361
O O5 0.123321 0.695074 0.495941
O O6 0.993793 0.525569 0.450870
O O7 0.956633 0.800545 0.441673
O O8 0.832591 0.617845 0.914865
O O9 0.742740 0.452743 0.998102
O O10 0.760467 0.263014 0.790860
O O11 0.780560 0.505602 0.742557
O O12 0.846330 0.495675 0.827885
O O13 0.000000 0.363280 0.750000
O O14 0.500000 0.500000 0.500000
O O15 0.427309 0.911068 0.154513
#
# Coordination Sequence:
#
# PCOD8141997 Si02
#       7
#     8   8   8   8   8   8   8
#     4  11  24  40  65  95 130 168 216 263 315 378
#     4  10  21  39  59  88 132 172 214 263 308 366
#     4  10  21  38  60  89 127 176 213 260 311 369
#     4  10  25  44  68  94 126 159 207 263 323 388
#     4  11  23  37  58  94 130 175 223 260 309 371
#     4  11  24  45  67  95 125 162 207 263 325 384
#     4  11  23  41  65  95 128 166 210 262 319 377
#
# _framework density 22.108757000000001
#
# number of rings (size 3 to 8) (size 9 to 14) (size 15 to 20)
#    0.000    1.429    1.429    3.000    2.000    6.857 
#    0.000    0.000    0.000    0.000    0.000    0.000 
#    0.000    0.000    0.000    0.000    0.000    0.000 
#
# Total GULP energy -347082.838985 kJ/mol
# GULP energy per Si atom -12395.815678 kJ/mol
# Density = 2.205844 g / cm^3
# Si number density = 22.108757 Si / 1000 Ang^3
#
#
#
# Elastic Constant Matrix: (Units=GPa)
#
#
# Indices 1 2 3 4 5 6 
#
# 1 77.2439 36.2868 24.7953 0.0000 20.8320 0.0000
# 2 36.2868 131.3635 44.4805 0.0000 11.6985 0.0000
# 3 24.7953 44.4805 87.9284 0.0000 13.4233 0.0000
# 4 0.0000 0.0000 0.0000 31.7867 0.0000 1.0380
# 5 20.8320 11.6985 13.4233 0.0000 24.4166 0.0000
# 6 0.0000 0.0000 0.0000 1.0380 0.0000 46.3298
#
#
#
# Elastic Compliance Matrix: (Units=1/GPa)
#
#
# Indices 1 2 3 4 5 6 
#
# 1 0.018675 -0.003466 -0.001456 0.000000 -0.013472 0.000000
# 2 -0.003466 0.009921 -0.004112 0.000000 0.000464 0.000000
# 3 -0.001456 -0.004112 0.014599 0.000000 -0.004813 0.000000
# 4 0.000000 0.000000 0.000000 0.031483 0.000000 -0.000705
# 5 -0.013472 0.000464 -0.004813 0.000000 0.054873 0.000000
# 6 0.000000 0.000000 0.000000 -0.000705 0.000000 0.021600
#
#
# Mechanical properties :
#
#
# Convention : Reuss Voigt Hill
#
# Bulk Modulus (GPa) = 39.79981 56.40675 48.10328
# Shear Modulus (GPa) = 28.15399 33.23817 30.69608
#
# Velocity S-wave (km/s) = 3.57239 3.88157 3.73018
# Velocity P-wave (km/s) = 5.92088 6.75703 6.35273
#
# Compressibility (1/GPa) = 0.02512575
#
# Stress axis : x y z
#
# Youngs Moduli (GPa) = 53.54779 100.79732 68.49970
#
# Poissons Ratio (x) = 0.34934 0.09976
# Poissons Ratio (y) = 0.18558 0.28169
# Poissons Ratio (z) = 0.07798 0.41451
#
# Static dielectric constant tensor:
#      x y z
#    x 4.127730 0.000000 0.150410 
#    y 0.000000 4.026450 0.000000 
#    z 0.150410 0.000000 4.010910 
# 
# 
# High freq. dielectric constant tensor:
#      x y z
#    x 1.871840 0.000000 0.005570 
#    y 0.000000 1.876180 0.000000 
#    z 0.005570 0.000000 1.866180 
# 
# From -- ./inp_files/291538.got.cif
#   From: 2010.06.25/outbox.cif.g09.slc.cpg/sg15_146_cif.got.tgz:291538.got - 2010.06.28 07:06:18.
