data_PCOD8141891
_publ_section_title
;
Structure prediction by ZEFSAII (Michael W. Deem and Ramdas Pophale) SiO2 
 PCOD8141891
Probable space group: C 2/C
;
_chemical_formula_sum "Si O2"
_cell_formula_units_Z 56
_cell_length_a 27.190235
_cell_length_b 8.937973
_cell_length_c 16.249088
_cell_angle_alpha 90.000000
_cell_angle_beta 136.801929
_cell_angle_gamma 90.000000
_cell_volume 2703.141363
_symmetry_space_group_name_H-M "C 2/C"
_symmetry_group_IT_number 15
_symmetry_cell_setting 'monoclinic'
loop_
_space_group_symop_operation_xyz
x,y,z
-x,y,1/2-z
-x,-y,-z
x,-y,1/2+z
1/2+x,1/2+y,z
1/2-x,1/2+y,1/2-z
1/2-x,1/2-y,-z
1/2+x,1/2-y,1/2+z
loop_
_atom_site_type_symbol
_atom_site_label
_atom_site_fract_x
_atom_site_fract_y
_atom_site_fract_z
Si Si1 0.041576 0.347232 0.534464
Si Si2 0.816872 0.333902 0.544803
Si Si3 0.682098 0.183851 0.118487
Si Si4 0.173885 0.324233 0.423861
Si Si5 0.535354 0.325514 0.705553
Si Si6 0.726486 0.582588 0.794181
Si Si7 0.410954 0.644322 0.765068
O O1 0.122526 0.389589 0.605810
O O2 0.042282 0.251673 0.619245
O O3 0.000000 0.500000 0.500000
O O4 0.009594 0.244106 0.423613
O O5 0.750000 0.250000 0.500000
O O6 0.823639 0.499251 0.592597
O O7 0.799246 0.347888 0.425690
O O8 0.888130 0.238698 0.655070
O O9 0.706941 0.341791 0.184748
O O10 0.754568 0.086677 0.204973
O O11 0.650530 0.207666 0.989350
O O12 0.250000 0.250000 0.500000
O O13 0.114227 0.247224 0.294612
O O14 0.500000 0.286048 0.750000
O O15 0.540182 0.504730 0.701512
O O16 0.660158 0.585183 0.775889
#
# Coordination Sequence:
#
# PCOD8141891 Si02
#       7
#     8   8   8   8   8   8   8
#     4  11  24  44  65  89 131 175 217 266 324 393
#     4   9  18  37  58  92 122 162 212 263 312 392
#     4  10  21  38  57  94 122 163 210 269 311 385
#     4  11  22  39  68  92 127 170 217 265 334 380
#     4  12  24  43  63  96 134 170 219 269 320 392
#     4   9  20  36  61  88 128 151 214 263 318 368
#     4  10  22  42  63  90 128 171 214 263 326 381
#
# _framework density 20.716638
#
# number of rings (size 3 to 8) (size 9 to 14) (size 15 to 20)
#    0.000    1.714    1.429    3.857    0.000    6.857 
#    5.143    0.000    0.000    0.000    0.000    0.000 
#    0.000    0.000    0.000    0.000    0.000    0.000 
#
# Total GULP energy -347111.272517 kJ/mol
# GULP energy per Si atom -12396.831161 kJ/mol
# Density = 2.066949 g / cm^3
# Si number density = 20.716638 Si / 1000 Ang^3
#
#
#
# Elastic Constant Matrix: (Units=GPa)
#
#
# Indices 1 2 3 4 5 6 
#
# 1 40.9082 13.4211 12.1370 0.0000 0.4651 0.0000
# 2 13.4211 99.8701 28.9873 0.0000 5.2971 0.0000
# 3 12.1370 28.9873 87.1756 0.0000 0.7310 0.0000
# 4 0.0000 0.0000 0.0000 46.6177 0.0000 3.9211
# 5 0.4651 5.2971 0.7310 0.0000 26.3218 0.0000
# 6 0.0000 0.0000 0.0000 3.9211 0.0000 31.1396
#
#
#
# Elastic Compliance Matrix: (Units=1/GPa)
#
#
# Indices 1 2 3 4 5 6 
#
# 1 0.026150 -0.002729 -0.002735 0.000000 0.000163 0.000000
# 2 -0.002729 0.011488 -0.003422 0.000000 -0.002169 0.000000
# 3 -0.002735 -0.003422 0.012986 0.000000 0.000376 0.000000
# 4 0.000000 0.000000 0.000000 0.021681 0.000000 -0.002730
# 5 0.000163 -0.002169 0.000376 0.000000 0.038414 0.000000
# 6 0.000000 0.000000 0.000000 -0.002730 0.000000 0.032457
#
#
# Mechanical properties :
#
#
# Convention : Reuss Voigt Hill
#
# Bulk Modulus (GPa) = 30.43840 37.44943 33.94391
# Shear Modulus (GPa) = 29.08690 32.37638 30.73164
#
# Velocity S-wave (km/s) = 3.75111 3.95754 3.85571
# Velocity P-wave (km/s) = 5.78669 6.24492 6.02017
#
# Compressibility (1/GPa) = 0.03285324
#
# Stress axis : x y z
#
# Youngs Moduli (GPa) = 38.24124 87.04763 77.00316
#
# Poissons Ratio (x) = 0.23756 0.21057
# Poissons Ratio (y) = 0.10436 0.26349
# Poissons Ratio (z) = 0.10457 0.29786
#
# Static dielectric constant tensor:
#      x y z
#    x 3.797080 0.000000 -0.318320 
#    y 0.000000 3.443770 0.000000 
#    z -0.318320 0.000000 4.269890 
# 
# 
# High freq. dielectric constant tensor:
#      x y z
#    x 1.789380 0.000000 -0.003720 
#    y 0.000000 1.814340 0.000000 
#    z -0.003720 0.000000 1.824640 
# 
# From -- ./inp_files/224430.got.cif
#   From: 2010.06.25/outbox.cif.g09.slc.cpg/sg15_113_cif.got.tgz:224430.got - 2010.06.28 07:06:18.
