data_PCOD8141143
_publ_section_title
;
Structure prediction by ZEFSAII (Michael W. Deem and Ramdas Pophale) SiO2 
 PCOD8141143
Probable space group: C 2/C
;
_chemical_formula_sum "Si O2"
_cell_formula_units_Z 52
_cell_length_a 8.924337
_cell_length_b 30.251969
_cell_length_c 14.740594
_cell_angle_alpha 90.000000
_cell_angle_beta 139.950374
_cell_angle_gamma 90.000000
_cell_volume 2560.707562
_symmetry_space_group_name_H-M "C 2/C"
_symmetry_group_IT_number 15
_symmetry_cell_setting 'monoclinic'
loop_
_space_group_symop_operation_xyz
x,y,z
-x,y,1/2-z
-x,-y,-z
x,-y,1/2+z
1/2+x,1/2+y,z
1/2-x,1/2+y,1/2-z
1/2-x,1/2-y,-z
1/2+x,1/2-y,1/2+z
loop_
_atom_site_type_symbol
_atom_site_label
_atom_site_fract_x
_atom_site_fract_y
_atom_site_fract_z
Si Si1 0.996728 0.441318 0.097427
Si Si2 0.767757 0.029301 0.193011
Si Si3 0.627376 0.234442 0.671706
Si Si4 0.474510 0.549369 0.020690
Si Si5 0.310311 0.296766 0.435123
Si Si6 0.500000 0.679101 0.750000
Si Si7 0.118440 0.879361 0.149734
O O1 0.136837 0.486927 0.172347
O O2 0.160206 0.399112 0.192438
O O3 0.891408 0.440507 0.946418
O O4 0.792884 0.441089 0.077120
O O5 0.848510 0.059508 0.315002
O O6 0.000000 0.011779 0.250000
O O7 0.551454 0.282299 0.596439
O O8 0.395248 0.206081 0.586156
O O9 0.771836 0.237664 0.832841
O O10 0.773936 0.209230 0.662428
O O11 0.500000 0.500000 0.000000
O O12 0.534913 0.581492 0.964887
O O13 0.307630 0.346693 0.397676
O O14 0.545446 0.647815 0.857853
#
# Coordination Sequence:
#
# PCOD8141143 Si02
#       7
#     8   8   8   8   8   4   8
#     4  10  21  35  60  79 116 161 201 266 293 361
#     4   9  20  38  55  83 113 161 213 251 310 358
#     4   9  19  39  63  93 122 157 196 245 308 378
#     4  11  22  36  58  86 118 166 212 253 307 356
#     4   9  20  39  67  90 120 160 208 239 305 381
#     4  10  24  36  62  98 126 154 202 252 312 372
#     4  11  23  36  59  92 120 161 207 258 299 363
#
# _framework density 20.306887
#
# number of rings (size 3 to 8) (size 9 to 14) (size 15 to 20)
#    0.000    2.154    1.538    0.462    9.692    3.692 
#    0.000    3.077   10.154    5.538    0.000    0.000 
#    0.000    0.000    0.000    0.000    0.000    0.000 
#
# Total GULP energy -322254.944309 kJ/mol
# GULP energy per Si atom -12394.420935 kJ/mol
# Density = 2.026067 g / cm^3
# Si number density = 20.306887 Si / 1000 Ang^3
#
#
#
# Elastic Constant Matrix: (Units=GPa)
#
#
# Indices 1 2 3 4 5 6 
#
# 1 101.3902 38.8677 26.0318 0.0000 1.8115 0.0000
# 2 38.8677 103.2035 49.5435 0.0000 -5.0583 0.0000
# 3 26.0318 49.5435 114.7865 0.0000 -5.2301 0.0000
# 4 0.0000 0.0000 0.0000 38.7859 0.0000 -12.0823
# 5 1.8115 -5.0583 -5.2301 0.0000 16.6073 0.0000
# 6 0.0000 0.0000 0.0000 -12.0823 0.0000 30.9541
#
#
#
# Elastic Compliance Matrix: (Units=1/GPa)
#
#
# Indices 1 2 3 4 5 6 
#
# 1 0.011737 -0.004061 -0.001039 0.000000 -0.002844 0.000000
# 2 -0.004061 0.013699 -0.004851 0.000000 0.003088 0.000000
# 3 -0.001039 -0.004851 0.011139 0.000000 0.002144 0.000000
# 4 0.000000 0.000000 0.000000 0.029351 0.000000 0.011457
# 5 -0.002844 0.003088 0.002144 0.000000 0.062140 0.000000
# 6 0.000000 0.000000 0.000000 0.011457 0.000000 0.036778
#
#
# Mechanical properties :
#
#
# Convention : Reuss Voigt Hill
#
# Bulk Modulus (GPa) = 59.97508 60.91847 60.44678
# Shear Modulus (GPa) = 26.27373 30.93195 28.60284
#
# Velocity S-wave (km/s) = 3.60089 3.90709 3.75711
# Velocity P-wave (km/s) = 6.84741 7.10055 6.97513
#
# Compressibility (1/GPa) = 0.01667359
#
# Stress axis : x y z
#
# Youngs Moduli (GPa) = 85.19915 72.99674 89.77620
#
# Poissons Ratio (x) = 0.29646 0.09323
# Poissons Ratio (y) = 0.34601 0.43551
# Poissons Ratio (z) = 0.08848 0.35411
#
# Static dielectric constant tensor:
#      x y z
#    x 3.774010 0.000000 -0.207320 
#    y 0.000000 3.475230 0.000000 
#    z -0.207320 0.000000 4.006680 
# 
# 
# High freq. dielectric constant tensor:
#      x y z
#    x 1.796530 0.000000 -0.014520 
#    y 0.000000 1.768620 0.000000 
#    z -0.014520 0.000000 1.791250 
# 
# From -- ./inp_files/139897.got.cif
#   From: 2010.06.25/outbox.cif.g09.slc.cpg/sg15_70_cif.got.tgz:139897.got - 2010.06.28 07:06:18.
