data_PCOD8141442
_publ_section_title
;
Structure prediction by ZEFSAII (Michael W. Deem and Ramdas Pophale) SiO2 
 PCOD8141442
Probable space group: C 2/C
;
_chemical_formula_sum "Si O2"
_cell_formula_units_Z 64
_cell_length_a 28.130675
_cell_length_b 9.376139
_cell_length_c 12.350736
_cell_angle_alpha 90.000000
_cell_angle_beta 88.862993
_cell_angle_gamma 90.000000
_cell_volume 3256.953137
_symmetry_space_group_name_H-M "C 2/C"
_symmetry_group_IT_number 15
_symmetry_cell_setting 'monoclinic'
loop_
_space_group_symop_operation_xyz
x,y,z
-x,y,1/2-z
-x,-y,-z
x,-y,1/2+z
1/2+x,1/2+y,z
1/2-x,1/2+y,1/2-z
1/2-x,1/2-y,-z
1/2+x,1/2-y,1/2+z
loop_
_atom_site_type_symbol
_atom_site_label
_atom_site_fract_x
_atom_site_fract_y
_atom_site_fract_z
Si Si1 0.554358 0.463276 0.257229
Si Si2 0.628649 0.596007 0.586321
Si Si3 0.944920 0.300428 0.254680
Si Si4 0.700044 0.203799 0.736665
Si Si5 0.374227 0.885432 0.436687
Si Si6 0.876962 0.869152 0.074761
Si Si7 0.298098 0.542530 0.745712
Si Si8 0.627144 0.156393 0.923419
O O1 0.500000 0.418281 0.250000
O O2 0.584026 0.374774 0.166866
O O3 0.562614 0.630985 0.241837
O O4 0.573265 0.413410 0.372772
O O5 0.624698 0.434266 0.545429
O O6 0.678087 0.611789 0.648680
O O7 0.626423 0.690616 0.479783
O O8 0.921925 0.368137 0.363311
O O9 0.919988 0.362726 0.147840
O O10 0.000000 0.343498 0.250000
O O11 0.671311 0.160846 0.630853
O O12 0.708752 0.373125 0.740961
O O13 0.749002 0.120185 0.727504
O O14 0.673085 0.148435 0.844589
O O15 0.376067 0.799149 0.550365
O O16 0.369856 0.047172 0.477131
O O17 0.832087 0.924636 0.143695
#
# Coordination Sequence:
#
# PCOD8141442 Si02
#       8
#     8   8   8   8   8   8   8   8
#     4  10  21  36  64  96 119 153 206 253 291 354
#     4  11  20  41  62  86 121 159 197 248 298 349
#     4  10  21  40  62  90 125 157 198 251 301 352
#     4  11  25  43  59  92 122 155 201 254 300 355
#     4  11  24  41  63  88 124 163 199 243 302 361
#     4  11  20  41  62  86 121 159 197 248 298 349
#     4  11  25  39  63  90 124 155 201 254 298 351
#     4  11  24  41  63  88 124 163 199 243 302 361
#
# _framework density 19.650268000000001
#
# number of rings (size 3 to 8) (size 9 to 14) (size 15 to 20)
#    0.000    1.250    5.000    1.500    3.500    7.000 
#    0.000    1.250    0.000    0.000    0.000    0.000 
#    0.000    0.000    0.000    0.000    0.000    0.000 
#
# Total GULP energy -396834.112360 kJ/mol
# GULP energy per Si atom -12401.066011 kJ/mol
# Density = 1.960554 g / cm^3
# Si number density = 19.650268 Si / 1000 Ang^3
#
#
#
# Elastic Constant Matrix: (Units=GPa)
#
#
# Indices 1 2 3 4 5 6 
#
# 1 163.4084 50.0340 53.3234 0.0000 9.1365 0.0000
# 2 50.0340 70.9570 35.4139 0.0000 -0.0228 0.0000
# 3 53.3234 35.4139 98.5509 0.0000 8.0476 0.0000
# 4 0.0000 0.0000 0.0000 32.1631 0.0000 1.4160
# 5 9.1365 -0.0228 8.0476 0.0000 11.2258 0.0000
# 6 0.0000 0.0000 0.0000 1.4160 0.0000 26.2648
#
#
#
# Elastic Compliance Matrix: (Units=1/GPa)
#
#
# Indices 1 2 3 4 5 6 
#
# 1 0.008745 -0.004902 -0.002537 0.000000 -0.005309 0.000000
# 2 -0.004902 0.020161 -0.005228 0.000000 0.007778 0.000000
# 3 -0.002537 -0.005228 0.014053 0.000000 -0.008021 0.000000
# 4 0.000000 0.000000 0.000000 0.031165 0.000000 -0.001680
# 5 -0.005309 0.007778 -0.008021 0.000000 0.099168 0.000000
# 6 0.000000 0.000000 0.000000 -0.001680 0.000000 0.038164
#
#
# Mechanical properties :
#
#
# Convention : Reuss Voigt Hill
#
# Bulk Modulus (GPa) = 56.73257 67.82877 62.28067
# Shear Modulus (GPa) = 20.60447 26.87372 23.73909
#
# Velocity S-wave (km/s) = 3.24166 3.70212 3.47952
# Velocity P-wave (km/s) = 6.55324 7.27098 6.92142
#
# Compressibility (1/GPa) = 0.01762656
#
# Stress axis : x y z
#
# Youngs Moduli (GPa) = 114.34745 49.59991 71.15884
#
# Poissons Ratio (x) = 0.24315 0.18051
# Poissons Ratio (y) = 0.56056 0.37199
# Poissons Ratio (z) = 0.29007 0.25929
#
# Static dielectric constant tensor:
#      x y z
#    x 3.550270 0.000000 0.070830 
#    y 0.000000 3.430940 0.000000 
#    z 0.070830 0.000000 3.577000 
# 
# 
# High freq. dielectric constant tensor:
#      x y z
#    x 1.764790 0.000000 0.003450 
#    y 0.000000 1.760900 0.000000 
#    z 0.003450 0.000000 1.778700 
# 
# From -- ./inp_files/125911.got.cif
#   From: 2010.06.25/outbox.cif.g09.slc.cpg/sg15_63_cif.got.tgz:125911.got - 2010.06.28 07:06:18.
