data_PCOD8141494
_publ_section_title
;
Structure prediction by ZEFSAII (Michael W. Deem and Ramdas Pophale) SiO2 
 PCOD8141494
Probable space group: C 2/C
;
_chemical_formula_sum "Si O2"
_cell_formula_units_Z 32
_cell_length_a 15.054093
_cell_length_b 18.962170
_cell_length_c 5.199406
_cell_angle_alpha 90.000000
_cell_angle_beta 101.542745
_cell_angle_gamma 90.000000
_cell_volume 1454.196260
_symmetry_space_group_name_H-M "C 2/C"
_symmetry_group_IT_number 15
_symmetry_cell_setting 'monoclinic'
loop_
_space_group_symop_operation_xyz
x,y,z
-x,y,1/2-z
-x,-y,-z
x,-y,1/2+z
1/2+x,1/2+y,z
1/2-x,1/2+y,1/2-z
1/2-x,1/2-y,-z
1/2+x,1/2-y,1/2+z
loop_
_atom_site_type_symbol
_atom_site_label
_atom_site_fract_x
_atom_site_fract_y
_atom_site_fract_z
Si Si1 0.601415 0.530808 0.083480
Si Si2 0.187584 0.828765 0.731388
Si Si3 0.894722 0.465201 0.214917
Si Si4 0.697081 0.171412 0.699139
O O1 0.651826 0.490139 0.347522
O O2 0.606148 0.615013 0.137188
O O3 0.500000 0.500000 0.000000
O O4 0.265299 0.843528 0.564612
O O5 0.151237 0.749051 0.676404
O O6 0.223852 0.836363 0.042661
O O7 0.850057 0.513229 0.415829
O O8 0.881310 0.383516 0.277135
O O9 0.000000 0.481897 0.250000
#
# Coordination Sequence:
#
# PCOD8141494 Si02
#       4
#     8   8   8   8
#     4  10  21  37  56  81 118 153 190 239 286 345
#     4  10  21  37  58  83 118 147 196 238 279 351
#     4  10  21  37  57  83 114 142 188 239 287 345
#     4  10  21  37  58  85 112 153 191 238 290 339
#
# _framework density 22.005282000000001
#
# number of rings (size 3 to 8) (size 9 to 14) (size 15 to 20)
#    0.000    2.000    0.000    3.000    0.000    6.000 
#    4.500    0.000   11.000    0.000    0.000    0.000 
#    0.000    0.000    0.000    0.000    0.000    0.000 
#
# Total GULP energy -198271.205346 kJ/mol
# GULP energy per Si atom -12391.950334 kJ/mol
# Density = 2.195520 g / cm^3
# Si number density = 22.005282 Si / 1000 Ang^3
#
#
#
# Elastic Constant Matrix: (Units=GPa)
#
#
# Indices 1 2 3 4 5 6 
#
# 1 26.5020 37.0736 14.1385 0.0000 -3.1704 0.0000
# 2 37.0736 190.9648 54.0468 0.0000 -3.1457 0.0000
# 3 14.1385 54.0468 170.6445 0.0000 -17.9776 0.0000
# 4 0.0000 0.0000 0.0000 37.2687 0.0000 -0.3577
# 5 -3.1704 -3.1457 -17.9776 0.0000 14.6887 0.0000
# 6 0.0000 0.0000 0.0000 -0.3577 0.0000 43.4535
#
#
#
# Elastic Compliance Matrix: (Units=1/GPa)
#
#
# Indices 1 2 3 4 5 6 
#
# 1 0.053040 -0.010076 -0.000258 0.000000 0.008975 0.000000
# 2 -0.010076 0.007683 -0.001899 0.000000 -0.002854 0.000000
# 3 -0.000258 -0.001899 0.007387 0.000000 0.008578 0.000000
# 4 0.000000 0.000000 0.000000 0.026834 0.000000 0.000221
# 5 0.008975 -0.002854 0.008578 0.000000 0.079905 0.000000
# 6 0.000000 0.000000 0.000000 0.000221 0.000000 0.023015
#
#
# Mechanical properties :
#
#
# Convention : Reuss Voigt Hill
#
# Bulk Modulus (GPa) = 22.91297 66.51434 44.71365
# Shear Modulus (GPa) = 21.10791 37.93900 29.52345
#
# Velocity S-wave (km/s) = 3.10049 4.15672 3.66683
# Velocity P-wave (km/s) = 4.82208 7.30273 6.18799
#
# Compressibility (1/GPa) = 0.04364341
#
# Stress axis : x y z
#
# Youngs Moduli (GPa) = 18.85376 130.15272 135.37722
#
# Poissons Ratio (x) = 1.31146 0.03488
# Poissons Ratio (y) = 0.18998 0.25712
# Poissons Ratio (z) = 0.00486 0.24720
#
# Static dielectric constant tensor:
#      x y z
#    x 3.531420 0.000000 -1.292560 
#    y 0.000000 4.182610 0.000000 
#    z -1.292560 0.000000 9.349720 
# 
# 
# High freq. dielectric constant tensor:
#      x y z
#    x 1.807980 0.000000 -0.016540 
#    y 0.000000 1.877260 0.000000 
#    z -0.016540 0.000000 1.904830 
# 
# From -- ./inp_files/6529.got.cif
#   From: 2010.06.25/outbox.cif.g09.slc.cpg/sg15_4_cif.got.tgz:6529.got - 2010.06.28 07:06:18.
