data_PCOD8141300
_publ_section_title
;
Structure prediction by ZEFSAII (Michael W. Deem and Ramdas Pophale) SiO2 
 PCOD8141300
Probable space group: C 2/C
;
_chemical_formula_sum "Si O2"
_cell_formula_units_Z 40
_cell_length_a 9.921708
_cell_length_b 8.525124
_cell_length_c 26.185501
_cell_angle_alpha 90.000000
_cell_angle_beta 62.369823
_cell_angle_gamma 90.000000
_cell_volume 1962.284057
_symmetry_space_group_name_H-M "C 2/C"
_symmetry_group_IT_number 15
_symmetry_cell_setting 'monoclinic'
loop_
_space_group_symop_operation_xyz
x,y,z
-x,y,1/2-z
-x,-y,-z
x,-y,1/2+z
1/2+x,1/2+y,z
1/2-x,1/2+y,1/2-z
1/2-x,1/2-y,-z
1/2+x,1/2-y,1/2+z
loop_
_atom_site_type_symbol
_atom_site_label
_atom_site_fract_x
_atom_site_fract_y
_atom_site_fract_z
Si Si1 0.586134 0.865965 0.393022
Si Si2 0.311531 0.071031 0.881192
Si Si3 0.102258 0.279336 0.683928
Si Si4 0.381525 0.640420 0.020846
Si Si5 0.976472 0.274342 0.596517
O O1 0.448837 0.821534 0.377953
O O2 0.744214 0.821698 0.338230
O O3 0.561212 0.772216 0.449630
O O4 0.579770 0.050581 0.404374
O O5 0.166131 0.170477 0.894924
O O6 0.360981 0.966700 0.823504
O O7 0.278698 0.935009 0.931318
O O8 0.000000 0.236513 0.750000
O O9 0.010390 0.233382 0.649009
O O10 0.500000 0.500000 0.000000
O O11 0.379676 0.719607 0.964547
#
# Coordination Sequence:
#
# PCOD8141300 Si02
#       5
#     8   8   8   8   8
#     4  10  21  36  58  86 113 146 188 231 278 332
#     4   9  21  39  59  83 112 149 187 228 279 337
#     4  10  23  41  56  77 112 149 189 237 282 326
#     4   9  19  35  57  86 121 150 177 223 282 340
#     4  10  21  36  58  86 113 148 186 226 280 336
#
# _framework density 20.384406999999999
#
# number of rings (size 3 to 8) (size 9 to 14) (size 15 to 20)
#    0.000    2.400    0.000    0.600    0.000   20.000 
#    0.000    1.000    0.000    0.000    0.000    0.000 
#    0.000    0.000    0.000    0.000    0.000    0.000 
#
# Total GULP energy -247936.107043 kJ/mol
# GULP energy per Si atom -12396.805352 kJ/mol
# Density = 2.033801 g / cm^3
# Si number density = 20.384407 Si / 1000 Ang^3
#
#
#
# Elastic Constant Matrix: (Units=GPa)
#
#
# Indices 1 2 3 4 5 6 
#
# 1 109.4710 51.4071 62.2261 0.0000 -1.8083 0.0000
# 2 51.4071 74.0511 49.8266 0.0000 2.0152 0.0000
# 3 62.2261 49.8266 157.9433 0.0000 -6.3030 0.0000
# 4 0.0000 0.0000 0.0000 22.3525 0.0000 0.5178
# 5 -1.8083 2.0152 -6.3030 0.0000 23.3080 0.0000
# 6 0.0000 0.0000 0.0000 0.5178 0.0000 34.2728
#
#
#
# Elastic Compliance Matrix: (Units=1/GPa)
#
#
# Indices 1 2 3 4 5 6 
#
# 1 0.014805 -0.008132 -0.003228 0.000000 0.000979 0.000000
# 2 -0.008132 0.021817 -0.003820 0.000000 -0.003550 0.000000
# 3 -0.003228 -0.003820 0.008908 0.000000 0.002489 0.000000
# 4 0.000000 0.000000 0.000000 0.044753 0.000000 -0.000676
# 5 0.000979 -0.003550 0.002489 0.000000 0.043960 0.000000
# 6 0.000000 0.000000 0.000000 -0.000676 0.000000 0.029188
#
#
# Mechanical properties :
#
#
# Convention : Reuss Voigt Hill
#
# Bulk Modulus (GPa) = 65.92870 74.26500 70.09685
# Shear Modulus (GPa) = 25.14483 27.85369 26.49926
#
# Velocity S-wave (km/s) = 3.51598 3.70052 3.60943
# Velocity P-wave (km/s) = 6.99255 7.40067 7.19950
#
# Compressibility (1/GPa) = 0.01516790
#
# Stress axis : x y z
#
# Youngs Moduli (GPa) = 67.54534 45.83612 112.26122
#
# Poissons Ratio (x) = 0.37275 0.36241
# Poissons Ratio (y) = 0.54929 0.42888
# Poissons Ratio (z) = 0.21805 0.17511
#
# Static dielectric constant tensor:
#      x y z
#    x 3.826870 0.000000 -0.188090 
#    y 0.000000 3.770490 0.000000 
#    z -0.188090 0.000000 3.715620 
# 
# 
# High freq. dielectric constant tensor:
#      x y z
#    x 1.814170 0.000000 -0.012700 
#    y 0.000000 1.803000 0.000000 
#    z -0.012700 0.000000 1.783370 
# 
# From -- ./inp_files/235825.got.cif
#   From: 2010.06.25/outbox.cif.g09.slc.cpg/sg15_118_cif.got.tgz:235825.got - 2010.06.28 07:06:18.
