data_PCOD8141404
_publ_section_title
;
Structure prediction by ZEFSAII (Michael W. Deem and Ramdas Pophale) SiO2 
 PCOD8141404
Probable space group: C 2/C
;
_chemical_formula_sum "Si O2"
_cell_formula_units_Z 60
_cell_length_a 20.242443
_cell_length_b 6.566019
_cell_length_c 23.728221
_cell_angle_alpha 90.000000
_cell_angle_beta 111.577744
_cell_angle_gamma 90.000000
_cell_volume 2932.753432
_symmetry_space_group_name_H-M "C 2/C"
_symmetry_group_IT_number 15
_symmetry_cell_setting 'monoclinic'
loop_
_space_group_symop_operation_xyz
x,y,z
-x,y,1/2-z
-x,-y,-z
x,-y,1/2+z
1/2+x,1/2+y,z
1/2-x,1/2+y,1/2-z
1/2-x,1/2-y,-z
1/2+x,1/2-y,1/2+z
loop_
_atom_site_type_symbol
_atom_site_label
_atom_site_fract_x
_atom_site_fract_y
_atom_site_fract_z
Si Si1 0.150708 0.159599 0.447853
Si Si2 0.000000 0.903549 0.250000
Si Si3 0.411795 0.051662 0.201033
Si Si4 0.009646 0.767458 0.844114
Si Si5 0.267115 0.402442 0.421174
Si Si6 0.253496 0.109094 0.316827
Si Si7 0.799669 0.198910 0.609210
Si Si8 0.645456 0.828448 0.213457
O O1 0.066404 0.202785 0.412368
O O2 0.193460 0.327961 0.426210
O O3 0.167031 0.175542 0.519635
O O4 0.178812 0.936033 0.437723
O O5 0.935947 0.749217 0.244494
O O6 0.978086 0.033782 0.189644
O O7 0.359894 0.132743 0.137057
O O8 0.476258 0.934772 0.189014
O O9 0.371300 0.896164 0.228167
O O10 0.927056 0.759097 0.838143
O O11 0.275292 0.305492 0.361301
O O12 0.268806 0.651367 0.420519
O O13 0.206590 0.161294 0.246108
O O14 0.210864 0.946594 0.340635
O O15 0.326047 0.007816 0.317136
#
# Coordination Sequence:
#
# PCOD8141404 Si02
#       8
#     8   4   8   8   8   8   8   8
#     4  10  21  36  62  92 118 157 198 255 310 352
#     4  12  20  34  56  88 124 150 178 252 320 352
#     4  12  20  35  59  91 120 147 193 248 305 363
#     4  12  22  37  58  91 123 150 197 251 307 360
#     4  10  21  39  60  88 124 155 206 251 293 364
#     4  11  25  40  58  86 120 165 206 244 297 358
#     4  11  19  37  61  87 118 155 200 249 300 357
#     4  12  23  41  57  86 123 160 199 247 299 367
#
# _framework density 20.458590000000001
#
# number of rings (size 3 to 8) (size 9 to 14) (size 15 to 20)
#    0.000    0.800    6.667    2.800    0.000    0.000 
#    0.000    0.667    0.000    0.800    0.000    0.000 
#    0.000    0.000    0.000    0.000    0.000    0.000 
#
# Total GULP energy -371782.414676 kJ/mol
# GULP energy per Si atom -12392.747156 kJ/mol
# Density = 2.041203 g / cm^3
# Si number density = 20.458590 Si / 1000 Ang^3
#
#
#
# Elastic Constant Matrix: (Units=GPa)
#
#
# Indices 1 2 3 4 5 6 
#
# 1 71.2732 20.6863 36.8027 0.0000 17.1505 -0.0001
# 2 20.6863 92.5305 27.7487 0.0001 10.6333 -0.0001
# 3 36.8027 27.7487 110.1806 0.0000 27.3434 0.0000
# 4 0.0000 0.0001 0.0000 17.5119 0.0000 5.5815
# 5 17.1505 10.6333 27.3434 0.0000 28.0305 0.0000
# 6 -0.0001 -0.0001 0.0000 5.5815 0.0000 31.0930
#
#
#
# Elastic Compliance Matrix: (Units=1/GPa)
#
#
# Indices 1 2 3 4 5 6 
#
# 1 0.018256 -0.002152 -0.003941 0.000000 -0.006510 0.000000
# 2 -0.002152 0.012035 -0.001987 0.000000 -0.001311 0.000000
# 3 -0.003941 -0.001987 0.013336 0.000000 -0.009844 0.000000
# 4 0.000000 0.000000 0.000000 0.060569 0.000000 -0.010873
# 5 -0.006510 -0.001311 -0.009844 0.000000 0.049758 0.000000
# 6 0.000000 0.000000 0.000000 -0.010873 0.000000 0.034113
#
#
# Mechanical properties :
#
#
# Convention : Reuss Voigt Hill
#
# Bulk Modulus (GPa) = 36.40547 49.38440 42.89493
# Shear Modulus (GPa) = 23.43216 27.91019 25.67118
#
# Velocity S-wave (km/s) = 3.38797 3.69755 3.54614
# Velocity P-wave (km/s) = 5.75654 6.51309 6.14647
#
# Compressibility (1/GPa) = 0.02746840
#
# Stress axis : x y z
#
# Youngs Moduli (GPa) = 54.77585 83.09274 74.98720
#
# Poissons Ratio (x) = 0.17878 0.29549
# Poissons Ratio (y) = 0.11785 0.14900
# Poissons Ratio (z) = 0.21585 0.16510
#
# Static dielectric constant tensor:
#      x y z
#    x 3.435990 0.000000 0.296880 
#    y 0.000000 4.005760 0.000000 
#    z 0.296880 0.000000 3.735880 
# 
# 
# High freq. dielectric constant tensor:
#      x y z
#    x 1.757160 0.000000 0.028690 
#    y 0.000000 1.819770 0.000000 
#    z 0.028690 0.000000 1.791700 
# 
# From -- ./inp_files/317024.got.cif
#   From: 2010.06.25/outbox.cif.g09.slc.cpg/sg15_159_cif.got.tgz:317024.got - 2010.06.28 07:06:18.
