data_PCOD8141858
_publ_section_title
;
Structure prediction by ZEFSAII (Michael W. Deem and Ramdas Pophale) SiO2 
 PCOD8141858
Probable space group: C 2/C
;
_chemical_formula_sum "Si O2"
_cell_formula_units_Z 48
_cell_length_a 25.866834
_cell_length_b 14.054527
_cell_length_c 7.617005
_cell_angle_alpha 90.000000
_cell_angle_beta 117.231667
_cell_angle_gamma 90.000000
_cell_volume 2462.211909
_symmetry_space_group_name_H-M "C 2/C"
_symmetry_group_IT_number 15
_symmetry_cell_setting 'monoclinic'
loop_
_space_group_symop_operation_xyz
x,y,z
-x,y,1/2-z
-x,-y,-z
x,-y,1/2+z
1/2+x,1/2+y,z
1/2-x,1/2+y,1/2-z
1/2-x,1/2-y,-z
1/2+x,1/2-y,1/2+z
loop_
_atom_site_type_symbol
_atom_site_label
_atom_site_fract_x
_atom_site_fract_y
_atom_site_fract_z
Si Si1 0.129198 0.202114 0.145826
Si Si2 0.987448 0.107604 0.431586
Si Si3 0.763673 0.084629 0.304165
Si Si4 0.834405 0.703656 0.459304
Si Si5 0.796481 0.884345 0.232438
Si Si6 0.595857 0.290076 0.213873
O O1 0.186698 0.139509 0.223628
O O2 0.140134 0.285456 0.305022
O O3 0.078992 0.131246 0.132491
O O4 0.111695 0.248737 0.932523
O O5 0.028975 0.178300 0.606711
O O6 0.000000 0.126745 0.250000
O O7 0.000000 0.000000 0.500000
O O8 0.701558 0.105660 0.114200
O O9 0.756980 0.117550 0.496141
O O10 0.779376 0.973254 0.326211
O O11 0.788281 0.789123 0.337848
O O12 0.888334 0.707655 0.403788
O O13 0.864240 0.883671 0.271344
#
# Coordination Sequence:
#
# PCOD8141858 Si02
#       6
#     8   8   8   8   8   8
#     4  11  21  33  54  75 105 147 186 219 267 320
#     4  12  21  34  52  76 111 146 186 224 265 331
#     4  11  20  35  55  79 112 149 184 225 277 323
#     4  10  21  38  54  76 112 152 181 231 269 323
#     4   9  20  33  52  78 108 144 182 222 267 326
#     4   9  21  36  51  77 110 146 183 220 270 322
#
# _framework density 19.494667
#
# number of rings (size 3 to 8) (size 9 to 14) (size 15 to 20)
#    1.000    0.667    1.667    4.500    0.000    4.000 
#    0.000    0.000    0.000    0.000    0.000    0.000 
#    0.000   12.000    0.000    0.000    0.000    0.000 
#
# Total GULP energy -297456.304581 kJ/mol
# GULP energy per Si atom -12394.012691 kJ/mol
# Density = 1.945030 g / cm^3
# Si number density = 19.494667 Si / 1000 Ang^3
#
#
#
# Elastic Constant Matrix: (Units=GPa)
#
#
# Indices 1 2 3 4 5 6 
#
# 1 67.0042 9.0689 21.4549 0.0000 -0.6590 0.0000
# 2 9.0689 18.9219 10.6864 0.0000 -2.3359 0.0000
# 3 21.4549 10.6864 114.7833 0.0000 -14.1250 0.0000
# 4 0.0000 0.0000 0.0000 25.6566 0.0000 7.2113
# 5 -0.6590 -2.3359 -14.1250 0.0000 33.6915 0.0000
# 6 0.0000 0.0000 0.0000 7.2113 0.0000 15.4332
#
#
#
# Elastic Compliance Matrix: (Units=1/GPa)
#
#
# Indices 1 2 3 4 5 6 
#
# 1 0.016659 -0.006642 -0.002649 0.000000 -0.001245 0.000000
# 2 -0.006642 0.058532 -0.003927 0.000000 0.002282 0.000000
# 3 -0.002649 -0.003927 0.010051 0.000000 0.003890 0.000000
# 4 0.000000 0.000000 0.000000 0.044869 0.000000 -0.020966
# 5 -0.001245 0.002282 0.003890 0.000000 0.031446 0.000000
# 6 0.000000 0.000000 0.000000 -0.020966 0.000000 0.074592
#
#
# Mechanical properties :
#
#
# Convention : Reuss Voigt Hill
#
# Bulk Modulus (GPa) = 17.00488 31.45885 24.23187
# Shear Modulus (GPa) = 17.71870 25.58951 21.65411
#
# Velocity S-wave (km/s) = 3.01807 3.62697 3.33644
# Velocity P-wave (km/s) = 4.57020 5.80621 5.22488
#
# Compressibility (1/GPa) = 0.05880665
#
# Stress axis : x y z
#
# Youngs Moduli (GPa) = 60.02637 17.08472 99.48807
#
# Poissons Ratio (x) = 0.11348 0.26352
# Poissons Ratio (y) = 0.39871 0.39069
# Poissons Ratio (z) = 0.15899 0.06709
#
# Static dielectric constant tensor:
#      x y z
#    x 3.560790 0.000000 -0.123790 
#    y 0.000000 2.970210 0.000000 
#    z -0.123790 0.000000 3.722590 
# 
# 
# High freq. dielectric constant tensor:
#      x y z
#    x 1.755020 0.000000 -0.017810 
#    y 0.000000 1.692510 0.000000 
#    z -0.017810 0.000000 1.774010 
# 
# From -- ./inp_files/62296.got.cif
#   From: 2010.06.25/outbox.cif.g09.slc.cpg/sg15_32_cif.got.tgz:62296.got - 2010.06.28 07:06:18.
