data_PCOD8141146
_publ_section_title
;
Structure prediction by ZEFSAII (Michael W. Deem and Ramdas Pophale) SiO2 
 PCOD8141146
Probable space group: C 2/C
;
_chemical_formula_sum "Si O2"
_cell_formula_units_Z 56
_cell_length_a 20.598299
_cell_length_b 10.108114
_cell_length_c 18.821093
_cell_angle_alpha 90.000000
_cell_angle_beta 127.201895
_cell_angle_gamma 90.000000
_cell_volume 3121.314426
_symmetry_space_group_name_H-M "C 2/C"
_symmetry_group_IT_number 15
_symmetry_cell_setting 'monoclinic'
loop_
_space_group_symop_operation_xyz
x,y,z
-x,y,1/2-z
-x,-y,-z
x,-y,1/2+z
1/2+x,1/2+y,z
1/2-x,1/2+y,1/2-z
1/2-x,1/2-y,-z
1/2+x,1/2-y,1/2+z
loop_
_atom_site_type_symbol
_atom_site_label
_atom_site_fract_x
_atom_site_fract_y
_atom_site_fract_z
Si Si1 0.639503 0.841990 0.736542
Si Si2 0.641938 0.751438 0.000186
Si Si3 0.906014 0.861542 0.177949
Si Si4 0.821356 0.271239 0.886475
Si Si5 0.485520 0.860646 0.956490
Si Si6 0.250436 0.509680 0.058338
Si Si7 0.245505 0.994872 0.098259
O O1 0.625861 0.712224 0.773794
O O2 0.699819 0.804467 0.710211
O O3 0.551958 0.886499 0.647031
O O4 0.674377 0.963186 0.805322
O O5 0.605323 0.734689 0.897180
O O6 0.569224 0.779908 0.007034
O O7 0.706496 0.870380 0.044922
O O8 0.685030 0.619155 0.055188
O O9 0.848298 0.990302 0.130636
O O10 0.000000 0.905839 0.250000
O O11 0.919818 0.280929 0.961265
O O12 0.776808 0.376033 0.907130
O O13 0.796432 0.123328 0.887536
O O14 0.500000 0.000000 0.000000
O O15 0.229663 0.553220 0.964063
#
# Coordination Sequence:
#
# PCOD8141146 Si02
#       7
#     8   8   8   8   8   8   8
#     4  10  21  35  60  85 116 152 201 240 291 339
#     4  11  19  36  63  86 113 155 203 235 287 357
#     4  11  19  35  60  88 110 146 204 247 280 341
#     4  10  24  36  59  87 123 153 191 241 306 341
#     4  10  21  37  58  86 121 157 188 248 295 347
#     4  11  21  38  63  85 118 158 192 244 295 359
#     4  11  22  38  61  90 114 158 203 239 291 358
#
# _framework density 17.941158999999999
#
# number of rings (size 3 to 8) (size 9 to 14) (size 15 to 20)
#    0.857    0.571    5.714    1.286    2.000    1.714 
#    0.000    0.000    6.286    0.000    0.000    0.000 
#    0.000    0.000    0.000    0.000    0.000    0.000 
#
# Total GULP energy -347066.667975 kJ/mol
# GULP energy per Si atom -12395.238142 kJ/mol
# Density = 1.790032 g / cm^3
# Si number density = 17.941159 Si / 1000 Ang^3
#
#
#
# Elastic Constant Matrix: (Units=GPa)
#
#
# Indices 1 2 3 4 5 6 
#
# 1 100.0069 31.4258 20.8697 0.0000 1.5243 0.0000
# 2 31.4258 60.2563 23.5454 0.0000 -4.2366 0.0000
# 3 20.8697 23.5454 74.0104 0.0000 1.8968 0.0000
# 4 0.0000 0.0000 0.0000 17.0996 0.0000 0.7140
# 5 1.5243 -4.2366 1.8968 0.0000 36.1080 0.0000
# 6 0.0000 0.0000 0.0000 0.7140 0.0000 28.6797
#
#
#
# Elastic Compliance Matrix: (Units=1/GPa)
#
#
# Indices 1 2 3 4 5 6 
#
# 1 0.012168 -0.005818 -0.001552 0.000000 -0.001115 0.000000
# 2 -0.005818 0.021970 -0.005428 0.000000 0.003109 0.000000
# 3 -0.001552 -0.005428 0.015712 0.000000 -0.001397 0.000000
# 4 0.000000 0.000000 0.000000 0.058542 0.000000 -0.001457
# 5 -0.001115 0.003109 -0.001397 0.000000 0.028180 0.000000
# 6 0.000000 0.000000 0.000000 -0.001457 0.000000 0.034904
#
#
# Mechanical properties :
#
#
# Convention : Reuss Voigt Hill
#
# Bulk Modulus (GPa) = 41.23131 42.88395 42.05763
# Shear Modulus (GPa) = 24.37153 26.93966 25.65559
#
# Velocity S-wave (km/s) = 3.68967 3.87920 3.78562
# Velocity P-wave (km/s) = 6.41738 6.63466 6.52692
#
# Compressibility (1/GPa) = 0.02425341
#
# Stress axis : x y z
#
# Youngs Moduli (GPa) = 82.17976 45.51665 63.64584
#
# Poissons Ratio (x) = 0.26483 0.09876
# Poissons Ratio (y) = 0.47815 0.34550
# Poissons Ratio (z) = 0.12752 0.24708
#
# Static dielectric constant tensor:
#      x y z
#    x 3.493290 0.000000 0.110550 
#    y 0.000000 3.042430 0.000000 
#    z 0.110550 0.000000 3.213980 
# 
# 
# High freq. dielectric constant tensor:
#      x y z
#    x 1.700370 0.000000 -0.003430 
#    y 0.000000 1.674830 0.000000 
#    z -0.003430 0.000000 1.696850 
# 
# From -- ./inp_files/251952.got.cif
#   From: 2010.06.25/outbox.cif.g09.slc.cpg/sg15_126_cif.got.tgz:251952.got - 2010.06.28 07:06:18.
