data_PCOD8141976
_publ_section_title
;
Structure prediction by ZEFSAII (Michael W. Deem and Ramdas Pophale) SiO2 
 PCOD8141976
Probable space group: C 2/C
;
_chemical_formula_sum "Si O2"
_cell_formula_units_Z 48
_cell_length_a 26.382272
_cell_length_b 8.850893
_cell_length_c 9.334655
_cell_angle_alpha 90.000000
_cell_angle_beta 89.669684
_cell_angle_gamma 90.000000
_cell_volume 2179.667950
_symmetry_space_group_name_H-M "C 2/C"
_symmetry_group_IT_number 15
_symmetry_cell_setting 'monoclinic'
loop_
_space_group_symop_operation_xyz
x,y,z
-x,y,1/2-z
-x,-y,-z
x,-y,1/2+z
1/2+x,1/2+y,z
1/2-x,1/2+y,1/2-z
1/2-x,1/2-y,-z
1/2+x,1/2-y,1/2+z
loop_
_atom_site_type_symbol
_atom_site_label
_atom_site_fract_x
_atom_site_fract_y
_atom_site_fract_z
Si Si1 0.445354 0.856970 0.700198
Si Si2 0.054741 0.034566 0.935731
Si Si3 0.392039 0.969460 0.426394
Si Si4 0.391694 0.350248 0.794859
Si Si5 0.275730 0.350422 0.794056
Si Si6 0.775886 0.531558 0.932911
O O1 0.500000 0.916527 0.750000
O O2 0.446555 0.679984 0.666844
O O3 0.427693 0.953644 0.563806
O O4 0.407392 0.883343 0.834477
O O5 0.072941 0.894059 0.839574
O O6 0.094050 0.057647 0.063035
O O7 0.000000 0.000000 0.000000
O O8 0.399423 0.826846 0.321368
O O9 0.334243 0.985688 0.479267
O O10 0.333855 0.389750 0.759574
O O11 0.242630 0.385189 0.653804
O O12 0.267731 0.175728 0.830902
O O13 0.257321 0.454514 0.924793
#
# Coordination Sequence:
#
# PCOD8141976 Si02
#       6
#     8   8   8   8   8   8
#     4  11  23  40  62  88 118 158 200 243 296 352
#     4  11  23  41  62  87 118 155 199 246 297 352
#     4  10  23  39  59  88 122 156 194 245 296 351
#     4  10  22  39  60  86 118 155 198 245 295 352
#     4  10  21  38  60  86 118 157 197 243 295 350
#     4  10  21  39  60  87 121 156 197 243 295 351
#
# _framework density 22.021702000000001
#
# number of rings (size 3 to 8) (size 9 to 14) (size 15 to 20)
#    0.000    1.667    0.000    4.000    0.000   10.000 
#    0.000    0.000    0.000    0.000    0.000    0.000 
#    0.000    0.000    0.000    0.000    0.000    0.000 
#
# Total GULP energy -297731.053632 kJ/mol
# GULP energy per Si atom -12405.460568 kJ/mol
# Density = 2.197158 g / cm^3
# Si number density = 22.021702 Si / 1000 Ang^3
#
#
#
# Elastic Constant Matrix: (Units=GPa)
#
#
# Indices 1 2 3 4 5 6 
#
# 1 142.0876 37.8916 58.3491 0.0000 -0.8251 0.0000
# 2 37.8916 39.6523 28.9991 0.0000 -0.2681 0.0000
# 3 58.3491 28.9991 77.7165 0.0000 -1.4475 0.0000
# 4 0.0000 0.0000 0.0000 45.2107 0.0000 -5.4489
# 5 -0.8251 -0.2681 -1.4475 0.0000 49.6275 0.0000
# 6 0.0000 0.0000 0.0000 -5.4489 0.0000 27.1747
#
#
#
# Elastic Compliance Matrix: (Units=1/GPa)
#
#
# Indices 1 2 3 4 5 6 
#
# 1 0.011202 -0.006263 -0.006074 0.000000 -0.000025 0.000000
# 2 -0.006263 0.038187 -0.009550 0.000000 -0.000176 0.000000
# 3 -0.006074 -0.009550 0.021000 0.000000 0.000460 0.000000
# 4 0.000000 0.000000 0.000000 0.022666 0.000000 0.004545
# 5 -0.000025 -0.000176 0.000460 0.000000 0.020162 0.000000
# 6 0.000000 0.000000 0.000000 0.004545 0.000000 0.037710
#
#
# Mechanical properties :
#
#
# Convention : Reuss Voigt Hill
#
# Bulk Modulus (GPa) = 37.57315 56.65956 47.11635
# Shear Modulus (GPa) = 24.56100 33.35036 28.95568
#
# Velocity S-wave (km/s) = 3.34325 3.89579 3.63005
# Velocity P-wave (km/s) = 5.65703 6.78388 6.24592
#
# Compressibility (1/GPa) = 0.02661475
#
# Stress axis : x y z
#
# Youngs Moduli (GPa) = 89.26723 26.18673 47.61916
#
# Poissons Ratio (x) = 0.16400 0.28925
# Poissons Ratio (y) = 0.55906 0.45478
# Poissons Ratio (z) = 0.54223 0.25009
#
# Static dielectric constant tensor:
#      x y z
#    x 4.022630 0.000000 0.073510 
#    y 0.000000 3.864160 0.000000 
#    z 0.073510 0.000000 3.981100 
# 
# 
# High freq. dielectric constant tensor:
#      x y z
#    x 1.875780 0.000000 0.003710 
#    y 0.000000 1.854080 0.000000 
#    z 0.003710 0.000000 1.876510 
# 
# From -- ./inp_files/68594.got.cif
#   From: 2010.06.25/outbox.cif.g09.slc.cpg/sg15_35_cif.got.tgz:68594.got - 2010.06.28 07:06:18.
