data_PCOD8141628
_publ_section_title
;
Structure prediction by ZEFSAII (Michael W. Deem and Ramdas Pophale) SiO2 
 PCOD8141628
Probable space group: C 2/C
;
_chemical_formula_sum "Si O2"
_cell_formula_units_Z 40
_cell_length_a 26.231553
_cell_length_b 9.570633
_cell_length_c 20.622640
_cell_angle_alpha 90.000000
_cell_angle_beta 158.771225
_cell_angle_gamma 90.000000
_cell_volume 1874.686973
_symmetry_space_group_name_H-M "C 2/C"
_symmetry_group_IT_number 15
_symmetry_cell_setting 'monoclinic'
loop_
_space_group_symop_operation_xyz
x,y,z
-x,y,1/2-z
-x,-y,-z
x,-y,1/2+z
1/2+x,1/2+y,z
1/2-x,1/2+y,1/2-z
1/2-x,1/2-y,-z
1/2+x,1/2-y,1/2+z
loop_
_atom_site_type_symbol
_atom_site_label
_atom_site_fract_x
_atom_site_fract_y
_atom_site_fract_z
Si Si1 0.982056 0.901266 0.416186
Si Si2 0.087736 0.488365 0.539754
Si Si3 0.105687 0.073941 0.821063
Si Si4 0.919037 0.404874 0.717179
Si Si5 0.766165 0.241291 0.741239
O O1 0.924967 0.991302 0.286929
O O2 0.866015 0.780222 0.296058
O O3 0.123500 0.826664 0.557778
O O4 0.000000 0.000000 0.500000
O O5 0.144776 0.329013 0.599848
O O6 0.224103 0.586619 0.714518
O O7 0.000000 0.500000 0.500000
O O8 0.999939 0.530100 0.373530
O O9 0.083016 0.238523 0.783189
O O10 0.000000 0.014230 0.750000
O O11 0.261379 0.034715 0.028970
O O12 0.000000 0.458643 0.750000
#
# Coordination Sequence:
#
# PCOD8141628 Si02
#       5
#     8   8   8   8   8
#     4  12  25  41  67 100 133 169 223 272 327 390
#     4  12  24  40  68  97 131 169 220 268 329 389
#     4  10  22  36  62  94 129 163 212 276 329 378
#     4  10  21  37  60  91 128 163 209 271 328 377
#     4  12  24  40  65  98 131 169 219 269 328 380
#
# _framework density 21.336895999999999
#
# number of rings (size 3 to 8) (size 9 to 14) (size 15 to 20)
#    0.000    0.800    6.000    1.200    8.400    0.000 
#    0.000    0.000    0.000    6.000    0.000    0.000 
#    0.000    0.000    0.000    0.000    0.000    0.000 
#
# Total GULP energy -247847.115856 kJ/mol
# GULP energy per Si atom -12392.355793 kJ/mol
# Density = 2.128833 g / cm^3
# Si number density = 21.336896 Si / 1000 Ang^3
#
#
#
# Elastic Constant Matrix: (Units=GPa)
#
#
# Indices 1 2 3 4 5 6 
#
# 1 160.4748 42.6015 93.7741 -0.0001 -8.8043 -0.0001
# 2 42.6015 59.5409 46.4569 -0.0001 -8.7918 -0.0001
# 3 93.7741 46.4569 146.3851 -0.0002 8.1492 -0.0002
# 4 -0.0001 -0.0001 -0.0002 32.4970 -0.0001 -1.0359
# 5 -8.8043 -8.7918 8.1492 -0.0001 45.4218 -0.0001
# 6 -0.0001 -0.0001 -0.0002 -1.0359 -0.0001 23.7699
#
#
#
# Elastic Compliance Matrix: (Units=1/GPa)
#
#
# Indices 1 2 3 4 5 6 
#
# 1 0.010642 -0.002359 -0.006220 0.000000 0.002722 0.000000
# 2 -0.002359 0.024379 -0.006528 0.000000 0.005433 0.000000
# 3 -0.006220 -0.006528 0.013156 0.000000 -0.004830 0.000000
# 4 0.000000 0.000000 0.000000 0.030815 0.000000 0.001343
# 5 0.002722 0.005433 -0.004830 0.000000 0.024462 0.000000
# 6 0.000000 0.000000 0.000000 0.001343 0.000000 0.042128
#
#
# Mechanical properties :
#
#
# Convention : Reuss Voigt Hill
#
# Bulk Modulus (GPa) = 55.67078 81.34065 68.50571
# Shear Modulus (GPa) = 27.50519 32.57562 30.04040
#
# Velocity S-wave (km/s) = 3.59429 3.91157 3.75628
# Velocity P-wave (km/s) = 6.58583 7.65541 7.14068
#
# Compressibility (1/GPa) = 0.01796275
#
# Stress axis : x y z
#
# Youngs Moduli (GPa) = 93.96917 41.01914 76.00856
#
# Poissons Ratio (x) = 0.09677 0.47277
# Poissons Ratio (y) = 0.22168 0.49619
# Poissons Ratio (z) = 0.58448 0.26778
#
# Static dielectric constant tensor:
#      x y z
#    x 4.174130 0.000000 0.389310 
#    y 0.000000 3.767110 0.000000 
#    z 0.389310 0.000000 4.079400 
# 
# 
# High freq. dielectric constant tensor:
#      x y z
#    x 1.849850 0.000000 0.020780 
#    y 0.000000 1.789200 0.000000 
#    z 0.020780 0.000000 1.855040 
# 
# From -- ./inp_files/257442.got.cif
#   From: 2010.06.25/outbox.cif.g09.slc.cpg/sg15_129_cif.got.tgz:257442.got - 2010.06.28 07:06:18.
