data_PCOD8141382
_publ_section_title
;
Structure prediction by ZEFSAII (Michael W. Deem and Ramdas Pophale) SiO2 
 PCOD8141382
Probable space group: C 2/C
;
_chemical_formula_sum "Si O2"
_cell_formula_units_Z 64
_cell_length_a 21.581971
_cell_length_b 5.065007
_cell_length_c 26.906077
_cell_angle_alpha 90.000000
_cell_angle_beta 102.787828
_cell_angle_gamma 90.000000
_cell_volume 2868.227688
_symmetry_space_group_name_H-M "C 2/C"
_symmetry_group_IT_number 15
_symmetry_cell_setting 'monoclinic'
loop_
_space_group_symop_operation_xyz
x,y,z
-x,y,1/2-z
-x,-y,-z
x,-y,1/2+z
1/2+x,1/2+y,z
1/2-x,1/2+y,1/2-z
1/2-x,1/2-y,-z
1/2+x,1/2-y,1/2+z
loop_
_atom_site_type_symbol
_atom_site_label
_atom_site_fract_x
_atom_site_fract_y
_atom_site_fract_z
Si Si1 0.675371 0.993654 0.086712
Si Si2 0.794702 0.813863 0.322103
Si Si3 0.073474 0.627361 0.366193
Si Si4 0.675121 0.462535 0.768858
Si Si5 0.981720 0.710505 0.040040
Si Si6 0.447734 0.356767 0.700321
Si Si7 0.211582 0.694407 0.365072
Si Si8 0.103587 0.977516 0.042892
O O1 0.665375 0.087320 0.142454
O O2 0.653846 0.231916 0.045305
O O3 0.751072 0.918824 0.095327
O O4 0.633312 0.733408 0.073684
O O5 0.737365 0.716763 0.277283
O O6 0.841084 0.957120 0.291086
O O7 0.765806 0.978797 0.363237
O O8 0.045686 0.574090 0.415901
O O9 0.038315 0.416063 0.325035
O O10 0.150309 0.584001 0.383596
O O11 0.058744 0.916415 0.342253
O O12 0.616631 0.301165 0.780587
O O13 0.687026 0.708706 0.807240
O O14 0.928060 0.925001 0.014188
O O15 0.045928 0.866237 0.066545
O O16 0.000000 0.500000 0.000000
O O17 0.500000 0.433231 0.750000
#
# Coordination Sequence:
#
# PCOD8141382 Si02
#       8
#     8   8   8   8   8   8   8   8
#     4  11  23  40  68  99 139 170 216 291 343 401
#     4  11  19  36  64  99 134 184 224 274 342 389
#     4  11  26  46  73  97 135 189 230 271 350 410
#     4  10  21  36  61  95 136 180 230 273 323 406
#     4  11  26  48  77  98 134 182 233 287 341 413
#     4  11  25  46  66  99 145 182 226 280 328 408
#     4  10  21  41  64  95 136 177 225 272 340 410
#     4  11  24  45  68 100 136 163 226 290 342 400
#
# _framework density 22.313431999999999
#
# number of rings (size 3 to 8) (size 9 to 14) (size 15 to 20)
#    0.000    1.250    5.000    0.375    3.500    1.000 
#    2.250    1.250    0.000    0.000    0.000    0.000 
#    0.000    0.000    0.000    0.000    0.000    0.000 
#
# Total GULP energy -396510.355010 kJ/mol
# GULP energy per Si atom -12390.948594 kJ/mol
# Density = 2.226265 g / cm^3
# Si number density = 22.313432 Si / 1000 Ang^3
#
#
#
# Elastic Constant Matrix: (Units=GPa)
#
#
# Indices 1 2 3 4 5 6 
#
# 1 66.8665 31.4315 52.5831 -0.0001 0.2456 0.0000
# 2 31.4315 113.6317 33.7234 -0.0003 -0.0945 0.0005
# 3 52.5831 33.7234 86.6459 0.0000 -12.9274 0.0000
# 4 -0.0001 -0.0003 0.0000 38.6251 0.0001 10.2523
# 5 0.2456 -0.0945 -12.9274 0.0001 41.9886 0.0000
# 6 0.0000 0.0005 0.0000 10.2523 0.0000 32.0273
#
#
#
# Elastic Compliance Matrix: (Units=1/GPa)
#
#
# Indices 1 2 3 4 5 6 
#
# 1 0.030935 -0.003087 -0.018447 0.000000 -0.005867 0.000000
# 2 -0.003087 0.010318 -0.002239 0.000000 -0.000648 0.000000
# 3 -0.018447 -0.002239 0.024761 0.000000 0.007726 0.000000
# 4 0.000000 0.000000 0.000000 0.028294 0.000000 -0.009057
# 5 -0.005867 -0.000648 0.007726 0.000000 0.026228 0.000000
# 6 0.000000 0.000000 0.000000 -0.009057 0.000000 0.034123
#
#
# Mechanical properties :
#
#
# Convention : Reuss Voigt Hill
#
# Bulk Modulus (GPa) = 54.15220 55.84666 54.99943
# Shear Modulus (GPa) = 23.99688 32.48862 28.24275
#
# Velocity S-wave (km/s) = 3.28296 3.81991 3.56157
# Velocity P-wave (km/s) = 6.22029 6.67370 6.45098
#
# Compressibility (1/GPa) = 0.01846647
#
# Stress axis : x y z
#
# Youngs Moduli (GPa) = 32.32626 96.91556 40.38648
#
# Poissons Ratio (x) = 0.29917 0.74502
# Poissons Ratio (y) = 0.09979 0.09044
# Poissons Ratio (z) = 0.59633 0.21703
#
# Static dielectric constant tensor:
#      x y z
#    x 4.234530 0.000000 0.269460 
#    y 0.000000 4.179880 0.000000 
#    z 0.269460 0.000000 3.740770 
# 
# 
# High freq. dielectric constant tensor:
#      x y z
#    x 1.871040 0.000000 0.023090 
#    y 0.000000 1.891430 0.000000 
#    z 0.023090 0.000000 1.852670 
# 
# From -- ./inp_files/299914.got.cif
#   From: 2010.06.25/outbox.cif.g09.slc.cpg/sg15_150_cif.got.tgz:299914.got - 2010.06.28 07:06:18.
