data_PCOD8141996
_publ_section_title
;
Structure prediction by ZEFSAII (Michael W. Deem and Ramdas Pophale) SiO2 
 PCOD8141996
Probable space group: C 2/C
;
_chemical_formula_sum "Si O2"
_cell_formula_units_Z 48
_cell_length_a 8.882770
_cell_length_b 16.855349
_cell_length_c 29.279679
_cell_angle_alpha 90.000000
_cell_angle_beta 149.690166
_cell_angle_gamma 90.000000
_cell_volume 2212.406688
_symmetry_space_group_name_H-M "C 2/C"
_symmetry_group_IT_number 15
_symmetry_cell_setting 'monoclinic'
loop_
_space_group_symop_operation_xyz
x,y,z
-x,y,1/2-z
-x,-y,-z
x,-y,1/2+z
1/2+x,1/2+y,z
1/2-x,1/2+y,1/2-z
1/2-x,1/2-y,-z
1/2+x,1/2-y,1/2+z
loop_
_atom_site_type_symbol
_atom_site_label
_atom_site_fract_x
_atom_site_fract_y
_atom_site_fract_z
Si Si1 0.373783 0.224495 0.942692
Si Si2 0.165140 0.491918 0.925710
Si Si3 0.898231 0.328269 0.091058
Si Si4 0.874408 0.001804 0.767160
Si Si5 0.420844 0.073861 0.448710
Si Si6 0.263977 0.833453 0.228834
O O1 0.437604 0.219669 0.905646
O O2 0.015969 0.224632 0.856828
O O3 0.544687 0.304864 0.003562
O O4 0.532062 0.155059 0.012868
O O5 0.059953 0.580376 0.911689
O O6 0.960148 0.466859 0.828396
O O7 0.126828 0.430777 0.957306
O O8 0.500000 0.500000 0.000000
O O9 0.065877 0.305127 0.181492
O O10 0.871616 0.078600 0.799369
O O11 0.000000 0.025438 0.750000
O O12 0.074159 0.933768 0.842812
O O13 0.500000 0.000000 0.500000
O O14 0.500000 0.832794 0.250000
#
# Coordination Sequence:
#
# PCOD8141996 Si02
#       6
#     8   8   8   8   8   8
#     4  11  22  41  66  87 125 165 214 260 310 383
#     4  10  21  38  60  89 125 159 200 255 314 371
#     4  10  23  42  62  87 122 170 209 249 318 382
#     4   9  19  37  59  84 120 161 205 246 307 377
#     4  11  19  35  63  92 115 158 210 258 298 364
#     4  11  22  37  61  90 120 163 205 256 315 381
#
# _framework density 21.695830999999998
#
# number of rings (size 3 to 8) (size 9 to 14) (size 15 to 20)
#    0.000    1.667    3.333    2.500    4.667    0.667 
#    3.000    0.833    0.000    0.000    0.000    0.000 
#    0.000    0.000    0.000    0.000    0.000    0.000 
#
# Total GULP energy -297468.003923 kJ/mol
# GULP energy per Si atom -12394.500163 kJ/mol
# Density = 2.164645 g / cm^3
# Si number density = 21.695831 Si / 1000 Ang^3
#
#
#
# Elastic Constant Matrix: (Units=GPa)
#
#
# Indices 1 2 3 4 5 6 
#
# 1 100.1484 18.1056 67.9109 -0.0004 8.2048 -0.0002
# 2 18.1056 31.1609 18.6684 0.0023 -13.1344 -0.0003
# 3 67.9109 18.6684 162.8536 0.0016 12.0337 0.0009
# 4 -0.0004 0.0023 0.0016 34.5686 0.0008 1.3075
# 5 8.2048 -13.1344 12.0337 0.0008 39.1953 -0.0001
# 6 -0.0002 -0.0003 0.0009 1.3075 -0.0001 20.7902
#
#
#
# Elastic Compliance Matrix: (Units=1/GPa)
#
#
# Indices 1 2 3 4 5 6 
#
# 1 0.015171 -0.007436 -0.005173 0.000001 -0.004079 0.000000
# 2 -0.007436 0.046158 -0.003529 -0.000003 0.018107 0.000001
# 3 -0.005173 -0.003529 0.008912 0.000000 -0.002836 0.000000
# 4 0.000001 -0.000003 0.000000 0.028997 -0.000002 -0.001824
# 5 -0.004079 0.018107 -0.002836 -0.000002 0.033306 0.000001
# 6 0.000000 0.000001 0.000000 -0.001824 0.000001 0.048214
#
#
# Mechanical properties :
#
#
# Convention : Reuss Voigt Hill
#
# Bulk Modulus (GPa) = 26.33847 55.94806 41.14327
# Shear Modulus (GPa) = 22.15455 31.54269 26.84862
#
# Velocity S-wave (km/s) = 3.19900 3.81709 3.52163
# Velocity P-wave (km/s) = 5.08046 6.72832 5.96160
#
# Compressibility (1/GPa) = 0.03796727
#
# Stress axis : x y z
#
# Youngs Moduli (GPa) = 65.91399 21.66465 112.21378
#
# Poissons Ratio (x) = 0.16109 0.58045
# Poissons Ratio (y) = 0.49011 0.39595
# Poissons Ratio (z) = 0.34095 0.07645
#
# Static dielectric constant tensor:
#      x y z
#    x 3.772720 0.000000 -0.119470 
#    y 0.000000 3.897600 0.000020 
#    z -0.119470 0.000020 3.999710 
# 
# 
# High freq. dielectric constant tensor:
#      x y z
#    x 1.844260 0.000000 -0.001030 
#    y 0.000000 1.814510 0.000000 
#    z -0.001030 0.000000 1.881610 
# 
# From -- ./inp_files/191953.got.cif
#   From: 2010.06.25/outbox.cif.g09.slc.cpg/sg15_96_cif.got.tgz:191953.got - 2010.06.28 07:06:18.
