data_PCOD8141676
_publ_section_title
;
Structure prediction by ZEFSAII (Michael W. Deem and Ramdas Pophale) SiO2 
 PCOD8141676
Probable space group: C 2/C
;
_chemical_formula_sum "Si O2"
_cell_formula_units_Z 48
_cell_length_a 28.563262
_cell_length_b 11.748381
_cell_length_c 8.948887
_cell_angle_alpha 90.000000
_cell_angle_beta 135.786032
_cell_angle_gamma 90.000000
_cell_volume 2094.109262
_symmetry_space_group_name_H-M "C 2/C"
_symmetry_group_IT_number 15
_symmetry_cell_setting 'monoclinic'
loop_
_space_group_symop_operation_xyz
x,y,z
-x,y,1/2-z
-x,-y,-z
x,-y,1/2+z
1/2+x,1/2+y,z
1/2-x,1/2+y,1/2-z
1/2-x,1/2-y,-z
1/2+x,1/2-y,1/2+z
loop_
_atom_site_type_symbol
_atom_site_label
_atom_site_fract_x
_atom_site_fract_y
_atom_site_fract_z
Si Si1 0.199598 0.087832 0.333202
Si Si2 0.698541 0.788012 0.102282
Si Si3 0.844874 0.457400 0.274242
Si Si4 0.339044 0.626805 0.922382
Si Si5 0.902355 0.707180 0.373938
Si Si6 0.018558 0.382757 0.967575
O O1 0.201458 0.206122 0.251342
O O2 0.275747 0.041286 0.524088
O O3 0.162459 0.110239 0.404029
O O4 0.156159 0.996756 0.142623
O O5 0.670476 0.911114 0.093780
O O6 0.773412 0.805524 0.212516
O O7 0.649899 0.739324 0.864864
O O8 0.877098 0.582196 0.365511
O O9 0.900666 0.371158 0.330067
O O10 0.401730 0.706042 0.013264
O O11 0.976397 0.709548 0.467460
O O12 0.000000 0.378022 0.750000
O O13 0.000000 0.500000 0.000000
#
# Coordination Sequence:
#
# PCOD8141676 Si02
#       6
#     8   8   8   8   8   8
#     4  11  24  39  61  93 130 166 206 263 313 386
#     4  11  22  37  62  89 126 165 204 260 319 374
#     4  10  21  37  61  90 130 160 206 247 315 374
#     4  11  23  38  59  92 129 165 210 254 329 366
#     4  11  22  38  63  91 129 167 205 259 312 383
#     4  10  21  40  59  90 124 169 205 247 308 374
#
# _framework density 22.921438999999999
#
# number of rings (size 3 to 8) (size 9 to 14) (size 15 to 20)
#    0.000    1.333    3.333    3.500    4.667    1.333 
#    6.000    0.000    0.000    1.000    0.000    0.000 
#    0.000    0.000    0.000    0.000    0.000    0.000 
#
# Total GULP energy -297481.376590 kJ/mol
# GULP energy per Si atom -12395.057358 kJ/mol
# Density = 2.286927 g / cm^3
# Si number density = 22.921439 Si / 1000 Ang^3
#
#
#
# Elastic Constant Matrix: (Units=GPa)
#
#
# Indices 1 2 3 4 5 6 
#
# 1 153.7292 44.3200 25.8682 0.0000 -14.7751 0.0000
# 2 44.3200 68.3904 19.6112 0.0000 -12.3870 0.0000
# 3 25.8682 19.6112 37.6422 0.0000 -18.2379 0.0000
# 4 0.0000 0.0000 0.0000 23.7078 0.0000 -8.9770
# 5 -14.7751 -12.3870 -18.2379 0.0000 25.0012 0.0000
# 6 0.0000 0.0000 0.0000 -8.9770 0.0000 46.1425
#
#
#
# Elastic Compliance Matrix: (Units=1/GPa)
#
#
# Indices 1 2 3 4 5 6 
#
# 1 0.008363 -0.004416 -0.003267 0.000000 0.000372 0.000000
# 2 -0.004416 0.019675 -0.005811 0.000000 0.002899 0.000000
# 3 -0.003267 -0.005811 0.045639 0.000000 0.028483 0.000000
# 4 0.000000 0.000000 0.000000 0.045535 0.000000 0.008859
# 5 0.000372 0.002899 0.028483 0.000000 0.062432 0.000000
# 6 0.000000 0.000000 0.000000 0.008859 0.000000 0.023395
#
#
# Mechanical properties :
#
#
# Convention : Reuss Voigt Hill
#
# Bulk Modulus (GPa) = 21.41807 48.81785 35.11796
# Shear Modulus (GPa) = 20.19471 30.30113 25.24792
#
# Velocity S-wave (km/s) = 2.97145 3.63982 3.32248
# Velocity P-wave (km/s) = 4.59751 6.24568 5.48387
#
# Compressibility (1/GPa) = 0.04668954
#
# Stress axis : x y z
#
# Youngs Moduli (GPa) = 119.56791 50.82573 21.91128
#
# Poissons Ratio (x) = 0.22444 0.07158
# Poissons Ratio (y) = 0.52799 0.12733
# Poissons Ratio (z) = 0.39061 0.29536
#
# Static dielectric constant tensor:
#      x y z
#    x 4.828760 0.000000 0.130670 
#    y 0.000000 3.895320 0.000000 
#    z 0.130670 0.000000 3.967640 
# 
# 
# High freq. dielectric constant tensor:
#      x y z
#    x 1.920180 0.000000 -0.020800 
#    y 0.000000 1.885230 0.000000 
#    z -0.020800 0.000000 1.881350 
# 
# From -- ./inp_files/65231.got.cif
#   From: 2010.06.25/outbox.cif.g09.slc.cpg/sg15_33_cif.got.tgz:65231.got - 2010.06.28 07:06:18.
