data_PCOD8141834
_publ_section_title
;
Structure prediction by ZEFSAII (Michael W. Deem and Ramdas Pophale) SiO2 
 PCOD8141834
Probable space group: C 2/C
;
_chemical_formula_sum "Si O2"
_cell_formula_units_Z 60
_cell_length_a 14.056586
_cell_length_b 12.584319
_cell_length_c 18.557434
_cell_angle_alpha 90.000000
_cell_angle_beta 63.244285
_cell_angle_gamma 90.000000
_cell_volume 2931.209627
_symmetry_space_group_name_H-M "C 2/C"
_symmetry_group_IT_number 15
_symmetry_cell_setting 'monoclinic'
loop_
_space_group_symop_operation_xyz
x,y,z
-x,y,1/2-z
-x,-y,-z
x,-y,1/2+z
1/2+x,1/2+y,z
1/2-x,1/2+y,1/2-z
1/2-x,1/2-y,-z
1/2+x,1/2-y,1/2+z
loop_
_atom_site_type_symbol
_atom_site_label
_atom_site_fract_x
_atom_site_fract_y
_atom_site_fract_z
Si Si1 0.329531 0.616398 0.525237
Si Si2 0.961321 0.767453 0.514139
Si Si3 0.486639 0.087931 0.613469
Si Si4 0.559726 0.131706 0.113126
Si Si5 0.168239 0.575680 0.304737
Si Si6 0.000000 0.274601 0.250000
Si Si7 0.267238 0.598187 0.123851
Si Si8 0.701180 0.687543 0.121375
O O1 0.445152 0.645466 0.518530
O O2 0.301864 0.499670 0.562445
O O3 0.331878 0.617747 0.437115
O O4 0.238944 0.696335 0.583438
O O5 0.006659 0.664864 0.540065
O O6 0.927501 0.728429 0.446947
O O7 0.857385 0.812222 0.589191
O O8 0.507424 0.151115 0.678793
O O9 0.569200 0.988587 0.576074
O O10 0.365225 0.043629 0.659560
O O11 0.439464 0.136455 0.187475
O O12 0.654091 0.146701 0.137921
O O13 0.255486 0.567465 0.211899
O O14 0.207062 0.632303 0.363897
O O15 0.102415 0.198481 0.210137
#
# Coordination Sequence:
#
# PCOD8141834 Si02
#       8
#     8   8   8   8   8   4   8   8
#     4  11  24  42  63  98 130 171 205 268 327 386
#     4  12  23  43  62  95 130 168 212 263 322 386
#     4  10  21  37  67  90 123 157 218 267 311 369
#     4  10  23  41  64  92 124 167 218 263 310 379
#     4  10  23  40  65  95 126 165 216 270 317 374
#     4  12  20  38  64 102 122 162 210 274 320 374
#     4  12  25  40  66  91 133 173 210 262 325 384
#     4  11  23  39  68  95 130 163 217 268 326 373
#
# _framework density 20.469365
#
# number of rings (size 3 to 8) (size 9 to 14) (size 15 to 20)
#    0.800    0.267    2.667    4.800    3.733    0.000 
#    0.000    0.000    0.000    0.000    0.000    0.000 
#    0.000    0.000    0.000    0.000    0.000    0.000 
#
# Total GULP energy -371886.361166 kJ/mol
# GULP energy per Si atom -12396.212039 kJ/mol
# Density = 2.042278 g / cm^3
# Si number density = 20.469365 Si / 1000 Ang^3
#
#
#
# Elastic Constant Matrix: (Units=GPa)
#
#
# Indices 1 2 3 4 5 6 
#
# 1 83.8918 14.4375 27.4014 0.0000 -1.1268 0.0000
# 2 14.4375 37.8074 20.1131 0.0000 0.5611 0.0000
# 3 27.4014 20.1131 71.1694 0.0000 -5.0168 0.0000
# 4 0.0000 0.0000 0.0000 34.4083 0.0000 -3.7797
# 5 -1.1268 0.5611 -5.0168 0.0000 34.8579 0.0000
# 6 0.0000 0.0000 0.0000 -3.7797 0.0000 29.2054
#
#
#
# Elastic Compliance Matrix: (Units=1/GPa)
#
#
# Indices 1 2 3 4 5 6 
#
# 1 0.013900 -0.002887 -0.004547 0.000000 -0.000159 0.000000
# 2 -0.002887 0.031840 -0.008011 0.000000 -0.001759 0.000000
# 3 -0.004547 -0.008011 0.018249 0.000000 0.002608 0.000000
# 4 0.000000 0.000000 0.000000 0.029482 0.000000 0.003816
# 5 -0.000159 -0.001759 0.002608 0.000000 0.029087 0.000000
# 6 0.000000 0.000000 0.000000 0.003816 0.000000 0.034734
#
#
# Mechanical properties :
#
#
# Convention : Reuss Voigt Hill
#
# Bulk Modulus (GPa) = 30.21120 35.19694 32.70407
# Shear Modulus (GPa) = 25.09859 28.42210 26.76034
#
# Velocity S-wave (km/s) = 3.50545 3.73033 3.61963
# Velocity P-wave (km/s) = 5.58350 5.98214 5.78626
#
# Compressibility (1/GPa) = 0.03310030
#
# Stress axis : x y z
#
# Youngs Moduli (GPa) = 71.94257 31.40709 54.79603
#
# Poissons Ratio (x) = 0.09066 0.24916
# Poissons Ratio (y) = 0.20767 0.43896
# Poissons Ratio (z) = 0.32713 0.25160
#
# Static dielectric constant tensor:
#      x y z
#    x 3.768270 0.000000 -0.050570 
#    y 0.000000 3.547580 0.000000 
#    z -0.050570 0.000000 3.055290 
# 
# 
# High freq. dielectric constant tensor:
#      x y z
#    x 1.805530 0.000000 -0.004330 
#    y 0.000000 1.780580 0.000000 
#    z -0.004330 0.000000 1.799490 
# 
# From -- ./inp_files/204413.got.cif
#   From: 2010.06.25/outbox.cif.g09.slc.cpg/sg15_103_cif.got.tgz:204413.got - 2010.06.28 07:06:18.
