data_PCOD8141944
_publ_section_title
;
Structure prediction by ZEFSAII (Michael W. Deem and Ramdas Pophale) SiO2 
 PCOD8141944
Probable space group: C 2/C
;
_chemical_formula_sum "Si O2"
_cell_formula_units_Z 64
_cell_length_a 24.838711
_cell_length_b 13.866530
_cell_length_c 9.949832
_cell_angle_alpha 90.000000
_cell_angle_beta 74.559672
_cell_angle_gamma 90.000000
_cell_volume 3303.302121
_symmetry_space_group_name_H-M "C 2/C"
_symmetry_group_IT_number 15
_symmetry_cell_setting 'monoclinic'
loop_
_space_group_symop_operation_xyz
x,y,z
-x,y,1/2-z
-x,-y,-z
x,-y,1/2+z
1/2+x,1/2+y,z
1/2-x,1/2+y,1/2-z
1/2-x,1/2-y,-z
1/2+x,1/2-y,1/2+z
loop_
_atom_site_type_symbol
_atom_site_label
_atom_site_fract_x
_atom_site_fract_y
_atom_site_fract_z
Si Si1 0.713522 0.242402 0.154899
Si Si2 0.949852 0.750146 0.883479
Si Si3 0.367080 0.925234 0.490405
Si Si4 0.884927 0.596452 0.279912
Si Si5 0.750971 0.159828 0.404755
Si Si6 0.632961 0.574889 0.088086
Si Si7 0.860980 0.906448 0.220020
Si Si8 0.041177 0.240448 0.829898
O O1 0.662465 0.173236 0.151904
O O2 0.747584 0.194281 0.253511
O O3 0.696833 0.352709 0.204744
O O4 0.750000 0.250000 0.000000
O O5 0.902553 0.667907 0.921959
O O6 0.917082 0.847844 0.863725
O O7 0.000000 0.725821 0.750000
O O8 0.983332 0.755417 0.003092
O O9 0.376515 0.951438 0.639645
O O10 0.301058 0.906808 0.515864
O O11 0.387425 0.014619 0.389723
O O12 0.943584 0.654025 0.239361
O O13 0.750000 0.250000 0.500000
O O14 0.809123 0.105842 0.382869
O O15 0.616485 0.480603 0.183732
O O16 0.643011 0.546094 0.925608
O O17 0.903321 0.819162 0.185411
O O18 0.000000 0.190258 0.750000
#
# Coordination Sequence:
#
# PCOD8141944 Si02
#       8
#     8   8   8   8   8   8   8   8
#     4  10  22  39  55  86 123 155 193 239 285 343
#     4  10  22  41  60  84 117 151 195 245 291 351
#     4  10  21  38  59  86 119 153 192 236 292 346
#     4   9  21  38  57  86 118 151 191 239 287 347
#     4  11  20  39  62  80 120 162 188 233 290 347
#     4  11  23  40  60  89 118 157 198 238 294 348
#     4  10  23  39  59  85 121 151 196 244 288 349
#     4   9  20  42  62  79 115 156 192 243 296 341
#
# _framework density 19.374552999999999
#
# number of rings (size 3 to 8) (size 9 to 14) (size 15 to 20)
#    0.000    2.000    2.500    1.500    3.500    5.000 
#    2.250    5.000    0.000    0.000    0.000    0.000 
#    0.000    0.000    0.000    0.000    0.000    0.000 
#
# Total GULP energy -396657.945942 kJ/mol
# GULP energy per Si atom -12395.560811 kJ/mol
# Density = 1.933046 g / cm^3
# Si number density = 19.374553 Si / 1000 Ang^3
#
#
#
# Elastic Constant Matrix: (Units=GPa)
#
#
# Indices 1 2 3 4 5 6 
#
# 1 71.5569 0.3023 36.6246 0.0000 6.6437 0.0000
# 2 0.3023 76.6914 45.7107 0.0000 5.9179 0.0000
# 3 36.6246 45.7107 148.6271 0.0000 -3.0466 0.0000
# 4 0.0000 0.0000 0.0000 34.8237 0.0000 9.8488
# 5 6.6437 5.9179 -3.0466 0.0000 27.3619 0.0000
# 6 0.0000 0.0000 0.0000 9.8488 0.0000 12.2600
#
#
#
# Elastic Compliance Matrix: (Units=1/GPa)
#
#
# Indices 1 2 3 4 5 6 
#
# 1 0.017292 0.003639 -0.005495 0.000000 -0.005597 0.000000
# 2 0.003639 0.017183 -0.006290 0.000000 -0.005300 0.000000
# 3 -0.005495 -0.006290 0.010095 0.000000 0.003819 0.000000
# 4 0.000000 0.000000 0.000000 0.037158 0.000000 -0.029850
# 5 -0.005597 -0.005300 0.003819 0.000000 0.039478 0.000000
# 6 0.000000 0.000000 0.000000 -0.029850 0.000000 0.105545
#
#
# Mechanical properties :
#
#
# Convention : Reuss Voigt Hill
#
# Bulk Modulus (GPa) = 35.36359 51.35007 43.35683
# Shear Modulus (GPa) = 19.80439 29.17164 24.48802
#
# Velocity S-wave (km/s) = 3.20063 3.88450 3.55903
# Velocity P-wave (km/s) = 5.65252 6.83232 6.27023
#
# Compressibility (1/GPa) = 0.02827767
#
# Stress axis : x y z
#
# Youngs Moduli (GPa) = 57.83151 58.19706 99.05810
#
# Poissons Ratio (x) = -0.21177 0.54431
# Poissons Ratio (y) = -0.21044 0.62308
# Poissons Ratio (z) = 0.31778 0.36606
#
# Static dielectric constant tensor:
#      x y z
#    x 3.357230 0.000000 0.128350 
#    y 0.000000 3.318040 0.000000 
#    z 0.128350 0.000000 3.620970 
# 
# 
# High freq. dielectric constant tensor:
#      x y z
#    x 1.749340 0.000000 0.004380 
#    y 0.000000 1.748950 0.000000 
#    z 0.004380 0.000000 1.765810 
# 
# From -- ./inp_files/66189.got.cif
#   From: 2010.06.25/outbox.cif.g09.slc.cpg/sg15_34_cif.got.tgz:66189.got - 2010.06.28 07:06:18.
