data_PCOD8141498
_publ_section_title
;
Structure prediction by ZEFSAII (Michael W. Deem and Ramdas Pophale) SiO2 
 PCOD8141498
Probable space group: C 2/C
;
_chemical_formula_sum "Si O2"
_cell_formula_units_Z 44
_cell_length_a 13.693730
_cell_length_b 18.217648
_cell_length_c 9.323417
_cell_angle_alpha 90.000000
_cell_angle_beta 91.517056
_cell_angle_gamma 90.000000
_cell_volume 2325.074772
_symmetry_space_group_name_H-M "C 2/C"
_symmetry_group_IT_number 15
_symmetry_cell_setting 'monoclinic'
loop_
_space_group_symop_operation_xyz
x,y,z
-x,y,1/2-z
-x,-y,-z
x,-y,1/2+z
1/2+x,1/2+y,z
1/2-x,1/2+y,1/2-z
1/2-x,1/2-y,-z
1/2+x,1/2-y,1/2+z
loop_
_atom_site_type_symbol
_atom_site_label
_atom_site_fract_x
_atom_site_fract_y
_atom_site_fract_z
Si Si1 0.000000 0.494482 0.250000
Si Si2 0.259159 0.857635 0.600841
Si Si3 0.618646 0.713495 0.594354
Si Si4 0.632590 0.020444 0.510096
Si Si5 0.106078 0.226230 0.919387
Si Si6 0.725284 0.134934 0.071472
O O1 0.938063 0.540021 0.128920
O O2 0.921184 0.451411 0.345667
O O3 0.163409 0.816769 0.544021
O O4 0.357940 0.810418 0.580055
O O5 0.242570 0.878860 0.764655
O O6 0.270627 0.931438 0.507248
O O7 0.628885 0.694667 0.762543
O O8 0.506273 0.717354 0.543091
O O9 0.659691 0.792925 0.553445
O O10 0.675890 0.647966 0.516035
O O11 0.662411 0.934704 0.514388
#
# Coordination Sequence:
#
# PCOD8141498 Si02
#       6
#     4   8   8   8   8   8
#     4  10  24  34  56  86 114 150 180 216 292 326
#     4  10  21  37  56  83 115 145 179 230 275 327
#     4   9  20  37  58  80 110 147 186 226 275 325
#     4  11  22  38  55  86 114 146 183 230 273 336
#     4   9  20  37  58  80 110 147 186 226 275 325
#     4  10  21  37  56  83 115 145 179 230 275 327
#
# _framework density 18.924122000000001
#
# number of rings (size 3 to 8) (size 9 to 14) (size 15 to 20)
#    0.000    2.182    1.818    0.000    7.636    0.727 
#    0.000    0.909    0.000    0.000    0.000    0.000 
#    0.000    0.000    0.000    0.000    0.000    0.000 
#
# Total GULP energy -272632.876450 kJ/mol
# GULP energy per Si atom -12392.403475 kJ/mol
# Density = 1.888105 g / cm^3
# Si number density = 18.924122 Si / 1000 Ang^3
#
#
#
# Elastic Constant Matrix: (Units=GPa)
#
#
# Indices 1 2 3 4 5 6 
#
# 1 112.5533 31.5318 51.0568 0.0000 -14.1820 0.0000
# 2 31.5318 71.0894 38.4834 0.0000 -7.7541 0.0000
# 3 51.0568 38.4834 113.0117 0.0000 -11.0430 0.0000
# 4 0.0000 0.0000 0.0000 20.3952 0.0000 -5.6920
# 5 -14.1820 -7.7541 -11.0430 0.0000 34.9069 0.0000
# 6 0.0000 0.0000 0.0000 -5.6920 0.0000 10.7818
#
#
#
# Elastic Compliance Matrix: (Units=1/GPa)
#
#
# Indices 1 2 3 4 5 6 
#
# 1 0.011902 -0.002703 -0.004172 0.000000 0.002915 0.000000
# 2 -0.002703 0.018001 -0.004773 0.000000 0.001391 0.000000
# 3 -0.004172 -0.004773 0.012475 0.000000 0.001191 0.000000
# 4 0.000000 0.000000 0.000000 0.057504 0.000000 0.030358
# 5 0.002915 0.001391 0.001191 0.000000 0.030518 0.000000
# 6 0.000000 0.000000 0.000000 0.030358 0.000000 0.108776
#
#
# Mechanical properties :
#
#
# Convention : Reuss Voigt Hill
#
# Bulk Modulus (GPa) = 52.40246 59.86647 56.13446
# Shear Modulus (GPa) = 18.59909 24.92228 21.76068
#
# Velocity S-wave (km/s) = 3.13840 3.63293 3.39468
# Velocity P-wave (km/s) = 6.39404 7.02148 6.71509
#
# Compressibility (1/GPa) = 0.01908307
#
# Stress axis : x y z
#
# Youngs Moduli (GPa) = 84.02266 55.55243 80.15978
#
# Poissons Ratio (x) = 0.15014 0.33441
# Poissons Ratio (y) = 0.22708 0.38259
# Poissons Ratio (z) = 0.35052 0.26515
#
# Static dielectric constant tensor:
#      x y z
#    x 3.444110 0.000000 -0.122600 
#    y 0.000000 3.171460 0.000000 
#    z -0.122600 0.000000 3.632360 
# 
# 
# High freq. dielectric constant tensor:
#      x y z
#    x 1.731950 0.000000 -0.005370 
#    y 0.000000 1.706280 0.000000 
#    z -0.005370 0.000000 1.748710 
# 
# From -- ./inp_files/39240.got.cif
#   From: 2010.06.25/outbox.cif.g09.slc.cpg/sg15_20_cif.got.tgz:39240.got - 2010.06.28 07:06:18.
