data_PCOD8141883
_publ_section_title
;
Structure prediction by ZEFSAII (Michael W. Deem and Ramdas Pophale) SiO2 
 PCOD8141883
Probable space group: C 2/C
;
_chemical_formula_sum "Si O2"
_cell_formula_units_Z 56
_cell_length_a 20.095124
_cell_length_b 8.508974
_cell_length_c 18.049493
_cell_angle_alpha 90.000000
_cell_angle_beta 119.421732
_cell_angle_gamma 90.000000
_cell_volume 2688.219868
_symmetry_space_group_name_H-M "C 2/C"
_symmetry_group_IT_number 15
_symmetry_cell_setting 'monoclinic'
loop_
_space_group_symop_operation_xyz
x,y,z
-x,y,1/2-z
-x,-y,-z
x,-y,1/2+z
1/2+x,1/2+y,z
1/2-x,1/2+y,1/2-z
1/2-x,1/2-y,-z
1/2+x,1/2-y,1/2+z
loop_
_atom_site_type_symbol
_atom_site_label
_atom_site_fract_x
_atom_site_fract_y
_atom_site_fract_z
Si Si1 0.167434 0.509447 0.263300
Si Si2 0.094519 0.975547 0.222014
Si Si3 0.955448 0.856376 0.057180
Si Si4 0.303426 0.288535 0.327885
Si Si5 0.069163 0.803625 0.994631
Si Si6 0.469000 0.810010 0.312727
Si Si7 0.084493 0.717907 0.325386
O O1 0.222470 0.360316 0.308459
O O2 0.205363 0.633681 0.227482
O O3 0.086693 0.445853 0.185636
O O4 0.146905 0.591999 0.330363
O O5 0.156405 0.930783 0.194061
O O6 0.110983 0.888997 0.308494
O O7 0.013881 0.911227 0.151513
O O8 0.086866 0.160704 0.227370
O O9 0.907096 0.729208 0.079465
O O10 0.910839 0.011438 0.005650
O O11 0.996613 0.778142 0.009556
O O12 0.353540 0.235095 0.426978
O O13 0.043029 0.715912 0.905601
O O14 0.500000 0.861088 0.250000
O O15 0.000000 0.668236 0.250000
#
# Coordination Sequence:
#
# PCOD8141883 Si02
#       7
#     8   8   8   8   8   8   8
#     4  11  23  37  57  81 113 155 193 236 285 344
#     4   8  15  30  55  81 110 145 181 226 279 337
#     4   8  14  28  54  85 111 142 185 229 277 332
#     4  10  21  38  57  83 117 154 195 230 280 345
#     4   9  18  33  57  85 116 149 187 240 284 333
#     4  11  21  35  58  87 113 145 191 241 293 343
#     4   9  16  31  55  84 113 144 185 234 283 333
#
# _framework density 20.831627999999998
#
# number of rings (size 3 to 8) (size 9 to 14) (size 15 to 20)
#    0.000    2.571    0.000    5.143    0.000    0.571 
#    0.000    1.429    0.000    1.714    0.000    0.000 
#    0.000    0.000    0.000    0.000    0.000    0.000 
#
# Total GULP energy -346876.672150 kJ/mol
# GULP energy per Si atom -12388.452577 kJ/mol
# Density = 2.078421 g / cm^3
# Si number density = 20.831628 Si / 1000 Ang^3
#
#
#
# Elastic Constant Matrix: (Units=GPa)
#
#
# Indices 1 2 3 4 5 6 
#
# 1 79.2058 41.8693 45.7867 0.0000 -8.4980 0.0000
# 2 41.8693 78.5752 20.6739 0.0000 -2.2174 0.0000
# 3 45.7867 20.6739 92.4170 0.0000 -10.9315 0.0000
# 4 0.0000 0.0000 0.0000 8.6963 0.0000 4.7554
# 5 -8.4980 -2.2174 -10.9315 0.0000 27.0492 0.0000
# 6 0.0000 0.0000 0.0000 4.7554 0.0000 42.4889
#
#
#
# Elastic Compliance Matrix: (Units=1/GPa)
#
#
# Indices 1 2 3 4 5 6 
#
# 1 0.023473 -0.010048 -0.009039 0.000000 0.002898 0.000000
# 2 -0.010048 0.017824 0.000830 0.000000 -0.001360 0.000000
# 3 -0.009039 0.000830 0.015527 0.000000 0.003504 0.000000
# 4 0.000000 0.000000 0.000000 0.122488 0.000000 -0.013709
# 5 0.002898 -0.001360 0.003504 0.000000 0.039184 0.000000
# 6 0.000000 0.000000 0.000000 -0.013709 0.000000 0.025070
#
#
# Mechanical properties :
#
#
# Convention : Reuss Voigt Hill
#
# Bulk Modulus (GPa) = 49.23471 51.87310 50.55391
# Shear Modulus (GPa) = 17.43072 25.10474 21.26773
#
# Velocity S-wave (km/s) = 2.89579 3.47526 3.19867
# Velocity P-wave (km/s) = 5.90480 6.40768 6.16138
#
# Compressibility (1/GPa) = 0.02031087
#
# Stress axis : x y z
#
# Youngs Moduli (GPa) = 42.60295 56.10458 64.40231
#
# Poissons Ratio (x) = 0.56371 0.58211
# Poissons Ratio (y) = 0.42806 -0.05344
# Poissons Ratio (z) = 0.38508 -0.04656
#
# Static dielectric constant tensor:
#      x y z
#    x 3.725550 0.000000 -0.243630 
#    y 0.000000 3.817860 0.000000 
#    z -0.243630 0.000000 3.575090 
# 
# 
# High freq. dielectric constant tensor:
#      x y z
#    x 1.801140 0.000000 -0.023000 
#    y 0.000000 1.811750 0.000000 
#    z -0.023000 0.000000 1.779140 
# 
# From -- ./inp_files/214042.got.cif
#   From: 2010.06.25/outbox.cif.g09.slc.cpg/sg15_108_cif.got.tgz:214042.got - 2010.06.28 07:06:18.
