data_PCOD8141884
_publ_section_title
;
Structure prediction by ZEFSAII (Michael W. Deem and Ramdas Pophale) SiO2 
 PCOD8141884
Probable space group: C 2/C
;
_chemical_formula_sum "Si O2"
_cell_formula_units_Z 44
_cell_length_a 10.689380
_cell_length_b 8.827086
_cell_length_c 24.594110
_cell_angle_alpha 90.000000
_cell_angle_beta 114.171423
_cell_angle_gamma 90.000000
_cell_volume 2117.143534
_symmetry_space_group_name_H-M "C 2/C"
_symmetry_group_IT_number 15
_symmetry_cell_setting 'monoclinic'
loop_
_space_group_symop_operation_xyz
x,y,z
-x,y,1/2-z
-x,-y,-z
x,-y,1/2+z
1/2+x,1/2+y,z
1/2-x,1/2+y,1/2-z
1/2-x,1/2-y,-z
1/2+x,1/2-y,1/2+z
loop_
_atom_site_type_symbol
_atom_site_label
_atom_site_fract_x
_atom_site_fract_y
_atom_site_fract_z
Si Si1 0.001957 0.323406 0.836749
Si Si2 0.600551 0.178398 0.472569
Si Si3 0.531725 0.833809 0.336389
Si Si4 0.316546 0.318624 0.730099
Si Si5 0.500000 0.591237 0.750000
Si Si6 0.601475 0.823388 0.470013
O O1 0.065232 0.487938 0.835336
O O2 0.843639 0.325297 0.792328
O O3 0.066592 0.195285 0.809492
O O4 0.025728 0.278107 0.903216
O O5 0.750000 0.250000 0.500000
O O6 0.503740 0.243089 0.503612
O O7 0.620353 0.000514 0.483202
O O8 0.644983 0.738883 0.323579
O O9 0.381001 0.795322 0.286220
O O10 0.535766 0.786518 0.399964
O O11 0.377622 0.486352 0.750956
O O12 0.750000 0.750000 0.500000
#
# Coordination Sequence:
#
# PCOD8141884 Si02
#       6
#     8   8   8   8   4   8
#     4  11  21  37  58  81 115 151 183 231 288 337
#     4  10  24  39  57  88 119 149 194 241 283 339
#     4   9  20  37  58  84 114 147 189 233 281 338
#     4  10  21  38  57  84 114 144 187 237 281 335
#     4  10  22  34  58  86 108 146 188 228 284 342
#     4  10  21  41  63  82 115 159 192 234 288 338
#
# _framework density 20.782719
#
# number of rings (size 3 to 8) (size 9 to 14) (size 15 to 20)
#    0.000    2.182    0.000    3.273    0.000    9.455 
#    0.000    5.455    0.000    0.000    0.000    0.000 
#    0.000    0.000    0.000    0.000    0.000    0.000 
#
# Total GULP energy -272800.768595 kJ/mol
# GULP energy per Si atom -12400.034936 kJ/mol
# Density = 2.073542 g / cm^3
# Si number density = 20.782719 Si / 1000 Ang^3
#
#
#
# Elastic Constant Matrix: (Units=GPa)
#
#
# Indices 1 2 3 4 5 6 
#
# 1 98.2241 17.6708 39.7247 0.0000 -1.3631 0.0000
# 2 17.6708 77.2539 46.8810 0.0000 -13.7620 0.0000
# 3 39.7247 46.8810 140.8589 0.0000 -21.2916 0.0000
# 4 0.0000 0.0000 0.0000 22.1507 0.0000 1.1799
# 5 -1.3631 -13.7620 -21.2916 0.0000 37.0771 0.0000
# 6 0.0000 0.0000 0.0000 1.1799 0.0000 25.7687
#
#
#
# Elastic Compliance Matrix: (Units=1/GPa)
#
#
# Indices 1 2 3 4 5 6 
#
# 1 0.011640 -0.001035 -0.003210 0.000000 -0.001800 0.000000
# 2 -0.001035 0.016666 -0.004737 0.000000 0.003428 0.000000
# 3 -0.003210 -0.004737 0.010181 0.000000 0.003970 0.000000
# 4 0.000000 0.000000 0.000000 0.045256 0.000000 -0.002072
# 5 -0.001800 0.003428 0.003970 0.000000 0.030457 0.000000
# 6 0.000000 0.000000 0.000000 -0.002072 0.000000 0.038902
#
#
# Mechanical properties :
#
#
# Convention : Reuss Voigt Hill
#
# Bulk Modulus (GPa) = 48.72460 58.32110 53.52285
# Shear Modulus (GPa) = 28.10441 31.13666 29.62054
#
# Velocity S-wave (km/s) = 3.68135 3.87486 3.77934
# Velocity P-wave (km/s) = 6.44713 6.93849 6.69731
#
# Compressibility (1/GPa) = 0.02052351
#
# Stress axis : x y z
#
# Youngs Moduli (GPa) = 85.90777 60.00154 98.21858
#
# Poissons Ratio (x) = 0.06210 0.31532
# Poissons Ratio (y) = 0.08892 0.46525
# Poissons Ratio (z) = 0.27580 0.28422
#
# Static dielectric constant tensor:
#      x y z
#    x 3.644140 0.000000 -0.130540 
#    y 0.000000 3.882520 0.000000 
#    z -0.130540 0.000000 4.047370 
# 
# 
# High freq. dielectric constant tensor:
#      x y z
#    x 1.805300 0.000000 -0.006480 
#    y 0.000000 1.816140 0.000000 
#    z -0.006480 0.000000 1.821580 
# 
# From -- ./inp_files/268150.got.cif
#   From: 2010.06.25/outbox.cif.g09.slc.cpg/sg15_135_cif.got.tgz:268150.got - 2010.06.28 07:06:18.
