data_PCOD8141555
_publ_section_title
;
Structure prediction by ZEFSAII (Michael W. Deem and Ramdas Pophale) SiO2 
 PCOD8141555
Probable space group: C 2/C
;
_chemical_formula_sum "Si O2"
_cell_formula_units_Z 56
_cell_length_a 12.052260
_cell_length_b 14.522454
_cell_length_c 15.653463
_cell_angle_alpha 90.000000
_cell_angle_beta 85.771130
_cell_angle_gamma 90.000000
_cell_volume 2732.341199
_symmetry_space_group_name_H-M "C 2/C"
_symmetry_group_IT_number 15
_symmetry_cell_setting 'monoclinic'
loop_
_space_group_symop_operation_xyz
x,y,z
-x,y,1/2-z
-x,-y,-z
x,-y,1/2+z
1/2+x,1/2+y,z
1/2-x,1/2+y,1/2-z
1/2-x,1/2-y,-z
1/2+x,1/2-y,1/2+z
loop_
_atom_site_type_symbol
_atom_site_label
_atom_site_fract_x
_atom_site_fract_y
_atom_site_fract_z
Si Si1 0.500000 0.813581 0.250000
Si Si2 0.025338 0.797966 0.916988
Si Si3 0.920842 0.289558 0.914152
Si Si4 0.315588 0.044717 0.782363
Si Si5 0.769624 0.929483 0.560229
Si Si6 0.605311 0.383026 0.191385
Si Si7 0.088056 0.971463 0.565299
Si Si8 0.000000 0.600154 0.250000
O O1 0.456972 0.755842 0.171904
O O2 0.599396 0.872985 0.204087
O O3 0.127276 0.868733 0.914701
O O4 0.913476 0.861395 0.918947
O O5 0.012237 0.735144 0.002772
O O6 0.829481 0.360213 0.952858
O O7 0.865305 0.196013 0.880106
O O8 0.993443 0.337857 0.835956
O O9 0.218623 0.088861 0.731172
O O10 0.258891 0.008223 0.870529
O O11 0.388503 0.960306 0.738964
O O12 0.792884 0.988750 0.472956
O O13 0.500000 0.343376 0.250000
O O14 0.556500 0.476130 0.153534
O O15 0.000000 0.000000 0.500000
#
# Coordination Sequence:
#
# PCOD8141555 Si02
#       8
#     4   8   8   8   8   8   8   4
#     4  11  26  46  61  90 132 168 213 260 316 369
#     4  11  23  40  61  92 128 162 210 264 313 366
#     4  11  21  38  66  93 123 166 211 261 300 383
#     4  10  24  43  64  89 128 170 207 257 314 383
#     4  10  21  39  63  90 123 163 214 252 314 374
#     4  12  22  37  68  93 125 165 212 258 316 368
#     4  10  21  37  58  90 125 158 204 259 308 373
#     4   9  22  46  61  94 130 166 211 252 318 377
#
# _framework density 20.495245000000001
#
# number of rings (size 3 to 8) (size 9 to 14) (size 15 to 20)
#    0.000    1.429    3.571    3.000    5.000    0.000 
#    2.571    2.857    0.000    0.000    0.000    0.000 
#    0.000    0.000    0.000    0.000    0.000    0.000 
#
# Total GULP energy -346937.778173 kJ/mol
# GULP energy per Si atom -12390.634935 kJ/mol
# Density = 2.044860 g / cm^3
# Si number density = 20.495245 Si / 1000 Ang^3
#
#
#
# Elastic Constant Matrix: (Units=GPa)
#
#
# Indices 1 2 3 4 5 6 
#
# 1 69.3626 28.8915 21.2484 0.0000 -9.9817 0.0000
# 2 28.8915 111.6088 50.3899 0.0000 -8.9504 0.0000
# 3 21.2484 50.3899 96.4376 0.0000 -11.8414 0.0000
# 4 0.0000 0.0000 0.0000 31.8640 0.0000 -7.5052
# 5 -9.9817 -8.9504 -11.8414 0.0000 29.2101 0.0000
# 6 0.0000 0.0000 0.0000 -7.5052 0.0000 24.1418
#
#
#
# Elastic Compliance Matrix: (Units=1/GPa)
#
#
# Indices 1 2 3 4 5 6 
#
# 1 0.016863 -0.003383 -0.001439 0.000000 0.004142 0.000000
# 2 -0.003383 0.012443 -0.005714 0.000000 0.000340 0.000000
# 3 -0.001439 -0.005714 0.014099 0.000000 0.003473 0.000000
# 4 0.000000 0.000000 0.000000 0.033863 0.000000 0.010527
# 5 0.004142 0.000340 0.003473 0.000000 0.037162 0.000000
# 6 0.000000 0.000000 0.000000 0.010527 0.000000 0.044695
#
#
# Mechanical properties :
#
#
# Convention : Reuss Voigt Hill
#
# Bulk Modulus (GPa) = 44.78020 53.16317 48.97169
# Shear Modulus (GPa) = 26.64648 28.83513 27.74081
#
# Velocity S-wave (km/s) = 3.60964 3.75496 3.68302
# Velocity P-wave (km/s) = 6.26651 6.69292 6.48323
#
# Compressibility (1/GPa) = 0.02233130
#
# Stress axis : x y z
#
# Youngs Moduli (GPa) = 59.30072 80.36684 70.92843
#
# Poissons Ratio (x) = 0.27191 0.10207
# Poissons Ratio (y) = 0.20064 0.40531
# Poissons Ratio (z) = 0.08533 0.45925
#
# Static dielectric constant tensor:
#      x y z
#    x 4.004870 0.000000 -0.424700 
#    y 0.000000 4.303670 0.000000 
#    z -0.424700 0.000000 3.755640 
# 
# 
# High freq. dielectric constant tensor:
#      x y z
#    x 1.781820 0.000000 -0.019080 
#    y 0.000000 1.819110 0.000000 
#    z -0.019080 0.000000 1.803130 
# 
# From -- ./inp_files/144287.got.cif
#   From: 2010.06.25/outbox.cif.g09.slc.cpg/sg15_73_cif.got.tgz:144287.got - 2010.06.28 07:06:18.
