data_PCOD8141053
_publ_section_title
;
Structure prediction by ZEFSAII (Michael W. Deem and Ramdas Pophale) SiO2 
 PCOD8141053
Probable space group: C 2/C
;
_chemical_formula_sum "Si O2"
_cell_formula_units_Z 48
_cell_length_a 21.012657
_cell_length_b 24.458305
_cell_length_c 5.366713
_cell_angle_alpha 90.000000
_cell_angle_beta 60.738424
_cell_angle_gamma 90.000000
_cell_volume 2406.190433
_symmetry_space_group_name_H-M "C 2/C"
_symmetry_group_IT_number 15
_symmetry_cell_setting 'monoclinic'
loop_
_space_group_symop_operation_xyz
x,y,z
-x,y,1/2-z
-x,-y,-z
x,-y,1/2+z
1/2+x,1/2+y,z
1/2-x,1/2+y,1/2-z
1/2-x,1/2-y,-z
1/2+x,1/2-y,1/2+z
loop_
_atom_site_type_symbol
_atom_site_label
_atom_site_fract_x
_atom_site_fract_y
_atom_site_fract_z
Si Si1 0.658580 0.352018 0.948891
Si Si2 0.084789 0.032576 0.588121
Si Si3 0.695515 0.825669 0.039605
Si Si4 0.299179 0.717046 0.722028
Si Si5 0.961084 0.338127 0.073736
Si Si6 0.461176 0.708310 0.071528
O O1 0.747680 0.353154 0.764269
O O2 0.620792 0.319481 0.784870
O O3 0.631346 0.412994 0.022593
O O4 0.639918 0.316921 0.236620
O O5 0.000000 0.048038 0.750000
O O6 0.105419 0.003888 0.288078
O O7 0.744309 0.823728 0.191363
O O8 0.622505 0.860004 0.241465
O O9 0.665547 0.764878 0.017960
O O10 0.250000 0.750000 0.000000
O O11 0.962198 0.273083 0.050847
O O12 0.000000 0.358909 0.250000
O O13 0.000000 0.362424 0.750000
O O14 0.500000 0.687815 0.250000
O O15 0.500000 0.683268 0.750000
#
# Coordination Sequence:
#
# PCOD8141053 Si02
#       6
#     8   8   8   8   8   8
#     4  11  23  35  62  82 111 157 202 249 302 359
#     4  10  24  45  63  84 118 154 198 259 312 345
#     4  10  21  35  53  81 117 152 198 239 293 350
#     4   9  19  32  54  80 116 149 193 244 292 346
#     4  10  22  35  51  73 115 161 188 229 281 334
#     4  10  22  33  49  78 111 148 200 239 273 337
#
# _framework density 19.948544999999999
#
# number of rings (size 3 to 8) (size 9 to 14) (size 15 to 20)
#    0.000    2.000    0.000    3.500   16.333    2.000 
#    0.000    0.000    0.000    0.000    0.000    0.000 
#    0.000    4.000    0.000    0.000    0.000    0.000 
#
# Total GULP energy -297361.722621 kJ/mol
# GULP energy per Si atom -12390.071776 kJ/mol
# Density = 1.990314 g / cm^3
# Si number density = 19.948545 Si / 1000 Ang^3
#
#
#
# Elastic Constant Matrix: (Units=GPa)
#
#
# Indices 1 2 3 4 5 6 
#
# 1 111.1189 27.9600 59.2025 0.0000 7.2899 0.0000
# 2 27.9600 75.8316 15.8476 0.0000 9.3836 0.0000
# 3 59.2025 15.8476 109.3596 0.0000 11.9636 0.0000
# 4 0.0000 0.0000 0.0000 13.5977 0.0000 -0.8798
# 5 7.2899 9.3836 11.9636 0.0000 43.5278 0.0000
# 6 0.0000 0.0000 0.0000 -0.8798 0.0000 26.3566
#
#
#
# Elastic Compliance Matrix: (Units=1/GPa)
#
#
# Indices 1 2 3 4 5 6 
#
# 1 0.013527 -0.003606 -0.006843 0.000000 0.000393 0.000000
# 2 -0.003606 0.014822 0.000091 0.000000 -0.002616 0.000000
# 3 -0.006843 0.000091 0.013107 0.000000 -0.002476 0.000000
# 4 0.000000 0.000000 0.000000 0.073701 0.000000 0.002460
# 5 0.000393 -0.002616 -0.002476 0.000000 0.024152 0.000000
# 6 0.000000 0.000000 0.000000 0.002460 0.000000 0.038023
#
#
# Mechanical properties :
#
#
# Convention : Reuss Voigt Hill
#
# Bulk Modulus (GPa) = 48.22211 55.81447 52.01829
# Shear Modulus (GPa) = 24.39479 29.58308 26.98894
#
# Velocity S-wave (km/s) = 3.50077 3.85511 3.68221
# Velocity P-wave (km/s) = 6.36917 6.91779 6.64914
#
# Compressibility (1/GPa) = 0.02073737
#
# Stress axis : x y z
#
# Youngs Moduli (GPa) = 73.92636 67.46946 76.29774
#
# Poissons Ratio (x) = 0.24330 0.52213
# Poissons Ratio (y) = 0.26658 -0.00691
# Poissons Ratio (z) = 0.50590 -0.00611
#
# Static dielectric constant tensor:
#      x y z
#    x 3.996110 0.000000 0.270070 
#    y 0.000000 3.062320 0.000000 
#    z 0.270070 0.000000 4.080540 
# 
# 
# High freq. dielectric constant tensor:
#      x y z
#    x 1.787520 0.000000 0.002100 
#    y 0.000000 1.690320 0.000000 
#    z 0.002100 0.000000 1.812180 
# 
# From -- ./inp_files/13515.got.cif
#   From: 2010.06.25/outbox.cif.g09.slc.cpg/sg15_7_cif.got.tgz:13515.got - 2010.06.28 07:06:18.
