data_PCOD8141660
_publ_section_title
;
Structure prediction by ZEFSAII (Michael W. Deem and Ramdas Pophale) SiO2 
 PCOD8141660
Probable space group: C 2/C
;
_chemical_formula_sum "Si O2"
_cell_formula_units_Z 64
_cell_length_a 15.244337
_cell_length_b 12.511299
_cell_length_c 27.148054
_cell_angle_alpha 90.000000
_cell_angle_beta 140.186190
_cell_angle_gamma 90.000000
_cell_volume 3315.352143
_symmetry_space_group_name_H-M "C 2/C"
_symmetry_group_IT_number 15
_symmetry_cell_setting 'monoclinic'
loop_
_space_group_symop_operation_xyz
x,y,z
-x,y,1/2-z
-x,-y,-z
x,-y,1/2+z
1/2+x,1/2+y,z
1/2-x,1/2+y,1/2-z
1/2-x,1/2-y,-z
1/2+x,1/2-y,1/2+z
loop_
_atom_site_type_symbol
_atom_site_label
_atom_site_fract_x
_atom_site_fract_y
_atom_site_fract_z
Si Si1 0.714421 0.822872 0.918264
Si Si2 0.943461 0.073683 0.085606
Si Si3 0.245296 0.828740 0.237067
Si Si4 0.142384 0.264805 0.787855
Si Si5 0.759181 0.029250 0.318267
Si Si6 0.779311 0.438040 0.092081
Si Si7 0.016289 0.239534 0.314415
Si Si8 0.949387 0.171469 0.591631
O O1 0.751003 0.789053 0.878479
O O2 0.585571 0.748934 0.877883
O O3 0.669480 0.946449 0.905756
O O4 0.853416 0.792704 0.005760
O O5 0.914633 0.148493 0.121228
O O6 0.922240 0.951686 0.094393
O O7 0.840406 0.103236 0.996225
O O8 0.096254 0.087174 0.130252
O O9 0.205866 0.820488 0.277757
O O10 0.286039 0.950887 0.245264
O O11 0.364403 0.750751 0.271226
O O12 0.107063 0.806803 0.145450
O O13 0.136001 0.384120 0.761588
O O14 0.000000 0.226744 0.750000
O O15 0.772091 0.959858 0.374368
O O16 0.899927 0.350309 0.145272
O O17 0.000000 0.204557 0.250000
#
# Coordination Sequence:
#
# PCOD8141660 Si02
#       8
#     8   8   8   8   8   8   8   8
#     4   9  19  36  64  91 115 147 201 254 300 354
#     4  10  21  40  60  89 120 159 204 247 302 367
#     4  11  22  37  55  87 122 153 194 244 303 353
#     4  11  21  36  60  91 116 149 198 247 298 353
#     4  10  21  37  61  88 120 151 204 254 295 354
#     4  10  21  37  66  88 116 157 205 257 298 350
#     4  12  24  41  56  87 128 166 199 243 305 367
#     4   9  19  39  59  88 121 152 194 251 305 352
#
# _framework density 19.304134000000001
#
# number of rings (size 3 to 8) (size 9 to 14) (size 15 to 20)
#    0.000    1.750    3.750    0.750    3.500    1.000 
#    4.500    0.000    0.000    0.000    0.000    6.125 
#    0.000    0.000    0.000    0.000    0.000    0.000 
#
# Total GULP energy -396443.205142 kJ/mol
# GULP energy per Si atom -12388.850161 kJ/mol
# Density = 1.926020 g / cm^3
# Si number density = 19.304134 Si / 1000 Ang^3
#
#
#
# Elastic Constant Matrix: (Units=GPa)
#
#
# Indices 1 2 3 4 5 6 
#
# 1 104.5577 46.2798 33.1151 0.0000 -12.1087 0.0000
# 2 46.2798 81.1182 34.5597 0.0000 -14.0700 0.0000
# 3 33.1151 34.5597 68.0611 0.0000 -11.6161 0.0000
# 4 0.0000 0.0000 0.0000 30.4033 0.0000 -5.5297
# 5 -12.1087 -14.0700 -11.6161 0.0000 29.3223 0.0000
# 6 0.0000 0.0000 0.0000 -5.5297 0.0000 35.6683
#
#
#
# Elastic Compliance Matrix: (Units=1/GPa)
#
#
# Indices 1 2 3 4 5 6 
#
# 1 0.013420 -0.006045 -0.003227 0.000000 0.001363 0.000000
# 2 -0.006045 0.019082 -0.006019 0.000000 0.004276 0.000000
# 3 -0.003227 -0.006019 0.019947 0.000000 0.003682 0.000000
# 4 0.000000 0.000000 0.000000 0.033846 0.000000 0.005247
# 5 0.001363 0.004276 0.003682 0.000000 0.038177 0.000000
# 6 0.000000 0.000000 0.000000 0.005247 0.000000 0.028850
#
#
# Mechanical properties :
#
#
# Convention : Reuss Voigt Hill
#
# Bulk Modulus (GPa) = 45.72960 53.51625 49.62292
# Shear Modulus (GPa) = 26.15175 28.39760 27.27467
#
# Velocity S-wave (km/s) = 3.68465 3.83961 3.76292
# Velocity P-wave (km/s) = 6.46859 6.88764 6.68140
#
# Compressibility (1/GPa) = 0.02186767
#
# Stress axis : x y z
#
# Youngs Moduli (GPa) = 74.51748 52.40472 50.13198
#
# Poissons Ratio (x) = 0.31678 0.16179
# Poissons Ratio (y) = 0.45045 0.30172
# Poissons Ratio (z) = 0.24049 0.31540
#
# Static dielectric constant tensor:
#      x y z
#    x 3.624150 0.000000 -0.107460 
#    y 0.000000 3.601920 0.000000 
#    z -0.107460 0.000000 3.702850 
# 
# 
# High freq. dielectric constant tensor:
#      x y z
#    x 1.742740 0.000000 -0.004070 
#    y 0.000000 1.741770 0.000000 
#    z -0.004070 0.000000 1.759980 
# 
# From -- ./inp_files/296421.got.cif
#   From: 2010.06.25/outbox.cif.g09.slc.cpg/sg15_149_cif.got.tgz:296421.got - 2010.06.28 07:06:18.
