data_PCOD8141657
_publ_section_title
;
Structure prediction by ZEFSAII (Michael W. Deem and Ramdas Pophale) SiO2 
 PCOD8141657
Probable space group: C 2/C
;
_chemical_formula_sum "Si O2"
_cell_formula_units_Z 56
_cell_length_a 9.393197
_cell_length_b 13.111154
_cell_length_c 21.992834
_cell_angle_alpha 90.000000
_cell_angle_beta 110.526965
_cell_angle_gamma 90.000000
_cell_volume 2536.569100
_symmetry_space_group_name_H-M "C 2/C"
_symmetry_group_IT_number 15
_symmetry_cell_setting 'monoclinic'
loop_
_space_group_symop_operation_xyz
x,y,z
-x,y,1/2-z
-x,-y,-z
x,-y,1/2+z
1/2+x,1/2+y,z
1/2-x,1/2+y,1/2-z
1/2-x,1/2-y,-z
1/2+x,1/2-y,1/2+z
loop_
_atom_site_type_symbol
_atom_site_label
_atom_site_fract_x
_atom_site_fract_y
_atom_site_fract_z
Si Si1 0.540566 0.323022 0.939525
Si Si2 0.324193 0.598338 0.708280
Si Si3 0.284224 0.326127 0.327419
Si Si4 0.737047 0.109479 0.459267
Si Si5 0.124725 0.187155 0.902785
Si Si6 0.634841 0.623187 0.317991
Si Si7 0.821603 0.616722 0.562994
O O1 0.378050 0.368370 0.934691
O O2 0.576481 0.366959 0.878391
O O3 0.551050 0.197537 0.942381
O O4 0.660396 0.361223 0.007465
O O5 0.500000 0.609069 0.750000
O O6 0.229924 0.626299 0.754795
O O7 0.284783 0.677444 0.647869
O O8 0.284923 0.485434 0.679328
O O9 0.456629 0.355978 0.368021
O O10 0.265470 0.204431 0.322608
O O11 0.180028 0.370939 0.364638
O O12 0.792866 0.114865 0.536612
O O13 0.615452 0.197547 0.426142
O O14 0.645522 0.003260 0.440490
O O15 0.500000 0.639400 0.250000
#
# Coordination Sequence:
#
# PCOD8141657 Si02
#       7
#     8   8   8   8   8   8   8
#     4  10  21  37  61  87 118 144 197 251 281 352
#     4   9  20  36  58  79 113 152 194 228 283 350
#     4  10  21  39  57  84 118 146 191 246 275 351
#     4  11  22  37  63  83 120 153 191 244 290 355
#     4  10  22  39  53  89 113 153 196 227 294 352
#     4  10  22  37  60  88 109 150 197 235 293 344
#     4  10  21  37  62  88 111 153 198 234 301 339
#
# _framework density 22.077065000000001
#
# number of rings (size 3 to 8) (size 9 to 14) (size 15 to 20)
#    0.000    2.000    1.429    1.286    8.000    0.000 
#    2.571    1.429    0.000    0.857    0.000    0.000 
#    0.000    0.000    0.000    0.000    0.000    0.000 
#
# Total GULP energy -347027.671792 kJ/mol
# GULP energy per Si atom -12393.845421 kJ/mol
# Density = 2.202682 g / cm^3
# Si number density = 22.077065 Si / 1000 Ang^3
#
#
#
# Elastic Constant Matrix: (Units=GPa)
#
#
# Indices 1 2 3 4 5 6 
#
# 1 18.3323 -2.9193 14.7375 0.0000 -7.2348 0.0000
# 2 -2.9193 131.0442 49.3597 0.0000 -11.0887 0.0000
# 3 14.7375 49.3597 138.9133 0.0000 -31.7708 0.0000
# 4 0.0000 0.0000 0.0000 33.2541 0.0000 -1.8160
# 5 -7.2348 -11.0887 -31.7708 0.0000 27.5608 0.0000
# 6 0.0000 0.0000 0.0000 -1.8160 0.0000 18.8531
#
#
#
# Elastic Compliance Matrix: (Units=1/GPa)
#
#
# Indices 1 2 3 4 5 6 
#
# 1 0.064715 0.004628 -0.005703 0.000000 0.012277 0.000000
# 2 0.004628 0.009141 -0.003558 0.000000 0.000791 0.000000
# 3 -0.005703 -0.003558 0.011405 0.000000 0.010219 0.000000
# 4 0.000000 0.000000 0.000000 0.030230 0.000000 0.002912
# 5 0.012277 0.000791 0.010219 0.000000 0.051604 0.000000
# 6 0.000000 0.000000 0.000000 0.002912 0.000000 0.053322
#
#
# Mechanical properties :
#
#
# Convention : Reuss Voigt Hill
#
# Bulk Modulus (GPa) = 13.15848 45.62729 29.39289
# Shear Modulus (GPa) = 19.60666 31.07438 25.34052
#
# Velocity S-wave (km/s) = 2.98334 3.75579 3.39163
# Velocity P-wave (km/s) = 4.22377 6.28650 5.35539
#
# Compressibility (1/GPa) = 0.07599661
#
# Stress axis : x y z
#
# Youngs Moduli (GPa) = 15.45241 109.39324 87.67903
#
# Poissons Ratio (x) = -0.50632 0.49999
# Poissons Ratio (y) = -0.07152 0.31199
# Poissons Ratio (z) = 0.08812 0.38925
#
# Static dielectric constant tensor:
#      x y z
#    x 3.521650 0.000000 -0.227510 
#    y 0.000000 4.155230 0.000000 
#    z -0.227510 0.000000 4.397230 
# 
# 
# High freq. dielectric constant tensor:
#      x y z
#    x 1.828590 0.000000 -0.012110 
#    y 0.000000 1.870890 0.000000 
#    z -0.012110 0.000000 1.893080 
# 
# From -- ./inp_files/237647.got.cif
#   From: 2010.06.25/outbox.cif.g09.slc.cpg/sg15_119_cif.got.tgz:237647.got - 2010.06.28 07:06:18.
