data_PCOD8141916
_publ_section_title
;
Structure prediction by ZEFSAII (Michael W. Deem and Ramdas Pophale) SiO2 
 PCOD8141916
Probable space group: C 2/C
;
_chemical_formula_sum "Si O2"
_cell_formula_units_Z 56
_cell_length_a 20.009362
_cell_length_b 10.277198
_cell_length_c 13.051004
_cell_angle_alpha 90.000000
_cell_angle_beta 87.840195
_cell_angle_gamma 90.000000
_cell_volume 2681.904171
_symmetry_space_group_name_H-M "C 2/C"
_symmetry_group_IT_number 15
_symmetry_cell_setting 'monoclinic'
loop_
_space_group_symop_operation_xyz
x,y,z
-x,y,1/2-z
-x,-y,-z
x,-y,1/2+z
1/2+x,1/2+y,z
1/2-x,1/2+y,1/2-z
1/2-x,1/2-y,-z
1/2+x,1/2-y,1/2+z
loop_
_atom_site_type_symbol
_atom_site_label
_atom_site_fract_x
_atom_site_fract_y
_atom_site_fract_z
Si Si1 0.812743 0.337877 0.097890
Si Si2 0.186100 0.106273 0.889902
Si Si3 0.332949 0.091460 0.811928
Si Si4 0.830732 0.111828 0.951579
Si Si5 0.357054 0.120813 0.035207
Si Si6 0.073969 0.102324 0.734251
Si Si7 0.568346 0.105950 0.277029
O O1 0.842791 0.317966 0.210820
O O2 0.732059 0.325950 0.106614
O O3 0.822992 0.480525 0.048402
O O4 0.849927 0.225682 0.031138
O O5 0.254031 0.069217 0.828117
O O6 0.187132 0.260263 0.916902
O O7 0.122014 0.064882 0.826038
O O8 0.186560 0.022940 0.992567
O O9 0.366664 0.955502 0.779445
O O10 0.367905 0.148032 0.913038
O O11 0.891329 0.067949 0.875122
O O12 0.425082 0.114820 0.098920
O O13 0.063343 0.254999 0.726476
O O14 0.000000 0.035561 0.750000
O O15 0.500000 0.029343 0.250000
#
# Coordination Sequence:
#
# PCOD8141916 Si02
#       7
#     8   8   8   8   8   8   8
#     4  10  22  35  59  93 122 157 199 259 304 362
#     4  11  23  36  61  92 120 161 204 255 313 366
#     4  11  20  35  59  89 126 154 197 261 315 357
#     4  11  22  37  60  91 122 158 211 254 302 359
#     4  10  21  38  58  89 123 157 198 251 318 361
#     4  10  22  42  62  85 125 172 210 246 304 383
#     4   9  21  39  61  87 119 165 211 245 303 377
#
# _framework density 20.880687000000002
#
# number of rings (size 3 to 8) (size 9 to 14) (size 15 to 20)
#    0.000    1.714    2.857    1.286    2.000    3.429 
#    0.000    4.286    0.000    4.286    0.000    0.000 
#    0.000    0.000    0.000    0.000    0.000    0.000 
#
# Total GULP energy -346906.714106 kJ/mol
# GULP energy per Si atom -12389.525504 kJ/mol
# Density = 2.083316 g / cm^3
# Si number density = 20.880687 Si / 1000 Ang^3
#
#
#
# Elastic Constant Matrix: (Units=GPa)
#
#
# Indices 1 2 3 4 5 6 
#
# 1 70.4778 10.6236 26.1523 0.0000 15.6877 0.0000
# 2 10.6236 68.9761 18.9105 0.0000 0.4386 0.0000
# 3 26.1523 18.9105 135.9669 0.0000 16.9903 0.0000
# 4 0.0000 0.0000 0.0000 26.7896 0.0000 3.8259
# 5 15.6877 0.4386 16.9903 0.0000 34.8693 0.0000
# 6 0.0000 0.0000 0.0000 3.8259 0.0000 19.9397
#
#
#
# Elastic Compliance Matrix: (Units=1/GPa)
#
#
# Indices 1 2 3 4 5 6 
#
# 1 0.016712 -0.001947 -0.002137 0.000000 -0.006453 0.000000
# 2 -0.001947 0.015325 -0.001962 0.000000 0.001639 0.000000
# 3 -0.002137 -0.001962 0.008429 0.000000 -0.003121 0.000000
# 4 0.000000 0.000000 0.000000 0.038380 0.000000 -0.007364
# 5 -0.006453 0.001639 -0.003121 0.000000 0.033082 0.000000
# 6 0.000000 0.000000 0.000000 -0.007364 0.000000 0.051564
#
#
# Mechanical properties :
#
#
# Convention : Reuss Voigt Hill
#
# Bulk Modulus (GPa) = 35.24422 42.97707 39.11065
# Shear Modulus (GPa) = 27.02110 30.96867 28.99488
#
# Velocity S-wave (km/s) = 3.60122 3.85531 3.73043
# Velocity P-wave (km/s) = 5.84870 6.35962 6.10950
#
# Compressibility (1/GPa) = 0.02837344
#
# Stress axis : x y z
#
# Youngs Moduli (GPa) = 59.83821 65.25265 118.64330
#
# Poissons Ratio (x) = 0.12704 0.25357
# Poissons Ratio (y) = 0.11650 0.23275
# Poissons Ratio (z) = 0.12789 0.12801
#
# Static dielectric constant tensor:
#      x y z
#    x 4.208930 0.000000 0.168910 
#    y 0.000000 3.551900 0.000000 
#    z 0.168910 0.000000 3.993100 
# 
# 
# High freq. dielectric constant tensor:
#      x y z
#    x 1.801450 0.000000 0.018760 
#    y 0.000000 1.797360 0.000000 
#    z 0.018760 0.000000 1.828060 
# 
# From -- ./inp_files/110999.got.cif
#   From: 2010.06.25/outbox.cif.g09.slc.cpg/sg15_56_cif.got.tgz:110999.got - 2010.06.28 07:06:18.
