data_PCOD8141695
_publ_section_title
;
Structure prediction by ZEFSAII (Michael W. Deem and Ramdas Pophale) SiO2 
 PCOD8141695
Probable space group: C 2/C
;
_chemical_formula_sum "Si O2"
_cell_formula_units_Z 64
_cell_length_a 14.244404
_cell_length_b 17.375399
_cell_length_c 14.171897
_cell_angle_alpha 90.000000
_cell_angle_beta 75.361168
_cell_angle_gamma 90.000000
_cell_volume 3393.713188
_symmetry_space_group_name_H-M "C 2/C"
_symmetry_group_IT_number 15
_symmetry_cell_setting 'monoclinic'
loop_
_space_group_symop_operation_xyz
x,y,z
-x,y,1/2-z
-x,-y,-z
x,-y,1/2+z
1/2+x,1/2+y,z
1/2-x,1/2+y,1/2-z
1/2-x,1/2-y,-z
1/2+x,1/2-y,1/2+z
loop_
_atom_site_type_symbol
_atom_site_label
_atom_site_fract_x
_atom_site_fract_y
_atom_site_fract_z
Si Si1 0.371649 0.167052 0.494561
Si Si2 0.221373 0.925582 0.910916
Si Si3 0.867107 0.192440 0.608391
Si Si4 0.916777 0.161089 0.929088
Si Si5 0.730020 0.367898 0.188379
Si Si6 0.266877 0.956633 0.693415
Si Si7 0.236750 0.912931 0.500894
Si Si8 0.912200 0.367214 0.555464
O O1 0.313758 0.114518 0.435720
O O2 0.386956 0.249860 0.444985
O O3 0.312331 0.176010 0.606940
O O4 0.473518 0.125066 0.490878
O O5 0.224072 0.916978 0.797597
O O6 0.221838 0.015198 0.936331
O O7 0.122234 0.885760 0.970540
O O8 0.789459 0.178417 0.711041
O O9 0.826378 0.157970 0.521271
O O10 0.883142 0.282046 0.594138
O O11 0.968250 0.150209 0.607138
O O12 0.869023 0.126747 0.846796
O O13 0.769042 0.451987 0.203928
O O14 0.202860 0.932465 0.617340
O O15 0.377107 0.925299 0.648030
O O16 0.351463 0.888984 0.475960
#
# Coordination Sequence:
#
# PCOD8141695 Si02
#       8
#     8   8   8   8   8   8   8   8
#     4  10  21  37  62  86 117 147 193 245 289 327
#     4  11  20  38  59  85 118 151 193 235 287 339
#     4  11  22  38  60  84 119 154 191 233 293 339
#     4  10  22  37  58  90 115 151 193 242 285 333
#     4  11  20  38  58  88 117 149 191 238 288 340
#     4  10  22  37  58  86 116 150 194 224 290 343
#     4  10  21  39  59  80 121 155 186 238 282 341
#     4   9  22  39  58  86 115 152 193 237 282 345
#
# _framework density 18.858398999999999
#
# number of rings (size 3 to 8) (size 9 to 14) (size 15 to 20)
#    0.750    1.000    3.750    2.250    3.500    3.000 
#    0.000    1.250    0.000    3.000    0.000    0.000 
#    0.000    0.000    0.000    0.000    0.000    0.000 
#
# Total GULP energy -396666.625593 kJ/mol
# GULP energy per Si atom -12395.832050 kJ/mol
# Density = 1.881548 g / cm^3
# Si number density = 18.858399 Si / 1000 Ang^3
#
#
#
# Elastic Constant Matrix: (Units=GPa)
#
#
# Indices 1 2 3 4 5 6 
#
# 1 74.1828 31.7479 23.9231 0.0000 -8.0294 0.0000
# 2 31.7479 61.3184 12.0592 0.0000 -4.0552 0.0000
# 3 23.9231 12.0592 91.4371 0.0000 -3.6000 0.0000
# 4 0.0000 0.0000 0.0000 14.7567 0.0000 -4.2383
# 5 -8.0294 -4.0552 -3.6000 0.0000 18.0929 0.0000
# 6 0.0000 0.0000 0.0000 -4.2383 0.0000 22.0642
#
#
#
# Elastic Compliance Matrix: (Units=1/GPa)
#
#
# Indices 1 2 3 4 5 6 
#
# 1 0.019009 -0.008754 -0.003592 0.000000 0.005759 0.000000
# 2 -0.008754 0.020977 -0.000447 0.000000 0.000728 0.000000
# 3 -0.003592 -0.000447 0.011962 0.000000 0.000686 0.000000
# 4 0.000000 0.000000 0.000000 0.071723 0.000000 0.013777
# 5 0.005759 0.000728 0.000686 0.000000 0.058126 0.000000
# 6 0.000000 0.000000 0.000000 0.013777 0.000000 0.047969
#
#
# Mechanical properties :
#
#
# Convention : Reuss Voigt Hill
#
# Bulk Modulus (GPa) = 37.93609 40.26652 39.10130
# Shear Modulus (GPa) = 18.92939 21.59664 20.26302
#
# Velocity S-wave (km/s) = 3.17166 3.38775 3.28149
# Velocity P-wave (km/s) = 5.79418 6.05812 5.92762
#
# Compressibility (1/GPa) = 0.02636012
#
# Stress axis : x y z
#
# Youngs Moduli (GPa) = 52.60789 47.67099 83.59612
#
# Poissons Ratio (x) = 0.41734 0.30028
# Poissons Ratio (y) = 0.46056 0.03740
# Poissons Ratio (z) = 0.18897 0.02133
#
# Static dielectric constant tensor:
#      x y z
#    x 3.478510 0.000000 -0.051250 
#    y 0.000000 3.465990 0.000000 
#    z -0.051250 0.000000 3.407310 
# 
# 
# High freq. dielectric constant tensor:
#      x y z
#    x 1.717780 0.000000 0.000110 
#    y 0.000000 1.742750 0.000000 
#    z 0.000110 0.000000 1.725400 
# 
# From -- ./inp_files/154819.got.cif
#   From: 2010.06.25/outbox.cif.g09.slc.cpg/sg15_78_cif.got.tgz:154819.got - 2010.06.28 07:06:18.
