data_PCOD8141553
_publ_section_title
;
Structure prediction by ZEFSAII (Michael W. Deem and Ramdas Pophale) SiO2 
 PCOD8141553
Probable space group: C 2/C
;
_chemical_formula_sum "Si O2"
_cell_formula_units_Z 56
_cell_length_a 5.152740
_cell_length_b 27.284451
_cell_length_c 20.940261
_cell_angle_alpha 90.000000
_cell_angle_beta 78.825010
_cell_angle_gamma 90.000000
_cell_volume 2888.166235
_symmetry_space_group_name_H-M "C 2/C"
_symmetry_group_IT_number 15
_symmetry_cell_setting 'monoclinic'
loop_
_space_group_symop_operation_xyz
x,y,z
-x,y,1/2-z
-x,-y,-z
x,-y,1/2+z
1/2+x,1/2+y,z
1/2-x,1/2+y,1/2-z
1/2-x,1/2-y,-z
1/2+x,1/2-y,1/2+z
loop_
_atom_site_type_symbol
_atom_site_label
_atom_site_fract_x
_atom_site_fract_y
_atom_site_fract_z
Si Si1 0.750296 0.502645 0.056732
Si Si2 0.934773 0.267063 0.583194
Si Si3 0.727279 0.291609 0.291370
Si Si4 0.982136 0.811164 0.527328
Si Si5 0.824600 0.605343 0.848539
Si Si6 0.089378 0.083770 0.984888
Si Si7 0.161724 0.047601 0.683238
O O1 0.656565 0.558531 0.049710
O O2 0.782625 0.495048 0.131535
O O3 0.563249 0.458575 0.045089
O O4 0.000000 0.500000 0.000000
O O5 0.877615 0.250980 0.657815
O O6 0.717695 0.305385 0.567336
O O7 0.943731 0.218789 0.539303
O O8 0.215739 0.293099 0.572362
O O9 0.500000 0.303998 0.250000
O O10 0.815607 0.338611 0.328280
O O11 0.000000 0.270810 0.250000
O O12 0.930376 0.867267 0.509371
O O13 0.548388 0.582576 0.840268
O O14 0.088345 0.580572 0.805855
O O15 0.835037 0.599188 0.926064
O O16 0.000000 0.023310 0.750000
#
# Coordination Sequence:
#
# PCOD8141553 Si02
#       7
#     8   8   8   8   8   8   8
#     4  10  21  37  58  89 121 160 199 250 315 354
#     4  10  22  38  57  90 114 157 202 235 302 350
#     4  12  23  37  58  86 126 163 196 243 301 375
#     4  10  21  38  62  84 120 151 199 256 289 351
#     4  11  21  36  56  87 120 156 195 232 310 368
#     4  10  21  37  60  90 121 155 198 258 304 361
#     4  11  22  36  56  81 121 158 197 243 292 372
#
# _framework density 19.389467
#
# number of rings (size 3 to 8) (size 9 to 14) (size 15 to 20)
#    0.000    1.429    2.857    3.429    2.000    0.000 
#    0.000    0.000    0.000    2.571    0.000    0.000 
#    0.000    0.000    0.000    0.000    0.000    0.000 
#
# Total GULP energy -346939.374824 kJ/mol
# GULP energy per Si atom -12390.691958 kJ/mol
# Density = 1.934534 g / cm^3
# Si number density = 19.389467 Si / 1000 Ang^3
#
#
#
# Elastic Constant Matrix: (Units=GPa)
#
#
# Indices 1 2 3 4 5 6 
#
# 1 92.7953 16.0261 27.4465 0.0000 -15.6296 0.0000
# 2 16.0261 88.5838 41.7649 0.0000 -4.0787 0.0000
# 3 27.4465 41.7649 127.3368 0.0000 -21.7120 0.0000
# 4 0.0000 0.0000 0.0000 21.9051 0.0000 -4.7943
# 5 -15.6296 -4.0787 -21.7120 0.0000 29.1502 0.0000
# 6 0.0000 0.0000 0.0000 -4.7943 0.0000 13.6460
#
#
#
# Elastic Compliance Matrix: (Units=1/GPa)
#
#
# Indices 1 2 3 4 5 6 
#
# 1 0.012310 -0.001377 -0.001271 0.000000 0.005461 0.000000
# 2 -0.001377 0.013573 -0.004533 0.000000 -0.002215 0.000000
# 3 -0.001271 -0.004533 0.010755 0.000000 0.006695 0.000000
# 4 0.000000 0.000000 0.000000 0.049454 0.000000 0.017375
# 5 0.005461 -0.002215 0.006695 0.000000 0.041910 0.000000
# 6 0.000000 0.000000 0.000000 0.017375 0.000000 0.079386
#
#
# Mechanical properties :
#
#
# Convention : Reuss Voigt Hill
#
# Bulk Modulus (GPa) = 44.88675 53.24345 49.06510
# Shear Modulus (GPa) = 21.81743 27.83881 24.82812
#
# Velocity S-wave (km/s) = 3.35807 3.79327 3.58228
# Velocity P-wave (km/s) = 6.18351 6.83409 6.51692
#
# Compressibility (1/GPa) = 0.02227829
#
# Stress axis : x y z
#
# Youngs Moduli (GPa) = 81.23616 73.67659 92.97679
#
# Poissons Ratio (x) = 0.10142 0.11814
# Poissons Ratio (y) = 0.11182 0.42144
# Poissons Ratio (z) = 0.10322 0.33395
#
# Static dielectric constant tensor:
#      x y z
#    x 3.718970 0.000000 0.195630 
#    y 0.000000 3.517480 0.000000 
#    z 0.195630 0.000000 3.897430 
# 
# 
# High freq. dielectric constant tensor:
#      x y z
#    x 1.759350 0.000000 -0.011630 
#    y 0.000000 1.728610 0.000000 
#    z -0.011630 0.000000 1.757630 
# 
# From -- ./inp_files/228100.got.cif
#   From: 2010.06.25/outbox.cif.g09.slc.cpg/sg15_115_cif.got.tgz:228100.got - 2010.06.28 07:06:18.
