data_PCOD8141493
_publ_section_title
;
Structure prediction by ZEFSAII (Michael W. Deem and Ramdas Pophale) SiO2 
 PCOD8141493
Probable space group: C 2/C
;
_chemical_formula_sum "Si O2"
_cell_formula_units_Z 44
_cell_length_a 10.661558
_cell_length_b 8.835543
_cell_length_c 24.537931
_cell_angle_alpha 90.000000
_cell_angle_beta 113.666639
_cell_angle_gamma 90.000000
_cell_volume 2117.084768
_symmetry_space_group_name_H-M "C 2/C"
_symmetry_group_IT_number 15
_symmetry_cell_setting 'monoclinic'
loop_
_space_group_symop_operation_xyz
x,y,z
-x,y,1/2-z
-x,-y,-z
x,-y,1/2+z
1/2+x,1/2+y,z
1/2-x,1/2+y,1/2-z
1/2-x,1/2-y,-z
1/2+x,1/2-y,1/2+z
loop_
_atom_site_type_symbol
_atom_site_label
_atom_site_fract_x
_atom_site_fract_y
_atom_site_fract_z
Si Si1 0.906418 0.573203 0.529213
Si Si2 0.904654 0.071822 0.029177
Si Si3 0.317114 0.426220 0.230648
Si Si4 0.000887 0.420895 0.335912
Si Si5 0.530406 0.422634 0.837051
Si Si6 0.500000 0.846370 0.750000
O O1 0.905112 0.750738 0.518389
O O2 0.751012 0.509404 0.501302
O O3 0.000000 0.500000 0.500000
O O4 0.975316 0.529242 0.598260
O O5 0.964907 0.030273 0.098925
O O6 0.000000 0.000000 0.000000
O O7 0.156972 0.419168 0.208394
O O8 0.356754 0.483660 0.176961
O O9 0.380148 0.539287 0.287048
O O10 0.378076 0.258735 0.251635
O O11 0.064420 0.255546 0.336062
O O12 0.067074 0.547997 0.308745
#
# Coordination Sequence:
#
# PCOD8141493 Si02
#       6
#     8   8   8   8   8   4
#     4  10  23  39  58  86 115 148 191 235 279 333
#     4  10  22  40  60  83 114 152 191 231 280 336
#     4  10  21  37  56  81 112 144 183 231 276 330
#     4  11  21  36  58  81 112 146 181 229 282 331
#     4   9  20  38  57  80 112 148 184 226 279 332
#     4  10  22  34  54  86 108 140 188 224 276 338
#
# _framework density 20.783296
#
# number of rings (size 3 to 8) (size 9 to 14) (size 15 to 20)
#    0.000    2.182    0.000    3.273    0.000    8.000 
#    0.000    3.636    0.000    0.000    0.000    0.000 
#    0.000    0.000    0.000    0.000    0.000    0.000 
#
# Total GULP energy -272795.567671 kJ/mol
# GULP energy per Si atom -12399.798530 kJ/mol
# Density = 2.073599 g / cm^3
# Si number density = 20.783296 Si / 1000 Ang^3
#
#
#
# Elastic Constant Matrix: (Units=GPa)
#
#
# Indices 1 2 3 4 5 6 
#
# 1 94.5071 18.1698 37.6843 0.0000 0.1839 0.0000
# 2 18.1698 83.9713 49.6792 0.0000 -18.1500 0.0000
# 3 37.6843 49.6792 139.9064 0.0000 -15.4613 0.0000
# 4 0.0000 0.0000 0.0000 33.2988 0.0000 -8.8124
# 5 0.1839 -18.1500 -15.4613 0.0000 35.0518 0.0000
# 6 0.0000 0.0000 0.0000 -8.8124 0.0000 26.7709
#
#
#
# Elastic Compliance Matrix: (Units=1/GPa)
#
#
# Indices 1 2 3 4 5 6 
#
# 1 0.012031 -0.001259 -0.003020 0.000000 -0.002047 0.000000
# 2 -0.001259 0.016386 -0.004773 0.000000 0.006386 0.000000
# 3 -0.003020 -0.004773 0.009866 0.000000 0.001896 0.000000
# 4 0.000000 0.000000 0.000000 0.032897 0.000000 0.010829
# 5 -0.002047 0.006386 0.001896 0.000000 0.032683 0.000000
# 6 0.000000 0.000000 0.000000 0.010829 0.000000 0.040919
#
#
# Mechanical properties :
#
#
# Convention : Reuss Voigt Hill
#
# Bulk Modulus (GPa) = 49.56021 58.82791 54.19406
# Shear Modulus (GPa) = 29.47906 33.21439 31.34673
#
# Velocity S-wave (km/s) = 3.77025 4.00200 3.88785
# Velocity P-wave (km/s) = 6.54607 7.05135 6.80340
#
# Compressibility (1/GPa) = 0.02017748
#
# Stress axis : x y z
#
# Youngs Moduli (GPa) = 83.11560 61.02914 101.36288
#
# Poissons Ratio (x) = 0.07685 0.30609
# Poissons Ratio (y) = 0.10467 0.48385
# Poissons Ratio (z) = 0.25099 0.29132
#
# Static dielectric constant tensor:
#      x y z
#    x 3.629490 0.000000 0.107640 
#    y 0.000000 3.872250 0.000000 
#    z 0.107640 0.000000 4.026530 
# 
# 
# High freq. dielectric constant tensor:
#      x y z
#    x 1.805140 0.000000 -0.002240 
#    y 0.000000 1.816390 0.000000 
#    z -0.002240 0.000000 1.822550 
# 
# From -- ./inp_files/268122.got.cif
#   From: 2010.06.25/outbox.cif.g09.slc.cpg/sg15_135_cif.got.tgz:268122.got - 2010.06.28 07:06:18.
