data_PCOD8141573
_publ_section_title
;
Structure prediction by ZEFSAII (Michael W. Deem and Ramdas Pophale) SiO2 
 PCOD8141573
Probable space group: C 2/C
;
_chemical_formula_sum "Si O2"
_cell_formula_units_Z 40
_cell_length_a 12.030363
_cell_length_b 8.494189
_cell_length_c 26.802929
_cell_angle_alpha 90.000000
_cell_angle_beta 45.408442
_cell_angle_gamma 90.000000
_cell_volume 1950.481704
_symmetry_space_group_name_H-M "C 2/C"
_symmetry_group_IT_number 15
_symmetry_cell_setting 'monoclinic'
loop_
_space_group_symop_operation_xyz
x,y,z
-x,y,1/2-z
-x,-y,-z
x,-y,1/2+z
1/2+x,1/2+y,z
1/2-x,1/2+y,1/2-z
1/2-x,1/2-y,-z
1/2+x,1/2-y,1/2+z
loop_
_atom_site_type_symbol
_atom_site_label
_atom_site_fract_x
_atom_site_fract_y
_atom_site_fract_z
Si Si1 0.602106 0.898464 0.174070
Si Si2 0.325751 0.172136 0.694596
Si Si3 0.895136 0.103975 0.083335
Si Si4 0.916469 0.198871 0.969941
Si Si5 0.290571 0.834542 0.673008
O O1 0.500000 0.982693 0.250000
O O2 0.499060 0.871606 0.157926
O O3 0.659350 0.729653 0.176897
O O4 0.748346 0.001059 0.111528
O O5 0.342983 0.304265 0.648062
O O6 0.215779 0.235657 0.773395
O O7 0.249091 0.016092 0.695538
O O8 0.929397 0.221761 0.026209
O O9 0.038984 0.986837 0.052288
O O10 0.038672 0.313402 0.904389
O O11 0.750000 0.250000 0.000000
#
# Coordination Sequence:
#
# PCOD8141573 Si02
#       5
#     8   8   8   8   8
#     4   9  19  37  57  83 116 149 191 243 288 333
#     4  11  21  39  63  85 114 150 191 243 285 331
#     4  10  22  38  59  85 115 153 194 233 285 343
#     4  10  21  39  58  84 121 154 187 234 286 342
#     4  10  21  37  59  86 115 150 194 235 286 345
#
# _framework density 20.507753999999998
#
# number of rings (size 3 to 8) (size 9 to 14) (size 15 to 20)
#    0.000    2.000    0.000    4.800    0.000    2.400 
#    0.000   25.000    0.000    0.000    0.000    0.000 
#    0.000    0.000    0.000    0.000    0.000    0.000 
#
# Total GULP energy -247935.727896 kJ/mol
# GULP energy per Si atom -12396.786395 kJ/mol
# Density = 2.046108 g / cm^3
# Si number density = 20.507754 Si / 1000 Ang^3
#
#
#
# Elastic Constant Matrix: (Units=GPa)
#
#
# Indices 1 2 3 4 5 6 
#
# 1 74.1653 21.9171 30.5459 0.0000 0.0932 0.0000
# 2 21.9171 69.6842 18.9522 -0.0001 1.7479 -0.0001
# 3 30.5459 18.9522 89.5120 0.0000 -14.4178 0.0000
# 4 0.0000 -0.0001 0.0000 21.4065 0.0000 0.5700
# 5 0.0932 1.7479 -14.4178 0.0000 28.2882 0.0000
# 6 0.0000 -0.0001 0.0000 0.5700 0.0000 26.2179
#
#
#
# Elastic Compliance Matrix: (Units=1/GPa)
#
#
# Indices 1 2 3 4 5 6 
#
# 1 0.016802 -0.003766 -0.005346 0.000000 -0.002548 0.000000
# 2 -0.003766 0.016280 -0.002529 0.000000 -0.002283 0.000000
# 3 -0.005346 -0.002529 0.014772 0.000000 0.007703 0.000000
# 4 0.000000 0.000000 0.000000 0.046742 0.000000 -0.001016
# 5 -0.002548 -0.002283 0.007703 0.000000 0.039426 0.000000
# 6 0.000000 0.000000 0.000000 -0.001016 0.000000 0.038164
#
#
# Mechanical properties :
#
#
# Convention : Reuss Voigt Hill
#
# Bulk Modulus (GPa) = 40.70034 41.79910 41.24972
# Shear Modulus (GPa) = 24.55069 25.97896 25.26482
#
# Velocity S-wave (km/s) = 3.46373 3.56306 3.51374
# Velocity P-wave (km/s) = 5.99049 6.11175 6.05142
#
# Compressibility (1/GPa) = 0.02456982
#
# Stress axis : x y z
#
# Youngs Moduli (GPa) = 59.51803 61.42402 67.69376
#
# Poissons Ratio (x) = 0.23135 0.36192
# Poissons Ratio (y) = 0.22417 0.17122
# Poissons Ratio (z) = 0.31821 0.15536
#
# Static dielectric constant tensor:
#      x y z
#    x 3.995780 0.000000 -0.526190 
#    y 0.000000 3.601720 0.000000 
#    z -0.526190 0.000000 4.631260 
# 
# 
# High freq. dielectric constant tensor:
#      x y z
#    x 1.790440 0.000000 -0.000070 
#    y 0.000000 1.785700 0.000000 
#    z -0.000070 0.000000 1.822850 
# 
# From -- ./inp_files/235706.got.cif
#   From: 2010.06.25/outbox.cif.g09.slc.cpg/sg15_118_cif.got.tgz:235706.got - 2010.06.28 07:06:18.
