data_PCOD8141838
_publ_section_title
;
Structure prediction by ZEFSAII (Michael W. Deem and Ramdas Pophale) SiO2 
 PCOD8141838
Probable space group: C 2/C
;
_chemical_formula_sum "Si O2"
_cell_formula_units_Z 48
_cell_length_a 30.160319
_cell_length_b 11.078479
_cell_length_c 14.476987
_cell_angle_alpha 90.000000
_cell_angle_beta 30.146049
_cell_angle_gamma 90.000000
_cell_volume 2429.271567
_symmetry_space_group_name_H-M "C 2/C"
_symmetry_group_IT_number 15
_symmetry_cell_setting 'monoclinic'
loop_
_space_group_symop_operation_xyz
x,y,z
-x,y,1/2-z
-x,-y,-z
x,-y,1/2+z
1/2+x,1/2+y,z
1/2-x,1/2+y,1/2-z
1/2-x,1/2-y,-z
1/2+x,1/2-y,1/2+z
loop_
_atom_site_type_symbol
_atom_site_label
_atom_site_fract_x
_atom_site_fract_y
_atom_site_fract_z
Si Si1 0.590423 0.524361 0.784885
Si Si2 0.488960 0.030692 0.413872
Si Si3 0.623429 0.079076 0.537734
Si Si4 0.676414 0.513583 0.309650
Si Si5 0.020255 0.795673 0.110626
Si Si6 0.903324 0.859035 0.894531
O O1 0.667029 0.542153 0.723233
O O2 0.571180 0.645935 0.762590
O O3 0.617997 0.414720 0.667491
O O4 0.500000 0.500000 0.000000
O O5 0.460320 0.169760 0.473407
O O6 0.500000 0.000000 0.500000
O O7 0.412872 0.952940 0.499246
O O8 0.579739 0.008779 0.193165
O O9 0.598961 0.215647 0.607801
O O10 0.727684 0.068129 0.350442
O O11 0.605495 0.619876 0.448535
O O12 0.664480 0.408373 0.406710
O O13 0.000000 0.759975 0.250000
O O14 0.000000 0.905881 0.750000
#
# Coordination Sequence:
#
# PCOD8141838 Si02
#       6
#     8   8   8   8   8   8
#     4  10  21  37  67  95 122 163 219 254 309 370
#     4  11  26  44  65  87 132 177 207 249 337 380
#     4  11  27  43  61  97 133 164 210 267 317 380
#     4  11  25  40  66 100 124 163 216 269 308 367
#     4  11  20  42  66  91 128 170 208 260 311 383
#     4  12  21  42  68  90 129 173 210 259 317 376
#
# _framework density 19.759011000000001
#
# number of rings (size 3 to 8) (size 9 to 14) (size 15 to 20)
#    0.000    1.000    8.333    0.000    9.333    2.000 
#    0.000    0.833    0.000    0.000    0.000    0.000 
#    0.000    0.000    0.000    0.000    0.000    0.000 
#
# Total GULP energy -297553.629638 kJ/mol
# GULP energy per Si atom -12398.067902 kJ/mol
# Density = 1.971404 g / cm^3
# Si number density = 19.759011 Si / 1000 Ang^3
#
#
#
# Elastic Constant Matrix: (Units=GPa)
#
#
# Indices 1 2 3 4 5 6 
#
# 1 149.2255 36.2720 47.3672 0.0000 13.3649 0.0000
# 2 36.2720 114.6299 18.7342 0.0000 3.0145 0.0000
# 3 47.3672 18.7342 69.6700 0.0000 -12.9728 0.0000
# 4 0.0000 0.0000 0.0000 24.0532 0.0000 4.7494
# 5 13.3649 3.0145 -12.9728 0.0000 33.2336 0.0000
# 6 0.0000 0.0000 0.0000 4.7494 0.0000 18.6524
#
#
#
# Elastic Compliance Matrix: (Units=1/GPa)
#
#
# Indices 1 2 3 4 5 6 
#
# 1 0.010228 -0.001782 -0.007776 0.000000 -0.006987 0.000000
# 2 -0.001782 0.009551 -0.001493 0.000000 -0.000733 0.000000
# 3 -0.007776 -0.001493 0.022268 0.000000 0.011955 0.000000
# 4 0.000000 0.000000 0.000000 0.043775 0.000000 -0.011147
# 5 -0.006987 -0.000733 0.011955 0.000000 0.037633 0.000000
# 6 0.000000 0.000000 0.000000 -0.011147 0.000000 0.056451
#
#
# Mechanical properties :
#
#
# Convention : Reuss Voigt Hill
#
# Bulk Modulus (GPa) = 50.13820 59.80803 54.97312
# Shear Modulus (GPa) = 23.96284 30.59797 27.28041
#
# Velocity S-wave (km/s) = 3.48624 3.93944 3.71975
# Velocity P-wave (km/s) = 6.45253 7.14330 6.80668
#
# Compressibility (1/GPa) = 0.01994487
#
# Stress axis : x y z
#
# Youngs Moduli (GPa) = 97.76670 104.70247 44.90825
#
# Poissons Ratio (x) = 0.18658 0.34920
# Poissons Ratio (y) = 0.17422 0.06705
# Poissons Ratio (z) = 0.76023 0.15633
#
# Static dielectric constant tensor:
#      x y z
#    x 4.748330 0.000000 0.045320 
#    y 0.000000 3.393400 0.000000 
#    z 0.045320 0.000000 3.434240 
# 
# 
# High freq. dielectric constant tensor:
#      x y z
#    x 1.783150 0.000000 0.012690 
#    y 0.000000 1.775090 0.000000 
#    z 0.012690 0.000000 1.750100 
# 
# From -- ./inp_files/152025.got.cif
#   From: 2010.06.25/outbox.cif.g09.slc.cpg/sg15_77_cif.got.tgz:152025.got - 2010.06.28 07:06:18.
