data_PCOD8141575
_publ_section_title
;
Structure prediction by ZEFSAII (Michael W. Deem and Ramdas Pophale) SiO2 
 PCOD8141575
Probable space group: C 2/C
;
_chemical_formula_sum "Si O2"
_cell_formula_units_Z 40
_cell_length_a 19.188439
_cell_length_b 4.653467
_cell_length_c 14.840797
_cell_angle_alpha 90.000000
_cell_angle_beta 113.615551
_cell_angle_gamma 90.000000
_cell_volume 1214.197709
_symmetry_space_group_name_H-M "C 2/C"
_symmetry_group_IT_number 15
_symmetry_cell_setting 'monoclinic'
loop_
_space_group_symop_operation_xyz
x,y,z
-x,y,1/2-z
-x,-y,-z
x,-y,1/2+z
1/2+x,1/2+y,z
1/2-x,1/2+y,1/2-z
1/2-x,1/2-y,-z
1/2+x,1/2-y,1/2+z
loop_
_atom_site_type_symbol
_atom_site_label
_atom_site_fract_x
_atom_site_fract_y
_atom_site_fract_z
Si Si1 0.300416 0.816831 0.880088
Si Si2 0.601373 0.691127 0.357187
Si Si3 0.954586 0.991039 0.853181
Si Si4 0.904542 0.752709 0.009585
Si Si5 0.805751 0.323765 0.677494
O O1 0.221686 0.994464 0.858356
O O2 0.333436 0.868104 0.795925
O O3 0.275704 0.486477 0.878396
O O4 0.367078 0.932351 0.983252
O O5 0.599069 0.476383 0.264415
O O6 0.515560 0.749144 0.350112
O O7 0.643388 0.471650 0.449563
O O8 0.634710 0.010121 0.358331
O O9 0.901705 0.900243 0.908851
O O10 0.006598 0.265554 0.911224
#
# Coordination Sequence:
#
# PCOD8141575 Si02
#       5
#     8   8   8   8   8
#     4  10  21  37  59  86 118 154 193 242 292 344
#     4   9  16  31  57  84 116 150 195 239 289 348
#     4   8  16  30  54  86 114 152 192 242 290 340
#     4   9  16  31  57  84 116 150 195 239 289 348
#     4  10  21  37  59  86 118 154 193 242 292 344
#
# _framework density 32.943561000000003
#
# number of rings (size 3 to 8) (size 9 to 14) (size 15 to 20)
#    1.200    1.600    2.000    0.000    0.000    1.600 
#    0.000    0.000    0.000   14.400    0.000    0.000 
#    0.000    0.000    0.000    0.000    0.000    0.000 
#
# Total GULP energy -247850.332866 kJ/mol
# GULP energy per Si atom -12392.516643 kJ/mol
# Density = 3.286858 g / cm^3
# Si number density = 32.943561 Si / 1000 Ang^3
#
#
#
# Elastic Constant Matrix: (Units=GPa)
#
#
# Indices 1 2 3 4 5 6 
#
# 1 134.8174 4.7712 12.1933 -0.0003 -14.9876 0.0004
# 2 4.7712 178.8729 27.4457 -0.0011 -8.4518 0.0018
# 3 12.1933 27.4457 153.1728 0.0000 -8.5192 0.0001
# 4 -0.0003 -0.0011 0.0000 39.8237 0.0000 -7.6727
# 5 -14.9876 -8.4518 -8.5192 0.0000 73.9107 -0.0001
# 6 0.0004 0.0018 0.0001 -7.6727 -0.0001 34.3281
#
#
#
# Elastic Compliance Matrix: (Units=1/GPa)
#
#
# Indices 1 2 3 4 5 6 
#
# 1 0.007631 -0.000054 -0.000515 0.000000 0.001482 0.000000
# 2 -0.000054 0.005771 -0.001000 0.000000 0.000534 0.000000
# 3 -0.000515 -0.001000 0.006780 0.000000 0.000563 0.000000
# 4 0.000000 0.000000 0.000000 0.026241 0.000000 0.005865
# 5 0.001482 0.000534 0.000563 0.000000 0.013956 0.000000
# 6 0.000000 0.000000 0.000000 0.005865 0.000000 0.030442
#
#
# Mechanical properties :
#
#
# Convention : Reuss Voigt Hill
#
# Bulk Modulus (GPa) = 58.67863 61.74262 60.21062
# Shear Modulus (GPa) = 50.18072 57.77603 53.97837
#
# Velocity S-wave (km/s) = 3.90710 4.19237 4.05224
# Velocity P-wave (km/s) = 6.18097 6.49748 6.34120
#
# Compressibility (1/GPa) = 0.01704198
#
# Stress axis : x y z
#
# Youngs Moduli (GPa) = 131.04965 173.29037 147.49117
#
# Poissons Ratio (x) = 0.00944 0.07600
# Poissons Ratio (y) = 0.00714 0.14749
# Poissons Ratio (z) = 0.06753 0.17329
#
# Static dielectric constant tensor:
#      x y z
#    x 6.257240 0.000000 -0.192070 
#    y 0.000000 5.987530 0.000000 
#    z -0.192070 0.000000 6.743480 
# 
# 
# High freq. dielectric constant tensor:
#      x y z
#    x 2.411930 0.000000 -0.004570 
#    y 0.000000 2.367130 0.000000 
#    z -0.004570 0.000000 2.402550 
# 
# From -- ./inp_files/125455.got.cif
#   From: 2010.06.25/outbox.cif.g09.slc.cpg/sg15_63_cif.got.tgz:125455.got - 2010.06.28 07:06:18.
