data_PCOD8141557
_publ_section_title
;
Structure prediction by ZEFSAII (Michael W. Deem and Ramdas Pophale) SiO2 
 PCOD8141557
Probable space group: C 2/C
;
_chemical_formula_sum "Si O2"
_cell_formula_units_Z 56
_cell_length_a 28.117167
_cell_length_b 18.073811
_cell_length_c 9.258467
_cell_angle_alpha 90.000000
_cell_angle_beta 144.462504
_cell_angle_gamma 90.000000
_cell_volume 2734.718289
_symmetry_space_group_name_H-M "C 2/C"
_symmetry_group_IT_number 15
_symmetry_cell_setting 'monoclinic'
loop_
_space_group_symop_operation_xyz
x,y,z
-x,y,1/2-z
-x,-y,-z
x,-y,1/2+z
1/2+x,1/2+y,z
1/2-x,1/2+y,1/2-z
1/2-x,1/2-y,-z
1/2+x,1/2-y,1/2+z
loop_
_atom_site_type_symbol
_atom_site_label
_atom_site_fract_x
_atom_site_fract_y
_atom_site_fract_z
Si Si1 0.747879 0.383361 0.671962
Si Si2 0.421059 0.526125 0.984454
Si Si3 0.032871 0.252843 0.980841
Si Si4 0.816964 0.959355 0.499040
Si Si5 0.916628 0.687002 0.607021
Si Si6 0.698233 0.675131 0.356843
Si Si7 0.400696 0.682854 0.852807
O O1 0.742700 0.470629 0.624132
O O2 0.720302 0.367976 0.766408
O O3 0.692154 0.333929 0.427340
O O4 0.842063 0.364472 0.877345
O O5 0.500000 0.487440 0.250000
O O6 0.344769 0.541122 0.902585
O O7 0.396294 0.471228 0.795849
O O8 0.448109 0.606152 0.993290
O O9 0.000000 0.289991 0.750000
O O10 0.950779 0.223106 0.851759
O O11 0.076251 0.309289 0.200714
O O12 0.101044 0.190968 0.113778
O O13 0.778402 0.880364 0.451999
O O14 0.901549 0.768979 0.502415
O O15 0.000000 0.651930 0.750000
O O16 0.750000 0.750000 0.500000
#
# Coordination Sequence:
#
# PCOD8141557 Si02
#       7
#     8   8   8   8   8   8   8
#     4  11  22  40  61  92 125 164 213 257 323 375
#     4  11  21  36  55  86 128 173 201 242 310 380
#     4  11  21  36  60  95 134 160 209 257 309 379
#     4  11  24  40  57  88 126 166 211 259 308 376
#     4  10  21  39  63  90 122 162 214 273 315 367
#     4  12  23  40  66  92 125 172 208 263 314 373
#     4  10  21  37  58  91 126 168 208 253 311 379
#
# _framework density 20.477429000000001
#
# number of rings (size 3 to 8) (size 9 to 14) (size 15 to 20)
#    0.000    1.143    4.286    3.857    0.000    1.714 
#    0.000    0.000    0.000    1.714    0.000    0.000 
#    0.000    0.000    0.000    0.000    0.000    0.000 
#
# Total GULP energy -347097.308326 kJ/mol
# GULP energy per Si atom -12396.332440 kJ/mol
# Density = 2.043082 g / cm^3
# Si number density = 20.477429 Si / 1000 Ang^3
#
#
#
# Elastic Constant Matrix: (Units=GPa)
#
#
# Indices 1 2 3 4 5 6 
#
# 1 62.7380 11.8663 31.4378 0.0000 -0.7515 0.0000
# 2 11.8663 84.1645 32.1462 0.0000 5.7967 0.0000
# 3 31.4378 32.1462 112.0600 0.0000 6.9806 0.0000
# 4 0.0000 0.0000 0.0000 22.5810 0.0000 -1.6219
# 5 -0.7515 5.7967 6.9806 0.0000 43.2736 0.0000
# 6 0.0000 0.0000 0.0000 -1.6219 0.0000 18.4397
#
#
#
# Elastic Compliance Matrix: (Units=1/GPa)
#
#
# Indices 1 2 3 4 5 6 
#
# 1 0.018650 -0.000772 -0.005088 0.000000 0.001248 0.000000
# 2 -0.000772 0.013436 -0.003560 0.000000 -0.001239 0.000000
# 3 -0.005088 -0.003560 0.011464 0.000000 -0.001461 0.000000
# 4 0.000000 0.000000 0.000000 0.044567 0.000000 0.003920
# 5 0.001248 -0.001239 -0.001461 0.000000 0.023532 0.000000
# 6 0.000000 0.000000 0.000000 0.003920 0.000000 0.054576
#
#
# Mechanical properties :
#
#
# Convention : Reuss Voigt Hill
#
# Bulk Modulus (GPa) = 40.47343 45.54038 43.00690
# Shear Modulus (GPa) = 25.86636 29.09300 27.47968
#
# Velocity S-wave (km/s) = 3.55796 3.77335 3.66724
# Velocity P-wave (km/s) = 6.05694 6.42432 6.24333
#
# Compressibility (1/GPa) = 0.02470757
#
# Stress axis : x y z
#
# Youngs Moduli (GPa) = 53.61909 74.42940 87.23180
#
# Poissons Ratio (x) = 0.05745 0.44388
# Poissons Ratio (y) = 0.04139 0.31059
# Poissons Ratio (z) = 0.27284 0.26500
#
# Static dielectric constant tensor:
#      x y z
#    x 3.783850 0.000000 -0.137660 
#    y 0.000000 3.469270 0.000000 
#    z -0.137660 0.000000 3.908050 
# 
# 
# High freq. dielectric constant tensor:
#      x y z
#    x 1.806110 0.000000 -0.013890 
#    y 0.000000 1.767480 0.000000 
#    z -0.013890 0.000000 1.801530 
# 
# From -- ./inp_files/67186.got.cif
#   From: 2010.06.25/outbox.cif.g09.slc.cpg/sg15_34_cif.got.tgz:67186.got - 2010.06.28 07:06:18.
