data_PCOD8141596
_publ_section_title
;
Structure prediction by ZEFSAII (Michael W. Deem and Ramdas Pophale) SiO2 
 PCOD8141596
Probable space group: C 2/C
;
_chemical_formula_sum "Si O2"
_cell_formula_units_Z 64
_cell_length_a 14.620855
_cell_length_b 23.185095
_cell_length_c 14.658991
_cell_angle_alpha 90.000000
_cell_angle_beta 143.457895
_cell_angle_gamma 90.000000
_cell_volume 2958.722955
_symmetry_space_group_name_H-M "C 2/C"
_symmetry_group_IT_number 15
_symmetry_cell_setting 'monoclinic'
loop_
_space_group_symop_operation_xyz
x,y,z
-x,y,1/2-z
-x,-y,-z
x,-y,1/2+z
1/2+x,1/2+y,z
1/2-x,1/2+y,1/2-z
1/2-x,1/2-y,-z
1/2+x,1/2-y,1/2+z
loop_
_atom_site_type_symbol
_atom_site_label
_atom_site_fract_x
_atom_site_fract_y
_atom_site_fract_z
Si Si1 0.227502 0.828879 0.077392
Si Si2 0.743972 0.467685 0.397389
Si Si3 0.963861 0.741549 0.869821
Si Si4 0.678622 0.594832 0.373172
Si Si5 0.702295 0.176505 0.180624
Si Si6 0.542214 0.905388 0.687067
Si Si7 0.828110 0.966583 0.960244
Si Si8 0.895920 0.924943 0.403384
O O1 0.384829 0.794507 0.223975
O O2 0.173510 0.862994 0.126214
O O3 0.262240 0.873477 0.024485
O O4 0.091393 0.786374 0.933869
O O5 0.772067 0.536478 0.425061
O O6 0.646522 0.453454 0.411480
O O7 0.662395 0.452252 0.238056
O O8 0.899786 0.430832 0.517418
O O9 0.819884 0.772900 0.805236
O O10 0.050860 0.699539 0.008181
O O11 0.500000 0.582127 0.250000
O O12 0.693173 0.635222 0.297414
O O13 0.634588 0.144832 0.212729
O O14 0.500000 0.877202 0.750000
O O15 0.650137 0.960524 0.792594
O O16 0.873970 0.032294 0.972137
O O17 0.922408 0.920737 0.973129
#
# Coordination Sequence:
#
# PCOD8141596 Si02
#       8
#     8   8   8   8   8   8   8   8
#     4  11  23  41  62  95 128 172 220 266 325 380
#     4  11  23  39  60  95 130 167 217 254 315 409
#     4  10  24  42  65  92 126 168 228 271 317 385
#     4  12  24  39  65  95 135 171 212 259 328 400
#     4  11  23  43  65  91 126 171 213 278 327 373
#     4  10  23  42  63  90 129 168 210 267 331 380
#     4  10  21  37  59  92 128 165 208 259 321 400
#     4  11  21  36  65  89 127 168 213 263 325 382
#
# _framework density 21.630953999999999
#
# number of rings (size 3 to 8) (size 9 to 14) (size 15 to 20)
#    0.000    1.250    2.500    3.375    1.750    6.500 
#    2.250    0.625    0.000    6.000    0.000    0.000 
#    0.000    0.000    0.000    0.000    0.000    0.000 
#
# Total GULP energy -396670.085692 kJ/mol
# GULP energy per Si atom -12395.940178 kJ/mol
# Density = 2.158172 g / cm^3
# Si number density = 21.630954 Si / 1000 Ang^3
#
#
#
# Elastic Constant Matrix: (Units=GPa)
#
#
# Indices 1 2 3 4 5 6 
#
# 1 91.7283 21.5065 22.4298 0.0000 -3.6536 0.0000
# 2 21.5065 68.4296 10.5585 0.0000 -3.0751 0.0000
# 3 22.4298 10.5585 83.0732 0.0000 2.7380 0.0000
# 4 0.0000 0.0000 0.0000 24.8633 0.0000 -3.8289
# 5 -3.6536 -3.0751 2.7380 0.0000 28.2584 0.0000
# 6 0.0000 0.0000 0.0000 -3.8289 0.0000 16.8497
#
#
#
# Elastic Compliance Matrix: (Units=1/GPa)
#
#
# Indices 1 2 3 4 5 6 
#
# 1 0.012490 -0.003395 -0.002992 0.000000 0.001535 0.000000
# 2 -0.003395 0.015922 -0.001153 0.000000 0.001405 0.000000
# 3 -0.002992 -0.001153 0.013050 0.000000 -0.001777 0.000000
# 4 0.000000 0.000000 0.000000 0.041678 0.000000 0.009471
# 5 0.001535 0.001405 -0.001777 0.000000 0.035911 0.000000
# 6 0.000000 0.000000 0.000000 0.009471 0.000000 0.061500
#
#
# Mechanical properties :
#
#
# Convention : Reuss Voigt Hill
#
# Bulk Modulus (GPa) = 37.90335 39.13564 38.51949
# Shear Modulus (GPa) = 24.45869 26.57673 25.51771
#
# Velocity S-wave (km/s) = 3.36628 3.50900 3.43838
# Velocity P-wave (km/s) = 5.71576 5.87785 5.79737
#
# Compressibility (1/GPa) = 0.02638289
#
# Stress axis : x y z
#
# Youngs Moduli (GPa) = 80.06153 62.80749 76.62589
#
# Poissons Ratio (x) = 0.21323 0.22923
# Poissons Ratio (y) = 0.27181 0.08837
# Poissons Ratio (z) = 0.23950 0.07244
#
# Static dielectric constant tensor:
#      x y z
#    x 4.054570 0.000000 0.118020 
#    y 0.000000 3.906990 0.000000 
#    z 0.118020 0.000000 4.062170 
# 
# 
# High freq. dielectric constant tensor:
#      x y z
#    x 1.849590 0.000000 0.005880 
#    y 0.000000 1.838940 0.000000 
#    z 0.005880 0.000000 1.859950 
# 
# From -- ./inp_files/156820.got.cif
#   From: 2010.06.25/outbox.cif.g09.slc.cpg/sg15_79_cif.got.tgz:156820.got - 2010.06.28 07:06:18.
