data_PCOD8141261
_publ_section_title
;
Structure prediction by ZEFSAII (Michael W. Deem and Ramdas Pophale) SiO2 
 PCOD8141261
Probable space group: C 2/C
;
_chemical_formula_sum "Si O2"
_cell_formula_units_Z 48
_cell_length_a 18.032300
_cell_length_b 9.523976
_cell_length_c 15.649717
_cell_angle_alpha 90.000000
_cell_angle_beta 54.898741
_cell_angle_gamma 90.000000
_cell_volume 2198.882295
_symmetry_space_group_name_H-M "C 2/C"
_symmetry_group_IT_number 15
_symmetry_cell_setting 'monoclinic'
loop_
_space_group_symop_operation_xyz
x,y,z
-x,y,1/2-z
-x,-y,-z
x,-y,1/2+z
1/2+x,1/2+y,z
1/2-x,1/2+y,1/2-z
1/2-x,1/2-y,-z
1/2+x,1/2-y,1/2+z
loop_
_atom_site_type_symbol
_atom_site_label
_atom_site_fract_x
_atom_site_fract_y
_atom_site_fract_z
Si Si1 0.656579 0.544559 0.269307
Si Si2 0.859389 0.653176 0.487553
Si Si3 0.825939 0.058749 0.929710
Si Si4 0.806308 0.350689 0.216702
Si Si5 0.007528 0.448895 0.344445
Si Si6 0.028911 0.858531 0.631614
O O1 0.652680 0.463929 0.183002
O O2 0.715419 0.443897 0.292612
O O3 0.702100 0.700367 0.229970
O O4 0.552480 0.567644 0.369311
O O5 0.873653 0.798174 0.428485
O O6 0.782976 0.563346 0.485437
O O7 0.823097 0.682939 0.606174
O O8 0.954200 0.571039 0.429720
O O9 0.874905 0.933675 0.950025
O O10 0.887331 0.446374 0.199697
O O11 0.960501 0.302577 0.403034
O O12 0.000000 0.481548 0.250000
O O13 0.000000 0.862513 0.750000
#
# Coordination Sequence:
#
# PCOD8141261 Si02
#       6
#     8   8   8   8   8   8
#     4   9  19  36  58  82 112 152 189 229 281 339
#     4  10  21  36  56  86 116 144 187 241 282 327
#     4   9  19  36  56  80 113 147 184 231 283 339
#     4  10  21  38  58  85 118 148 190 238 280 333
#     4  10  21  36  57  83 113 152 192 231 281 340
#     4   8  16  34  55  77 106 142 185 225 269 334
#
# _framework density 21.829273000000001
#
# number of rings (size 3 to 8) (size 9 to 14) (size 15 to 20)
#    0.000    2.667    0.000    1.500    0.000    8.000 
#    0.000    6.667    0.000    0.000    0.000    0.000 
#    0.000    0.000    0.000    0.000    0.000    0.000 
#
# Total GULP energy -297424.428632 kJ/mol
# GULP energy per Si atom -12392.684526 kJ/mol
# Density = 2.177959 g / cm^3
# Si number density = 21.829273 Si / 1000 Ang^3
#
#
#
# Elastic Constant Matrix: (Units=GPa)
#
#
# Indices 1 2 3 4 5 6 
#
# 1 103.6259 30.6914 2.8690 0.0000 0.7049 0.0000
# 2 30.6914 76.6437 19.3468 0.0000 5.3143 0.0001
# 3 2.8690 19.3468 32.1772 0.0000 7.4871 0.0000
# 4 0.0000 0.0000 0.0000 22.8329 0.0000 -11.4453
# 5 0.7049 5.3143 7.4871 0.0000 9.8875 0.0000
# 6 0.0000 0.0001 0.0000 -11.4453 0.0000 48.2678
#
#
#
# Elastic Compliance Matrix: (Units=1/GPa)
#
#
# Indices 1 2 3 4 5 6 
#
# 1 0.011056 -0.004932 0.001877 0.000000 0.000441 0.000000
# 2 -0.004932 0.017601 -0.009740 0.000000 -0.001733 0.000000
# 3 0.001877 -0.009740 0.043189 0.000000 -0.027603 0.000000
# 4 0.000000 0.000000 0.000000 0.049704 0.000000 0.011786
# 5 0.000441 -0.001733 -0.027603 0.000000 0.122940 0.000000
# 6 0.000000 0.000000 0.000000 0.011786 0.000000 0.023512
#
#
# Mechanical properties :
#
#
# Convention : Reuss Voigt Hill
#
# Bulk Modulus (GPa) = 21.61832 35.36237 28.49035
# Shear Modulus (GPa) = 16.18068 26.83362 21.50715
#
# Velocity S-wave (km/s) = 2.72552 3.50987 3.14226
# Velocity P-wave (km/s) = 4.45303 5.71492 5.12298
#
# Compressibility (1/GPa) = 0.04625705
#
# Stress axis : x y z
#
# Youngs Moduli (GPa) = 90.45091 56.81528 23.15378
#
# Poissons Ratio (x) = 0.28018 -0.04345
# Poissons Ratio (y) = 0.44606 0.22551
# Poissons Ratio (z) = -0.16975 0.55336
#
# Static dielectric constant tensor:
#      x y z
#    x 4.585680 0.000000 -0.158800 
#    y 0.000000 4.032560 0.000000 
#    z -0.158800 0.000000 3.320360 
# 
# 
# High freq. dielectric constant tensor:
#      x y z
#    x 1.882900 0.000000 -0.004110 
#    y 0.000000 1.858490 0.000000 
#    z -0.004110 0.000000 1.802580 
# 
# From -- ./inp_files/209301.got.cif
#   From: 2010.06.25/outbox.cif.g09.slc.cpg/sg15_105_cif.got.tgz:209301.got - 2010.06.28 07:06:18.
