data_PCOD8141281
_publ_section_title
;
Structure prediction by ZEFSAII (Michael W. Deem and Ramdas Pophale) SiO2 
 PCOD8141281
Probable space group: C 2/C
;
_chemical_formula_sum "Si O2"
_cell_formula_units_Z 52
_cell_length_a 23.064047
_cell_length_b 21.966283
_cell_length_c 5.508199
_cell_angle_alpha 90.000000
_cell_angle_beta 81.311347
_cell_angle_gamma 90.000000
_cell_volume 2758.600758
_symmetry_space_group_name_H-M "C 2/C"
_symmetry_group_IT_number 15
_symmetry_cell_setting 'monoclinic'
loop_
_space_group_symop_operation_xyz
x,y,z
-x,y,1/2-z
-x,-y,-z
x,-y,1/2+z
1/2+x,1/2+y,z
1/2-x,1/2+y,1/2-z
1/2-x,1/2-y,-z
1/2+x,1/2-y,1/2+z
loop_
_atom_site_type_symbol
_atom_site_label
_atom_site_fract_x
_atom_site_fract_y
_atom_site_fract_z
Si Si1 0.701667 0.736145 0.223646
Si Si2 0.000000 0.766385 0.750000
Si Si3 0.801185 0.330649 0.886400
Si Si4 0.366464 0.534370 0.000467
Si Si5 0.109404 0.247899 0.928508
Si Si6 0.729007 0.034425 0.086453
Si Si7 0.939014 0.845438 0.412163
O O1 0.732437 0.685642 0.374792
O O2 0.684250 0.798777 0.368778
O O3 0.750000 0.750000 0.000000
O O4 0.642804 0.712562 0.128509
O O5 0.954484 0.809146 0.642377
O O6 0.043929 0.727679 0.548461
O O7 0.850002 0.305334 0.666964
O O8 0.807427 0.402907 0.897725
O O9 0.383685 0.503899 0.731051
O O10 0.402089 0.596068 0.003774
O O11 0.297728 0.548418 0.044619
O O12 0.102250 0.198829 0.720849
O O13 0.711443 0.001079 0.350016
O O14 0.000000 0.865096 0.250000
#
# Coordination Sequence:
#
# PCOD8141281 Si02
#       7
#     8   4   8   8   8   8   8
#     4   9  20  32  55  89 115 151 188 251 290 367
#     4  10  22  38  56  84 120 150 196 252 322 346
#     4  10  21  36  57  90 116 154 200 240 306 363
#     4  10  24  40  57  81 113 164 210 252 297 346
#     4  10  21  36  57  87 115 152 192 250 307 361
#     4  10  24  40  59  86 123 161 199 247 297 358
#     4  10  23  38  57  82 113 155 202 257 300 350
#
# _framework density 18.850135999999999
#
# number of rings (size 3 to 8) (size 9 to 14) (size 15 to 20)
#    0.000    2.154    0.000    0.923   17.231    1.846 
#    0.000    0.000    0.000    0.000    0.000    1.077 
#    0.000    0.000    0.000    0.000    0.000    0.000 
#
# Total GULP energy -322119.532899 kJ/mol
# GULP energy per Si atom -12389.212804 kJ/mol
# Density = 1.880723 g / cm^3
# Si number density = 18.850136 Si / 1000 Ang^3
#
#
#
# Elastic Constant Matrix: (Units=GPa)
#
#
# Indices 1 2 3 4 5 6 
#
# 1 88.7751 52.4640 44.4858 0.0000 3.3316 0.0000
# 2 52.4640 114.7401 47.3870 0.0000 -1.4269 0.0000
# 3 44.4858 47.3870 112.5536 0.0000 14.2935 0.0000
# 4 0.0000 0.0000 0.0000 5.9571 0.0000 -9.8341
# 5 3.3316 -1.4269 14.2935 0.0000 41.3613 0.0000
# 6 0.0000 0.0000 0.0000 -9.8341 0.0000 27.6522
#
#
#
# Elastic Compliance Matrix: (Units=1/GPa)
#
#
# Indices 1 2 3 4 5 6 
#
# 1 0.016897 -0.006025 -0.004123 0.000000 -0.000144 0.000000
# 2 -0.006025 0.012856 -0.003294 0.000000 0.002067 0.000000
# 3 -0.004123 -0.003294 0.012418 0.000000 -0.004073 0.000000
# 4 0.000000 0.000000 0.000000 0.406551 0.000000 0.144584
# 5 -0.000144 0.002067 -0.004073 0.000000 0.025668 0.000000
# 6 0.000000 0.000000 0.000000 0.144584 0.000000 0.087583
#
#
# Mechanical properties :
#
#
# Convention : Reuss Voigt Hill
#
# Bulk Modulus (GPa) = 65.41498 67.19360 66.30429
# Shear Modulus (GPa) = 8.41818 26.44292 17.43055
#
# Velocity S-wave (km/s) = 2.11555 3.74946 3.04417
# Velocity P-wave (km/s) = 6.38321 7.38026 6.89977
#
# Compressibility (1/GPa) = 0.01528702
#
# Stress axis : x y z
#
# Youngs Moduli (GPa) = 59.18380 77.78372 80.52504
#
# Poissons Ratio (x) = 0.46862 0.33204
# Poissons Ratio (y) = 0.35656 0.26525
# Poissons Ratio (z) = 0.24404 0.25622
#
# Static dielectric constant tensor:
#      x y z
#    x 4.035600 0.000000 0.202160 
#    y 0.000000 3.087960 0.000000 
#    z 0.202160 0.000000 3.776580 
# 
# 
# High freq. dielectric constant tensor:
#      x y z
#    x 1.729070 0.000000 0.001070 
#    y 0.000000 1.692070 0.000000 
#    z 0.001070 0.000000 1.759180 
# 
# From -- ./inp_files/13319.got.cif
#   From: 2010.06.25/outbox.cif.g09.slc.cpg/sg15_7_cif.got.tgz:13319.got - 2010.06.28 07:06:18.
