data_PCOD8141855
_publ_section_title
;
Structure prediction by ZEFSAII (Michael W. Deem and Ramdas Pophale) SiO2 
 PCOD8141855
Probable space group: C 2/C
;
_chemical_formula_sum "Si O2"
_cell_formula_units_Z 56
_cell_length_a 25.406884
_cell_length_b 13.141912
_cell_length_c 8.605275
_cell_angle_alpha 90.000000
_cell_angle_beta 91.703500
_cell_angle_gamma 90.000000
_cell_volume 2871.988738
_symmetry_space_group_name_H-M "C 2/C"
_symmetry_group_IT_number 15
_symmetry_cell_setting 'monoclinic'
loop_
_space_group_symop_operation_xyz
x,y,z
-x,y,1/2-z
-x,-y,-z
x,-y,1/2+z
1/2+x,1/2+y,z
1/2-x,1/2+y,1/2-z
1/2-x,1/2-y,-z
1/2+x,1/2-y,1/2+z
loop_
_atom_site_type_symbol
_atom_site_label
_atom_site_fract_x
_atom_site_fract_y
_atom_site_fract_z
Si Si1 0.737008 0.217421 0.824805
Si Si2 0.221599 0.595476 0.292064
Si Si3 0.690969 0.454870 0.255062
Si Si4 0.115726 0.989372 0.501480
Si Si5 0.062023 0.138758 0.249428
Si Si6 0.120861 0.653413 0.774009
Si Si7 0.151194 0.499794 0.032633
O O1 0.770706 0.283466 0.704807
O O2 0.757346 0.105817 0.789983
O O3 0.675159 0.214977 0.789490
O O4 0.750000 0.250000 0.000000
O O5 0.281627 0.565580 0.246353
O O6 0.176621 0.571517 0.163102
O O7 0.201130 0.554101 0.454152
O O8 0.664328 0.432511 0.418825
O O9 0.642860 0.439329 0.131920
O O10 0.083960 0.064270 0.385263
O O11 0.080290 0.903100 0.581897
O O12 0.077214 0.257607 0.275445
O O13 0.000000 0.132457 0.250000
O O14 0.116125 0.588264 0.612830
O O15 0.116126 0.571593 0.915925
#
# Coordination Sequence:
#
# PCOD8141855 Si02
#       7
#     8   8   8   8   8   8   8
#     4  12  20  30  54  84 123 164 199 233 298 361
#     4  11  20  33  52  79 126 167 200 234 286 353
#     4  11  20  34  55  88 128 158 195 235 293 387
#     4  10  23  39  61  93 123 155 198 251 319 380
#     4  11  24  46  68  88 117 158 213 275 325 361
#     4  11  23  39  60  88 122 168 212 249 308 359
#     4  10  21  38  53  83 122 164 207 246 293 356
#
# _framework density 19.498684000000001
#
# number of rings (size 3 to 8) (size 9 to 14) (size 15 to 20)
#    0.000    1.143    4.286    4.714    2.000    0.571 
#    0.000    0.714    0.000    0.000    0.000    0.000 
#    0.000    0.000    0.000    0.000    0.000    0.000 
#
# Total GULP energy -346952.882058 kJ/mol
# GULP energy per Si atom -12391.174359 kJ/mol
# Density = 1.945430 g / cm^3
# Si number density = 19.498684 Si / 1000 Ang^3
#
#
#
# Elastic Constant Matrix: (Units=GPa)
#
#
# Indices 1 2 3 4 5 6 
#
# 1 67.1254 8.9297 16.6219 0.0000 -6.7098 0.0000
# 2 8.9297 75.0458 28.7989 0.0000 -0.0244 0.0000
# 3 16.6219 28.7989 81.0599 0.0000 -11.5256 0.0000
# 4 0.0000 0.0000 0.0000 30.6956 0.0000 -3.7506
# 5 -6.7098 -0.0244 -11.5256 0.0000 17.3344 0.0000
# 6 0.0000 0.0000 0.0000 -3.7506 0.0000 30.1349
#
#
#
# Elastic Compliance Matrix: (Units=1/GPa)
#
#
# Indices 1 2 3 4 5 6 
#
# 1 0.016066 -0.001046 -0.002252 0.000000 0.004720 0.000000
# 2 -0.001046 0.015752 -0.006004 0.000000 -0.004375 0.000000
# 3 -0.002252 -0.006004 0.016352 0.000000 0.009992 0.000000
# 4 0.000000 0.000000 0.000000 0.033081 0.000000 0.004117
# 5 0.004720 -0.004375 0.009992 0.000000 0.066154 0.000000
# 6 0.000000 0.000000 0.000000 0.004117 0.000000 0.033697
#
#
# Mechanical properties :
#
#
# Convention : Reuss Voigt Hill
#
# Bulk Modulus (GPa) = 33.82148 36.88137 35.35142
# Shear Modulus (GPa) = 23.85941 26.89168 25.37555
#
# Velocity S-wave (km/s) = 3.50185 3.71772 3.61140
# Velocity P-wave (km/s) = 5.80808 6.11429 5.96315
#
# Compressibility (1/GPa) = 0.02956701
#
# Stress axis : x y z
#
# Youngs Moduli (GPa) = 62.24311 63.48288 61.15406
#
# Poissons Ratio (x) = 0.06641 0.13770
# Poissons Ratio (y) = 0.06511 0.36717
# Poissons Ratio (z) = 0.14015 0.38115
#
# Static dielectric constant tensor:
#      x y z
#    x 3.235070 0.000000 0.037770 
#    y 0.000000 3.681270 0.000000 
#    z 0.037770 0.000000 4.216040 
# 
# 
# High freq. dielectric constant tensor:
#      x y z
#    x 1.721490 0.000000 -0.001800 
#    y 0.000000 1.764970 0.000000 
#    z -0.001800 0.000000 1.772500 
# 
# From -- ./inp_files/55613.got.cif
#   From: 2010.06.25/outbox.cif.g09.slc.cpg/sg15_28_cif.got.tgz:55613.got - 2010.06.28 07:06:18.
