data_PCOD8141231
_publ_section_title
;
Structure prediction by ZEFSAII (Michael W. Deem and Ramdas Pophale) SiO2 
 PCOD8141231
Probable space group: C 2/C
;
_chemical_formula_sum "Si O2"
_cell_formula_units_Z 56
_cell_length_a 9.293391
_cell_length_b 11.205906
_cell_length_c 25.516587
_cell_angle_alpha 90.000000
_cell_angle_beta 73.809622
_cell_angle_gamma 90.000000
_cell_volume 2551.931571
_symmetry_space_group_name_H-M "C 2/C"
_symmetry_group_IT_number 15
_symmetry_cell_setting 'monoclinic'
loop_
_space_group_symop_operation_xyz
x,y,z
-x,y,1/2-z
-x,-y,-z
x,-y,1/2+z
1/2+x,1/2+y,z
1/2-x,1/2+y,1/2-z
1/2-x,1/2-y,-z
1/2+x,1/2-y,1/2+z
loop_
_atom_site_type_symbol
_atom_site_label
_atom_site_fract_x
_atom_site_fract_y
_atom_site_fract_z
Si Si1 0.857057 0.132667 0.528670
Si Si2 0.131234 0.551680 0.878455
Si Si3 0.340849 0.738681 0.043451
Si Si4 0.794196 0.862369 0.924767
Si Si5 0.415295 0.336981 0.310689
Si Si6 0.862171 0.410648 0.857480
Si Si7 0.069709 0.998733 0.377224
O O1 0.769691 0.081385 0.486155
O O2 0.747492 0.222854 0.571298
O O3 0.913738 0.033526 0.562730
O O4 0.994421 0.199045 0.487916
O O5 0.125688 0.639469 0.928504
O O6 0.188502 0.425233 0.893576
O O7 0.244571 0.613770 0.824796
O O8 0.975375 0.513718 0.866266
O O9 0.239259 0.647002 0.086581
O O10 0.250000 0.750000 0.000000
O O11 0.966436 0.882029 0.887473
O O12 0.500000 0.378570 0.250000
O O13 0.434807 0.193946 0.315234
O O14 0.489980 0.392156 0.354907
O O15 0.733968 0.477407 0.835601
#
# Coordination Sequence:
#
# PCOD8141231 Si02
#       7
#     8   8   8   8   8   8   8
#     4  11  22  33  55  88 128 170 208 240 286 360
#     4  10  23  39  62  91 121 161 207 251 307 373
#     4  11  22  35  55  89 130 172 210 243 289 352
#     4  10  21  36  54  84 127 170 207 241 288 353
#     4  10  24  47  66  87 116 150 205 270 323 379
#     4  11  24  40  63  93 126 158 203 259 307 366
#     4  11  23  40  62  88 123 167 206 252 309 362
#
# _framework density 21.944161000000001
#
# number of rings (size 3 to 8) (size 9 to 14) (size 15 to 20)
#    0.000    1.429    1.429    4.714    6.000    2.286 
#    0.000    0.000    0.000    0.000    0.000    0.000 
#    0.000    0.000    0.000    0.000    0.000    0.000 
#
# Total GULP energy -346896.884656 kJ/mol
# GULP energy per Si atom -12389.174452 kJ/mol
# Density = 2.189422 g / cm^3
# Si number density = 21.944161 Si / 1000 Ang^3
#
#
#
# Elastic Constant Matrix: (Units=GPa)
#
#
# Indices 1 2 3 4 5 6 
#
# 1 113.6714 41.7906 19.4080 0.0000 -25.8434 0.0000
# 2 41.7906 74.9072 15.9117 0.0000 -19.6287 0.0000
# 3 19.4080 15.9117 70.4960 0.0000 -14.3705 0.0000
# 4 0.0000 0.0000 0.0000 21.2053 0.0000 -5.9331
# 5 -25.8434 -19.6287 -14.3705 0.0000 20.8915 0.0000
# 6 0.0000 0.0000 0.0000 -5.9331 0.0000 34.0660
#
#
#
# Elastic Compliance Matrix: (Units=1/GPa)
#
#
# Indices 1 2 3 4 5 6 
#
# 1 0.013113 -0.004058 -0.000192 0.000000 0.012277 0.000000
# 2 -0.004058 0.018996 -0.000646 0.000000 0.012383 0.000000
# 3 -0.000192 -0.000646 0.016529 0.000000 0.010526 0.000000
# 4 0.000000 0.000000 0.000000 0.049574 0.000000 0.008634
# 5 0.012277 0.012383 0.010526 0.000000 0.081928 0.000000
# 6 0.000000 0.000000 0.000000 0.008634 0.000000 0.030858
#
#
# Mechanical properties :
#
#
# Convention : Reuss Voigt Hill
#
# Bulk Modulus (GPa) = 25.74192 45.92166 35.83179
# Shear Modulus (GPa) = 21.39133 27.36351 24.37742
#
# Velocity S-wave (km/s) = 3.12558 3.53506 3.33661
# Velocity P-wave (km/s) = 4.97813 6.13468 5.58641
#
# Compressibility (1/GPa) = 0.03884714
#
# Stress axis : x y z
#
# Youngs Moduli (GPa) = 76.25985 52.64258 60.49802
#
# Poissons Ratio (x) = 0.21363 0.01159
# Poissons Ratio (y) = 0.30947 0.03909
# Poissons Ratio (z) = 0.01461 0.03401
#
# Static dielectric constant tensor:
#      x y z
#    x 4.382260 0.000000 -0.308900 
#    y 0.000000 3.919260 0.000000 
#    z -0.308900 0.000000 3.520370 
# 
# 
# High freq. dielectric constant tensor:
#      x y z
#    x 1.880540 0.000000 -0.015080 
#    y 0.000000 1.866160 0.000000 
#    z -0.015080 0.000000 1.823090 
# 
# From -- ./inp_files/288062.got.cif
#   From: 2010.06.25/outbox.cif.g09.slc.cpg/sg15_145_cif.got.tgz:288062.got - 2010.06.28 07:06:18.
