data_PCOD8141370
_publ_section_title
;
Structure prediction by ZEFSAII (Michael W. Deem and Ramdas Pophale) SiO2 
 PCOD8141370
Probable space group: C 2/C
;
_chemical_formula_sum "Si O2"
_cell_formula_units_Z 56
_cell_length_a 15.690117
_cell_length_b 12.165992
_cell_length_c 15.617896
_cell_angle_alpha 90.000000
_cell_angle_beta 113.175580
_cell_angle_gamma 90.000000
_cell_volume 2740.658900
_symmetry_space_group_name_H-M "C 2/C"
_symmetry_group_IT_number 15
_symmetry_cell_setting 'monoclinic'
loop_
_space_group_symop_operation_xyz
x,y,z
-x,y,1/2-z
-x,-y,-z
x,-y,1/2+z
1/2+x,1/2+y,z
1/2-x,1/2+y,1/2-z
1/2-x,1/2-y,-z
1/2+x,1/2-y,1/2+z
loop_
_atom_site_type_symbol
_atom_site_label
_atom_site_fract_x
_atom_site_fract_y
_atom_site_fract_z
Si Si1 0.894784 0.639679 0.196052
Si Si2 0.202937 0.135917 0.796537
Si Si3 0.101408 0.081515 0.257128
Si Si4 0.846420 0.757746 0.586342
Si Si5 0.640971 0.901363 0.262699
Si Si6 0.454659 0.741543 0.397839
Si Si7 0.170069 0.323335 0.008559
O O1 0.833156 0.740936 0.204881
O O2 0.873029 0.532363 0.243348
O O3 0.000000 0.675904 0.250000
O O4 0.875699 0.611242 0.088381
O O5 0.255399 0.127844 0.727279
O O6 0.277588 0.101873 0.900118
O O7 0.120716 0.047801 0.762374
O O8 0.167840 0.143804 0.350583
O O9 0.103529 0.137795 0.164027
O O10 0.000000 0.104779 0.250000
O O11 0.750000 0.750000 0.500000
O O12 0.868701 0.645170 0.645456
O O13 0.933835 0.778610 0.556183
O O14 0.564647 0.847722 0.169770
O O15 0.413425 0.756574 0.477132
O O16 0.250000 0.250000 0.000000
#
# Coordination Sequence:
#
# PCOD8141370 Si02
#       7
#     8   8   8   8   8   8   8
#     4  11  23  40  62  89 125 161 205 255 309 374
#     4  10  22  38  62  87 119 162 206 245 308 372
#     4   9  19  37  62  86 118 158 202 251 307 364
#     4  10  21  36  61  88 122 154 209 251 301 364
#     4  10  22  38  61  88 122 163 201 254 310 363
#     4   9  19  41  61  87 121 164 198 255 311 357
#     4   9  21  38  59  87 122 158 198 250 306 359
#
# _framework density 20.433042
#
# number of rings (size 3 to 8) (size 9 to 14) (size 15 to 20)
#    0.000    2.286    0.000    2.571   10.000    1.143 
#    0.000    2.143    0.000    6.000    0.000    0.000 
#    0.000    0.000    0.000    0.000    0.000    0.000 
#
# Total GULP energy -347013.240498 kJ/mol
# GULP energy per Si atom -12393.330018 kJ/mol
# Density = 2.038654 g / cm^3
# Si number density = 20.433042 Si / 1000 Ang^3
#
#
#
# Elastic Constant Matrix: (Units=GPa)
#
#
# Indices 1 2 3 4 5 6 
#
# 1 111.9402 23.6272 38.6146 0.0000 -2.3127 0.0000
# 2 23.6272 115.4188 16.7162 0.0000 -0.2750 0.0000
# 3 38.6146 16.7162 66.1887 0.0000 5.0165 0.0000
# 4 0.0000 0.0000 0.0000 15.2935 0.0000 2.2492
# 5 -2.3127 -0.2750 5.0165 0.0000 33.9725 0.0000
# 6 0.0000 0.0000 0.0000 2.2492 0.0000 30.6579
#
#
#
# Elastic Compliance Matrix: (Units=1/GPa)
#
#
# Indices 1 2 3 4 5 6 
#
# 1 0.011505 -0.001412 -0.006486 0.000000 0.001730 0.000000
# 2 -0.001412 0.009172 -0.001508 0.000000 0.000201 0.000000
# 3 -0.006486 -0.001508 0.019526 0.000000 -0.003337 0.000000
# 4 0.000000 0.000000 0.000000 0.066100 0.000000 -0.004849
# 5 0.001730 0.000201 -0.003337 0.000000 0.030048 0.000000
# 6 0.000000 0.000000 0.000000 -0.004849 0.000000 0.032974
#
#
# Mechanical properties :
#
#
# Convention : Reuss Voigt Hill
#
# Bulk Modulus (GPa) = 46.74931 50.16265 48.45598
# Shear Modulus (GPa) = 25.60599 30.29077 27.94838
#
# Velocity S-wave (km/s) = 3.54385 3.85442 3.70239
# Velocity P-wave (km/s) = 6.29874 6.66422 6.48406
#
# Compressibility (1/GPa) = 0.02139069
#
# Stress axis : x y z
#
# Youngs Moduli (GPa) = 86.92240 109.02801 51.21308
#
# Poissons Ratio (x) = 0.15390 0.33219
# Poissons Ratio (y) = 0.12269 0.07724
# Poissons Ratio (z) = 0.56381 0.16443
#
# Static dielectric constant tensor:
#      x y z
#    x 3.840590 0.000000 -0.107070 
#    y 0.000000 3.473640 0.000000 
#    z -0.107070 0.000000 3.937280 
# 
# 
# High freq. dielectric constant tensor:
#      x y z
#    x 1.811530 0.000000 -0.001020 
#    y 0.000000 1.781180 0.000000 
#    z -0.001020 0.000000 1.785500 
# 
# From -- ./inp_files/161401.got.cif
#   From: 2010.06.25/outbox.cif.g09.slc.cpg/sg15_81_cif.got.tgz:161401.got - 2010.06.28 07:06:18.
