data_PCOD8141038
_publ_section_title
;
Structure prediction by ZEFSAII (Michael W. Deem and Ramdas Pophale) SiO2 
 PCOD8141038
Probable space group: C 2/C
;
_chemical_formula_sum "Si O2"
_cell_formula_units_Z 60
_cell_length_a 18.891771
_cell_length_b 8.458685
_cell_length_c 26.832193
_cell_angle_alpha 90.000000
_cell_angle_beta 43.305242
_cell_angle_gamma 90.000000
_cell_volume 2940.918283
_symmetry_space_group_name_H-M "C 2/C"
_symmetry_group_IT_number 15
_symmetry_cell_setting 'monoclinic'
loop_
_space_group_symop_operation_xyz
x,y,z
-x,y,1/2-z
-x,-y,-z
x,-y,1/2+z
1/2+x,1/2+y,z
1/2-x,1/2+y,1/2-z
1/2-x,1/2-y,-z
1/2+x,1/2-y,1/2+z
loop_
_atom_site_type_symbol
_atom_site_label
_atom_site_fract_x
_atom_site_fract_y
_atom_site_fract_z
Si Si1 0.232485 0.084112 0.125672
Si Si2 0.263021 0.514964 0.709256
Si Si3 0.070312 0.971357 0.628898
Si Si4 0.627716 0.298978 0.771579
Si Si5 0.281004 0.775556 0.852363
Si Si6 0.603408 0.597299 0.504638
Si Si7 0.000000 0.190823 0.750000
Si Si8 0.406663 0.308814 0.060177
O O1 0.178598 0.083238 0.098548
O O2 0.156182 0.190356 0.198543
O O3 0.347946 0.157373 0.066890
O O4 0.243122 0.908575 0.141539
O O5 0.310658 0.444946 0.734959
O O6 0.162756 0.624425 0.772833
O O7 0.240180 0.361132 0.688319
O O8 0.344491 0.623718 0.638981
O O9 0.995185 0.821513 0.655330
O O10 0.097601 0.075741 0.566721
O O11 0.001705 0.079362 0.700635
O O12 0.401146 0.803700 0.802350
O O13 0.217274 0.845890 0.931379
O O14 0.579464 0.428578 0.492471
O O15 0.520425 0.725254 0.525094
#
# Coordination Sequence:
#
# PCOD8141038 Si02
#       8
#     8   8   8   8   8   8   4   8
#     4  10  21  36  62  83 126 155 212 247 314 372
#     4  10  21  34  62  86 121 152 209 258 315 362
#     4  11  20  38  62  87 118 176 198 256 312 383
#     4  11  19  36  58  91 117 160 206 260 310 374
#     4  10  21  41  58  93 118 166 201 266 307 373
#     4  10  21  37  64  84 128 159 210 253 322 361
#     4  10  22  38  60  86 128 158 212 246 318 366
#     4   9  20  39  56  90 115 165 199 261 303 379
#
# _framework density 20.401789999999998
#
# number of rings (size 3 to 8) (size 9 to 14) (size 15 to 20)
#    0.000    1.867    4.000    0.800    0.000    3.200 
#    7.200    0.000    2.933    0.000    0.000    0.000 
#    0.000    0.000    0.000    0.000    0.000    0.000 
#
# Total GULP energy -371847.335010 kJ/mol
# GULP energy per Si atom -12394.911167 kJ/mol
# Density = 2.035535 g / cm^3
# Si number density = 20.401790 Si / 1000 Ang^3
#
#
#
# Elastic Constant Matrix: (Units=GPa)
#
#
# Indices 1 2 3 4 5 6 
#
# 1 132.8641 46.4369 59.9796 -0.0001 -12.5290 -0.0004
# 2 46.4369 71.8068 17.2167 -0.0001 -7.1162 -0.0008
# 3 59.9796 17.2167 92.3025 0.0000 -5.2390 -0.0002
# 4 -0.0001 -0.0001 0.0000 24.5283 0.0001 -11.2576
# 5 -12.5290 -7.1162 -5.2390 0.0001 33.3695 -0.0004
# 6 -0.0004 -0.0008 -0.0002 -11.2576 -0.0004 25.6628
#
#
#
# Elastic Compliance Matrix: (Units=1/GPa)
#
#
# Indices 1 2 3 4 5 6 
#
# 1 0.013391 -0.006661 -0.007319 0.000000 0.002458 0.000000
# 2 -0.006661 0.018138 0.001032 0.000000 0.001529 0.000001
# 3 -0.007319 0.001032 0.015391 0.000000 -0.000112 0.000000
# 4 0.000000 0.000000 0.000000 0.051047 0.000000 0.022393
# 5 0.002458 0.001529 -0.000112 0.000000 0.031199 0.000001
# 6 0.000000 0.000001 0.000000 0.022393 0.000001 0.048790
#
#
# Mechanical properties :
#
#
# Convention : Reuss Voigt Hill
#
# Bulk Modulus (GPa) = 47.56669 60.47106 54.01888
# Shear Modulus (GPa) = 23.71235 28.26811 25.99023
#
# Velocity S-wave (km/s) = 3.41290 3.72636 3.57307
# Velocity P-wave (km/s) = 6.23668 6.94398 6.59981
#
# Compressibility (1/GPa) = 0.02102311
#
# Stress axis : x y z
#
# Youngs Moduli (GPa) = 74.67900 55.13284 64.97129
#
# Poissons Ratio (x) = 0.36724 0.47556
# Poissons Ratio (y) = 0.49744 -0.06706
# Poissons Ratio (z) = 0.54661 -0.05690
#
# Static dielectric constant tensor:
#      x y z
#    x 3.810880 0.000000 -0.162880 
#    y 0.000000 3.566960 0.000000 
#    z -0.162880 0.000000 3.653470 
# 
# 
# High freq. dielectric constant tensor:
#      x y z
#    x 1.803610 0.000000 -0.001020 
#    y 0.000000 1.772900 0.000000 
#    z -0.001020 0.000000 1.790210 
# 
# From -- ./inp_files/298367.got.cif
#   From: 2010.06.25/outbox.cif.g09.slc.cpg/sg15_150_cif.got.tgz:298367.got - 2010.06.28 07:06:18.
