data_PCOD8141713
_publ_section_title
;
Structure prediction by ZEFSAII (Michael W. Deem and Ramdas Pophale) SiO2 
 PCOD8141713
Probable space group: C 2/C
;
_chemical_formula_sum "Si O2"
_cell_formula_units_Z 64
_cell_length_a 22.712248
_cell_length_b 12.392771
_cell_length_c 11.919031
_cell_angle_alpha 90.000000
_cell_angle_beta 75.442964
_cell_angle_gamma 90.000000
_cell_volume 3247.125322
_symmetry_space_group_name_H-M "C 2/C"
_symmetry_group_IT_number 15
_symmetry_cell_setting 'monoclinic'
loop_
_space_group_symop_operation_xyz
x,y,z
-x,y,1/2-z
-x,-y,-z
x,-y,1/2+z
1/2+x,1/2+y,z
1/2-x,1/2+y,1/2-z
1/2-x,1/2-y,-z
1/2+x,1/2-y,1/2+z
loop_
_atom_site_type_symbol
_atom_site_label
_atom_site_fract_x
_atom_site_fract_y
_atom_site_fract_z
Si Si1 0.194952 0.126755 0.841523
Si Si2 0.935568 0.697256 0.282271
Si Si3 0.771006 0.921553 0.571161
Si Si4 0.819841 0.364401 0.700627
Si Si5 0.882580 0.772539 0.540435
Si Si6 0.202101 0.413355 0.384198
Si Si7 0.487090 0.621947 0.129447
Si Si8 0.059688 0.108177 0.882413
O O1 0.186351 0.254670 0.870730
O O2 0.238450 0.110521 0.715782
O O3 0.130182 0.075497 0.841881
O O4 0.220189 0.052695 0.931308
O O5 0.879274 0.634891 0.252069
O O6 0.919605 0.730941 0.415928
O O7 0.953716 0.800115 0.200168
O O8 0.000000 0.629373 0.250000
O O9 0.742222 0.877238 0.699871
O O10 0.834705 0.861993 0.520022
O O11 0.721762 0.893942 0.501792
O O12 0.825431 0.466954 0.616580
O O13 0.850117 0.672673 0.618246
O O14 0.926136 0.822550 0.613106
O O15 0.500000 0.663787 0.250000
O O16 0.480597 0.493134 0.134525
O O17 0.542462 0.648316 0.017262
#
# Coordination Sequence:
#
# PCOD8141713 Si02
#       8
#     8   8   8   8   8   8   8   8
#     4  10  21  37  62  90 126 157 203 256 313 372
#     4  11  21  39  69  88 119 169 219 262 299 374
#     4  11  20  38  62  92 119 162 200 251 318 375
#     4  10  22  40  59  92 123 157 209 254 307 373
#     4  12  22  41  64  94 123 168 213 256 315 382
#     4  11  23  39  63  90 125 161 207 261 314 374
#     4  11  24  38  60  91 136 168 202 258 317 374
#     4  10  21  38  58  97 127 161 206 255 315 374
#
# _framework density 19.709741000000001
#
# number of rings (size 3 to 8) (size 9 to 14) (size 15 to 20)
#    0.000    1.250    5.000    2.250    1.750    1.500 
#    0.000    6.250    0.000    0.000    0.000    0.000 
#    0.000    0.000    0.000    0.000    0.000    0.000 
#
# Total GULP energy -396672.708983 kJ/mol
# GULP energy per Si atom -12396.022156 kJ/mol
# Density = 1.966488 g / cm^3
# Si number density = 19.709741 Si / 1000 Ang^3
#
#
#
# Elastic Constant Matrix: (Units=GPa)
#
#
# Indices 1 2 3 4 5 6 
#
# 1 106.1126 28.6275 35.9602 0.0000 -6.6231 0.0000
# 2 28.6275 97.3522 17.5560 0.0000 3.8887 0.0000
# 3 35.9602 17.5560 78.4680 0.0000 -2.7506 0.0000
# 4 0.0000 0.0000 0.0000 17.2936 0.0000 2.4087
# 5 -6.6231 3.8887 -2.7506 0.0000 36.4301 0.0000
# 6 0.0000 0.0000 0.0000 2.4087 0.0000 20.0084
#
#
#
# Elastic Compliance Matrix: (Units=1/GPa)
#
#
# Indices 1 2 3 4 5 6 
#
# 1 0.011908 -0.002724 -0.004774 0.000000 0.002095 0.000000
# 2 -0.002724 0.011392 -0.001364 0.000000 -0.001814 0.000000
# 3 -0.004774 -0.001364 0.015252 0.000000 0.000429 0.000000
# 4 0.000000 0.000000 0.000000 0.058811 0.000000 -0.007080
# 5 0.002095 -0.001814 0.000429 0.000000 0.028057 0.000000
# 6 0.000000 0.000000 0.000000 -0.007080 0.000000 0.050831
#
#
# Mechanical properties :
#
#
# Convention : Reuss Voigt Hill
#
# Bulk Modulus (GPa) = 48.01483 49.58002 48.79742
# Shear Modulus (GPa) = 24.88592 28.06567 26.47580
#
# Velocity S-wave (km/s) = 3.55719 3.77762 3.66906
# Velocity P-wave (km/s) = 6.42537 6.65108 6.53920
#
# Compressibility (1/GPa) = 0.02082690
#
# Stress axis : x y z
#
# Youngs Moduli (GPa) = 83.98035 87.78473 65.56500
#
# Poissons Ratio (x) = 0.23915 0.31301
# Poissons Ratio (y) = 0.22879 0.08942
# Poissons Ratio (z) = 0.40092 0.11972
#
# Static dielectric constant tensor:
#      x y z
#    x 3.780310 0.000000 -0.173600 
#    y 0.000000 3.656300 0.000000 
#    z -0.173600 0.000000 3.541900 
# 
# 
# High freq. dielectric constant tensor:
#      x y z
#    x 1.778980 0.000000 -0.014770 
#    y 0.000000 1.755890 0.000000 
#    z -0.014770 0.000000 1.756680 
# 
# From -- ./inp_files/117557.got.cif
#   From: 2010.06.25/outbox.cif.g09.slc.cpg/sg15_59_cif.got.tgz:117557.got - 2010.06.28 07:06:18.
