data_PCOD8141632
_publ_section_title
;
Structure prediction by ZEFSAII (Michael W. Deem and Ramdas Pophale) SiO2 
 PCOD8141632
Probable space group: C 2/C
;
_chemical_formula_sum "Si O2"
_cell_formula_units_Z 56
_cell_length_a 28.651677
_cell_length_b 11.893410
_cell_length_c 22.473075
_cell_angle_alpha 90.000000
_cell_angle_beta 19.289730
_cell_angle_gamma 90.000000
_cell_volume 2529.804492
_symmetry_space_group_name_H-M "C 2/C"
_symmetry_group_IT_number 15
_symmetry_cell_setting 'monoclinic'
loop_
_space_group_symop_operation_xyz
x,y,z
-x,y,1/2-z
-x,-y,-z
x,-y,1/2+z
1/2+x,1/2+y,z
1/2-x,1/2+y,1/2-z
1/2-x,1/2-y,-z
1/2+x,1/2-y,1/2+z
loop_
_atom_site_type_symbol
_atom_site_label
_atom_site_fract_x
_atom_site_fract_y
_atom_site_fract_z
Si Si1 0.576368 0.154055 0.880599
Si Si2 0.160163 0.491583 0.171404
Si Si3 0.416204 0.867610 0.910115
Si Si4 0.884204 0.879611 0.477397
Si Si5 0.207074 0.467987 0.790181
Si Si6 0.604453 0.414435 0.841394
Si Si7 0.168756 0.008580 0.646465
O O1 0.572933 0.285882 0.894983
O O2 0.635818 0.114250 0.744394
O O3 0.673167 0.098171 0.815785
O O4 0.418726 0.110852 0.080586
O O5 0.008045 0.547216 0.340476
O O6 0.263918 0.583797 0.075297
O O7 0.235729 0.449688 0.019515
O O8 0.500000 0.835730 0.750000
O O9 0.388935 0.754002 0.978939
O O10 0.264102 0.913579 0.073933
O O11 0.848087 0.930714 0.585296
O O12 0.039933 0.923655 0.271115
O O13 0.240282 0.449705 0.819978
O O14 0.603826 0.417547 0.770360
O O15 0.500000 0.500000 0.000000
#
# Coordination Sequence:
#
# PCOD8141632 Si02
#       7
#     8   8   8   8   8   8   8
#     4  10  25  45  68  92 132 176 216 270 326 399
#     4  10  22  42  63  92 130 176 218 264 336 392
#     4  10  21  37  60  92 132 171 212 265 328 395
#     4  11  21  36  65  95 131 168 215 278 326 385
#     4  10  24  44  65  95 131 175 216 263 338 392
#     4  12  26  42  66  97 129 166 224 273 324 390
#     4  11  23  39  62  96 128 165 224 272 323 392
#
# _framework density 22.136098
#
# number of rings (size 3 to 8) (size 9 to 14) (size 15 to 20)
#    0.000    1.429    1.429    3.000    4.000    6.286 
#    0.000    0.000    0.000    3.429    0.000    0.000 
#    0.000    0.000    0.000    0.000    0.000    0.000 
#
# Total GULP energy -347131.049503 kJ/mol
# GULP energy per Si atom -12397.537482 kJ/mol
# Density = 2.208571 g / cm^3
# Si number density = 22.136098 Si / 1000 Ang^3
#
#
#
# Elastic Constant Matrix: (Units=GPa)
#
#
# Indices 1 2 3 4 5 6 
#
# 1 89.9324 35.5422 18.3825 0.0001 -10.1443 -0.0003
# 2 35.5422 143.3375 35.4428 0.0002 0.1484 -0.0004
# 3 18.3825 35.4428 95.4477 0.0002 -11.8667 -0.0003
# 4 0.0001 0.0002 0.0002 19.9188 0.0001 1.6718
# 5 -10.1443 0.1484 -11.8667 0.0001 43.6886 0.0001
# 6 -0.0003 -0.0004 -0.0003 1.6718 0.0001 21.5206
#
#
#
# Elastic Compliance Matrix: (Units=1/GPa)
#
#
# Indices 1 2 3 4 5 6 
#
# 1 0.012789 -0.002916 -0.001045 0.000000 0.002696 0.000000
# 2 -0.002916 0.008376 -0.002728 0.000000 -0.001447 0.000000
# 3 -0.001045 -0.002728 0.012070 0.000000 0.003045 0.000000
# 4 0.000000 0.000000 0.000000 0.050533 0.000000 -0.003926
# 5 0.002696 -0.001447 0.003045 0.000000 0.024347 0.000000
# 6 0.000000 0.000000 0.000000 -0.003926 0.000000 0.046772
#
#
# Mechanical properties :
#
#
# Convention : Reuss Voigt Hill
#
# Bulk Modulus (GPa) = 50.36191 56.38362 53.37277
# Shear Modulus (GPa) = 28.59015 32.98227 30.78621
#
# Velocity S-wave (km/s) = 3.59773 3.86421 3.73335
# Velocity P-wave (km/s) = 6.32919 6.74063 6.53815
#
# Compressibility (1/GPa) = 0.01985628
#
# Stress axis : x y z
#
# Youngs Moduli (GPa) = 78.18929 119.39350 82.84993
#
# Poissons Ratio (x) = 0.34810 0.08661
# Poissons Ratio (y) = 0.22797 0.22605
# Poissons Ratio (z) = 0.08174 0.32576
#
# Static dielectric constant tensor:
#      x y z
#    x 4.336230 0.000000 0.002340 
#    y 0.000000 3.564200 0.000000 
#    z 0.002340 0.000000 4.130050 
# 
# 
# High freq. dielectric constant tensor:
#      x y z
#    x 1.887480 0.000000 -0.003170 
#    y 0.000000 1.839210 0.000000 
#    z -0.003170 0.000000 1.888280 
# 
# From -- ./inp_files/284611.got.cif
#   From: 2010.06.25/outbox.cif.g09.slc.cpg/sg15_143_cif.got.tgz:284611.got - 2010.06.28 07:06:18.
