data_PCOD8141415
_publ_section_title
;
Structure prediction by ZEFSAII (Michael W. Deem and Ramdas Pophale) SiO2 
 PCOD8141415
Probable space group: C 2/C
;
_chemical_formula_sum "Si O2"
_cell_formula_units_Z 36
_cell_length_a 20.639630
_cell_length_b 5.094684
_cell_length_c 17.064580
_cell_angle_alpha 90.000000
_cell_angle_beta 55.989764
_cell_angle_gamma 90.000000
_cell_volume 1487.430331
_symmetry_space_group_name_H-M "C 2/C"
_symmetry_group_IT_number 15
_symmetry_cell_setting 'monoclinic'
loop_
_space_group_symop_operation_xyz
x,y,z
-x,y,1/2-z
-x,-y,-z
x,-y,1/2+z
1/2+x,1/2+y,z
1/2-x,1/2+y,1/2-z
1/2-x,1/2-y,-z
1/2+x,1/2-y,1/2+z
loop_
_atom_site_type_symbol
_atom_site_label
_atom_site_fract_x
_atom_site_fract_y
_atom_site_fract_z
Si Si1 0.442902 0.950022 0.937367
Si Si2 0.463353 0.432461 0.624659
Si Si3 0.790784 0.044255 0.252128
Si Si4 0.765961 0.501478 0.542261
Si Si5 0.000000 0.681184 0.750000
O O1 0.498419 0.171512 0.941688
O O2 0.444873 0.996630 0.841201
O O3 0.475627 0.663097 0.935820
O O4 0.352810 0.984899 0.021587
O O5 0.376305 0.496037 0.654767
O O6 0.451476 0.372951 0.725382
O O7 0.765216 0.342843 0.254679
O O8 0.792020 0.994282 0.344446
O O9 0.750000 0.750000 0.500000
O O10 0.750000 0.250000 0.500000
#
# Coordination Sequence:
#
# PCOD8141415 Si02
#       5
#     8   8   8   8   4
#     4  10  21  36  62  97 123 166 222 282 319 385
#     4  10  21  38  64  92 124 179 221 266 324 409
#     4  12  27  47  67  98 145 187 216 272 356 415
#     4  12  26  43  70 105 137 172 233 290 330 388
#     4   8  20  32  68  90 132 156 232 268 336 370
#
# _framework density 24.202812999999999
#
# number of rings (size 3 to 8) (size 9 to 14) (size 15 to 20)
#    1.333    0.000    0.000    6.000    6.222    0.000 
#    0.000    6.667    0.000    0.000    0.000    0.000 
#    0.000    0.000    0.000    0.000    0.000    0.000 
#
# Total GULP energy -223105.913802 kJ/mol
# GULP energy per Si atom -12394.772989 kJ/mol
# Density = 2.414773 g / cm^3
# Si number density = 24.202813 Si / 1000 Ang^3
#
#
#
# Elastic Constant Matrix: (Units=GPa)
#
#
# Indices 1 2 3 4 5 6 
#
# 1 104.2860 40.9589 5.4256 0.0505 -47.7405 -0.0907
# 2 40.9589 176.8158 20.6635 0.1079 -13.4726 -0.2226
# 3 5.4256 20.6635 67.0090 0.0196 -6.7801 -0.0491
# 4 0.0505 0.1079 0.0196 23.9050 -0.0111 0.6663
# 5 -47.7405 -13.4726 -6.7801 -0.0111 43.9734 -0.0100
# 6 -0.0907 -0.2226 -0.0491 0.6663 -0.0100 51.6365
#
#
#
# Elastic Compliance Matrix: (Units=1/GPa)
#
#
# Indices 1 2 3 4 5 6 
#
# 1 0.020797 -0.003338 0.001551 -0.000021 0.021795 0.000028
# 2 -0.003338 0.006508 -0.001932 -0.000022 -0.001928 0.000020
# 3 0.001551 -0.001932 0.015750 -0.000006 0.003520 0.000010
# 4 -0.000021 -0.000022 -0.000006 0.041847 -0.000020 -0.000540
# 5 0.021795 -0.001928 0.003520 -0.000020 0.046355 0.000043
# 6 0.000028 0.000020 0.000010 -0.000540 0.000043 0.019373
#
#
# Mechanical properties :
#
#
# Convention : Reuss Voigt Hill
#
# Bulk Modulus (GPa) = 28.07704 53.57854 40.82779
# Shear Modulus (GPa) = 29.42228 42.64052 36.03140
#
# Velocity S-wave (km/s) = 3.49041 4.20193 3.86259
# Velocity P-wave (km/s) = 5.27919 6.76218 6.06617
#
# Compressibility (1/GPa) = 0.03561629
#
# Stress axis : x y z
#
# Youngs Moduli (GPa) = 48.08469 153.66376 63.49356
#
# Poissons Ratio (x) = 0.51293 -0.09846
# Poissons Ratio (y) = 0.16051 0.12264
# Poissons Ratio (z) = -0.07457 0.29681
#
# Static dielectric constant tensor:
#      x y z
#    x 4.129220 -0.000360 -0.048050 
#    y -0.000360 4.213950 -0.000500 
#    z -0.048050 -0.000500 4.348430 
# 
# 
# High freq. dielectric constant tensor:
#      x y z
#    x 1.950590 -0.000010 0.000730 
#    y -0.000010 1.967760 -0.000020 
#    z 0.000730 -0.000020 1.971390 
# 
# From -- ./inp_files/170424.got.cif
#   From: 2010.06.25/outbox.cif.g09.slc.cpg/sg15_86_cif.got.tgz:170424.got - 2010.06.28 07:06:18.
