data_PCOD8141000
_publ_section_title
;
Structure prediction by ZEFSAII (Michael W. Deem and Ramdas Pophale) SiO2 
 PCOD8141000
Probable space group: C 2/C
;
_chemical_formula_sum "Si O2"
_cell_formula_units_Z 56
_cell_length_a 11.619415
_cell_length_b 25.481138
_cell_length_c 10.305097
_cell_angle_alpha 90.000000
_cell_angle_beta 63.542319
_cell_angle_gamma 90.000000
_cell_volume 2731.531002
_symmetry_space_group_name_H-M "C 2/C"
_symmetry_group_IT_number 15
_symmetry_cell_setting 'monoclinic'
loop_
_space_group_symop_operation_xyz
x,y,z
-x,y,1/2-z
-x,-y,-z
x,-y,1/2+z
1/2+x,1/2+y,z
1/2-x,1/2+y,1/2-z
1/2-x,1/2-y,-z
1/2+x,1/2-y,1/2+z
loop_
_atom_site_type_symbol
_atom_site_label
_atom_site_fract_x
_atom_site_fract_y
_atom_site_fract_z
Si Si1 0.630651 0.142775 0.112239
Si Si2 0.000000 0.610723 0.750000
Si Si3 0.798783 0.944211 0.415910
Si Si4 0.248811 0.344618 0.816723
Si Si5 0.509047 0.195801 0.949230
Si Si6 0.949383 0.945733 0.080636
Si Si7 0.242482 0.436545 0.998543
Si Si8 0.500000 0.714923 0.250000
O O1 0.500000 0.124092 0.250000
O O2 0.736694 0.158957 0.166581
O O3 0.680978 0.095435 0.996304
O O4 0.598391 0.192317 0.033908
O O5 0.054565 0.648159 0.835423
O O6 0.115437 0.574167 0.645507
O O7 0.843251 0.952123 0.246396
O O8 0.919809 0.918667 0.434618
O O9 0.751335 0.001137 0.484041
O O10 0.377841 0.322355 0.813150
O O11 0.236310 0.406010 0.864582
O O12 0.138903 0.310312 0.938446
O O13 0.518761 0.250911 0.870936
O O14 0.872394 0.915233 0.006096
O O15 0.000000 0.000000 0.000000
#
# Coordination Sequence:
#
# PCOD8141000 Si02
#       8
#     8   4   8   8   8   8   8   4
#     4  10  22  40  60  90 135 162 201 259 312 370
#     4   9  18  36  58  88 114 162 200 254 301 362
#     4  10  21  35  58  86 119 176 207 240 311 363
#     4  10  23  37  60  94 120 157 202 258 310 372
#     4   9  20  42  59  85 123 157 195 262 320 362
#     4   9  20  36  53  76 118 167 206 258 294 340
#     4  10  21  34  57  85 127 155 210 251 295 364
#     4  11  22  38  72  86 110 160 216 254 321 378
#
# _framework density 20.501324
#
# number of rings (size 3 to 8) (size 9 to 14) (size 15 to 20)
#    0.000    2.286    0.000    1.286    7.000    1.714 
#    0.000    2.857    0.000    0.000    0.000    0.000 
#    0.000    0.000    0.000    0.000    0.000    0.000 
#
# Total GULP energy -346940.373894 kJ/mol
# GULP energy per Si atom -12390.727639 kJ/mol
# Density = 2.045466 g / cm^3
# Si number density = 20.501324 Si / 1000 Ang^3
#
#
#
# Elastic Constant Matrix: (Units=GPa)
#
#
# Indices 1 2 3 4 5 6 
#
# 1 117.3402 38.0306 39.4887 0.0000 13.2449 0.0000
# 2 38.0306 70.1324 36.5171 0.0000 -7.8536 0.0000
# 3 39.4887 36.5171 107.6706 0.0000 1.9336 0.0000
# 4 0.0000 0.0000 0.0000 23.4069 0.0000 -2.8186
# 5 13.2449 -7.8536 1.9336 0.0000 30.2750 0.0000
# 6 0.0000 0.0000 0.0000 -2.8186 0.0000 28.9926
#
#
#
# Elastic Compliance Matrix: (Units=1/GPa)
#
#
# Indices 1 2 3 4 5 6 
#
# 1 0.012001 -0.006106 -0.002210 0.000000 -0.006693 0.000000
# 2 -0.006106 0.021173 -0.005094 0.000000 0.008489 0.000000
# 3 -0.002210 -0.005094 0.011846 0.000000 -0.001111 0.000000
# 4 0.000000 0.000000 0.000000 0.043229 0.000000 0.004203
# 5 -0.006693 0.008489 -0.001111 0.000000 0.038232 0.000000
# 6 0.000000 0.000000 0.000000 0.004203 0.000000 0.034900
#
#
# Mechanical properties :
#
#
# Convention : Reuss Voigt Hill
#
# Bulk Modulus (GPa) = 54.94881 58.13512 56.54196
# Shear Modulus (GPa) = 25.73788 28.60868 27.17328
#
# Velocity S-wave (km/s) = 3.54704 3.73963 3.64461
# Velocity P-wave (km/s) = 6.60576 6.86038 6.73427
#
# Compressibility (1/GPa) = 0.01819876
#
# Stress axis : x y z
#
# Youngs Moduli (GPa) = 83.32969 47.23018 84.41858
#
# Poissons Ratio (x) = 0.28840 0.18657
# Poissons Ratio (y) = 0.50883 0.43002
# Poissons Ratio (z) = 0.18417 0.24059
#
# Static dielectric constant tensor:
#      x y z
#    x 4.150670 0.000000 0.125580 
#    y 0.000000 3.264020 0.000000 
#    z 0.125580 0.000000 3.634150 
# 
# 
# High freq. dielectric constant tensor:
#      x y z
#    x 1.815360 0.000000 0.003660 
#    y 0.000000 1.764710 0.000000 
#    z 0.003660 0.000000 1.812340 
# 
# From -- ./inp_files/90742.got.cif
#   From: 2010.06.25/outbox.cif.g09.slc.cpg/sg15_46_cif.got.tgz:90742.got - 2010.06.28 07:06:18.
