data_PCOD8141667
_publ_section_title
;
Structure prediction by ZEFSAII (Michael W. Deem and Ramdas Pophale) SiO2 
 PCOD8141667
Probable space group: C 2/C
;
_chemical_formula_sum "Si O2"
_cell_formula_units_Z 44
_cell_length_a 13.238642
_cell_length_b 18.262767
_cell_length_c 8.657571
_cell_angle_alpha 90.000000
_cell_angle_beta 68.006604
_cell_angle_gamma 90.000000
_cell_volume 1940.850840
_symmetry_space_group_name_H-M "C 2/C"
_symmetry_group_IT_number 15
_symmetry_cell_setting 'monoclinic'
loop_
_space_group_symop_operation_xyz
x,y,z
-x,y,1/2-z
-x,-y,-z
x,-y,1/2+z
1/2+x,1/2+y,z
1/2-x,1/2+y,1/2-z
1/2-x,1/2-y,-z
1/2+x,1/2-y,1/2+z
loop_
_atom_site_type_symbol
_atom_site_label
_atom_site_fract_x
_atom_site_fract_y
_atom_site_fract_z
Si Si1 0.000000 0.504454 0.250000
Si Si2 0.108651 0.954567 0.598616
Si Si3 0.959965 0.605952 0.524641
Si Si4 0.892615 0.900225 0.241654
Si Si5 0.296581 0.847563 0.582108
Si Si6 0.292667 0.792560 0.246387
O O1 0.070245 0.448559 0.315726
O O2 0.922946 0.558370 0.396383
O O3 0.086280 0.942307 0.430922
O O4 0.210702 0.910549 0.604314
O O5 0.000000 0.929629 0.750000
O O6 0.139077 0.039010 0.612732
O O7 0.898289 0.683727 0.583578
O O8 0.088823 0.619541 0.427106
O O9 0.803413 0.839237 0.271431
O O10 0.000000 0.860801 0.250000
O O11 0.321068 0.806185 0.408275
O O12 0.244876 0.792151 0.740719
#
# Coordination Sequence:
#
# PCOD8141667 Si02
#       6
#     4   8   8   8   8   8
#     4  10  24  38  70  94 132 158 210 274 326 384
#     4  10  21  37  61  89 119 161 212 258 313 377
#     4  11  22  43  64 100 125 167 210 271 323 381
#     4  10  21  38  60  89 121 162 211 261 315 376
#     4  10  22  39  64  92 124 168 212 257 318 390
#     4  10  22  39  64  90 127 168 209 260 317 382
#
# _framework density 22.670469000000001
#
# number of rings (size 3 to 8) (size 9 to 14) (size 15 to 20)
#    0.000    1.818    1.818    2.182    5.091    4.364 
#    4.909    0.909    0.000    0.000    0.000    0.000 
#    0.000    0.000    0.000    0.000    0.000    0.000 
#
# Total GULP energy -272597.616947 kJ/mol
# GULP energy per Si atom -12390.800770 kJ/mol
# Density = 2.261887 g / cm^3
# Si number density = 22.670469 Si / 1000 Ang^3
#
#
#
# Elastic Constant Matrix: (Units=GPa)
#
#
# Indices 1 2 3 4 5 6 
#
# 1 102.3033 36.5023 34.5092 0.0000 2.5386 0.0000
# 2 36.5023 74.3314 27.3126 0.0000 -1.3500 0.0000
# 3 34.5092 27.3126 68.8753 0.0000 8.6372 0.0000
# 4 0.0000 0.0000 0.0000 33.7023 0.0000 -9.1183
# 5 2.5386 -1.3500 8.6372 0.0000 29.7555 0.0000
# 6 0.0000 0.0000 0.0000 -9.1183 0.0000 17.6210
#
#
#
# Elastic Compliance Matrix: (Units=1/GPa)
#
#
# Indices 1 2 3 4 5 6 
#
# 1 0.013019 -0.004675 -0.004673 0.000000 0.000034 0.000000
# 2 -0.004675 0.017627 -0.004979 0.000000 0.002644 0.000000
# 3 -0.004673 -0.004979 0.019524 0.000000 -0.005494 0.000000
# 4 0.000000 0.000000 0.000000 0.034502 0.000000 0.017854
# 5 0.000034 0.002644 -0.005494 0.000000 0.035319 0.000000
# 6 0.000000 0.000000 0.000000 0.017854 0.000000 0.065989
#
#
# Mechanical properties :
#
#
# Convention : Reuss Voigt Hill
#
# Bulk Modulus (GPa) = 46.48036 49.12868 47.80452
# Shear Modulus (GPa) = 22.54229 26.02816 24.28522
#
# Velocity S-wave (km/s) = 3.15675 3.39205 3.27651
# Velocity P-wave (km/s) = 5.81669 6.08763 5.95370
#
# Compressibility (1/GPa) = 0.02151446
#
# Stress axis : x y z
#
# Youngs Moduli (GPa) = 76.81365 56.73212 51.21973
#
# Poissons Ratio (x) = 0.26525 0.23935
# Poissons Ratio (y) = 0.35914 0.25502
# Poissons Ratio (z) = 0.35895 0.28246
#
# Static dielectric constant tensor:
#      x y z
#    x 3.971380 0.000000 0.112160 
#    y 0.000000 4.144390 0.000000 
#    z 0.112160 0.000000 4.150410 
# 
# 
# High freq. dielectric constant tensor:
#      x y z
#    x 1.892670 0.000000 0.009000 
#    y 0.000000 1.888020 0.000000 
#    z 0.009000 0.000000 1.884580 
# 
# From -- ./inp_files/30763.got.cif
#   From: 2010.06.25/outbox.cif.g09.slc.cpg/sg15_16_cif.got.tgz:30763.got - 2010.06.28 07:06:18.
