data_PCOD8141999
_publ_section_title
;
Structure prediction by ZEFSAII (Michael W. Deem and Ramdas Pophale) SiO2 
 PCOD8141999
Probable space group: C 2/C
;
_chemical_formula_sum "Si O2"
_cell_formula_units_Z 64
_cell_length_a 16.706559
_cell_length_b 22.620991
_cell_length_c 8.552885
_cell_angle_alpha 90.000000
_cell_angle_beta 78.853983
_cell_angle_gamma 90.000000
_cell_volume 3171.328589
_symmetry_space_group_name_H-M "C 2/C"
_symmetry_group_IT_number 15
_symmetry_cell_setting 'monoclinic'
loop_
_space_group_symop_operation_xyz
x,y,z
-x,y,1/2-z
-x,-y,-z
x,-y,1/2+z
1/2+x,1/2+y,z
1/2-x,1/2+y,1/2-z
1/2-x,1/2-y,-z
1/2+x,1/2-y,1/2+z
loop_
_atom_site_type_symbol
_atom_site_label
_atom_site_fract_x
_atom_site_fract_y
_atom_site_fract_z
Si Si1 0.470200 0.236673 0.094748
Si Si2 0.312216 0.500292 0.863262
Si Si3 0.084652 0.654761 0.642746
Si Si4 0.261908 0.079627 0.858584
Si Si5 0.072875 0.955142 0.933064
Si Si6 0.402258 0.674223 0.070250
Si Si7 0.199792 0.245668 0.183155
Si Si8 0.169823 0.814702 0.234759
O O1 0.500000 0.212482 0.250000
O O2 0.407286 0.289850 0.142943
O O3 0.432450 0.178556 0.026629
O O4 0.541058 0.267760 0.966121
O O5 0.244160 0.531705 0.779446
O O6 0.390481 0.475902 0.743428
O O7 0.268971 0.446575 0.967090
O O8 0.353065 0.545198 0.970391
O O9 0.145760 0.599332 0.636854
O O10 0.124143 0.709806 0.716164
O O11 0.000000 0.634459 0.750000
O O12 0.203571 0.132976 0.830879
O O13 0.045547 0.886302 0.926494
O O14 0.000000 0.000000 0.000000
O O15 0.340699 0.683740 0.243201
O O16 0.350437 0.665483 0.931649
O O17 0.261687 0.263600 0.297871
O O18 0.250000 0.250000 0.000000
#
# Coordination Sequence:
#
# PCOD8141999 Si02
#       8
#     8   8   8   8   8   8   8   8
#     4  10  22  37  58  89 134 166 209 253 321 406
#     4  10  23  43  60  91 123 166 231 268 326 378
#     4  11  22  43  62  93 128 164 210 274 340 387
#     4  10  23  42  69  88 125 167 215 284 321 387
#     4  11  24  39  60  91 131 176 220 265 316 389
#     4  11  23  38  60  92 132 176 210 258 325 384
#     4  11  22  37  62  92 128 164 220 259 315 397
#     4  10  21  38  60  90 127 171 207 262 320 390
#
# _framework density 20.180816
#
# number of rings (size 3 to 8) (size 9 to 14) (size 15 to 20)
#    0.000    1.500    3.750    0.750    7.000    1.000 
#    2.250    3.125    0.000    0.000    0.000    0.000 
#    0.000    0.000    0.000    0.000    0.000    0.000 
#
# Total GULP energy -396457.700950 kJ/mol
# GULP energy per Si atom -12389.303155 kJ/mol
# Density = 2.013488 g / cm^3
# Si number density = 20.180816 Si / 1000 Ang^3
#
#
#
# Elastic Constant Matrix: (Units=GPa)
#
#
# Indices 1 2 3 4 5 6 
#
# 1 112.9900 44.4604 48.6108 0.0000 -5.2033 0.0000
# 2 44.4604 86.3291 46.2022 0.0000 -9.0517 0.0000
# 3 48.6108 46.2022 104.6413 0.0000 -17.4196 0.0000
# 4 0.0000 0.0000 0.0000 23.4013 0.0000 2.9077
# 5 -5.2033 -9.0517 -17.4196 0.0000 30.2963 0.0000
# 6 0.0000 0.0000 0.0000 2.9077 0.0000 32.7234
#
#
#
# Elastic Compliance Matrix: (Units=1/GPa)
#
#
# Indices 1 2 3 4 5 6 
#
# 1 0.012199 -0.004286 -0.004024 0.000000 -0.001499 0.000000
# 2 -0.004286 0.016689 -0.005164 0.000000 0.001281 0.000000
# 3 -0.004024 -0.005164 0.014746 0.000000 0.006244 0.000000
# 4 0.000000 0.000000 0.000000 0.043210 0.000000 -0.003840
# 5 -0.001499 0.001281 0.006244 0.000000 0.036723 0.000000
# 6 0.000000 0.000000 0.000000 -0.003840 0.000000 0.030900
#
#
# Mechanical properties :
#
#
# Convention : Reuss Voigt Hill
#
# Bulk Modulus (GPa) = 59.93638 64.72303 62.32970
# Shear Modulus (GPa) = 26.74114 28.26335 27.50225
#
# Velocity S-wave (km/s) = 3.64411 3.74639 3.69561
# Velocity P-wave (km/s) = 6.88986 7.13128 7.01161
#
# Compressibility (1/GPa) = 0.01668436
#
# Stress axis : x y z
#
# Youngs Moduli (GPa) = 81.97279 59.91886 67.81694
#
# Poissons Ratio (x) = 0.25682 0.27291
# Poissons Ratio (y) = 0.35135 0.35024
# Poissons Ratio (z) = 0.32987 0.30945
#
# Static dielectric constant tensor:
#      x y z
#    x 3.874230 0.000000 0.235440 
#    y 0.000000 3.584220 0.000000 
#    z 0.235440 0.000000 3.859040 
# 
# 
# High freq. dielectric constant tensor:
#      x y z
#    x 1.788400 0.000000 0.009450 
#    y 0.000000 1.768670 0.000000 
#    z 0.009450 0.000000 1.794550 
# 
# From -- ./inp_files/51223.got.cif
#   From: 2010.06.25/outbox.cif.g09.slc.cpg/sg15_26_cif.got.tgz:51223.got - 2010.06.28 07:06:18.
