data_PCOD8141669
_publ_section_title
;
Structure prediction by ZEFSAII (Michael W. Deem and Ramdas Pophale) SiO2 
 PCOD8141669
Probable space group: C 2/C
;
_chemical_formula_sum "Si O2"
_cell_formula_units_Z 56
_cell_length_a 26.747467
_cell_length_b 10.114932
_cell_length_c 18.964017
_cell_angle_alpha 90.000000
_cell_angle_beta 147.737705
_cell_angle_gamma 90.000000
_cell_volume 2738.742922
_symmetry_space_group_name_H-M "C 2/C"
_symmetry_group_IT_number 15
_symmetry_cell_setting 'monoclinic'
loop_
_space_group_symop_operation_xyz
x,y,z
-x,y,1/2-z
-x,-y,-z
x,-y,1/2+z
1/2+x,1/2+y,z
1/2-x,1/2+y,1/2-z
1/2-x,1/2-y,-z
1/2+x,1/2-y,1/2+z
loop_
_atom_site_type_symbol
_atom_site_label
_atom_site_fract_x
_atom_site_fract_y
_atom_site_fract_z
Si Si1 0.000000 0.872649 0.250000
Si Si2 0.722285 0.222434 0.353401
Si Si3 0.460227 0.884916 0.049031
Si Si4 0.595962 0.838807 0.082132
Si Si5 0.641448 0.147932 0.388746
Si Si6 0.817663 0.825571 0.337408
Si Si7 0.395320 0.582988 0.493552
Si Si8 0.500000 0.065681 0.750000
O O1 0.087099 0.783441 0.333923
O O2 0.032055 0.957030 0.356860
O O3 0.655381 0.128257 0.320985
O O4 0.762266 0.335011 0.453567
O O5 0.667394 0.301496 0.227969
O O6 0.796146 0.125607 0.406298
O O7 0.541291 0.841365 0.091095
O O8 0.499314 0.856417 0.175043
O O9 0.365194 0.799870 0.931717
O O10 0.432810 0.037786 0.001882
O O11 0.708448 0.838288 0.229386
O O12 0.564432 0.705780 0.003763
O O13 0.592547 0.022629 0.363788
O O14 0.877838 0.955617 0.425188
#
# Coordination Sequence:
#
# PCOD8141669 Si02
#       8
#     4   8   8   8   8   8   8   4
#     4   9  18  33  54  86 122 158 198 256 296 364
#     4   9  19  35  59  90 116 157 205 258 311 354
#     4  11  25  40  65  91 125 168 210 253 316 371
#     4  10  22  42  66  92 117 164 218 259 305 364
#     4   9  18  34  60  87 116 152 212 262 296 350
#     4  11  23  39  63  92 132 157 203 259 314 379
#     4  10  21  37  61  89 125 160 202 257 311 362
#     4  11  22  37  62  88 124 160 214 252 302 384
#
# _framework density 20.447337000000001
#
# number of rings (size 3 to 8) (size 9 to 14) (size 15 to 20)
#    0.000    2.000    0.000    5.143    8.000    1.143 
#    0.000    0.714    6.286    0.000    0.000    0.000 
#    0.000    0.000    0.000    0.000    0.000    0.000 
#
# Total GULP energy -347017.221182 kJ/mol
# GULP energy per Si atom -12393.472185 kJ/mol
# Density = 2.040080 g / cm^3
# Si number density = 20.447337 Si / 1000 Ang^3
#
#
#
# Elastic Constant Matrix: (Units=GPa)
#
#
# Indices 1 2 3 4 5 6 
#
# 1 116.8638 27.4866 32.1497 0.0000 -23.5195 0.0000
# 2 27.4866 83.2366 41.2380 0.0000 -17.3244 0.0000
# 3 32.1497 41.2380 105.4856 0.0000 -33.8314 0.0000
# 4 0.0000 0.0000 0.0000 34.6381 0.0000 4.2360
# 5 -23.5195 -17.3244 -33.8314 0.0000 40.4514 0.0000
# 6 0.0000 0.0000 0.0000 4.2360 0.0000 11.7368
#
#
#
# Elastic Compliance Matrix: (Units=1/GPa)
#
#
# Indices 1 2 3 4 5 6 
#
# 1 0.010142 -0.001995 -0.000948 0.000000 0.004249 0.000000
# 2 -0.001995 0.015419 -0.005021 0.000000 0.001245 0.000000
# 3 -0.000948 -0.005021 0.014848 0.000000 0.009716 0.000000
# 4 0.000000 0.000000 0.000000 0.030203 0.000000 -0.010901
# 5 0.004249 0.001245 0.009716 0.000000 0.035851 0.000000
# 6 0.000000 0.000000 0.000000 -0.010901 0.000000 0.089137
#
#
# Mechanical properties :
#
#
# Convention : Reuss Voigt Hill
#
# Bulk Modulus (GPa) = 40.84698 56.37052 48.60875
# Shear Modulus (GPa) = 22.75946 31.01269 26.88607
#
# Velocity S-wave (km/s) = 3.33990 3.89872 3.63008
# Velocity P-wave (km/s) = 5.90705 6.92064 6.43384
#
# Compressibility (1/GPa) = 0.02448161
#
# Stress axis : x y z
#
# Youngs Moduli (GPa) = 98.59698 64.85423 67.34892
#
# Poissons Ratio (x) = 0.12938 0.06387
# Poissons Ratio (y) = 0.19669 0.33814
# Poissons Ratio (z) = 0.09351 0.32561
#
# Static dielectric constant tensor:
#      x y z
#    x 3.812730 0.000000 -0.093700 
#    y 0.000000 3.427750 0.000000 
#    z -0.093700 0.000000 3.865980 
# 
# 
# High freq. dielectric constant tensor:
#      x y z
#    x 1.809320 0.000000 -0.006420 
#    y 0.000000 1.763460 0.000000 
#    z -0.006420 0.000000 1.808490 
# 
# From -- ./inp_files/259048.got.cif
#   From: 2010.06.25/outbox.cif.g09.slc.cpg/sg15_130_cif.got.tgz:259048.got - 2010.06.28 07:06:18.
