data_PCOD8141139
_publ_section_title
;
Structure prediction by ZEFSAII (Michael W. Deem and Ramdas Pophale) SiO2 
 PCOD8141139
Probable space group: C 2/C
;
_chemical_formula_sum "Si O2"
_cell_formula_units_Z 56
_cell_length_a 22.718660
_cell_length_b 5.483938
_cell_length_c 26.272455
_cell_angle_alpha 90.000000
_cell_angle_beta 117.854009
_cell_angle_gamma 90.000000
_cell_volume 2893.992564
_symmetry_space_group_name_H-M "C 2/C"
_symmetry_group_IT_number 15
_symmetry_cell_setting 'monoclinic'
loop_
_space_group_symop_operation_xyz
x,y,z
-x,y,1/2-z
-x,-y,-z
x,-y,1/2+z
1/2+x,1/2+y,z
1/2-x,1/2+y,1/2-z
1/2-x,1/2-y,-z
1/2+x,1/2-y,1/2+z
loop_
_atom_site_type_symbol
_atom_site_label
_atom_site_fract_x
_atom_site_fract_y
_atom_site_fract_z
Si Si1 0.496368 0.174573 0.809716
Si Si2 0.734601 0.085733 0.177845
Si Si3 0.748801 0.682666 0.581401
Si Si4 0.150483 0.384237 0.228338
Si Si5 0.176016 0.297904 0.832481
Si Si6 0.807899 0.940154 0.032302
Si Si7 0.569788 0.333047 0.360823
O O1 0.500000 0.178178 0.750000
O O2 0.423512 0.219945 0.804718
O O3 0.531044 0.412636 0.847344
O O4 0.526024 0.915696 0.842003
O O5 0.716851 0.270947 0.124622
O O6 0.792961 0.180188 0.239069
O O7 0.669045 0.030640 0.184303
O O8 0.759564 0.843824 0.160517
O O9 0.802233 0.466218 0.610899
O O10 0.691409 0.613794 0.517523
O O11 0.790090 0.912548 0.576851
O O12 0.145265 0.558433 0.273849
O O13 0.114144 0.140458 0.827530
O O14 0.880880 0.823247 0.069787
O O15 0.750000 0.750000 0.000000
#
# Coordination Sequence:
#
# PCOD8141139 Si02
#       7
#     8   8   8   8   8   8   8
#     4  12  26  40  60  90 132 176 203 253 317 396
#     4  11  21  38  62  88 126 160 215 270 311 377
#     4  10  21  35  59  95 123 155 204 271 331 367
#     4  11  24  37  61  90 128 171 216 253 321 380
#     4  11  20  38  57  95 122 164 203 261 322 377
#     4  11  21  36  63  92 124 158 208 274 326 364
#     4  12  24  40  62  91 132 163 210 259 317 392
#
# _framework density 19.350428000000001
#
# number of rings (size 3 to 8) (size 9 to 14) (size 15 to 20)
#    0.000    0.857    5.714    2.143    4.000    0.000 
#    0.000    0.000    0.000    1.714    0.000    0.000 
#    0.000    0.000    0.000    0.000    0.000    0.000 
#
# Total GULP energy -347011.276933 kJ/mol
# GULP energy per Si atom -12393.259890 kJ/mol
# Density = 1.930639 g / cm^3
# Si number density = 19.350428 Si / 1000 Ang^3
#
#
#
# Elastic Constant Matrix: (Units=GPa)
#
#
# Indices 1 2 3 4 5 6 
#
# 1 124.6694 37.5611 47.0486 0.0005 4.8288 0.0001
# 2 37.5611 102.4092 34.9262 0.0028 13.6355 0.0052
# 3 47.0486 34.9262 99.3413 0.0002 2.4629 0.0012
# 4 0.0005 0.0028 0.0002 29.4660 -0.0004 11.3190
# 5 4.8288 13.6355 2.4629 -0.0004 16.3016 0.0015
# 6 0.0001 0.0052 0.0012 11.3190 0.0015 25.9269
#
#
#
# Elastic Compliance Matrix: (Units=1/GPa)
#
#
# Indices 1 2 3 4 5 6 
#
# 1 0.010261 -0.002324 -0.004031 0.000000 -0.000487 0.000001
# 2 -0.002324 0.013012 -0.003233 -0.000001 -0.009707 -0.000002
# 3 -0.004031 -0.003233 0.013064 0.000000 0.001925 0.000000
# 4 0.000000 -0.000001 0.000000 0.040776 0.000003 -0.017801
# 5 -0.000487 -0.009707 0.001925 0.000003 0.069316 -0.000003
# 6 0.000001 -0.000002 0.000000 -0.017801 -0.000003 0.046342
#
#
# Mechanical properties :
#
#
# Convention : Reuss Voigt Hill
#
# Bulk Modulus (GPa) = 58.26979 62.83240 60.55109
# Shear Modulus (GPa) = 22.97064 28.13118 25.55091
#
# Velocity S-wave (km/s) = 3.44915 3.81698 3.63772
# Velocity P-wave (km/s) = 6.78531 7.20882 7.00027
#
# Compressibility (1/GPa) = 0.01716155
#
# Stress axis : x y z
#
# Youngs Moduli (GPa) = 97.45231 76.84942 76.54416
#
# Poissons Ratio (x) = 0.17861 0.30852
# Poissons Ratio (y) = 0.22650 0.24750
# Poissons Ratio (z) = 0.39280 0.24849
#
# Static dielectric constant tensor:
#      x y z
#    x 3.343410 -0.000010 0.039510 
#    y -0.000010 3.785770 0.000010 
#    z 0.039510 0.000010 3.778250 
# 
# 
# High freq. dielectric constant tensor:
#      x y z
#    x 1.720650 0.000000 0.001270 
#    y 0.000000 1.772000 0.000000 
#    z 0.001270 0.000000 1.750010 
# 
# From -- ./inp_files/278689.got.cif
#   From: 2010.06.25/outbox.cif.g09.slc.cpg/sg15_140_cif.got.tgz:278689.got - 2010.06.28 07:06:18.
