data_PCOD8141001
_publ_section_title
;
Structure prediction by ZEFSAII (Michael W. Deem and Ramdas Pophale) SiO2 
 PCOD8141001
Probable space group: C 2/C
;
_chemical_formula_sum "Si O2"
_cell_formula_units_Z 40
_cell_length_a 14.082087
_cell_length_b 22.734501
_cell_length_c 8.999587
_cell_angle_alpha 90.000000
_cell_angle_beta 38.038275
_cell_angle_gamma 90.000000
_cell_volume 1775.366776
_symmetry_space_group_name_H-M "C 2/C"
_symmetry_group_IT_number 15
_symmetry_cell_setting 'monoclinic'
loop_
_space_group_symop_operation_xyz
x,y,z
-x,y,1/2-z
-x,-y,-z
x,-y,1/2+z
1/2+x,1/2+y,z
1/2-x,1/2+y,1/2-z
1/2-x,1/2-y,-z
1/2+x,1/2-y,1/2+z
loop_
_atom_site_type_symbol
_atom_site_label
_atom_site_fract_x
_atom_site_fract_y
_atom_site_fract_z
Si Si1 0.764776 0.326887 0.407151
Si Si2 0.165566 0.438320 0.355481
Si Si3 0.447901 0.251393 0.016994
Si Si4 0.810115 0.169122 0.163636
Si Si5 0.189622 0.557312 0.172793
O O1 0.748843 0.382488 0.318616
O O2 0.627572 0.282070 0.535224
O O3 0.745160 0.345453 0.601068
O O4 0.927057 0.295659 0.186859
O O5 0.234539 0.494501 0.184999
O O6 0.204602 0.446110 0.478654
O O7 0.982905 0.428738 0.557964
O O8 0.310248 0.214658 0.266479
O O9 0.520401 0.300167 0.040590
O O10 0.809637 0.107433 0.077922
#
# Coordination Sequence:
#
# PCOD8141001 Si02
#       5
#     8   8   8   8   8
#     4  11  19  35  58  85 114 149 187 227 271 326
#     4  10  21  37  57  83 111 144 186 233 281 330
#     4  10  21  34  57  86 117 150 187 224 271 330
#     4  11  19  35  58  85 114 149 187 227 271 326
#     4  10  21  37  57  83 111 144 186 233 281 330
#
# _framework density 22.530555
#
# number of rings (size 3 to 8) (size 9 to 14) (size 15 to 20)
#    0.000    1.600    2.000    6.000    0.000    1.600 
#    0.000    8.000    0.000    0.000    0.000    0.000 
#    0.000    0.000    0.000    0.000    0.000    0.000 
#
# Total GULP energy -247989.832057 kJ/mol
# GULP energy per Si atom -12399.491603 kJ/mol
# Density = 2.247927 g / cm^3
# Si number density = 22.530555 Si / 1000 Ang^3
#
#
#
# Elastic Constant Matrix: (Units=GPa)
#
#
# Indices 1 2 3 4 5 6 
#
# 1 106.7670 58.9064 19.1566 0.0001 -5.7670 0.0000
# 2 58.9064 148.2820 29.9301 0.0001 15.6769 0.0000
# 3 19.1566 29.9301 24.5842 0.0001 0.7283 -0.0001
# 4 0.0001 0.0001 0.0001 7.7982 -0.0001 10.2749
# 5 -5.7670 15.6769 0.7283 -0.0001 32.4267 0.0000
# 6 0.0000 0.0000 -0.0001 10.2749 0.0000 49.8855
#
#
#
# Elastic Compliance Matrix: (Units=1/GPa)
#
#
# Indices 1 2 3 4 5 6 
#
# 1 0.013069 -0.004785 -0.004499 0.000000 0.004739 0.000000
# 2 -0.004785 0.011267 -0.009809 0.000000 -0.006078 0.000000
# 3 -0.004499 -0.009809 0.056045 -0.000001 0.002683 0.000000
# 4 0.000000 0.000000 -0.000001 0.175998 0.000000 -0.036250
# 5 0.004739 -0.006078 0.002683 0.000000 0.034560 0.000000
# 6 0.000000 0.000000 0.000000 -0.036250 0.000000 0.027512
#
#
# Mechanical properties :
#
#
# Convention : Reuss Voigt Hill
#
# Bulk Modulus (GPa) = 23.69903 55.06881 39.38392
# Shear Modulus (GPa) = 13.48793 29.46476 21.47635
#
# Velocity S-wave (km/s) = 2.44939 3.62023 3.09076
# Velocity P-wave (km/s) = 4.30590 6.47840 5.50048
#
# Compressibility (1/GPa) = 0.04219582
#
# Stress axis : x y z
#
# Youngs Moduli (GPa) = 76.51537 88.75394 17.84295
#
# Poissons Ratio (x) = 0.42467 0.08028
# Poissons Ratio (y) = 0.36611 0.17502
# Poissons Ratio (z) = 0.34425 0.87056
#
# Static dielectric constant tensor:
#      x y z
#    x 4.175010 0.000000 -0.183070 
#    y 0.000000 4.185100 0.000000 
#    z -0.183070 0.000000 3.631840 
# 
# 
# High freq. dielectric constant tensor:
#      x y z
#    x 1.890010 0.000000 -0.001250 
#    y 0.000000 1.897340 0.000000 
#    z -0.001250 0.000000 1.856950 
# 
# From -- ./inp_files/41914.got.cif
#   From: 2010.06.25/outbox.cif.g09.slc.cpg/sg15_21_cif.got.tgz:41914.got - 2010.06.28 07:06:18.
