data_PCOD8141026
_publ_section_title
;
Structure prediction by ZEFSAII (Michael W. Deem and Ramdas Pophale) SiO2 
 PCOD8141026
Probable space group: C 2/C
;
_chemical_formula_sum "Si O2"
_cell_formula_units_Z 40
_cell_length_a 23.321219
_cell_length_b 6.151986
_cell_length_c 18.233920
_cell_angle_alpha 90.000000
_cell_angle_beta 52.786218
_cell_angle_gamma 90.000000
_cell_volume 2083.384409
_symmetry_space_group_name_H-M "C 2/C"
_symmetry_group_IT_number 15
_symmetry_cell_setting 'monoclinic'
loop_
_space_group_symop_operation_xyz
x,y,z
-x,y,1/2-z
-x,-y,-z
x,-y,1/2+z
1/2+x,1/2+y,z
1/2-x,1/2+y,1/2-z
1/2-x,1/2-y,-z
1/2+x,1/2-y,1/2+z
loop_
_atom_site_type_symbol
_atom_site_label
_atom_site_fract_x
_atom_site_fract_y
_atom_site_fract_z
Si Si1 0.337984 0.311765 0.238558
Si Si2 0.816261 0.843467 0.650715
Si Si3 0.676015 0.295460 0.468239
Si Si4 0.289067 0.558379 0.926031
Si Si5 0.583667 0.956062 0.936137
O O1 0.257820 0.269890 0.268727
O O2 0.356105 0.545520 0.189185
O O3 0.340755 0.329865 0.324852
O O4 0.392070 0.131035 0.163467
O O5 0.874101 0.673714 0.575281
O O6 0.792156 0.012572 0.606287
O O7 0.663132 0.402368 0.558411
O O8 0.602041 0.216473 0.486829
O O9 0.730723 0.092530 0.430058
O O10 0.250000 0.750000 0.000000
O O11 0.500000 0.000000 0.000000
#
# Coordination Sequence:
#
# PCOD8141026 Si02
#       5
#     8   8   8   8   8
#     4  11  20  33  62  92 115 158 205 260 302 376
#     4  11  19  37  60  90 117 148 213 256 307 368
#     4  10  21  34  60  90 121 159 202 257 324 363
#     4  11  20  35  60  95 124 153 206 264 314 370
#     4  11  24  39  60  89 128 165 205 263 319 376
#
# _framework density 19.199528000000001
#
# number of rings (size 3 to 8) (size 9 to 14) (size 15 to 20)
#    0.000    1.200    6.000    1.200    0.000    3.200 
#    0.000    0.000    0.000   18.000    0.000    0.000 
#    0.000    0.000    0.000    0.000    0.000    0.000 
#
# Total GULP energy -247870.895635 kJ/mol
# GULP energy per Si atom -12393.544782 kJ/mol
# Density = 1.915583 g / cm^3
# Si number density = 19.199528 Si / 1000 Ang^3
#
#
#
# Elastic Constant Matrix: (Units=GPa)
#
#
# Indices 1 2 3 4 5 6 
#
# 1 90.2272 37.6133 62.0282 -0.0751 -3.2927 0.1233
# 2 37.6133 101.4338 50.7811 -0.1240 3.2289 0.2142
# 3 62.0282 50.7811 120.7188 0.0660 13.3843 -0.0668
# 4 -0.0751 -0.1240 0.0660 36.8851 -0.0152 10.0849
# 5 -3.2927 3.2289 13.3843 -0.0152 39.7810 -0.0296
# 6 0.1233 0.2142 -0.0668 10.0849 -0.0296 30.5850
#
#
#
# Elastic Compliance Matrix: (Units=1/GPa)
#
#
# Indices 1 2 3 4 5 6 
#
# 1 0.018460 -0.002513 -0.008954 0.000073 0.004744 -0.000096
# 2 -0.002513 0.012855 -0.004132 0.000077 0.000139 -0.000114
# 3 -0.008954 -0.004132 0.015236 -0.000096 -0.005532 0.000125
# 4 0.000073 0.000077 -0.000096 0.029799 0.000036 -0.009827
# 5 0.004744 0.000139 -0.005532 0.000036 0.027380 -0.000018
# 6 -0.000096 -0.000114 0.000125 -0.009827 -0.000018 0.035937
#
#
# Mechanical properties :
#
#
# Convention : Reuss Voigt Hill
#
# Bulk Modulus (GPa) = 65.13413 68.13612 66.63512
# Shear Modulus (GPa) = 28.41200 32.24737 30.32968
#
# Velocity S-wave (km/s) = 3.85103 4.10273 3.97887
# Velocity P-wave (km/s) = 7.33297 7.61634 7.47600
#
# Compressibility (1/GPa) = 0.01535293
#
# Stress axis : x y z
#
# Youngs Moduli (GPa) = 54.17199 77.79103 65.63446
#
# Poissons Ratio (x) = 0.19551 0.58769
# Poissons Ratio (y) = 0.13615 0.27118
# Poissons Ratio (z) = 0.48505 0.32140
#
# Static dielectric constant tensor:
#      x y z
#    x 3.183210 -0.000140 0.351390 
#    y -0.000140 3.898160 0.000020 
#    z 0.351390 0.000020 3.443260 
# 
# 
# High freq. dielectric constant tensor:
#      x y z
#    x 1.703200 -0.000010 0.033860 
#    y -0.000010 1.776280 0.000000 
#    z 0.033860 0.000000 1.732180 
# 
# From -- ./inp_files/217427.got.cif
#   From: 2010.06.25/outbox.cif.g09.slc.cpg/sg15_109_cif.got.tgz:217427.got - 2010.06.28 07:06:18.
