data_PCOD8141102
_publ_section_title
;
Structure prediction by ZEFSAII (Michael W. Deem and Ramdas Pophale) SiO2 
 PCOD8141102
Probable space group: C 2/C
;
_chemical_formula_sum "Si O2"
_cell_formula_units_Z 64
_cell_length_a 9.224684
_cell_length_b 29.489591
_cell_length_c 23.944488
_cell_angle_alpha 90.000000
_cell_angle_beta 31.367020
_cell_angle_gamma 90.000000
_cell_volume 3390.484392
_symmetry_space_group_name_H-M "C 2/C"
_symmetry_group_IT_number 15
_symmetry_cell_setting 'monoclinic'
loop_
_space_group_symop_operation_xyz
x,y,z
-x,y,1/2-z
-x,-y,-z
x,-y,1/2+z
1/2+x,1/2+y,z
1/2-x,1/2+y,1/2-z
1/2-x,1/2-y,-z
1/2+x,1/2-y,1/2+z
loop_
_atom_site_type_symbol
_atom_site_label
_atom_site_fract_x
_atom_site_fract_y
_atom_site_fract_z
Si Si1 0.517648 0.565715 0.533537
Si Si2 0.792533 0.248032 0.128930
Si Si3 0.170217 0.026206 0.364662
Si Si4 0.925540 0.383188 0.620804
Si Si5 0.950092 0.899997 0.858427
Si Si6 0.240191 0.683644 0.497286
Si Si7 0.271231 0.202917 0.463571
Si Si8 0.221200 0.654926 0.629889
O O1 0.581371 0.546745 0.452212
O O2 0.419253 0.526417 0.608340
O O3 0.263124 0.600933 0.610700
O O4 0.791877 0.589005 0.467491
O O5 0.500000 0.264292 0.250000
O O6 0.702027 0.213922 0.110099
O O7 0.968219 0.293926 0.056457
O O8 0.999864 0.217801 0.098997
O O9 0.500000 0.031727 0.250000
O O10 0.998173 0.051976 0.372920
O O11 0.748878 0.385643 0.735876
O O12 0.765764 0.404934 0.621226
O O13 0.978637 0.329002 0.596279
O O14 0.824224 0.864092 0.943318
O O15 0.159292 0.676887 0.589454
O O16 0.250000 0.250000 0.500000
O O17 0.994892 0.175512 0.566800
O O18 0.000000 0.667167 0.750000
#
# Coordination Sequence:
#
# PCOD8141102 Si02
#       8
#     8   8   8   8   8   8   8   8
#     4  10  21  39  60  89 114 152 204 239 296 365
#     4  10  21  35  57  81 111 157 202 250 292 357
#     4  11  21  36  66  89 115 152 194 250 299 368
#     4  10  22  38  61  88 122 158 193 245 304 353
#     4  11  21  38  60  89 122 153 190 250 301 361
#     4  10  21  37  55  84 117 153 202 250 303 351
#     4  10  21  37  55  83 116 157 200 243 288 358
#     4  10  21  37  57  80 117 154 196 250 295 350
#
# _framework density 18.876359000000001
#
# number of rings (size 3 to 8) (size 9 to 14) (size 15 to 20)
#    0.000    1.750    2.500    1.875    1.750    1.000 
#    4.500    0.000    0.000    0.000    0.000    0.000 
#    0.000    0.000    0.000    0.000    0.000    0.000 
#
# Total GULP energy -396586.132193 kJ/mol
# GULP energy per Si atom -12393.316631 kJ/mol
# Density = 1.883340 g / cm^3
# Si number density = 18.876359 Si / 1000 Ang^3
#
#
#
# Elastic Constant Matrix: (Units=GPa)
#
#
# Indices 1 2 3 4 5 6 
#
# 1 71.8782 36.9242 28.7650 0.0007 -5.4323 -0.0002
# 2 36.9242 122.5340 31.0227 -0.0011 -4.0582 0.0004
# 3 28.7650 31.0227 91.5151 -0.0001 1.4523 -0.0022
# 4 0.0007 -0.0011 -0.0001 24.0071 0.0011 4.1244
# 5 -5.4323 -4.0582 1.4523 0.0011 26.1792 0.0006
# 6 -0.0002 0.0004 -0.0022 4.1244 0.0006 32.3952
#
#
#
# Elastic Compliance Matrix: (Units=1/GPa)
#
#
# Indices 1 2 3 4 5 6 
#
# 1 0.018062 -0.004246 -0.004291 -0.000001 0.003328 0.000000
# 2 -0.004246 0.009989 -0.002064 0.000001 0.000782 0.000000
# 3 -0.004291 -0.002064 0.013006 0.000000 -0.001932 0.000001
# 4 -0.000001 0.000001 0.000000 0.042586 -0.000002 -0.005422
# 5 0.003328 0.000782 -0.001932 -0.000002 0.039117 -0.000001
# 6 0.000000 0.000000 0.000001 -0.005422 -0.000001 0.031559
#
#
# Mechanical properties :
#
#
# Convention : Reuss Voigt Hill
#
# Bulk Modulus (GPa) = 50.36356 53.26126 51.81241
# Shear Modulus (GPa) = 27.45140 29.13065 28.29102
#
# Velocity S-wave (km/s) = 3.81763 3.93266 3.87557
# Velocity P-wave (km/s) = 6.79493 6.99273 6.89454
#
# Compressibility (1/GPa) = 0.01985562
#
# Stress axis : x y z
#
# Youngs Moduli (GPa) = 55.36353 100.11000 76.88699
#
# Poissons Ratio (x) = 0.42511 0.32990
# Poissons Ratio (y) = 0.23509 0.15868
# Poissons Ratio (z) = 0.23755 0.20661
#
# Static dielectric constant tensor:
#      x y z
#    x 3.316650 0.000000 0.045320 
#    y 0.000000 3.642850 -0.000010 
#    z 0.045320 -0.000010 3.488570 
# 
# 
# High freq. dielectric constant tensor:
#      x y z
#    x 1.722330 0.000000 -0.001940 
#    y 0.000000 1.740040 0.000000 
#    z -0.001940 0.000000 1.737100 
# 
# From -- ./inp_files/266737.got.cif
#   From: 2010.06.25/outbox.cif.g09.slc.cpg/sg15_134_cif.got.tgz:266737.got - 2010.06.28 07:06:18.
