data_PCOD8141897
_publ_section_title
;
Structure prediction by ZEFSAII (Michael W. Deem and Ramdas Pophale) SiO2 
 PCOD8141897
Probable space group: C 2/C
;
_chemical_formula_sum "Si O2"
_cell_formula_units_Z 64
_cell_length_a 13.940204
_cell_length_b 9.422631
_cell_length_c 26.190487
_cell_angle_alpha 90.000000
_cell_angle_beta 89.960710
_cell_angle_gamma 90.000000
_cell_volume 3440.208663
_symmetry_space_group_name_H-M "C 2/C"
_symmetry_group_IT_number 15
_symmetry_cell_setting 'monoclinic'
loop_
_space_group_symop_operation_xyz
x,y,z
-x,y,1/2-z
-x,-y,-z
x,-y,1/2+z
1/2+x,1/2+y,z
1/2-x,1/2+y,1/2-z
1/2-x,1/2-y,-z
1/2+x,1/2-y,1/2+z
loop_
_atom_site_type_symbol
_atom_site_label
_atom_site_fract_x
_atom_site_fract_y
_atom_site_fract_z
Si Si1 0.395114 0.037863 0.612567
Si Si2 0.887403 0.775020 0.367227
Si Si3 0.233966 0.112049 0.967092
Si Si4 0.752352 0.446937 0.202154
Si Si5 0.267505 0.222924 0.804126
Si Si6 0.234633 0.867060 0.040679
Si Si7 0.885755 0.553965 0.883658
Si Si8 0.104157 0.214481 0.880355
O O1 0.348356 0.062541 0.668139
O O2 0.334624 0.118962 0.570230
O O3 0.503090 0.095044 0.609901
O O4 0.391505 0.873241 0.598159
O O5 0.833102 0.854206 0.321700
O O6 0.849731 0.825001 0.421586
O O7 0.875695 0.605096 0.360698
O O8 0.996743 0.827646 0.365707
O O9 0.331892 0.065213 0.938137
O O10 0.149021 0.119065 0.925284
O O11 0.250000 0.250000 0.000000
O O12 0.200921 0.004251 0.010391
O O13 0.717718 0.610254 0.208711
O O14 0.779917 0.377179 0.255523
O O15 0.345433 0.172667 0.845389
O O16 0.162711 0.197681 0.827889
O O17 0.250000 0.750000 0.000000
#
# Coordination Sequence:
#
# PCOD8141897 Si02
#       8
#     8   8   8   8   8   8   8   8
#     4   9  20  38  59  80 111 147 192 224 271 333
#     4  10  21  38  58  82 115 142 188 232 277 323
#     4  11  21  36  59  80 115 152 190 225 276 329
#     4  10  21  39  61  84 112 146 178 233 277 335
#     4  10  21  39  61  83 112 145 185 222 284 331
#     4  11  21  36  55  86 113 148 186 233 276 320
#     4  10  21  38  59  83 108 150 189 230 269 332
#     4   9  20  38  58  82 108 151 187 226 272 337
#
# _framework density 18.603522000000002
#
# number of rings (size 3 to 8) (size 9 to 14) (size 15 to 20)
#    0.000    2.000    2.500    0.750    1.750    3.000 
#    2.250    5.000    0.000    0.000    0.000    0.000 
#    0.000    0.000    0.000    0.000    0.000    0.000 
#
# Total GULP energy -396784.978722 kJ/mol
# GULP energy per Si atom -12399.530585 kJ/mol
# Density = 1.856118 g / cm^3
# Si number density = 18.603522 Si / 1000 Ang^3
#
#
#
# Elastic Constant Matrix: (Units=GPa)
#
#
# Indices 1 2 3 4 5 6 
#
# 1 127.4323 25.2899 23.6353 0.0000 -5.3456 0.0000
# 2 25.2899 94.6033 28.6560 0.0000 0.6608 0.0000
# 3 23.6353 28.6560 81.6353 0.0000 -1.3707 0.0000
# 4 0.0000 0.0000 0.0000 43.2401 0.0000 1.7968
# 5 -5.3456 0.6608 -1.3707 0.0000 12.0604 0.0000
# 6 0.0000 0.0000 0.0000 1.7968 0.0000 25.3330
#
#
#
# Elastic Compliance Matrix: (Units=1/GPa)
#
#
# Indices 1 2 3 4 5 6 
#
# 1 0.008700 -0.001799 -0.001824 0.000000 0.003747 0.000000
# 2 -0.001799 0.012215 -0.003799 0.000000 -0.001899 0.000000
# 3 -0.001824 -0.003799 0.014128 0.000000 0.001005 0.000000
# 4 0.000000 0.000000 0.000000 0.023195 0.000000 -0.001645
# 5 0.003747 -0.001899 0.001005 0.000000 0.084795 0.000000
# 6 0.000000 0.000000 0.000000 -0.001645 0.000000 0.039591
#
#
# Mechanical properties :
#
#
# Convention : Reuss Voigt Hill
#
# Bulk Modulus (GPa) = 49.50842 50.98148 50.24495
# Shear Modulus (GPa) = 24.48549 31.19933 27.84241
#
# Velocity S-wave (km/s) = 3.63185 4.09964 3.87281
# Velocity P-wave (km/s) = 6.65261 7.06209 6.86041
#
# Compressibility (1/GPa) = 0.02019858
#
# Stress axis : x y z
#
# Youngs Moduli (GPa) = 114.94324 81.86369 70.78060
#
# Poissons Ratio (x) = 0.14730 0.12913
# Poissons Ratio (y) = 0.20682 0.26889
# Poissons Ratio (z) = 0.20969 0.31099
#
# Static dielectric constant tensor:
#      x y z
#    x 3.441720 0.000000 -0.049570 
#    y 0.000000 3.440860 0.000000 
#    z -0.049570 0.000000 3.383480 
# 
# 
# High freq. dielectric constant tensor:
#      x y z
#    x 1.718080 0.000000 -0.001930 
#    y 0.000000 1.727520 0.000000 
#    z -0.001930 0.000000 1.729100 
# 
# From -- ./inp_files/273152.got.cif
#   From: 2010.06.25/outbox.cif.g09.slc.cpg/sg15_137_cif.got.tgz:273152.got - 2010.06.28 07:06:18.
