data_PCOD8141081
_publ_section_title
;
Structure prediction by ZEFSAII (Michael W. Deem and Ramdas Pophale) SiO2 
 PCOD8141081
Probable space group: C 2/C
;
_chemical_formula_sum "Si O2"
_cell_formula_units_Z 40
_cell_length_a 8.658637
_cell_length_b 24.348274
_cell_length_c 9.375218
_cell_angle_alpha 90.000000
_cell_angle_beta 84.598627
_cell_angle_gamma 90.000000
_cell_volume 1967.734049
_symmetry_space_group_name_H-M "C 2/C"
_symmetry_group_IT_number 15
_symmetry_cell_setting 'monoclinic'
loop_
_space_group_symop_operation_xyz
x,y,z
-x,y,1/2-z
-x,-y,-z
x,-y,1/2+z
1/2+x,1/2+y,z
1/2-x,1/2+y,1/2-z
1/2-x,1/2-y,-z
1/2+x,1/2-y,1/2+z
loop_
_atom_site_type_symbol
_atom_site_label
_atom_site_fract_x
_atom_site_fract_y
_atom_site_fract_z
Si Si1 0.405937 0.151403 0.618350
Si Si2 0.826277 0.772893 0.212564
Si Si3 0.285463 0.828760 0.550775
Si Si4 0.828731 0.450912 0.953544
Si Si5 0.693063 0.948934 0.864128
O O1 0.500000 0.128936 0.750000
O O2 0.288161 0.200347 0.662702
O O3 0.531547 0.176416 0.499997
O O4 0.306503 0.103266 0.552283
O O5 0.764546 0.710723 0.190005
O O6 0.000000 0.773393 0.250000
O O7 0.822393 0.807916 0.067352
O O8 0.240431 0.891624 0.583118
O O9 0.749067 0.450509 0.804754
O O10 0.009946 0.455545 0.902535
O O11 0.744411 0.500101 0.047845
#
# Coordination Sequence:
#
# PCOD8141081 Si02
#       5
#     8   8   8   8   8
#     4   9  19  34  54  80 110 142 184 229 273 325
#     4  10  21  35  56  78 110 152 184 222 271 326
#     4   9  20  37  53  82 113 142 181 233 270 323
#     4   9  18  28  52  84 108 141 171 230 285 325
#     4   9  18  30  51  82 114 134 176 229 282 325
#
# _framework density 20.327950999999999
#
# number of rings (size 3 to 8) (size 9 to 14) (size 15 to 20)
#    0.000    2.800    0.000    0.000   16.800    0.800 
#    0.000    0.000    0.000    1.200    0.000    0.000 
#    0.000    0.000    0.000    0.000    0.000    0.000 
#
# Total GULP energy -247851.666198 kJ/mol
# GULP energy per Si atom -12392.583310 kJ/mol
# Density = 2.028168 g / cm^3
# Si number density = 20.327951 Si / 1000 Ang^3
#
#
#
# Elastic Constant Matrix: (Units=GPa)
#
#
# Indices 1 2 3 4 5 6 
#
# 1 20.9499 11.5362 1.0783 0.0000 12.6793 0.0000
# 2 11.5362 157.6075 58.8610 0.0000 6.1325 0.0000
# 3 1.0783 58.8610 89.6929 0.0000 4.6831 0.0000
# 4 0.0000 0.0000 0.0000 43.6964 0.0000 -1.6070
# 5 12.6793 6.1325 4.6831 0.0000 19.2665 0.0000
# 6 0.0000 0.0000 0.0000 -1.6070 0.0000 18.2166
#
#
#
# Elastic Compliance Matrix: (Units=1/GPa)
#
#
# Indices 1 2 3 4 5 6 
#
# 1 0.083984 -0.006236 0.005940 0.000000 -0.054729 0.000000
# 2 -0.006236 0.008903 -0.005909 0.000000 0.002707 0.000000
# 3 0.005940 -0.005909 0.015255 0.000000 -0.005737 0.000000
# 4 0.000000 0.000000 0.000000 0.022960 0.000000 0.002025
# 5 -0.054729 0.002707 -0.005737 0.000000 0.088454 0.000000
# 6 0.000000 0.000000 0.000000 0.002025 0.000000 0.055074
#
#
# Mechanical properties :
#
#
# Convention : Reuss Voigt Hill
#
# Bulk Modulus (GPa) = 10.44575 45.68907 28.06741
# Shear Modulus (GPa) = 15.67646 29.35423 22.51535
#
# Velocity S-wave (km/s) = 2.78002 3.80417 3.33168
# Velocity P-wave (km/s) = 3.93122 6.46687 5.35139
#
# Compressibility (1/GPa) = 0.09573271
#
# Stress axis : x y z
#
# Youngs Moduli (GPa) = 11.90696 112.32461 65.55270
#
# Poissons Ratio (x) = 0.70050 -0.38941
# Poissons Ratio (y) = 0.07426 0.38734
# Poissons Ratio (z) = -0.07073 0.66370
#
# Static dielectric constant tensor:
#      x y z
#    x 3.064990 0.000000 0.089920 
#    y 0.000000 3.856420 0.000000 
#    z 0.089920 0.000000 3.957450 
# 
# 
# High freq. dielectric constant tensor:
#      x y z
#    x 1.730630 0.000000 0.012980 
#    y 0.000000 1.803850 0.000000 
#    z 0.012980 0.000000 1.802940 
# 
# From -- ./inp_files/23432.got.cif
#   From: 2010.06.25/outbox.cif.g09.slc.cpg/sg15_12_cif.got.tgz:23432.got - 2010.06.28 07:06:18.
