data_PCOD8141866
_publ_section_title
;
Structure prediction by ZEFSAII (Michael W. Deem and Ramdas Pophale) SiO2 
 PCOD8141866
Probable space group: C 2/C
;
_chemical_formula_sum "Si O2"
_cell_formula_units_Z 64
_cell_length_a 8.072989
_cell_length_b 15.911498
_cell_length_c 23.034635
_cell_angle_alpha 90.000000
_cell_angle_beta 86.332921
_cell_angle_gamma 90.000000
_cell_volume 2952.817791
_symmetry_space_group_name_H-M "C 2/C"
_symmetry_group_IT_number 15
_symmetry_cell_setting 'monoclinic'
loop_
_space_group_symop_operation_xyz
x,y,z
-x,y,1/2-z
-x,-y,-z
x,-y,1/2+z
1/2+x,1/2+y,z
1/2-x,1/2+y,1/2-z
1/2-x,1/2-y,-z
1/2+x,1/2-y,1/2+z
loop_
_atom_site_type_symbol
_atom_site_label
_atom_site_fract_x
_atom_site_fract_y
_atom_site_fract_z
Si Si1 0.349539 0.454552 0.286935
Si Si2 0.910118 0.344369 0.903112
Si Si3 0.046521 0.830867 0.357365
Si Si4 0.027109 0.391427 0.028335
Si Si5 0.875125 0.630271 0.796450
Si Si6 0.608268 0.721893 0.457787
Si Si7 0.412585 0.416782 0.026167
Si Si8 0.571551 0.994445 0.370437
O O1 0.500000 0.503614 0.250000
O O2 0.424861 0.366527 0.310244
O O3 0.209462 0.439918 0.242181
O O4 0.258666 0.506157 0.340858
O O5 0.710341 0.329196 0.905619
O O6 0.994280 0.258318 0.882716
O O7 0.967839 0.420283 0.860337
O O8 0.968874 0.373927 0.964903
O O9 0.231933 0.813669 0.328578
O O10 0.043261 0.902032 0.407437
O O11 0.215858 0.421351 0.025137
O O12 0.989104 0.303817 0.064198
O O13 0.921166 0.467004 0.061243
O O14 0.000000 0.681722 0.750000
O O15 0.977133 0.583775 0.844083
O O16 0.750000 0.750000 0.500000
O O17 0.470914 0.662645 0.488126
O O18 0.500000 0.500000 0.000000
#
# Coordination Sequence:
#
# PCOD8141866 Si02
#       8
#     8   8   8   8   8   8   8   8
#     4   9  21  40  65  84 113 156 209 263 314 369
#     4  11  24  38  59  97 127 162 206 251 302 388
#     4  11  21  41  62  88 124 164 204 248 322 368
#     4  11  22  38  60  89 134 169 202 247 310 379
#     4   9  20  41  63  87 110 152 213 261 307 369
#     4  10  21  38  56  81 133 163 199 240 295 363
#     4  12  24  36  58  92 128 165 207 251 298 380
#     4  11  21  37  66  90 119 163 205 255 317 366
#
# _framework density 21.674213000000002
#
# number of rings (size 3 to 8) (size 9 to 14) (size 15 to 20)
#    0.000    1.500    3.750    2.250    3.500    0.000 
#    0.000    6.250    0.000    0.000    0.000    0.000 
#    0.000    0.000    0.000    0.000    0.000    0.000 
#
# Total GULP energy -396456.409264 kJ/mol
# GULP energy per Si atom -12389.262790 kJ/mol
# Density = 2.162488 g / cm^3
# Si number density = 21.674213 Si / 1000 Ang^3
#
#
#
# Elastic Constant Matrix: (Units=GPa)
#
#
# Indices 1 2 3 4 5 6 
#
# 1 100.0926 27.7025 40.2549 0.0000 -40.5632 0.0000
# 2 27.7025 95.9829 31.2736 0.0000 -19.3312 0.0000
# 3 40.2549 31.2736 80.4867 0.0000 -32.3571 0.0000
# 4 0.0000 0.0000 0.0000 7.1924 0.0000 -5.2679
# 5 -40.5632 -19.3312 -32.3571 0.0000 55.2463 0.0000
# 6 0.0000 0.0000 0.0000 -5.2679 0.0000 33.8652
#
#
#
# Elastic Compliance Matrix: (Units=1/GPa)
#
#
# Indices 1 2 3 4 5 6 
#
# 1 0.015365 -0.001515 -0.003628 0.000000 0.008626 0.000000
# 2 -0.001515 0.012234 -0.003560 0.000000 0.001083 0.000000
# 3 -0.003628 -0.003560 0.018378 0.000000 0.006854 0.000000
# 4 0.000000 0.000000 0.000000 0.156912 0.000000 0.024408
# 5 0.008626 0.001083 0.006854 0.000000 0.028828 0.000000
# 6 0.000000 0.000000 0.000000 0.024408 0.000000 0.033326
#
#
# Mechanical properties :
#
#
# Convention : Reuss Voigt Hill
#
# Bulk Modulus (GPa) = 35.00212 52.78046 43.89129
# Shear Modulus (GPa) = 17.12488 31.08286 24.10387
#
# Velocity S-wave (km/s) = 2.81393 3.79105 3.33843
# Velocity P-wave (km/s) = 5.17125 6.60056 5.92913
#
# Compressibility (1/GPa) = 0.02856970
#
# Stress axis : x y z
#
# Youngs Moduli (GPa) = 65.08246 81.73930 54.41332
#
# Poissons Ratio (x) = 0.12385 0.19742
# Poissons Ratio (y) = 0.09861 0.19373
# Poissons Ratio (z) = 0.23612 0.29102
#
# Static dielectric constant tensor:
#      x y z
#    x 4.444770 0.000000 -0.653100 
#    y 0.000000 4.092220 0.000000 
#    z -0.653100 0.000000 4.391650 
# 
# 
# High freq. dielectric constant tensor:
#      x y z
#    x 1.860590 0.000000 -0.029070 
#    y 0.000000 1.820510 0.000000 
#    z -0.029070 0.000000 1.855750 
# 
# From -- ./inp_files/288767.got.cif
#   From: 2010.06.25/outbox.cif.g09.slc.cpg/sg15_145_cif.got.tgz:288767.got - 2010.06.28 07:06:18.
