data_PCOD8141914
_publ_section_title
;
Structure prediction by ZEFSAII (Michael W. Deem and Ramdas Pophale) SiO2 
 PCOD8141914
Probable space group: C 2/C
;
_chemical_formula_sum "Si O2"
_cell_formula_units_Z 64
_cell_length_a 22.315377
_cell_length_b 16.417364
_cell_length_c 18.629518
_cell_angle_alpha 90.000000
_cell_angle_beta 28.452544
_cell_angle_gamma 90.000000
_cell_volume 3251.689113
_symmetry_space_group_name_H-M "C 2/C"
_symmetry_group_IT_number 15
_symmetry_cell_setting 'monoclinic'
loop_
_space_group_symop_operation_xyz
x,y,z
-x,y,1/2-z
-x,-y,-z
x,-y,1/2+z
1/2+x,1/2+y,z
1/2-x,1/2+y,1/2-z
1/2-x,1/2-y,-z
1/2+x,1/2-y,1/2+z
loop_
_atom_site_type_symbol
_atom_site_label
_atom_site_fract_x
_atom_site_fract_y
_atom_site_fract_z
Si Si1 0.989460 0.373323 0.053209
Si Si2 0.353654 0.545009 0.896171
Si Si3 0.306405 0.759999 0.712343
Si Si4 0.333168 0.399947 0.571806
Si Si5 0.126647 0.901342 0.274783
Si Si6 0.645740 0.363348 0.612633
Si Si7 0.185819 0.495318 0.335955
Si Si8 0.802630 0.729381 0.829857
O O1 0.881504 0.411691 0.116586
O O2 0.928169 0.325295 0.185049
O O3 0.063691 0.309773 0.925122
O O4 0.085038 0.443903 0.979880
O O5 0.500000 0.530551 0.750000
O O6 0.328447 0.604368 0.855208
O O7 0.296221 0.454546 0.943337
O O8 0.299734 0.589766 0.023072
O O9 0.198987 0.808868 0.868674
O O10 0.332665 0.677943 0.726178
O O11 0.262420 0.745701 0.677581
O O12 0.478345 0.418513 0.436632
O O13 0.244111 0.464675 0.704008
O O14 0.200095 0.978429 0.230289
O O15 0.500000 0.365330 0.750000
O O16 0.709750 0.319332 0.478470
O O17 0.665751 0.315760 0.666586
#
# Coordination Sequence:
#
# PCOD8141914 Si02
#       8
#     8   8   8   8   8   8   8   8
#     4  10  21  38  58  88 127 156 203 255 312 361
#     4   9  21  39  58  85 120 158 201 256 300 362
#     4  11  23  37  64  92 123 161 209 259 311 365
#     4  10  22  40  63  90 120 164 206 257 312 367
#     4  11  22  38  62  92 121 161 210 257 308 372
#     4  10  22  38  60  87 126 162 205 247 309 368
#     4  10  21  38  63  88 121 163 203 260 304 364
#     4  11  21  38  60  90 124 166 199 254 311 371
#
# _framework density 19.682078000000001
#
# number of rings (size 3 to 8) (size 9 to 14) (size 15 to 20)
#    0.000    1.750    1.250    2.625    3.500    0.500 
#    2.250    0.000    2.750    5.250    0.000    0.000 
#    0.000    0.000    0.000    0.000    0.000    0.000 
#
# Total GULP energy -396751.362142 kJ/mol
# GULP energy per Si atom -12398.480067 kJ/mol
# Density = 1.963728 g / cm^3
# Si number density = 19.682078 Si / 1000 Ang^3
#
#
#
# Elastic Constant Matrix: (Units=GPa)
#
#
# Indices 1 2 3 4 5 6 
#
# 1 120.7090 61.6029 50.3488 -0.0002 21.5253 0.0000
# 2 61.6029 98.3829 36.4539 0.0000 11.8085 -0.0002
# 3 50.3488 36.4539 101.4880 0.0000 8.1410 -0.0004
# 4 -0.0002 0.0000 0.0000 55.5000 0.0000 -20.9326
# 5 21.5253 11.8085 8.1410 0.0000 31.4021 0.0003
# 6 0.0000 -0.0002 -0.0004 -20.9326 0.0003 47.8554
#
#
#
# Elastic Compliance Matrix: (Units=1/GPa)
#
#
# Indices 1 2 3 4 5 6 
#
# 1 0.014728 -0.006848 -0.004333 0.000000 -0.006397 0.000000
# 2 -0.006848 0.015273 -0.002047 0.000000 -0.000518 0.000000
# 3 -0.004333 -0.002047 0.012703 0.000000 0.000447 0.000000
# 4 0.000000 0.000000 0.000000 0.021578 0.000000 0.009438
# 5 -0.006397 -0.000518 0.000447 0.000000 0.036309 0.000000
# 6 0.000000 0.000000 0.000000 0.009438 0.000000 0.025025
#
#
# Mechanical properties :
#
#
# Convention : Reuss Voigt Hill
#
# Bulk Modulus (GPa) = 61.55396 68.59902 65.07649
# Shear Modulus (GPa) = 31.74859 38.42979 35.08919
#
# Velocity S-wave (km/s) = 4.02066 4.42353 4.22690
# Velocity P-wave (km/s) = 7.27299 7.81149 7.54704
#
# Compressibility (1/GPa) = 0.01624591
#
# Stress axis : x y z
#
# Youngs Moduli (GPa) = 67.90000 65.47450 78.72385
#
# Poissons Ratio (x) = 0.44839 0.34115
# Poissons Ratio (y) = 0.46500 0.16115
# Poissons Ratio (z) = 0.29424 0.13402
#
# Static dielectric constant tensor:
#      x y z
#    x 3.605690 0.000000 0.041120 
#    y 0.000000 3.761310 0.000000 
#    z 0.041120 0.000000 3.770700 
# 
# 
# High freq. dielectric constant tensor:
#      x y z
#    x 1.756570 0.000000 -0.000080 
#    y 0.000000 1.775650 0.000000 
#    z -0.000080 0.000000 1.772290 
# 
# From -- ./inp_files/216146.got.cif
#   From: 2010.06.25/outbox.cif.g09.slc.cpg/sg15_109_cif.got.tgz:216146.got - 2010.06.28 07:06:18.
