data_PCOD8141015
_publ_section_title
;
Structure prediction by ZEFSAII (Michael W. Deem and Ramdas Pophale) SiO2 
 PCOD8141015
Probable space group: C 2/C
;
_chemical_formula_sum "Si O2"
_cell_formula_units_Z 36
_cell_length_a 17.700609
_cell_length_b 15.816677
_cell_length_c 16.474970
_cell_angle_alpha 90.000000
_cell_angle_beta 155.333334
_cell_angle_gamma 90.000000
_cell_volume 1924.936819
_symmetry_space_group_name_H-M "C 2/C"
_symmetry_group_IT_number 15
_symmetry_cell_setting 'monoclinic'
loop_
_space_group_symop_operation_xyz
x,y,z
-x,y,1/2-z
-x,-y,-z
x,-y,1/2+z
1/2+x,1/2+y,z
1/2-x,1/2+y,1/2-z
1/2-x,1/2-y,-z
1/2+x,1/2-y,1/2+z
loop_
_atom_site_type_symbol
_atom_site_label
_atom_site_fract_x
_atom_site_fract_y
_atom_site_fract_z
Si Si1 0.850922 0.504547 0.171763
Si Si2 0.418933 0.088700 0.396811
Si Si3 0.400345 0.347680 0.804505
Si Si4 0.500000 0.453908 0.750000
Si Si5 0.693076 0.161122 0.770613
O O1 0.871132 0.582264 0.255053
O O2 0.878003 0.411506 0.237728
O O3 0.000000 0.518442 0.250000
O O4 0.651323 0.512914 0.938528
O O5 0.237555 0.108052 0.269135
O O6 0.576860 0.156567 0.573006
O O7 0.500000 0.000000 0.500000
O O8 0.401937 0.395674 0.720762
O O9 0.340484 0.252746 0.723572
O O10 0.594658 0.351451 0.038881
#
# Coordination Sequence:
#
# PCOD8141015 Si02
#       5
#     8   8   8   4   8
#     4  10  22  36  56  83 117 154 187 233 286 335
#     4  10  21  38  56  81 118 156 192 229 279 344
#     4  11  21  35  57  89 119 150 185 233 290 339
#     4  10  22  32  54  90 118 150 182 230 292 344
#     4  10  21  34  58  86 117 150 187 235 282 345
#
# _framework density 18.701912
#
# number of rings (size 3 to 8) (size 9 to 14) (size 15 to 20)
#    0.000    1.778    2.222    2.667    1.556   11.556 
#    0.000    0.000    0.000    1.333    0.000    0.000 
#    0.000    0.000    0.000    0.000    0.000    0.000 
#
# Total GULP energy -223135.169866 kJ/mol
# GULP energy per Si atom -12396.398326 kJ/mol
# Density = 1.865935 g / cm^3
# Si number density = 18.701912 Si / 1000 Ang^3
#
#
#
# Elastic Constant Matrix: (Units=GPa)
#
#
# Indices 1 2 3 4 5 6 
#
# 1 129.8456 33.1307 62.6083 -0.0056 4.1042 -0.0046
# 2 33.1307 21.0526 18.0393 -0.0056 -3.3196 -0.0055
# 3 62.6083 18.0393 151.8483 -0.0056 -5.6505 -0.0047
# 4 -0.0056 -0.0056 -0.0056 28.4836 -0.0045 4.5122
# 5 4.1042 -3.3196 -5.6505 -0.0045 33.1407 -0.0028
# 6 -0.0046 -0.0055 -0.0047 4.5122 -0.0028 15.6675
#
#
#
# Elastic Compliance Matrix: (Units=1/GPa)
#
#
# Indices 1 2 3 4 5 6 
#
# 1 0.015144 -0.021231 -0.003896 -0.000002 -0.004666 -0.000004
# 2 -0.021231 0.083249 -0.000733 0.000010 0.010843 0.000022
# 3 -0.003896 -0.000733 0.008347 0.000001 0.001832 0.000001
# 4 -0.000002 0.000010 0.000001 0.036786 0.000006 -0.010594
# 5 -0.004666 0.010843 0.001832 0.000006 0.032151 0.000007
# 6 -0.000004 0.000022 0.000001 -0.010594 0.000007 0.066878
#
#
# Mechanical properties :
#
#
# Convention : Reuss Voigt Hill
#
# Bulk Modulus (GPa) = 18.17452 58.92256 38.54854
# Shear Modulus (GPa) = 15.99417 28.05625 22.02521
#
# Velocity S-wave (km/s) = 2.92758 3.87742 3.43548
# Velocity P-wave (km/s) = 4.60073 7.18473 6.03271
#
# Compressibility (1/GPa) = 0.05502207
#
# Stress axis : x y z
#
# Youngs Moduli (GPa) = 66.03072 12.01216 119.80418
#
# Poissons Ratio (x) = 0.25503 0.46672
# Poissons Ratio (y) = 1.40188 0.08778
# Poissons Ratio (z) = 0.25723 0.00880
#
# Static dielectric constant tensor:
#      x y z
#    x 3.492000 0.000000 -0.250700 
#    y 0.000000 3.539150 -0.000010 
#    z -0.250700 -0.000010 4.317580 
# 
# 
# High freq. dielectric constant tensor:
#      x y z
#    x 1.708500 0.000000 0.006230 
#    y 0.000000 1.697280 0.000000 
#    z 0.006230 0.000000 1.755510 
# 
# From -- ./inp_files/37450.got.cif
#   From: 2010.06.25/outbox.cif.g09.slc.cpg/sg15_19_cif.got.tgz:37450.got - 2010.06.28 07:06:18.
