data_PCOD8141449
_publ_section_title
;
Structure prediction by ZEFSAII (Michael W. Deem and Ramdas Pophale) SiO2 
 PCOD8141449
Probable space group: C 2/C
;
_chemical_formula_sum "Si O2"
_cell_formula_units_Z 48
_cell_length_a 14.993526
_cell_length_b 16.334817
_cell_length_c 17.153321
_cell_angle_alpha 90.000000
_cell_angle_beta 147.950077
_cell_angle_gamma 90.000000
_cell_volume 2229.363923
_symmetry_space_group_name_H-M "C 2/C"
_symmetry_group_IT_number 15
_symmetry_cell_setting 'monoclinic'
loop_
_space_group_symop_operation_xyz
x,y,z
-x,y,1/2-z
-x,-y,-z
x,-y,1/2+z
1/2+x,1/2+y,z
1/2-x,1/2+y,1/2-z
1/2-x,1/2-y,-z
1/2+x,1/2-y,1/2+z
loop_
_atom_site_type_symbol
_atom_site_label
_atom_site_fract_x
_atom_site_fract_y
_atom_site_fract_z
Si Si1 0.240662 0.167041 0.262987
Si Si2 0.011736 0.696032 0.348865
Si Si3 0.861521 0.621509 0.586518
Si Si4 0.110570 0.775381 0.997528
Si Si5 0.344386 0.354682 0.180641
Si Si6 0.825932 0.514799 0.413560
O O1 0.386132 0.142683 0.308911
O O2 0.283542 0.243159 0.351305
O O3 0.213848 0.084827 0.291864
O O4 0.062823 0.190870 0.093517
O O5 0.203451 0.688911 0.520982
O O6 0.000000 0.668898 0.250000
O O7 0.930583 0.786609 0.299602
O O8 0.929859 0.698902 0.588699
O O9 0.696409 0.651214 0.511771
O O10 0.836276 0.541618 0.512463
O O11 0.000000 0.592394 0.750000
O O12 0.500000 0.393857 0.250000
O O13 0.264563 0.428585 0.168357
O O14 0.000000 0.500000 0.500000
#
# Coordination Sequence:
#
# PCOD8141449 Si02
#       6
#     8   8   8   8   8   8
#     4  11  22  40  68  96 135 168 212 273 327 398
#     4  11  23  43  69  94 124 175 231 269 315 387
#     4  10  21  39  63  96 134 168 211 264 318 398
#     4  10  21  36  66 100 127 166 218 258 324 390
#     4  11  24  43  69  93 124 170 225 276 321 386
#     4  11  25  42  61  97 138 172 205 269 346 387
#
# _framework density 21.530805000000001
#
# number of rings (size 3 to 8) (size 9 to 14) (size 15 to 20)
#    0.000    1.333    3.333    3.000    4.667    0.667 
#    0.000    0.000    0.000    4.000    0.000    0.000 
#    0.000    0.000    0.000    0.000    0.000    0.000 
#
# Total GULP energy -297385.205564 kJ/mol
# GULP energy per Si atom -12391.050232 kJ/mol
# Density = 2.148180 g / cm^3
# Si number density = 21.530805 Si / 1000 Ang^3
#
#
#
# Elastic Constant Matrix: (Units=GPa)
#
#
# Indices 1 2 3 4 5 6 
#
# 1 107.0493 30.0037 32.5680 0.0101 11.4563 0.0016
# 2 30.0037 88.0150 53.6713 0.0248 1.7569 0.0030
# 3 32.5680 53.6713 104.8096 0.0357 21.5839 0.0069
# 4 0.0101 0.0248 0.0357 20.9481 0.0062 7.8179
# 5 11.4563 1.7569 21.5839 0.0062 37.7349 0.0000
# 6 0.0016 0.0030 0.0069 7.8179 0.0000 34.6841
#
#
#
# Elastic Compliance Matrix: (Units=1/GPa)
#
#
# Indices 1 2 3 4 5 6 
#
# 1 0.010805 -0.002733 -0.001484 0.000001 -0.002305 0.000000
# 2 -0.002733 0.017952 -0.009456 -0.000006 0.005403 0.000002
# 3 -0.001484 -0.009456 0.016619 -0.000014 -0.008615 0.000001
# 4 0.000001 -0.000006 -0.000014 0.052122 -0.000001 -0.011748
# 5 -0.002305 0.005403 -0.008615 -0.000001 0.031876 0.000002
# 6 0.000000 0.000002 0.000001 -0.011748 0.000002 0.031480
#
#
# Mechanical properties :
#
#
# Convention : Reuss Voigt Hill
#
# Bulk Modulus (GPa) = 55.46130 59.15109 57.30619
# Shear Modulus (GPa) = 25.74543 30.91548 28.33046
#
# Velocity S-wave (km/s) = 3.46171 3.79340 3.63135
# Velocity P-wave (km/s) = 6.46474 6.83513 6.65251
#
# Compressibility (1/GPa) = 0.01803059
#
# Stress axis : x y z
#
# Youngs Moduli (GPa) = 92.54604 55.70458 60.17342
#
# Poissons Ratio (x) = 0.15223 0.08927
# Poissons Ratio (y) = 0.25291 0.56902
# Poissons Ratio (z) = 0.13730 0.52676
#
# Static dielectric constant tensor:
#      x y z
#    x 4.161470 0.000010 0.131800 
#    y 0.000010 3.794830 -0.000040 
#    z 0.131800 -0.000040 3.724940 
# 
# 
# High freq. dielectric constant tensor:
#      x y z
#    x 1.852530 0.000000 0.014220 
#    y 0.000000 1.831030 0.000000 
#    z 0.014220 0.000000 1.841540 
# 
# From -- ./inp_files/206512.got.cif
#   From: 2010.06.25/outbox.cif.g09.slc.cpg/sg15_104_cif.got.tgz:206512.got - 2010.06.28 07:06:18.
