data_PCOD8141131
_publ_section_title
;
Structure prediction by ZEFSAII (Michael W. Deem and Ramdas Pophale) SiO2 
 PCOD8141131
Probable space group: C 2/C
;
_chemical_formula_sum "Si O2"
_cell_formula_units_Z 60
_cell_length_a 30.621716
_cell_length_b 11.780585
_cell_length_c 8.107319
_cell_angle_alpha 90.000000
_cell_angle_beta 77.697190
_cell_angle_gamma 90.000000
_cell_volume 2857.484086
_symmetry_space_group_name_H-M "C 2/C"
_symmetry_group_IT_number 15
_symmetry_cell_setting 'monoclinic'
loop_
_space_group_symop_operation_xyz
x,y,z
-x,y,1/2-z
-x,-y,-z
x,-y,1/2+z
1/2+x,1/2+y,z
1/2-x,1/2+y,1/2-z
1/2-x,1/2-y,-z
1/2+x,1/2-y,1/2+z
loop_
_atom_site_type_symbol
_atom_site_label
_atom_site_fract_x
_atom_site_fract_y
_atom_site_fract_z
Si Si1 0.358974 0.051287 0.252507
Si Si2 0.904196 0.646701 0.920563
Si Si3 0.593836 0.554571 0.685759
Si Si4 0.139006 0.129329 0.962527
Si Si5 0.464863 0.598431 0.053941
Si Si6 0.257318 0.637347 0.598467
Si Si7 0.792615 0.445332 0.062973
Si Si8 0.500000 0.785253 0.250000
O O1 0.329733 0.118516 0.415958
O O2 0.379815 0.938598 0.315446
O O3 0.321240 0.030266 0.148482
O O4 0.397428 0.118579 0.121929
O O5 0.882101 0.770333 0.908140
O O6 0.956868 0.640567 0.834796
O O7 0.631559 0.495311 0.544004
O O8 0.560294 0.627338 0.597456
O O9 0.568995 0.446022 0.782010
O O10 0.614972 0.637742 0.803382
O O11 0.191206 0.137991 0.897174
O O12 0.489071 0.710900 0.097521
O O13 0.500000 0.500000 0.000000
O O14 0.250000 0.750000 0.500000
O O15 0.242185 0.523958 0.512548
O O16 0.232202 0.643924 0.796780
#
# Coordination Sequence:
#
# PCOD8141131 Si02
#       8
#     8   8   8   8   8   8   8   4
#     4   9  20  42  64  83 119 164 215 265 322 354
#     4  11  23  42  65  87 122 168 214 273 311 374
#     4  10  21  35  59  88 129 164 191 238 310 379
#     4  11  21  39  58  95 130 162 201 248 313 375
#     4  11  18  36  59  88 122 165 197 240 301 379
#     4  11  21  37  65  94 128 166 207 260 309 374
#     4   9  19  39  63  91 121 164 205 254 316 381
#     4  12  22  38  66  92 122 162 220 258 320 370
#
# _framework density 20.997492999999999
#
# number of rings (size 3 to 8) (size 9 to 14) (size 15 to 20)
#    0.000    1.600    2.667    4.000    0.000    0.533 
#    4.800    8.667    0.000    0.000    0.000    0.000 
#    0.000    0.000    0.000    0.000    0.000    0.000 
#
# Total GULP energy -371694.355049 kJ/mol
# GULP energy per Si atom -12389.811835 kJ/mol
# Density = 2.094970 g / cm^3
# Si number density = 20.997493 Si / 1000 Ang^3
#
#
#
# Elastic Constant Matrix: (Units=GPa)
#
#
# Indices 1 2 3 4 5 6 
#
# 1 127.3557 24.3043 49.5284 0.0000 -13.2046 0.0000
# 2 24.3043 59.2685 23.5609 0.0000 -4.5685 0.0000
# 3 49.5284 23.5609 109.2079 0.0000 -15.3424 0.0000
# 4 0.0000 0.0000 0.0000 31.1368 0.0000 -9.8458
# 5 -13.2046 -4.5685 -15.3424 0.0000 46.3234 0.0000
# 6 0.0000 0.0000 0.0000 -9.8458 0.0000 19.6336
#
#
#
# Elastic Compliance Matrix: (Units=1/GPa)
#
#
# Indices 1 2 3 4 5 6 
#
# 1 0.009933 -0.002466 -0.003785 0.000000 0.001335 0.000000
# 2 -0.002466 0.019079 -0.002971 0.000000 0.000195 0.000000
# 3 -0.003785 -0.002971 0.011874 0.000000 0.002561 0.000000
# 4 0.000000 0.000000 0.000000 0.038169 0.000000 0.019141
# 5 0.001335 0.000195 0.002561 0.000000 0.022835 0.000000
# 6 0.000000 0.000000 0.000000 0.019141 0.000000 0.060532
#
#
# Mechanical properties :
#
#
# Convention : Reuss Voigt Hill
#
# Bulk Modulus (GPa) = 44.55663 54.51327 49.53495
# Shear Modulus (GPa) = 26.54673 32.64798 29.59735
#
# Velocity S-wave (km/s) = 3.55953 3.94744 3.75849
# Velocity P-wave (km/s) = 6.17735 6.84065 6.51745
#
# Compressibility (1/GPa) = 0.02244335
#
# Stress axis : x y z
#
# Youngs Moduli (GPa) = 100.67369 52.41259 84.21542
#
# Poissons Ratio (x) = 0.12923 0.31880
# Poissons Ratio (y) = 0.24822 0.25018
# Poissons Ratio (z) = 0.38110 0.15570
#
# Static dielectric constant tensor:
#      x y z
#    x 1.412460 0.000000 -0.566150 
#    y 0.000000 3.434200 0.000000 
#    z -0.566150 0.000000 4.168730 
# 
# 
# High freq. dielectric constant tensor:
#      x y z
#    x 1.833930 0.000000 -0.005720 
#    y 0.000000 1.781570 0.000000 
#    z -0.005720 0.000000 1.840720 
# 
# From -- ./inp_files/69073.got.cif
#   From: 2010.06.25/outbox.cif.g09.slc.cpg/sg15_35_cif.got.tgz:69073.got - 2010.06.28 07:06:18.
