data_PCOD8141394
_publ_section_title
;
Structure prediction by ZEFSAII (Michael W. Deem and Ramdas Pophale) SiO2 
 PCOD8141394
Probable space group: C 2/C
;
_chemical_formula_sum "Si O2"
_cell_formula_units_Z 56
_cell_length_a 21.124121
_cell_length_b 17.760744
_cell_length_c 9.030642
_cell_angle_alpha 90.000000
_cell_angle_beta 123.583633
_cell_angle_gamma 90.000000
_cell_volume 2822.570277
_symmetry_space_group_name_H-M "C 2/C"
_symmetry_group_IT_number 15
_symmetry_cell_setting 'monoclinic'
loop_
_space_group_symop_operation_xyz
x,y,z
-x,y,1/2-z
-x,-y,-z
x,-y,1/2+z
1/2+x,1/2+y,z
1/2-x,1/2+y,1/2-z
1/2-x,1/2-y,-z
1/2+x,1/2-y,1/2+z
loop_
_atom_site_type_symbol
_atom_site_label
_atom_site_fract_x
_atom_site_fract_y
_atom_site_fract_z
Si Si1 0.270993 0.098536 0.896598
Si Si2 0.854446 0.780305 0.292173
Si Si3 0.360958 0.739649 0.260498
Si Si4 0.584613 0.812614 0.886334
Si Si5 0.582299 0.377003 0.878399
Si Si6 0.287160 0.166983 0.417786
Si Si7 0.264160 0.461042 0.468805
O O1 0.227034 0.178794 0.836125
O O2 0.269466 0.055002 0.737593
O O3 0.357445 0.117877 0.053147
O O4 0.237934 0.048766 0.989505
O O5 0.895575 0.757697 0.194711
O O6 0.905549 0.842831 0.441862
O O7 0.844476 0.700473 0.368854
O O8 0.413235 0.781285 0.445134
O O9 0.418151 0.694456 0.230664
O O10 0.308126 0.797878 0.103640
O O11 0.298038 0.684593 0.250352
O O12 0.500000 0.843531 0.750000
O O13 0.500000 0.416596 0.750000
O O14 0.647781 0.435637 0.919428
O O15 0.284928 0.078772 0.461301
#
# Coordination Sequence:
#
# PCOD8141394 Si02
#       7
#     8   8   8   8   8   8   8
#     4  11  23  40  58  84 117 152 204 235 282 352
#     4  10  21  36  62  89 114 149 197 242 287 347
#     4   9  16  31  57  83 112 143 189 239 288 333
#     4  12  23  36  57  89 122 147 187 258 302 327
#     4   9  18  36  58  87 120 151 189 235 294 358
#     4   9  16  35  60  82 104 153 196 237 271 341
#     4  10  22  37  61  83 115 161 196 235 284 346
#
# _framework density 19.840074000000001
#
# number of rings (size 3 to 8) (size 9 to 14) (size 15 to 20)
#    0.000    2.000    2.857    3.000    2.000    1.143 
#    0.000    4.286    0.000    0.000    0.000    0.000 
#    0.000    0.000    0.000    0.000    0.000    0.000 
#
# Total GULP energy -346911.809507 kJ/mol
# GULP energy per Si atom -12389.707482 kJ/mol
# Density = 1.979492 g / cm^3
# Si number density = 19.840074 Si / 1000 Ang^3
#
#
#
# Elastic Constant Matrix: (Units=GPa)
#
#
# Indices 1 2 3 4 5 6 
#
# 1 76.0538 37.9551 54.7601 0.0000 16.4883 0.0000
# 2 37.9551 71.9173 37.2225 0.0000 -2.5384 0.0000
# 3 54.7601 37.2225 102.4192 0.0000 22.2434 0.0000
# 4 0.0000 0.0000 0.0000 20.5795 0.0000 -8.9622
# 5 16.4883 -2.5384 22.2434 0.0000 32.1905 0.0000
# 6 0.0000 0.0000 0.0000 -8.9622 0.0000 27.2026
#
#
#
# Elastic Compliance Matrix: (Units=1/GPa)
#
#
# Indices 1 2 3 4 5 6 
#
# 1 0.025805 -0.009434 -0.008632 0.000000 -0.007997 0.000000
# 2 -0.009434 0.021877 -0.005096 0.000000 0.010078 0.000000
# 3 -0.008632 -0.005096 0.018070 0.000000 -0.008467 0.000000
# 4 0.000000 0.000000 0.000000 0.056732 0.000000 0.018691
# 5 -0.007997 0.010078 -0.008467 0.000000 0.041806 0.000000
# 6 0.000000 0.000000 0.000000 0.018691 0.000000 0.042919
#
#
# Mechanical properties :
#
#
# Convention : Reuss Voigt Hill
#
# Bulk Modulus (GPa) = 51.46880 56.69621 54.08251
# Shear Modulus (GPa) = 19.23015 24.02468 21.62742
#
# Velocity S-wave (km/s) = 3.11667 3.48360 3.30523
# Velocity P-wave (km/s) = 6.24097 6.69472 6.47182
#
# Compressibility (1/GPa) = 0.01942924
#
# Stress axis : x y z
#
# Youngs Moduli (GPa) = 38.75144 45.71078 55.34120
#
# Poissons Ratio (x) = 0.43122 0.47771
# Poissons Ratio (y) = 0.36557 0.28200
# Poissons Ratio (z) = 0.33450 0.23292
#
# Static dielectric constant tensor:
#      x y z
#    x 3.369630 0.000000 -0.042200 
#    y 0.000000 3.375890 0.000000 
#    z -0.042200 0.000000 3.684620 
# 
# 
# High freq. dielectric constant tensor:
#      x y z
#    x 1.751390 0.000000 -0.007480 
#    y 0.000000 1.747050 0.000000 
#    z -0.007480 0.000000 1.781310 
# 
# From -- ./inp_files/56739.got.cif
#   From: 2010.06.25/outbox.cif.g09.slc.cpg/sg15_29_cif.got.tgz:56739.got - 2010.06.28 07:06:18.
