data_PCOD8141762
_publ_section_title
;
Structure prediction by ZEFSAII (Michael W. Deem and Ramdas Pophale) SiO2 
 PCOD8141762
Probable space group: C 2/C
;
_chemical_formula_sum "Si O2"
_cell_formula_units_Z 36
_cell_length_a 12.421153
_cell_length_b 13.315657
_cell_length_c 10.332794
_cell_angle_alpha 90.000000
_cell_angle_beta 117.250791
_cell_angle_gamma 90.000000
_cell_volume 1519.320259
_symmetry_space_group_name_H-M "C 2/C"
_symmetry_group_IT_number 15
_symmetry_cell_setting 'monoclinic'
loop_
_space_group_symop_operation_xyz
x,y,z
-x,y,1/2-z
-x,-y,-z
x,-y,1/2+z
1/2+x,1/2+y,z
1/2-x,1/2+y,1/2-z
1/2-x,1/2-y,-z
1/2+x,1/2-y,1/2+z
loop_
_atom_site_type_symbol
_atom_site_label
_atom_site_fract_x
_atom_site_fract_y
_atom_site_fract_z
Si Si1 0.000000 0.036342 0.250000
Si Si2 0.606682 0.830936 0.654239
Si Si3 0.816214 0.100319 0.773731
Si Si4 0.734206 0.632165 0.482070
Si Si5 0.334120 0.153738 0.036018
O O1 0.096339 0.109586 0.368210
O O2 0.062984 0.966196 0.175431
O O3 0.651507 0.717165 0.694977
O O4 0.670167 0.897978 0.577273
O O5 0.641797 0.889367 0.806649
O O6 0.464503 0.822960 0.545282
O O7 0.735295 0.077564 0.599898
O O8 0.743561 0.075729 0.867611
O O9 0.750000 0.750000 0.500000
O O10 0.250000 0.250000 0.000000
#
# Coordination Sequence:
#
# PCOD8141762 Si02
#       5
#     4   8   8   8   8
#     4  12  24  42  66  94 128 166 218 276 326 386
#     4   9  19  37  61  95 132 172 215 257 315 387
#     4  10  21  37  63  95 126 168 218 267 316 374
#     4  10  24  40  61  95 130 169 212 266 328 385
#     4   9  17  33  60  91 128 172 215 257 313 385
#
# _framework density 23.694807999999998
#
# number of rings (size 3 to 8) (size 9 to 14) (size 15 to 20)
#    0.000    2.222    0.000    3.333    0.000   15.111 
#    0.000    1.111    0.000    2.667    0.000    0.000 
#    0.000    0.000    0.000    0.000    0.000    0.000 
#
# Total GULP energy -222989.385537 kJ/mol
# GULP energy per Si atom -12388.299197 kJ/mol
# Density = 2.364088 g / cm^3
# Si number density = 23.694808 Si / 1000 Ang^3
#
#
#
# Elastic Constant Matrix: (Units=GPa)
#
#
# Indices 1 2 3 4 5 6 
#
# 1 206.1445 37.1764 112.5439 0.0000 -16.0353 0.0000
# 2 37.1764 70.4160 27.6084 0.0000 2.5846 0.0000
# 3 112.5439 27.6084 143.7715 0.0000 -9.9109 0.0000
# 4 0.0000 0.0000 0.0000 19.3371 0.0000 17.6683
# 5 -16.0353 2.5846 -9.9109 0.0000 53.8082 0.0000
# 6 0.0000 0.0000 0.0000 17.6683 0.0000 36.4211
#
#
#
# Elastic Compliance Matrix: (Units=1/GPa)
#
#
# Indices 1 2 3 4 5 6 
#
# 1 0.008875 -0.002230 -0.006411 0.000000 0.001571 0.000000
# 2 -0.002230 0.016008 -0.001446 0.000000 -0.001700 0.000000
# 3 -0.006411 -0.001446 0.012281 0.000000 0.000421 0.000000
# 4 0.000000 0.000000 0.000000 0.092885 0.000000 -0.045059
# 5 0.001571 -0.001700 0.000421 0.000000 0.019212 0.000000
# 6 0.000000 0.000000 0.000000 -0.045059 0.000000 0.049315
#
#
# Mechanical properties :
#
#
# Convention : Reuss Voigt Hill
#
# Bulk Modulus (GPa) = 58.85580 86.10993 72.48287
# Shear Modulus (GPa) = 22.28036 38.11351 30.19694
#
# Velocity S-wave (km/s) = 3.06977 4.01498 3.57376
# Velocity P-wave (km/s) = 6.12027 7.61010 6.90548
#
# Compressibility (1/GPa) = 0.01699068
#
# Stress axis : x y z
#
# Youngs Moduli (GPa) = 112.66981 62.46978 81.42819
#
# Poissons Ratio (x) = 0.13930 0.52205
# Poissons Ratio (y) = 0.25124 0.11771
# Poissons Ratio (z) = 0.72235 0.09031
#
# Static dielectric constant tensor:
#      x y z
#    x 6.763270 0.000000 -2.320770 
#    y 0.000000 3.898380 0.000000 
#    z -2.320770 0.000000 6.589700 
# 
# 
# High freq. dielectric constant tensor:
#      x y z
#    x 1.945410 0.000000 -0.015110 
#    y 0.000000 1.926880 0.000000 
#    z -0.015110 0.000000 1.943710 
# 
# From -- ./inp_files/85370.got.cif
#   From: 2010.06.25/outbox.cif.g09.slc.cpg/sg15_43_cif.got.tgz:85370.got - 2010.06.28 07:06:18.
