data_PCOD8141975
_publ_section_title
;
Structure prediction by ZEFSAII (Michael W. Deem and Ramdas Pophale) SiO2 
 PCOD8141975
Probable space group: C 2/C
;
_chemical_formula_sum "Si O2"
_cell_formula_units_Z 48
_cell_length_a 10.014048
_cell_length_b 9.992791
_cell_length_c 26.473105
_cell_angle_alpha 90.000000
_cell_angle_beta 102.046116
_cell_angle_gamma 90.000000
_cell_volume 2590.784572
_symmetry_space_group_name_H-M "C 2/C"
_symmetry_group_IT_number 15
_symmetry_cell_setting 'monoclinic'
loop_
_space_group_symop_operation_xyz
x,y,z
-x,y,1/2-z
-x,-y,-z
x,-y,1/2+z
1/2+x,1/2+y,z
1/2-x,1/2+y,1/2-z
1/2-x,1/2-y,-z
1/2+x,1/2-y,1/2+z
loop_
_atom_site_type_symbol
_atom_site_label
_atom_site_fract_x
_atom_site_fract_y
_atom_site_fract_z
Si Si1 0.366229 0.221031 0.268533
Si Si2 0.756320 0.254483 0.560388
Si Si3 0.776184 0.030636 0.102674
Si Si4 0.037301 0.027197 0.060350
Si Si5 0.345773 0.495122 0.724263
Si Si6 0.563710 0.246585 0.109875
O O1 0.500000 0.169237 0.250000
O O2 0.307989 0.355572 0.238707
O O3 0.252334 0.107377 0.254434
O O4 0.404228 0.252417 0.328806
O O5 0.750000 0.250000 0.500000
O O6 0.652231 0.360855 0.575232
O O7 0.907392 0.296025 0.589673
O O8 0.715631 0.109518 0.578501
O O9 0.828828 0.014407 0.163372
O O10 0.657696 0.139937 0.088459
O O11 0.902390 0.078178 0.078326
O O12 0.094452 0.891724 0.089395
O O13 0.000000 0.000000 0.000000
O O14 0.500000 0.457479 0.750000
#
# Coordination Sequence:
#
# PCOD8141975 Si02
#       6
#     8   8   8   8   8   8
#     4  10  21  38  60  86 116 151 187 236 289 344
#     4  11  21  39  58  82 112 152 194 234 280 334
#     4  10  23  39  57  87 118 147 194 239 285 340
#     4  11  21  39  58  82 112 152 194 234 280 334
#     4  10  21  38  60  86 116 151 187 236 289 344
#     4  10  23  39  57  87 118 147 194 239 285 340
#
# _framework density 18.527204999999999
#
# number of rings (size 3 to 8) (size 9 to 14) (size 15 to 20)
#    0.000    1.667    3.333    4.000    0.000    8.667 
#    0.000    6.667    0.000    0.000    0.000    0.000 
#    0.000    0.000    0.000    0.000    0.000    0.000 
#
# Total GULP energy -297678.585883 kJ/mol
# GULP energy per Si atom -12403.274412 kJ/mol
# Density = 1.848504 g / cm^3
# Si number density = 18.527205 Si / 1000 Ang^3
#
#
#
# Elastic Constant Matrix: (Units=GPa)
#
#
# Indices 1 2 3 4 5 6 
#
# 1 121.9435 88.3472 18.6354 0.0000 -23.8420 0.0000
# 2 88.3472 109.0955 12.0687 0.0000 -21.0516 0.0000
# 3 18.6354 12.0687 55.9037 0.0000 -22.1769 0.0000
# 4 0.0000 0.0000 0.0000 12.2307 0.0000 -14.3629
# 5 -23.8420 -21.0516 -22.1769 0.0000 25.6752 0.0000
# 6 0.0000 0.0000 0.0000 -14.3629 0.0000 43.0048
#
#
#
# Elastic Compliance Matrix: (Units=1/GPa)
#
#
# Indices 1 2 3 4 5 6 
#
# 1 0.020801 -0.015684 -0.001501 0.000000 0.005160 0.000000
# 2 -0.015684 0.022836 0.002964 0.000000 0.006720 0.000000
# 3 -0.001501 0.002964 0.027625 0.000000 0.024898 0.000000
# 4 0.000000 0.000000 0.000000 0.134522 0.000000 0.044928
# 5 0.005160 0.006720 0.024898 0.000000 0.070755 0.000000
# 6 0.000000 0.000000 0.000000 0.044928 0.000000 0.038258
#
#
# Mechanical properties :
#
#
# Convention : Reuss Voigt Hill
#
# Bulk Modulus (GPa) = 23.35292 58.33836 40.84564
# Shear Modulus (GPa) = 13.98548 27.37488 20.68018
#
# Velocity S-wave (km/s) = 2.75046 3.84806 3.34459
# Velocity P-wave (km/s) = 4.76641 7.16238 6.08352
#
# Compressibility (1/GPa) = 0.04282119
#
# Stress axis : x y z
#
# Youngs Moduli (GPa) = 48.07352 43.79077 36.19871
#
# Poissons Ratio (x) = 0.68679 0.05434
# Poissons Ratio (y) = 0.75396 -0.10729
# Poissons Ratio (z) = 0.07217 -0.12980
#
# Static dielectric constant tensor:
#      x y z
#    x 3.304820 0.000000 -0.074510 
#    y 0.000000 3.716360 0.000000 
#    z -0.074510 0.000000 3.550000 
# 
# 
# High freq. dielectric constant tensor:
#      x y z
#    x 1.723370 0.000000 -0.004620 
#    y 0.000000 1.722860 0.000000 
#    z -0.004620 0.000000 1.736790 
# 
# From -- ./inp_files/263243.got.cif
#   From: 2010.06.25/outbox.cif.g09.slc.cpg/sg15_132_cif.got.tgz:263243.got - 2010.06.28 07:06:18.
