data_PCOD8141096
_publ_section_title
;
Structure prediction by ZEFSAII (Michael W. Deem and Ramdas Pophale) SiO2 
 PCOD8141096
Probable space group: C 2/C
;
_chemical_formula_sum "Si O2"
_cell_formula_units_Z 60
_cell_length_a 9.083323
_cell_length_b 24.265678
_cell_length_c 18.926139
_cell_angle_alpha 90.000000
_cell_angle_beta 136.110794
_cell_angle_gamma 90.000000
_cell_volume 2892.005798
_symmetry_space_group_name_H-M "C 2/C"
_symmetry_group_IT_number 15
_symmetry_cell_setting 'monoclinic'
loop_
_space_group_symop_operation_xyz
x,y,z
-x,y,1/2-z
-x,-y,-z
x,-y,1/2+z
1/2+x,1/2+y,z
1/2-x,1/2+y,1/2-z
1/2-x,1/2-y,-z
1/2+x,1/2-y,1/2+z
loop_
_atom_site_type_symbol
_atom_site_label
_atom_site_fract_x
_atom_site_fract_y
_atom_site_fract_z
Si Si1 0.322638 0.967926 0.133517
Si Si2 0.057537 0.160631 0.097175
Si Si3 0.807828 0.314841 0.814839
Si Si4 0.129624 0.072569 0.000901
Si Si5 0.865513 0.645993 0.977059
Si Si6 0.157440 0.249532 0.861966
Si Si7 0.578989 0.142121 0.907348
Si Si8 0.500000 0.221697 0.750000
O O1 0.500000 0.986592 0.250000
O O2 0.415211 0.919978 0.117319
O O3 0.110351 0.946146 0.099173
O O4 0.272844 0.019989 0.067488
O O5 0.151880 0.150867 0.208987
O O6 0.136897 0.221507 0.102465
O O7 0.136084 0.114079 0.069793
O O8 0.804759 0.161583 0.016151
O O9 0.704497 0.260623 0.813574
O O10 0.024734 0.298463 0.851019
O O11 0.897501 0.354805 0.906996
O O12 0.220972 0.098470 0.960635
O O13 0.739144 0.703732 0.945449
O O14 0.896644 0.641168 0.903726
O O15 0.000000 0.221324 0.750000
O O16 0.512428 0.183556 0.822673
#
# Coordination Sequence:
#
# PCOD8141096 Si02
#       8
#     8   8   8   8   8   8   8   4
#     4  10  23  45  70  93 120 168 221 268 326 395
#     4  10  21  41  62  92 129 170 221 254 320 390
#     4  11  23  35  60  95 129 173 213 256 311 383
#     4  10  24  41  70  96 126 165 218 272 327 384
#     4  12  24  38  62  96 132 166 205 273 323 380
#     4  10  21  35  56  90 127 168 213 252 306 389
#     4  11  24  41  64  89 127 173 215 270 322 380
#     4  12  24  40  60  88 134 180 220 254 322 388
#
# _framework density 20.746846000000001
#
# number of rings (size 3 to 8) (size 9 to 14) (size 15 to 20)
#    0.000    1.333    2.000    3.600    5.600    3.200 
#    0.000    0.000    0.000    0.000    0.000    0.000 
#    0.000    0.000    0.000    0.000    0.000    0.000 
#
# Total GULP energy -371992.186080 kJ/mol
# GULP energy per Si atom -12399.739536 kJ/mol
# Density = 2.069963 g / cm^3
# Si number density = 20.746846 Si / 1000 Ang^3
#
#
#
# Elastic Constant Matrix: (Units=GPa)
#
#
# Indices 1 2 3 4 5 6 
#
# 1 101.2243 27.1421 13.7823 0.0000 -5.0943 0.0000
# 2 27.1421 69.4723 3.0176 0.0000 6.1591 0.0000
# 3 13.7823 3.0176 74.1302 -0.0001 0.6866 -0.0001
# 4 0.0000 0.0000 -0.0001 7.9476 0.0000 -3.8572
# 5 -5.0943 6.1591 0.6866 0.0000 26.0740 0.0000
# 6 0.0000 0.0000 -0.0001 -3.8572 0.0000 27.9679
#
#
#
# Elastic Compliance Matrix: (Units=1/GPa)
#
#
# Indices 1 2 3 4 5 6 
#
# 1 0.011597 -0.004749 -0.001995 0.000000 0.003440 0.000000
# 2 -0.004749 0.016671 0.000250 0.000000 -0.004872 0.000000
# 3 -0.001995 0.000250 0.013858 0.000000 -0.000814 0.000000
# 4 0.000000 0.000000 0.000000 0.134851 0.000000 0.018598
# 5 0.003440 -0.004872 -0.000814 0.000000 0.040197 0.000000
# 6 0.000000 0.000000 0.000000 0.018598 0.000000 0.038320
#
#
# Mechanical properties :
#
#
# Convention : Reuss Voigt Hill
#
# Bulk Modulus (GPa) = 34.32043 36.96785 35.64414
# Shear Modulus (GPa) = 17.97297 25.79023 21.88160
#
# Velocity S-wave (km/s) = 2.94649 3.52958 3.25113
# Velocity P-wave (km/s) = 5.30605 5.87092 5.59562
#
# Compressibility (1/GPa) = 0.02913716
#
# Stress axis : x y z
#
# Youngs Moduli (GPa) = 86.22743 59.98499 72.16046
#
# Poissons Ratio (x) = 0.28488 0.14394
# Poissons Ratio (y) = 0.40952 -0.01800
# Poissons Ratio (z) = 0.17200 -0.01497
#
# Static dielectric constant tensor:
#      x y z
#    x 3.742310 0.000000 -0.043490 
#    y 0.000000 3.607880 0.000000 
#    z -0.043490 0.000000 4.155310 
# 
# 
# High freq. dielectric constant tensor:
#      x y z
#    x 1.810390 0.000000 0.004080 
#    y 0.000000 1.792900 0.000000 
#    z 0.004080 0.000000 1.825970 
# 
# From -- ./inp_files/234581.got.cif
#   From: 2010.06.25/outbox.cif.g09.slc.cpg/sg15_118_cif.got.tgz:234581.got - 2010.06.28 07:06:18.
