data_PCOD8141041
_publ_section_title
;
Structure prediction by ZEFSAII (Michael W. Deem and Ramdas Pophale) SiO2 
 PCOD8141041
Probable space group: C 2/C
;
_chemical_formula_sum "Si O2"
_cell_formula_units_Z 64
_cell_length_a 29.883913
_cell_length_b 11.529876
_cell_length_c 17.986187
_cell_angle_alpha 90.000000
_cell_angle_beta 31.312600
_cell_angle_gamma 90.000000
_cell_volume 3220.770463
_symmetry_space_group_name_H-M "C 2/C"
_symmetry_group_IT_number 15
_symmetry_cell_setting 'monoclinic'
loop_
_space_group_symop_operation_xyz
x,y,z
-x,y,1/2-z
-x,-y,-z
x,-y,1/2+z
1/2+x,1/2+y,z
1/2-x,1/2+y,1/2-z
1/2-x,1/2-y,-z
1/2+x,1/2-y,1/2+z
loop_
_atom_site_type_symbol
_atom_site_label
_atom_site_fract_x
_atom_site_fract_y
_atom_site_fract_z
Si Si1 0.487234 0.764763 0.060994
Si Si2 0.076890 0.403489 0.480617
Si Si3 0.687321 0.292124 0.872252
Si Si4 0.755833 0.027156 0.650576
Si Si5 0.147455 0.915135 0.785108
Si Si6 0.766572 0.387215 0.483229
Si Si7 0.343756 0.650060 0.647424
Si Si8 0.544338 0.085516 0.762888
O O1 0.444205 0.645109 0.097743
O O2 0.442593 0.808005 0.199351
O O3 0.480109 0.864366 0.008857
O O4 0.585391 0.748446 0.944721
O O5 0.100292 0.286963 0.495777
O O6 0.164851 0.467191 0.326224
O O7 0.015380 0.484195 0.617525
O O8 0.693359 0.404305 0.916429
O O9 0.702331 0.335465 0.765116
O O10 0.759128 0.206425 0.802075
O O11 0.741639 0.055744 0.585656
O O12 0.822501 0.119386 0.591681
O O13 0.194880 0.935582 0.640419
O O14 0.126722 0.038322 0.849473
O O15 0.750000 0.250000 0.500000
O O16 0.854754 0.439533 0.394172
O O17 0.500000 0.126256 0.750000
#
# Coordination Sequence:
#
# PCOD8141041 Si02
#       8
#     8   8   8   8   8   8   8   8
#     4  11  21  39  63  88 121 158 205 251 301 362
#     4  10  21  42  59  90 126 154 211 250 294 364
#     4   9  20  38  63  85 116 162 203 253 296 362
#     4  10  21  39  63  90 121 167 199 252 309 365
#     4  10  22  40  56  89 124 156 198 255 307 358
#     4  12  23  41  60  91 131 156 196 256 323 358
#     4  10  21  34  66  86 115 160 210 246 295 373
#     4  12  27  36  63  94 121 159 195 260 304 362
#
# _framework density 19.871023000000001
#
# number of rings (size 3 to 8) (size 9 to 14) (size 15 to 20)
#    0.000    1.500    2.500    3.000   10.500    0.000 
#    0.000    1.875    0.000    0.000    0.000    0.000 
#    0.000    0.000    0.000    0.000    0.000    0.000 
#
# Total GULP energy -396431.407242 kJ/mol
# GULP energy per Si atom -12388.481476 kJ/mol
# Density = 1.982580 g / cm^3
# Si number density = 19.871023 Si / 1000 Ang^3
#
#
#
# Elastic Constant Matrix: (Units=GPa)
#
#
# Indices 1 2 3 4 5 6 
#
# 1 110.2073 25.9881 11.0601 0.0000 -14.8731 0.0000
# 2 25.9881 71.9487 5.6191 0.0002 -9.6899 0.0000
# 3 11.0601 5.6191 47.8489 0.0001 -9.3577 0.0000
# 4 0.0000 0.0002 0.0001 23.2021 0.0000 -9.9094
# 5 -14.8731 -9.6899 -9.3577 0.0000 25.9502 0.0000
# 6 0.0000 0.0000 0.0000 -9.9094 0.0000 30.9680
#
#
#
# Elastic Compliance Matrix: (Units=1/GPa)
#
#
# Indices 1 2 3 4 5 6 
#
# 1 0.010527 -0.003111 -0.001200 0.000000 0.004439 0.000000
# 2 -0.003111 0.015576 -0.000346 0.000000 0.003908 0.000000
# 3 -0.001200 -0.000346 0.022655 0.000000 0.007353 0.000000
# 4 0.000000 0.000000 0.000000 0.049922 0.000000 0.015974
# 5 0.004439 0.003908 0.007353 0.000000 0.045191 0.000000
# 6 0.000000 0.000000 0.000000 0.015974 0.000000 0.037403
#
#
# Mechanical properties :
#
#
# Convention : Reuss Voigt Hill
#
# Bulk Modulus (GPa) = 25.35167 35.03773 30.19470
# Shear Modulus (GPa) = 24.54177 28.51323 26.52750
#
# Velocity S-wave (km/s) = 3.51815 3.79214 3.65771
# Velocity P-wave (km/s) = 5.41193 6.06997 5.75037
#
# Compressibility (1/GPa) = 0.03944513
#
# Stress axis : x y z
#
# Youngs Moduli (GPa) = 94.99512 64.20219 44.14031
#
# Poissons Ratio (x) = 0.19972 0.05296
# Poissons Ratio (y) = 0.29551 0.01526
# Poissons Ratio (z) = 0.11397 0.02220
#
# Static dielectric constant tensor:
#      x y z
#    x 3.896940 0.000000 -0.141260 
#    y 0.000000 3.726610 0.000000 
#    z -0.141260 0.000000 3.416130 
# 
# 
# High freq. dielectric constant tensor:
#      x y z
#    x 1.792600 0.000000 -0.019620 
#    y 0.000000 1.778650 0.000000 
#    z -0.019620 0.000000 1.741900 
# 
# From -- ./inp_files/215079.got.cif
#   From: 2010.06.25/outbox.cif.g09.slc.cpg/sg15_108_cif.got.tgz:215079.got - 2010.06.28 07:06:18.
