data_PCOD8141737
_publ_section_title
;
Structure prediction by ZEFSAII (Michael W. Deem and Ramdas Pophale) SiO2 
 PCOD8141737
Probable space group: C 2/C
;
_chemical_formula_sum "Si O2"
_cell_formula_units_Z 52
_cell_length_a 12.140516
_cell_length_b 27.443377
_cell_length_c 9.340551
_cell_angle_alpha 90.000000
_cell_angle_beta 125.246883
_cell_angle_gamma 90.000000
_cell_volume 2541.530731
_symmetry_space_group_name_H-M "C 2/C"
_symmetry_group_IT_number 15
_symmetry_cell_setting 'monoclinic'
loop_
_space_group_symop_operation_xyz
x,y,z
-x,y,1/2-z
-x,-y,-z
x,-y,1/2+z
1/2+x,1/2+y,z
1/2-x,1/2+y,1/2-z
1/2-x,1/2-y,-z
1/2+x,1/2-y,1/2+z
loop_
_atom_site_type_symbol
_atom_site_label
_atom_site_fract_x
_atom_site_fract_y
_atom_site_fract_z
Si Si1 0.161754 0.556308 0.389125
Si Si2 0.638705 0.027204 0.066520
Si Si3 0.750234 0.140215 0.660698
Si Si4 0.108542 0.259626 0.055370
Si Si5 0.855015 0.623458 0.610703
Si Si6 0.500000 0.691255 0.750000
Si Si7 0.811002 0.718030 0.424568
O O1 0.216276 0.545247 0.268505
O O2 0.218011 0.512992 0.533175
O O3 0.220764 0.604871 0.504315
O O4 0.000000 0.560277 0.250000
O O5 0.618060 0.072494 0.946166
O O6 0.500000 0.000000 0.000000
O O7 0.652603 0.185423 0.559005
O O8 0.724149 0.116483 0.797973
O O9 0.906456 0.156589 0.777870
O O10 0.222710 0.228925 0.220780
O O11 0.099188 0.227272 0.907327
O O12 0.964131 0.264025 0.022911
O O13 0.787220 0.661529 0.450530
O O14 0.000000 0.647285 0.750000
O O15 0.750000 0.750000 0.500000
#
# Coordination Sequence:
#
# PCOD8141737 Si02
#       7
#     8   8   8   8   8   4   8
#     4  10  21  37  63  94 130 162 212 269 345 403
#     4  10  21  37  62  99 135 165 206 279 348 410
#     4  12  25  41  64  95 131 180 225 277 337 406
#     4  12  25  42  64  94 136 184 230 279 330 400
#     4  12  21  38  67  99 136 173 220 279 349 407
#     4  12  28  44  62  90 140 182 232 284 330 394
#     4  12  23  41  64  98 136 180 229 275 335 404
#
# _framework density 20.46011
#
# number of rings (size 3 to 8) (size 9 to 14) (size 15 to 20)
#    0.000    0.615    4.615    5.077    3.231    0.000 
#    0.000    0.000    0.000    3.692    0.000    0.000 
#    0.000    0.000    0.000    0.000    0.000    0.000 
#
# Total GULP energy -322200.098016 kJ/mol
# GULP energy per Si atom -12392.311462 kJ/mol
# Density = 2.041354 g / cm^3
# Si number density = 20.460110 Si / 1000 Ang^3
#
#
#
# Elastic Constant Matrix: (Units=GPa)
#
#
# Indices 1 2 3 4 5 6 
#
# 1 95.6950 39.9567 24.9763 0.0000 -9.8933 0.0000
# 2 39.9567 149.1088 76.0166 0.0000 -10.3236 0.0000
# 3 24.9763 76.0166 110.3960 0.0000 -21.3942 0.0000
# 4 0.0000 0.0000 0.0000 44.9812 0.0000 -12.0361
# 5 -9.8933 -10.3236 -21.3942 0.0000 34.9091 0.0000
# 6 0.0000 0.0000 0.0000 -12.0361 0.0000 26.3962
#
#
#
# Elastic Compliance Matrix: (Units=1/GPa)
#
#
# Indices 1 2 3 4 5 6 
#
# 1 0.011979 -0.002926 -0.000233 0.000000 0.002387 0.000000
# 2 -0.002926 0.011117 -0.007395 0.000000 -0.002074 0.000000
# 3 -0.000233 -0.007395 0.015622 0.000000 0.007321 0.000000
# 4 0.000000 0.000000 0.000000 0.025321 0.000000 0.011546
# 5 0.002387 -0.002074 0.007321 0.000000 0.033196 0.000000
# 6 0.000000 0.000000 0.000000 0.011546 0.000000 0.043149
#
#
# Mechanical properties :
#
#
# Convention : Reuss Voigt Hill
#
# Bulk Modulus (GPa) = 56.78440 70.78878 63.78659
# Shear Modulus (GPa) = 29.87557 35.54065 32.70811
#
# Velocity S-wave (km/s) = 3.82538 4.17234 4.00262
# Velocity P-wave (km/s) = 6.87934 7.60820 7.25294
#
# Compressibility (1/GPa) = 0.01761047
#
# Stress axis : x y z
#
# Youngs Moduli (GPa) = 83.47822 89.95257 64.01383
#
# Poissons Ratio (x) = 0.26322 0.01490
# Poissons Ratio (y) = 0.24427 0.47337
# Poissons Ratio (z) = 0.01943 0.66518
#
# Static dielectric constant tensor:
#      x y z
#    x 4.000420 0.000000 -0.417050 
#    y 0.000000 4.275490 0.000000 
#    z -0.417050 0.000000 3.777710 
# 
# 
# High freq. dielectric constant tensor:
#      x y z
#    x 1.783330 0.000000 -0.029710 
#    y 0.000000 1.812520 0.000000 
#    z -0.029710 0.000000 1.798690 
# 
# From -- ./inp_files/34447.got.cif
#   From: 2010.06.25/outbox.cif.g09.slc.cpg/sg15_18_cif.got.tgz:34447.got - 2010.06.28 07:06:18.
