data_PCOD8141229
_publ_section_title
;
Structure prediction by ZEFSAII (Michael W. Deem and Ramdas Pophale) SiO2 
 PCOD8141229
Probable space group: C 2/C
;
_chemical_formula_sum "Si O2"
_cell_formula_units_Z 40
_cell_length_a 26.409698
_cell_length_b 8.908594
_cell_length_c 19.747681
_cell_angle_alpha 90.000000
_cell_angle_beta 155.270988
_cell_angle_gamma 90.000000
_cell_volume 1943.589977
_symmetry_space_group_name_H-M "C 2/C"
_symmetry_group_IT_number 15
_symmetry_cell_setting 'monoclinic'
loop_
_space_group_symop_operation_xyz
x,y,z
-x,y,1/2-z
-x,-y,-z
x,-y,1/2+z
1/2+x,1/2+y,z
1/2-x,1/2+y,1/2-z
1/2-x,1/2-y,-z
1/2+x,1/2-y,1/2+z
loop_
_atom_site_type_symbol
_atom_site_label
_atom_site_fract_x
_atom_site_fract_y
_atom_site_fract_z
Si Si1 0.351004 0.300766 0.933001
Si Si2 0.088139 0.015059 0.722353
Si Si3 0.645681 0.549251 0.932239
Si Si4 0.221591 0.470632 0.660334
Si Si5 0.431996 0.271102 0.601689
O O1 0.260031 0.398752 0.777709
O O2 0.343145 0.128016 0.902660
O O3 0.488842 0.354621 0.090723
O O4 0.309220 0.320729 0.961768
O O5 0.184598 0.061635 0.900524
O O6 0.159309 0.995946 0.739629
O O7 0.023835 0.857316 0.662554
O O8 0.500000 0.550080 0.750000
O O9 0.673741 0.387307 0.001458
O O10 0.124923 0.366886 0.506356
O O11 0.500000 0.204197 0.750000
#
# Coordination Sequence:
#
# PCOD8141229 Si02
#       5
#     8   8   8   8   8
#     4  10  21  36  54  83 116 141 184 231 267 327
#     4   9  20  40  60  79 111 148 180 225 279 326
#     4   7  15  35  56  77 111 140 171 228 272 312
#     4  12  22  36  60  81 110 153 182 222 282 322
#     4   8  18  36  57  84 112 138 185 233 266 327
#
# _framework density 20.580473000000001
#
# number of rings (size 3 to 8) (size 9 to 14) (size 15 to 20)
#    0.000    3.600    0.000    3.000    0.000    6.400 
#    0.000    8.000    0.000    0.000    0.000    0.000 
#    0.000    0.000    0.000    0.000    0.000    0.000 
#
# Total GULP energy -247779.078880 kJ/mol
# GULP energy per Si atom -12388.953944 kJ/mol
# Density = 2.053363 g / cm^3
# Si number density = 20.580473 Si / 1000 Ang^3
#
#
#
# Elastic Constant Matrix: (Units=GPa)
#
#
# Indices 1 2 3 4 5 6 
#
# 1 58.4956 33.5840 35.9298 0.0000 -4.9799 0.0000
# 2 33.5840 125.9490 54.1886 0.0000 -17.8675 0.0000
# 3 35.9298 54.1886 77.1676 0.0000 -22.3978 0.0000
# 4 0.0000 0.0000 0.0000 40.3215 0.0000 -11.8601
# 5 -4.9799 -17.8675 -22.3978 0.0000 30.9324 0.0000
# 6 0.0000 0.0000 0.0000 -11.8601 0.0000 26.7276
#
#
#
# Elastic Compliance Matrix: (Units=1/GPa)
#
#
# Indices 1 2 3 4 5 6 
#
# 1 0.025213 -0.002538 -0.011653 0.000000 -0.005845 0.000000
# 2 -0.002538 0.011657 -0.006543 0.000000 0.001587 0.000000
# 3 -0.011653 -0.006543 0.027016 0.000000 0.013906 0.000000
# 4 0.000000 0.000000 0.000000 0.028524 0.000000 0.012657
# 5 -0.005845 0.001587 0.013906 0.000000 0.042373 0.000000
# 6 0.000000 0.000000 0.000000 0.012657 0.000000 0.043031
#
#
# Mechanical properties :
#
#
# Convention : Reuss Voigt Hill
#
# Bulk Modulus (GPa) = 44.61193 56.55745 50.58469
# Shear Modulus (GPa) = 22.05022 28.79028 25.42025
#
# Velocity S-wave (km/s) = 3.27680 3.74426 3.51830
# Velocity P-wave (km/s) = 6.00337 6.79952 6.41381
#
# Compressibility (1/GPa) = 0.02241553
#
# Stress axis : x y z
#
# Youngs Moduli (GPa) = 39.66217 85.78638 37.01550
#
# Poissons Ratio (x) = 0.21776 0.43136
# Poissons Ratio (y) = 0.10068 0.24220
# Poissons Ratio (z) = 0.46220 0.56132
#
# Static dielectric constant tensor:
#      x y z
#    x 3.881280 0.000000 -0.564710 
#    y 0.000000 3.646140 0.000000 
#    z -0.564710 0.000000 3.666300 
# 
# 
# High freq. dielectric constant tensor:
#      x y z
#    x 1.793450 0.000000 -0.040070 
#    y 0.000000 1.796420 0.000000 
#    z -0.040070 0.000000 1.789800 
# 
# From -- ./inp_files/259054.got.cif
#   From: 2010.06.25/outbox.cif.g09.slc.cpg/sg15_130_cif.got.tgz:259054.got - 2010.06.28 07:06:18.
