data_PCOD8141040
_publ_section_title
;
Structure prediction by ZEFSAII (Michael W. Deem and Ramdas Pophale) SiO2 
 PCOD8141040
Probable space group: C 2/C
;
_chemical_formula_sum "Si O2"
_cell_formula_units_Z 44
_cell_length_a 12.110436
_cell_length_b 23.839434
_cell_length_c 7.317151
_cell_angle_alpha 90.000000
_cell_angle_beta 99.494311
_cell_angle_gamma 90.000000
_cell_volume 2083.567830
_symmetry_space_group_name_H-M "C 2/C"
_symmetry_group_IT_number 15
_symmetry_cell_setting 'monoclinic'
loop_
_space_group_symop_operation_xyz
x,y,z
-x,y,1/2-z
-x,-y,-z
x,-y,1/2+z
1/2+x,1/2+y,z
1/2-x,1/2+y,1/2-z
1/2-x,1/2-y,-z
1/2+x,1/2-y,1/2+z
loop_
_atom_site_type_symbol
_atom_site_label
_atom_site_fract_x
_atom_site_fract_y
_atom_site_fract_z
Si Si1 0.749248 0.058392 0.981345
Si Si2 0.500000 0.278274 0.750000
Si Si3 0.703593 0.648823 0.229463
Si Si4 0.768221 0.436466 0.443384
Si Si5 0.569228 0.793548 0.606183
Si Si6 0.507956 0.910237 0.464418
O O1 0.819787 0.103316 0.116091
O O2 0.792709 0.994385 0.013818
O O3 0.755981 0.077709 0.774040
O O4 0.624761 0.058787 0.037883
O O5 0.408647 0.315912 0.828598
O O6 0.434334 0.242287 0.580101
O O7 0.802612 0.692308 0.306879
O O8 0.724488 0.615987 0.046435
O O9 0.902118 0.445260 0.511040
O O10 0.500000 0.762351 0.750000
O O11 0.501134 0.850779 0.560607
O O12 0.500000 0.898529 0.250000
#
# Coordination Sequence:
#
# PCOD8141040 Si02
#       6
#     8   4   8   8   8   8
#     4  10  21  34  63  94 131 164 200 247 316 380
#     4  12  28  46  62  88 124 172 222 264 306 360
#     4  11  25  43  64  93 129 164 212 261 308 379
#     4  11  19  37  62  95 131 164 201 249 315 380
#     4  11  22  41  68  94 123 159 210 265 327 368
#     4   9  18  33  57  95 132 156 188 251 317 385
#
# _framework density 21.117622000000001
#
# number of rings (size 3 to 8) (size 9 to 14) (size 15 to 20)
#    0.000    1.455    4.545    1.091    0.000    2.182 
#    0.000    0.909    0.000    0.000    0.000    0.000 
#    0.000    0.000    0.000    0.000    0.000    0.000 
#
# Total GULP energy -272752.727862 kJ/mol
# GULP energy per Si atom -12397.851266 kJ/mol
# Density = 2.106956 g / cm^3
# Si number density = 21.117622 Si / 1000 Ang^3
#
#
#
# Elastic Constant Matrix: (Units=GPa)
#
#
# Indices 1 2 3 4 5 6 
#
# 1 73.8430 42.7263 33.7607 0.0000 -8.1082 0.0000
# 2 42.7263 82.9301 47.8075 0.0000 -9.4079 0.0000
# 3 33.7607 47.8075 84.2559 0.0000 -23.2275 0.0000
# 4 0.0000 0.0000 0.0000 12.3654 0.0000 -12.4433
# 5 -8.1082 -9.4079 -23.2275 0.0000 26.7162 0.0000
# 6 0.0000 0.0000 0.0000 -12.4433 0.0000 20.7600
#
#
#
# Elastic Compliance Matrix: (Units=1/GPa)
#
#
# Indices 1 2 3 4 5 6 
#
# 1 0.019860 -0.008415 -0.003076 0.000000 0.000390 0.000000
# 2 -0.008415 0.021713 -0.009923 0.000000 -0.003535 0.000000
# 3 -0.003076 -0.009923 0.023031 0.000000 0.015596 0.000000
# 4 0.000000 0.000000 0.000000 0.203788 0.000000 0.122148
# 5 0.000390 -0.003535 0.015596 0.000000 0.049863 0.000000
# 6 0.000000 0.000000 0.000000 0.122148 0.000000 0.121384
#
#
# Mechanical properties :
#
#
# Convention : Reuss Voigt Hill
#
# Bulk Modulus (GPa) = 45.91954 54.40200 50.16077
# Shear Modulus (GPa) = 10.20983 19.75063 14.98023
#
# Velocity S-wave (km/s) = 2.20119 3.06153 2.66629
# Velocity P-wave (km/s) = 5.31528 6.18988 5.76918
#
# Compressibility (1/GPa) = 0.02177722
#
# Stress axis : x y z
#
# Youngs Moduli (GPa) = 50.35206 46.05523 43.42040
#
# Poissons Ratio (x) = 0.38755 0.13354
# Poissons Ratio (y) = 0.42370 0.43086
# Poissons Ratio (z) = 0.15486 0.45700
#
# Static dielectric constant tensor:
#      x y z
#    x 3.487310 0.000000 -0.104150 
#    y 0.000000 3.714980 0.000000 
#    z -0.104150 0.000000 3.827140 
# 
# 
# High freq. dielectric constant tensor:
#      x y z
#    x 1.792130 0.000000 -0.019170 
#    y 0.000000 1.822500 0.000000 
#    z -0.019170 0.000000 1.836360 
# 
# From -- ./inp_files/32213.got.cif
#   From: 2010.06.25/outbox.cif.g09.slc.cpg/sg15_17_cif.got.tgz:32213.got - 2010.06.28 07:06:18.
