data_PCOD8141647
_publ_section_title
;
Structure prediction by ZEFSAII (Michael W. Deem and Ramdas Pophale) SiO2 
 PCOD8141647
Probable space group: C 2/C
;
_chemical_formula_sum "Si O2"
_cell_formula_units_Z 56
_cell_length_a 10.582294
_cell_length_b 9.086578
_cell_length_c 28.583810
_cell_angle_alpha 90.000000
_cell_angle_beta 83.649756
_cell_angle_gamma 90.000000
_cell_volume 2731.664815
_symmetry_space_group_name_H-M "C 2/C"
_symmetry_group_IT_number 15
_symmetry_cell_setting 'monoclinic'
loop_
_space_group_symop_operation_xyz
x,y,z
-x,y,1/2-z
-x,-y,-z
x,-y,1/2+z
1/2+x,1/2+y,z
1/2-x,1/2+y,1/2-z
1/2-x,1/2-y,-z
1/2+x,1/2-y,1/2+z
loop_
_atom_site_type_symbol
_atom_site_label
_atom_site_fract_x
_atom_site_fract_y
_atom_site_fract_z
Si Si1 0.518473 0.899701 0.194494
Si Si2 0.306669 0.244603 0.048326
Si Si3 0.817718 0.591209 0.548865
Si Si4 0.186875 0.761136 0.857988
Si Si5 0.534311 0.794243 0.646658
Si Si6 0.284501 0.607118 0.640480
Si Si7 0.422409 0.764878 0.958432
O O1 0.500000 0.892681 0.250000
O O2 0.412815 0.791744 0.176788
O O3 0.664625 0.853727 0.178252
O O4 0.493935 0.064590 0.177790
O O5 0.235897 0.337780 0.091214
O O6 0.445101 0.317895 0.038856
O O7 0.319571 0.076568 0.065404
O O8 0.250000 0.250000 0.000000
O O9 0.857975 0.692142 0.590855
O O10 0.678803 0.634595 0.535914
O O11 0.907803 0.614838 0.500195
O O12 0.334692 0.717400 0.839068
O O13 0.181860 0.936483 0.861897
O O14 0.413346 0.686460 0.652683
O O15 0.573103 0.845496 0.592385
#
# Coordination Sequence:
#
# PCOD8141647 Si02
#       7
#     8   8   8   8   8   8   8
#     4  11  25  43  68  94 118 160 211 263 325 375
#     4  11  24  34  56  90 127 165 207 248 301 362
#     4  10  21  37  61  85 123 172 204 245 297 363
#     4  10  22  41  66  88 130 167 207 258 309 370
#     4   9  21  44  65  90 130 162 203 258 311 370
#     4  10  24  42  61  94 128 162 208 259 308 370
#     4   9  20  37  59  87 121 163 211 238 299 362
#
# _framework density 20.500319000000001
#
# number of rings (size 3 to 8) (size 9 to 14) (size 15 to 20)
#    0.000    2.000    0.000    2.143   10.000    7.429 
#    0.000    0.714    0.000    0.000    0.000    0.000 
#    0.000    0.000    0.000    0.000    0.000    0.000 
#
# Total GULP energy -347000.174051 kJ/mol
# GULP energy per Si atom -12392.863359 kJ/mol
# Density = 2.045366 g / cm^3
# Si number density = 20.500319 Si / 1000 Ang^3
#
#
#
# Elastic Constant Matrix: (Units=GPa)
#
#
# Indices 1 2 3 4 5 6 
#
# 1 117.6443 51.8849 62.0012 0.0000 -5.2346 0.0000
# 2 51.8849 90.2505 55.3381 0.0000 -1.7011 0.0000
# 3 62.0012 55.3381 158.1022 0.0000 -2.0684 0.0000
# 4 0.0000 0.0000 0.0000 22.8968 0.0000 4.5279
# 5 -5.2346 -1.7011 -2.0684 0.0000 26.9555 0.0000
# 6 0.0000 0.0000 0.0000 4.5279 0.0000 31.7378
#
#
#
# Elastic Compliance Matrix: (Units=1/GPa)
#
#
# Indices 1 2 3 4 5 6 
#
# 1 0.012519 -0.005305 -0.003028 0.000000 0.001864 0.000000
# 2 -0.005305 0.016363 -0.003651 0.000000 -0.000278 0.000000
# 3 -0.003028 -0.003651 0.008788 0.000000 -0.000144 0.000000
# 4 0.000000 0.000000 0.000000 0.044942 0.000000 -0.006412
# 5 0.001864 -0.000278 -0.000144 0.000000 0.037432 0.000000
# 6 0.000000 0.000000 0.000000 -0.006412 0.000000 0.032423
#
#
# Mechanical properties :
#
#
# Convention : Reuss Voigt Hill
#
# Bulk Modulus (GPa) = 72.97758 78.27173 75.62466
# Shear Modulus (GPa) = 27.62396 29.43621 28.53009
#
# Velocity S-wave (km/s) = 3.67480 3.79343 3.73458
# Velocity P-wave (km/s) = 7.32674 7.57960 7.45424
#
# Compressibility (1/GPa) = 0.01370284
#
# Stress axis : x y z
#
# Youngs Moduli (GPa) = 79.88022 61.11210 113.78664
#
# Poissons Ratio (x) = 0.32421 0.34455
# Poissons Ratio (y) = 0.42378 0.41539
# Poissons Ratio (z) = 0.24188 0.22309
#
# Static dielectric constant tensor:
#      x y z
#    x 4.358600 0.000000 -0.039430 
#    y 0.000000 3.625110 0.000000 
#    z -0.039430 0.000000 3.645650 
# 
# 
# High freq. dielectric constant tensor:
#      x y z
#    x 1.822340 0.000000 -0.002600 
#    y 0.000000 1.788950 0.000000 
#    z -0.002600 0.000000 1.789170 
# 
# From -- ./inp_files/309934.got.cif
#   From: 2010.06.25/outbox.cif.g09.slc.cpg/sg15_155_cif.got.tgz:309934.got - 2010.06.28 07:06:18.
