data_PCOD8141076
_publ_section_title
;
Structure prediction by ZEFSAII (Michael W. Deem and Ramdas Pophale) SiO2 
 PCOD8141076
Probable space group: C 2/C
;
_chemical_formula_sum "Si O2"
_cell_formula_units_Z 40
_cell_length_a 12.182330
_cell_length_b 27.925095
_cell_length_c 12.158901
_cell_angle_alpha 90.000000
_cell_angle_beta 24.267475
_cell_angle_gamma 90.000000
_cell_volume 1700.035170
_symmetry_space_group_name_H-M "C 2/C"
_symmetry_group_IT_number 15
_symmetry_cell_setting 'monoclinic'
loop_
_space_group_symop_operation_xyz
x,y,z
-x,y,1/2-z
-x,-y,-z
x,-y,1/2+z
1/2+x,1/2+y,z
1/2-x,1/2+y,1/2-z
1/2-x,1/2-y,-z
1/2+x,1/2-y,1/2+z
loop_
_atom_site_type_symbol
_atom_site_label
_atom_site_fract_x
_atom_site_fract_y
_atom_site_fract_z
Si Si1 0.997608 0.372862 0.378780
Si Si2 0.039926 0.961645 0.343430
Si Si3 0.858985 0.726471 0.261977
Si Si4 0.058753 0.861448 0.951826
Si Si5 0.048932 0.514889 0.829280
O O1 0.004592 0.429513 0.385778
O O2 0.000000 0.356740 0.250000
O O3 0.720949 0.358464 0.689079
O O4 0.251885 0.347835 0.205662
O O5 0.000000 0.956508 0.250000
O O6 0.950196 0.912403 0.480655
O O7 0.861591 0.003852 0.559247
O O8 0.349549 0.979294 0.083847
O O9 0.618620 0.763855 0.447574
O O10 0.719362 0.674405 0.385883
O O11 0.000000 0.736148 0.250000
O O12 0.000000 0.498744 0.750000
#
# Coordination Sequence:
#
# PCOD8141076 Si02
#       5
#     8   8   8   8   8
#     4  11  24  41  60  86 125 171 218 258 292 344
#     4  10  21  35  55  88 126 158 201 258 308 364
#     4  10  23  44  69  96 127 156 186 240 320 402
#     4  12  24  38  66  94 118 161 209 257 308 366
#     4   9  19  36  54  79 123 171 206 248 303 352
#
# _framework density 23.528925999999998
#
# number of rings (size 3 to 8) (size 9 to 14) (size 15 to 20)
#    0.000    1.600    0.000    4.200    0.000   14.400 
#    0.000    0.000    0.000   12.000    0.000    0.000 
#    0.000    0.000    0.000    0.000    0.000    0.000 
#
# Total GULP energy -247807.061361 kJ/mol
# GULP energy per Si atom -12390.353068 kJ/mol
# Density = 2.347537 g / cm^3
# Si number density = 23.528926 Si / 1000 Ang^3
#
#
#
# Elastic Constant Matrix: (Units=GPa)
#
#
# Indices 1 2 3 4 5 6 
#
# 1 54.2540 -9.4879 52.0572 0.0001 -8.6540 -0.0002
# 2 -9.4879 70.2774 35.9685 -0.0001 -19.2546 -0.0001
# 3 52.0572 35.9685 164.8996 -0.0015 -18.0864 0.0019
# 4 0.0001 -0.0001 -0.0015 37.5545 -0.0001 -9.6234
# 5 -8.6540 -19.2546 -18.0864 -0.0001 47.3930 -0.0002
# 6 -0.0002 -0.0001 0.0019 -9.6234 -0.0002 31.3218
#
#
#
# Elastic Compliance Matrix: (Units=1/GPa)
#
#
# Indices 1 2 3 4 5 6 
#
# 1 0.034125 0.013011 -0.012887 0.000000 0.006599 0.000001
# 2 0.013011 0.022422 -0.008076 0.000000 0.008403 0.000001
# 3 -0.012887 -0.008076 0.011769 0.000000 -0.001143 -0.000001
# 4 0.000000 0.000000 0.000000 0.028904 0.000000 0.008880
# 5 0.006599 0.008403 -0.001143 0.000000 0.025283 0.000000
# 6 0.000001 0.000001 -0.000001 0.008880 0.000000 0.034655
#
#
# Mechanical properties :
#
#
# Convention : Reuss Voigt Hill
#
# Bulk Modulus (GPa) = 19.08022 49.61187 34.34604
# Shear Modulus (GPa) = 26.24219 37.31341 31.77780
#
# Velocity S-wave (km/s) = 3.34326 3.98660 3.67902
# Velocity P-wave (km/s) = 4.79896 6.50553 5.71629
#
# Compressibility (1/GPa) = 0.05241031
#
# Stress axis : x y z
#
# Youngs Moduli (GPa) = 29.30391 44.59964 84.96947
#
# Poissons Ratio (x) = -0.58028 1.09501
# Poissons Ratio (y) = -0.38127 0.68625
# Poissons Ratio (z) = 0.37764 0.36021
#
# Static dielectric constant tensor:
#      x y z
#    x 4.806110 0.000000 -0.114360 
#    y 0.000000 3.789470 0.000000 
#    z -0.114360 0.000000 5.139110 
# 
# 
# High freq. dielectric constant tensor:
#      x y z
#    x 1.962050 0.000000 -0.004960 
#    y 0.000000 1.893990 0.000000 
#    z -0.004960 0.000000 1.969190 
# 
# From -- ./inp_files/157144.got.cif
#   From: 2010.06.25/outbox.cif.g09.slc.cpg/sg15_79_cif.got.tgz:157144.got - 2010.06.28 07:06:18.
