data_PCOD8141115
_publ_section_title
;
Structure prediction by ZEFSAII (Michael W. Deem and Ramdas Pophale) SiO2 
 PCOD8141115
Probable space group: C 2/C
;
_chemical_formula_sum "Si O2"
_cell_formula_units_Z 64
_cell_length_a 9.618933
_cell_length_b 26.154959
_cell_length_c 14.828942
_cell_angle_alpha 90.000000
_cell_angle_beta 110.867906
_cell_angle_gamma 90.000000
_cell_volume 3485.987856
_symmetry_space_group_name_H-M "C 2/C"
_symmetry_group_IT_number 15
_symmetry_cell_setting 'monoclinic'
loop_
_space_group_symop_operation_xyz
x,y,z
-x,y,1/2-z
-x,-y,-z
x,-y,1/2+z
1/2+x,1/2+y,z
1/2-x,1/2+y,1/2-z
1/2-x,1/2-y,-z
1/2+x,1/2-y,1/2+z
loop_
_atom_site_type_symbol
_atom_site_label
_atom_site_fract_x
_atom_site_fract_y
_atom_site_fract_z
Si Si1 0.890176 0.273498 0.484982
Si Si2 0.869497 0.360144 0.350353
Si Si3 0.610423 0.065801 0.493086
Si Si4 0.849072 0.119961 0.161741
Si Si5 0.798091 0.375150 0.135059
Si Si6 0.290802 0.958241 0.998451
Si Si7 0.862245 0.203381 0.017067
Si Si8 0.969267 0.353043 0.845207
O O1 0.750000 0.250000 0.500000
O O2 0.833993 0.304970 0.384531
O O3 0.976857 0.224718 0.468277
O O4 0.993296 0.307427 0.575939
O O5 0.813399 0.401060 0.410720
O O6 0.783583 0.373166 0.239005
O O7 0.044491 0.359379 0.370606
O O8 0.454923 0.048378 0.498172
O O9 0.577159 0.099283 0.395878
O O10 0.725316 0.019735 0.495804
O O11 0.703331 0.129994 0.189133
O O12 0.000000 0.109155 0.250000
O O13 0.825005 0.069125 0.095559
O O14 0.870929 0.171515 0.110513
O O15 0.767681 0.432704 0.091876
O O16 0.680256 0.334312 0.073538
O O17 0.750000 0.250000 0.000000
O O18 0.000000 0.335712 0.750000
#
# Coordination Sequence:
#
# PCOD8141115 Si02
#       8
#     8   8   8   8   8   8   8   8
#     4  11  23  36  53  79 112 149 185 227 282 339
#     4   9  17  32  52  80 106 140 182 228 274 324
#     4   8  15  32  54  75 112 144 168 225 279 325
#     4  10  21  35  58  83 111 146 186 235 280 328
#     4   9  17  30  54  80 107 134 186 235 264 324
#     4   8  15  32  52  81 108 135 180 225 274 323
#     4  11  19  36  55  75 108 147 185 229 278 325
#     4  10  21  37  53  83 117 145 185 231 278 337
#
# _framework density 18.359214000000001
#
# number of rings (size 3 to 8) (size 9 to 14) (size 15 to 20)
#    0.000    2.500    2.500    1.500    1.750    2.000 
#    9.000    0.000    0.000    3.750    0.000    0.000 
#    0.000    0.000    0.000    0.000    0.000    0.000 
#
# Total GULP energy -396565.821580 kJ/mol
# GULP energy per Si atom -12392.681924 kJ/mol
# Density = 1.831743 g / cm^3
# Si number density = 18.359214 Si / 1000 Ang^3
#
#
#
# Elastic Constant Matrix: (Units=GPa)
#
#
# Indices 1 2 3 4 5 6 
#
# 1 67.0882 37.5694 35.6894 0.0000 2.5870 0.0000
# 2 37.5694 128.0211 54.1369 0.0000 2.3879 0.0000
# 3 35.6894 54.1369 133.1477 0.0000 -1.3245 0.0000
# 4 0.0000 0.0000 0.0000 16.7514 0.0000 -2.5320
# 5 2.5870 2.3879 -1.3245 0.0000 24.5295 0.0000
# 6 0.0000 0.0000 0.0000 -2.5320 0.0000 20.7362
#
#
#
# Elastic Compliance Matrix: (Units=1/GPa)
#
#
# Indices 1 2 3 4 5 6 
#
# 1 0.019125 -0.004110 -0.003473 0.000000 -0.001804 0.000000
# 2 -0.004110 0.010348 -0.003113 0.000000 -0.000742 0.000000
# 3 -0.003473 -0.003113 0.009719 0.000000 0.001194 0.000000
# 4 0.000000 0.000000 0.000000 0.060819 0.000000 0.007426
# 5 -0.001804 -0.000742 0.001194 0.000000 0.041094 0.000000
# 6 0.000000 0.000000 0.000000 0.007426 0.000000 0.049132
#
#
# Mechanical properties :
#
#
# Convention : Reuss Voigt Hill
#
# Bulk Modulus (GPa) = 56.18290 64.78315 60.48303
# Shear Modulus (GPa) = 22.98207 25.79418 24.38813
#
# Velocity S-wave (km/s) = 3.54192 3.75236 3.64866
# Velocity P-wave (km/s) = 6.88443 7.35776 7.12503
#
# Compressibility (1/GPa) = 0.01779901
#
# Stress axis : x y z
#
# Youngs Moduli (GPa) = 52.28893 96.64095 102.89145
#
# Poissons Ratio (x) = 0.39719 0.35735
# Poissons Ratio (y) = 0.21491 0.32030
# Poissons Ratio (z) = 0.18160 0.30084
#
# Static dielectric constant tensor:
#      x y z
#    x 3.004170 0.000000 -0.006180 
#    y 0.000000 3.667320 0.000000 
#    z -0.006180 0.000000 3.400430 
# 
# 
# High freq. dielectric constant tensor:
#      x y z
#    x 1.676990 0.000000 -0.003010 
#    y 0.000000 1.717450 0.000000 
#    z -0.003010 0.000000 1.710080 
# 
# From -- ./inp_files/138642.got.cif
#   From: 2010.06.25/outbox.cif.g09.slc.cpg/sg15_70_cif.got.tgz:138642.got - 2010.06.28 07:06:18.
