data_PCOD8141198
_publ_section_title
;
Structure prediction by ZEFSAII (Michael W. Deem and Ramdas Pophale) SiO2 
 PCOD8141198
Probable space group: C 2/C
;
_chemical_formula_sum "Si O2"
_cell_formula_units_Z 48
_cell_length_a 15.383381
_cell_length_b 8.428730
_cell_length_c 16.997264
_cell_angle_alpha 90.000000
_cell_angle_beta 82.495193
_cell_angle_gamma 90.000000
_cell_volume 2185.026589
_symmetry_space_group_name_H-M "C 2/C"
_symmetry_group_IT_number 15
_symmetry_cell_setting 'monoclinic'
loop_
_space_group_symop_operation_xyz
x,y,z
-x,y,1/2-z
-x,-y,-z
x,-y,1/2+z
1/2+x,1/2+y,z
1/2-x,1/2+y,1/2-z
1/2-x,1/2-y,-z
1/2+x,1/2-y,1/2+z
loop_
_atom_site_type_symbol
_atom_site_label
_atom_site_fract_x
_atom_site_fract_y
_atom_site_fract_z
Si Si1 0.072773 0.996039 0.653074
Si Si2 0.232513 0.157703 0.581503
Si Si3 0.043533 0.628560 0.663380
Si Si4 0.107378 0.118770 0.823372
Si Si5 0.210651 0.467429 0.674601
Si Si6 0.874600 0.518615 0.148346
O O1 0.074697 0.808788 0.666293
O O2 0.144186 0.054431 0.581777
O O3 0.097974 0.086560 0.731161
O O4 0.977695 0.035949 0.628726
O O5 0.250000 0.250000 0.500000
O O6 0.224823 0.281452 0.655686
O O7 0.308991 0.029715 0.586560
O O8 0.131219 0.531148 0.628561
O O9 0.000000 0.567627 0.750000
O O10 0.961254 0.587785 0.616997
O O11 0.098708 0.299076 0.851516
O O12 0.196352 0.051837 0.850543
O O13 0.179309 0.514353 0.765346
#
# Coordination Sequence:
#
# PCOD8141198 Si02
#       6
#     8   8   8   8   8   8
#     4  11  21  38  60  98 131 161 212 267 324 376
#     4  12  26  43  64  96 137 173 211 267 331 388
#     4  10  21  35  65  98 130 156 215 277 317 370
#     4  11  21  35  66  96 124 163 219 271 313 370
#     4  11  21  38  63  95 125 169 218 262 317 377
#     4  11  21  39  63  94 126 170 214 265 318 381
#
# _framework density 21.967694999999999
#
# number of rings (size 3 to 8) (size 9 to 14) (size 15 to 20)
#    0.000    1.000    5.000    3.000    7.000    0.000 
#    0.000   10.000    0.000    0.000    0.000    0.000 
#    0.000    0.000    0.000    0.000    0.000    0.000 
#
# Total GULP energy -297372.271355 kJ/mol
# GULP energy per Si atom -12390.511306 kJ/mol
# Density = 2.191770 g / cm^3
# Si number density = 21.967695 Si / 1000 Ang^3
#
#
#
# Elastic Constant Matrix: (Units=GPa)
#
#
# Indices 1 2 3 4 5 6 
#
# 1 188.1384 29.0666 15.2064 0.0000 2.1200 0.0000
# 2 29.0666 96.4626 3.4438 0.0000 7.7453 0.0000
# 3 15.2064 3.4438 19.1048 0.0000 1.9425 0.0000
# 4 0.0000 0.0000 0.0000 8.0474 0.0000 0.7866
# 5 2.1200 7.7453 1.9425 0.0000 10.0362 0.0000
# 6 0.0000 0.0000 0.0000 0.7866 0.0000 45.3265
#
#
#
# Elastic Compliance Matrix: (Units=1/GPa)
#
#
# Indices 1 2 3 4 5 6 
#
# 1 0.005932 -0.001701 -0.004510 0.000000 0.000933 0.000000
# 2 -0.001701 0.011564 0.000143 0.000000 -0.008593 0.000000
# 3 -0.004510 0.000143 0.056941 0.000000 -0.010179 0.000000
# 4 0.000000 0.000000 0.000000 0.124475 0.000000 -0.002160
# 5 0.000933 -0.008593 -0.010179 0.000000 0.108044 0.000000
# 6 0.000000 0.000000 0.000000 -0.002160 0.000000 0.022100
#
#
# Mechanical properties :
#
#
# Convention : Reuss Voigt Hill
#
# Bulk Modulus (GPa) = 16.05081 44.34882 30.19981
# Shear Modulus (GPa) = 13.81373 29.74796 21.78085
#
# Velocity S-wave (km/s) = 2.51035 3.68390 3.15222
# Velocity P-wave (km/s) = 3.96546 6.19086 5.19864
#
# Compressibility (1/GPa) = 0.06230215
#
# Stress axis : x y z
#
# Youngs Moduli (GPa) = 168.57469 86.47366 17.56190
#
# Poissons Ratio (x) = 0.14713 0.07920
# Poissons Ratio (y) = 0.28681 -0.00252
# Poissons Ratio (z) = 0.76024 -0.01240
#
# Static dielectric constant tensor:
#      x y z
#    x 4.682160 0.000000 -0.069950 
#    y 0.000000 3.925470 0.000000 
#    z -0.069950 0.000000 3.322950 
# 
# 
# High freq. dielectric constant tensor:
#      x y z
#    x 1.900180 0.000000 -0.003390 
#    y 0.000000 1.873520 0.000000 
#    z -0.003390 0.000000 1.790760 
# 
# From -- ./inp_files/202973.got.cif
#   From: 2010.06.25/outbox.cif.g09.slc.cpg/sg15_102_cif.got.tgz:202973.got - 2010.06.28 07:06:18.
