data_PCOD8141862
_publ_section_title
;
Structure prediction by ZEFSAII (Michael W. Deem and Ramdas Pophale) SiO2 
 PCOD8141862
Probable space group: C 2/C
;
_chemical_formula_sum "Si O2"
_cell_formula_units_Z 64
_cell_length_a 15.059561
_cell_length_b 17.809638
_cell_length_c 13.909670
_cell_angle_alpha 90.000000
_cell_angle_beta 60.706823
_cell_angle_gamma 90.000000
_cell_volume 3253.600555
_symmetry_space_group_name_H-M "C 2/C"
_symmetry_group_IT_number 15
_symmetry_cell_setting 'monoclinic'
loop_
_space_group_symop_operation_xyz
x,y,z
-x,y,1/2-z
-x,-y,-z
x,-y,1/2+z
1/2+x,1/2+y,z
1/2-x,1/2+y,1/2-z
1/2-x,1/2-y,-z
1/2+x,1/2-y,1/2+z
loop_
_atom_site_type_symbol
_atom_site_label
_atom_site_fract_x
_atom_site_fract_y
_atom_site_fract_z
Si Si1 0.510902 0.493321 0.106723
Si Si2 0.885689 0.229445 0.278789
Si Si3 0.687536 0.406274 0.572706
Si Si4 0.736022 0.874150 0.170550
Si Si5 0.398707 0.332202 0.410572
Si Si6 0.279701 0.336564 0.662028
Si Si7 0.618241 0.281270 0.285468
Si Si8 0.781831 0.987579 0.759425
O O1 0.573408 0.562691 0.117643
O O2 0.567101 0.417205 0.101754
O O3 0.399793 0.490812 0.211870
O O4 0.500000 0.500000 0.000000
O O5 0.818223 0.180451 0.389368
O O6 0.857735 0.317363 0.289334
O O7 0.870702 0.194061 0.181273
O O8 0.000000 0.223336 0.250000
O O9 0.747306 0.412359 0.441345
O O10 0.750983 0.454601 0.619056
O O11 0.835593 0.827452 0.149759
O O12 0.716099 0.940266 0.259736
O O13 0.312625 0.315711 0.535942
O O14 0.496740 0.276039 0.367609
O O15 0.351270 0.322289 0.330291
O O16 0.171294 0.300304 0.749683
O O17 0.269602 0.425627 0.681759
#
# Coordination Sequence:
#
# PCOD8141862 Si02
#       8
#     8   8   8   8   8   8   8   8
#     4  12  19  31  55  85 116 141 172 227 293 344
#     4  10  23  37  57  82 113 153 194 235 282 340
#     4  11  21  34  56  86 117 145 181 232 295 347
#     4  11  21  38  56  84 115 149 188 241 284 343
#     4  11  20  35  57  83 118 152 184 231 290 345
#     4  10  21  38  55  85 114 150 189 239 284 340
#     4  10  22  34  55  84 116 149 189 229 285 349
#     4  11  21  34  54  83 112 143 184 230 287 346
#
# _framework density 19.670515999999999
#
# number of rings (size 3 to 8) (size 9 to 14) (size 15 to 20)
#    0.000    1.250    3.750    3.375    3.500    0.000 
#    0.000    0.000    2.750    0.750    0.000    0.000 
#    0.000    0.000    0.000    0.000    0.000    0.000 
#
# Total GULP energy -396708.786731 kJ/mol
# GULP energy per Si atom -12397.149585 kJ/mol
# Density = 1.962574 g / cm^3
# Si number density = 19.670516 Si / 1000 Ang^3
#
#
#
# Elastic Constant Matrix: (Units=GPa)
#
#
# Indices 1 2 3 4 5 6 
#
# 1 39.8364 27.5125 11.9873 0.0000 13.4271 0.0000
# 2 27.5125 117.6075 20.2013 0.0000 0.5767 0.0000
# 3 11.9873 20.2013 71.3556 0.0000 20.4592 0.0000
# 4 0.0000 0.0000 0.0000 20.8649 0.0000 5.2615
# 5 13.4271 0.5767 20.4592 0.0000 29.0481 0.0000
# 6 0.0000 0.0000 0.0000 5.2615 0.0000 28.5231
#
#
#
# Elastic Compliance Matrix: (Units=1/GPa)
#
#
# Indices 1 2 3 4 5 6 
#
# 1 0.036713 -0.008743 0.001408 0.000000 -0.017788 0.000000
# 2 -0.008743 0.011114 -0.003475 0.000000 0.006268 0.000000
# 3 0.001408 -0.003475 0.018706 0.000000 -0.013757 0.000000
# 4 0.000000 0.000000 0.000000 0.050266 0.000000 -0.009272
# 5 -0.017788 0.006268 -0.013757 0.000000 0.052213 0.000000
# 6 0.000000 0.000000 0.000000 -0.009272 0.000000 0.036770
#
#
# Mechanical properties :
#
#
# Convention : Reuss Voigt Hill
#
# Bulk Modulus (GPa) = 22.26533 38.68907 30.47720
# Shear Modulus (GPa) = 20.62940 26.96043 23.79492
#
# Velocity S-wave (km/s) = 3.24195 3.70618 3.48181
# Velocity P-wave (km/s) = 5.03561 6.16649 5.62952
#
# Compressibility (1/GPa) = 0.04491287
#
# Stress axis : x y z
#
# Youngs Moduli (GPa) = 27.23839 89.97400 53.45892
#
# Poissons Ratio (x) = 0.78665 -0.07526
# Poissons Ratio (y) = 0.23815 0.18577
# Poissons Ratio (z) = -0.03835 0.31266
#
# Static dielectric constant tensor:
#      x y z
#    x 3.431810 0.000000 0.340650 
#    y 0.000000 5.375580 0.000000 
#    z 0.340650 0.000000 3.582980 
# 
# 
# High freq. dielectric constant tensor:
#      x y z
#    x 1.746860 0.000000 0.041670 
#    y 0.000000 1.768570 0.000000 
#    z 0.041670 0.000000 1.753410 
# 
# From -- ./inp_files/155179.got.cif
#   From: 2010.06.25/outbox.cif.g09.slc.cpg/sg15_78_cif.got.tgz:155179.got - 2010.06.28 07:06:18.
