data_PCOD8141390
_publ_section_title
;
Structure prediction by ZEFSAII (Michael W. Deem and Ramdas Pophale) SiO2 
 PCOD8141390
Probable space group: C 2/C
;
_chemical_formula_sum "Si O2"
_cell_formula_units_Z 36
_cell_length_a 18.389792
_cell_length_b 6.803779
_cell_length_c 17.118761
_cell_angle_alpha 90.000000
_cell_angle_beta 53.970516
_cell_angle_gamma 90.000000
_cell_volume 1732.186022
_symmetry_space_group_name_H-M "C 2/C"
_symmetry_group_IT_number 15
_symmetry_cell_setting 'monoclinic'
loop_
_space_group_symop_operation_xyz
x,y,z
-x,y,1/2-z
-x,-y,-z
x,-y,1/2+z
1/2+x,1/2+y,z
1/2-x,1/2+y,1/2-z
1/2-x,1/2-y,-z
1/2+x,1/2-y,1/2+z
loop_
_atom_site_type_symbol
_atom_site_label
_atom_site_fract_x
_atom_site_fract_y
_atom_site_fract_z
Si Si1 0.816239 0.652444 0.116060
Si Si2 0.168605 0.169284 0.731675
Si Si3 0.500000 0.239415 0.250000
Si Si4 0.227952 0.037529 0.440091
Si Si5 0.881140 0.381698 0.956521
O O1 0.858639 0.762381 0.163908
O O2 0.728806 0.525980 0.196170
O O3 0.787793 0.813656 0.071137
O O4 0.893211 0.514221 0.027112
O O5 0.078277 0.125892 0.738254
O O6 0.219235 0.353518 0.662375
O O7 0.538574 0.097165 0.156803
O O8 0.132706 0.150491 0.514030
O O9 0.285392 0.042259 0.483333
#
# Coordination Sequence:
#
# PCOD8141390 Si02
#       5
#     8   8   4   8   8
#     4  11  19  36  64  88 107 158 201 233 271 358
#     4  10  21  36  62  85 120 148 195 237 290 332
#     4  10  22  42  52  86 128 152 176 252 296 334
#     4   9  18  37  58  87 112 153 195 238 276 351
#     4   9  20  35  59  83 121 150 190 236 292 335
#
# _framework density 20.782989000000001
#
# number of rings (size 3 to 8) (size 9 to 14) (size 15 to 20)
#    0.000    2.222    2.222    2.000    0.000    0.889 
#    0.000   11.111    0.000    0.000    0.000    0.000 
#    0.000    0.000    0.000    0.000    0.000    0.000 
#
# Total GULP energy -223111.484103 kJ/mol
# GULP energy per Si atom -12395.082450 kJ/mol
# Density = 2.073569 g / cm^3
# Si number density = 20.782989 Si / 1000 Ang^3
#
#
#
# Elastic Constant Matrix: (Units=GPa)
#
#
# Indices 1 2 3 4 5 6 
#
# 1 67.9868 20.3622 22.7315 0.0037 2.3057 -0.0135
# 2 20.3622 103.7156 39.5289 0.0035 3.8676 -0.0144
# 3 22.7315 39.5289 132.3134 -0.0002 -0.5899 -0.0030
# 4 0.0037 0.0035 -0.0002 31.1789 -0.0004 8.5900
# 5 2.3057 3.8676 -0.5899 -0.0004 29.6681 0.0046
# 6 -0.0135 -0.0144 -0.0030 8.5900 0.0046 15.0591
#
#
#
# Elastic Compliance Matrix: (Units=1/GPa)
#
#
# Indices 1 2 3 4 5 6 
#
# 1 0.016138 -0.002339 -0.002078 -0.000006 -0.000990 0.000016
# 2 -0.002339 0.011285 -0.002976 -0.000004 -0.001349 0.000011
# 3 -0.002078 -0.002976 0.008807 0.000002 0.000725 -0.000004
# 4 -0.000006 -0.000004 0.000002 0.038053 0.000005 -0.021706
# 5 -0.000990 -0.001349 0.000725 0.000005 0.033973 -0.000015
# 6 0.000016 0.000011 -0.000004 -0.021706 -0.000015 0.078787
#
#
# Mechanical properties :
#
#
# Convention : Reuss Voigt Hill
#
# Bulk Modulus (GPa) = 46.63269 52.14011 49.38640
# Shear Modulus (GPa) = 23.92604 29.94078 26.93341
#
# Velocity S-wave (km/s) = 3.39666 3.79969 3.60382
# Velocity P-wave (km/s) = 6.15384 6.66277 6.41336
#
# Compressibility (1/GPa) = 0.02144418
#
# Stress axis : x y z
#
# Youngs Moduli (GPa) = 61.96649 88.60983 113.54567
#
# Poissons Ratio (x) = 0.20729 0.23595
# Poissons Ratio (y) = 0.14496 0.33787
# Poissons Ratio (z) = 0.12877 0.26367
#
# Static dielectric constant tensor:
#      x y z
#    x 3.530980 0.000000 0.196590 
#    y 0.000000 3.543500 0.000000 
#    z 0.196590 0.000000 3.953740 
# 
# 
# High freq. dielectric constant tensor:
#      x y z
#    x 1.779770 0.000000 0.024430 
#    y 0.000000 1.794930 0.000000 
#    z 0.024430 0.000000 1.831290 
# 
# From -- ./inp_files/207943.got.cif
#   From: 2010.06.25/outbox.cif.g09.slc.cpg/sg15_104_cif.got.tgz:207943.got - 2010.06.28 07:06:18.
