data_PCOD8141851
_publ_section_title
;
Structure prediction by ZEFSAII (Michael W. Deem and Ramdas Pophale) SiO2 
 PCOD8141851
Probable space group: C 2/C
;
_chemical_formula_sum "Si O2"
_cell_formula_units_Z 40
_cell_length_a 14.577305
_cell_length_b 14.452349
_cell_length_c 14.642449
_cell_angle_alpha 90.000000
_cell_angle_beta 140.661557
_cell_angle_gamma 90.000000
_cell_volume 1955.465302
_symmetry_space_group_name_H-M "C 2/C"
_symmetry_group_IT_number 15
_symmetry_cell_setting 'monoclinic'
loop_
_space_group_symop_operation_xyz
x,y,z
-x,y,1/2-z
-x,-y,-z
x,-y,1/2+z
1/2+x,1/2+y,z
1/2-x,1/2+y,1/2-z
1/2-x,1/2-y,-z
1/2+x,1/2-y,1/2+z
loop_
_atom_site_type_symbol
_atom_site_label
_atom_site_fract_x
_atom_site_fract_y
_atom_site_fract_z
Si Si1 0.320826 0.697603 0.156323
Si Si2 0.000000 0.639048 0.750000
Si Si3 0.908637 0.427870 0.373362
Si Si4 0.000000 0.034654 0.250000
Si Si5 0.923933 0.063649 0.870612
Si Si6 0.489720 0.740252 0.026414
O O1 0.361529 0.790703 0.128725
O O2 0.356452 0.601098 0.131011
O O3 0.434094 0.690636 0.329165
O O4 0.158319 0.705988 0.063220
O O5 0.971654 0.577710 0.817846
O O6 0.744224 0.459898 0.247491
O O7 0.000000 0.500000 0.500000
O O8 0.910103 0.327423 0.424414
O O9 0.012813 0.962447 0.178008
O O10 0.962124 0.170648 0.921977
O O11 0.000000 0.000000 0.000000
#
# Coordination Sequence:
#
# PCOD8141851 Si02
#       6
#     8   4   8   4   8   8
#     4  10  21  37  70  95 127 165 220 278 324 378
#     4   9  20  40  63 100 126 164 223 274 325 378
#     4  11  25  40  65  95 134 174 221 272 332 390
#     4  11  24  40  67 100 130 176 225 270 329 388
#     4  12  25  42  64  99 133 172 216 276 332 393
#     4  11  21  43  64  96 131 170 214 271 332 386
#
# _framework density 20.455490000000001
#
# number of rings (size 3 to 8) (size 9 to 14) (size 15 to 20)
#    0.000    1.200    6.000    1.200    0.000   13.600 
#    0.000    2.000    0.000    0.000    0.000    0.000 
#    0.000    0.000    0.000    0.000    0.000    0.000 
#
# Total GULP energy -247854.438086 kJ/mol
# GULP energy per Si atom -12392.721904 kJ/mol
# Density = 2.040893 g / cm^3
# Si number density = 20.455490 Si / 1000 Ang^3
#
#
#
# Elastic Constant Matrix: (Units=GPa)
#
#
# Indices 1 2 3 4 5 6 
#
# 1 124.0440 64.8213 62.8533 -0.0002 -16.0795 -0.0002
# 2 64.8213 119.2297 51.5802 -0.0001 -17.8340 -0.0001
# 3 62.8533 51.5802 104.9651 -0.0003 6.6943 -0.0002
# 4 -0.0002 -0.0001 -0.0003 46.8666 -0.0002 -11.0459
# 5 -16.0795 -17.8340 6.6943 -0.0002 41.6027 -0.0002
# 6 -0.0002 -0.0001 -0.0002 -11.0459 -0.0002 48.8710
#
#
#
# Elastic Compliance Matrix: (Units=1/GPa)
#
#
# Indices 1 2 3 4 5 6 
#
# 1 0.014309 -0.004072 -0.006880 0.000000 0.004892 0.000000
# 2 -0.004072 0.013200 -0.004354 0.000000 0.004785 0.000000
# 3 -0.006880 -0.004354 0.016241 0.000000 -0.007139 0.000000
# 4 0.000000 0.000000 0.000000 0.022538 0.000000 0.005094
# 5 0.004892 0.004785 -0.007139 0.000000 0.029128 0.000000
# 6 0.000000 0.000000 0.000000 0.005094 0.000000 0.021613
#
#
# Mechanical properties :
#
#
# Convention : Reuss Voigt Hill
#
# Bulk Modulus (GPa) = 76.09905 78.52758 77.31332
# Shear Modulus (GPa) = 32.89042 38.73367 35.81204
#
# Velocity S-wave (km/s) = 4.01422 4.35622 4.18871
# Velocity P-wave (km/s) = 7.66605 7.98593 7.82762
#
# Compressibility (1/GPa) = 0.01314077
#
# Stress axis : x y z
#
# Youngs Moduli (GPa) = 69.88369 75.75782 61.57147
#
# Poissons Ratio (x) = 0.30845 0.42360
# Poissons Ratio (y) = 0.28453 0.26806
# Poissons Ratio (z) = 0.48079 0.32982
#
# Static dielectric constant tensor:
#      x y z
#    x 3.590980 0.000000 0.320040 
#    y 0.000000 4.484200 0.000000 
#    z 0.320040 0.000000 3.332510 
# 
# 
# High freq. dielectric constant tensor:
#      x y z
#    x 1.780710 0.000000 0.013800 
#    y 0.000000 1.794410 0.000000 
#    z 0.013800 0.000000 1.818760 
# 
# From -- ./inp_files/154185.got.cif
#   From: 2010.06.25/outbox.cif.g09.slc.cpg/sg15_78_cif.got.tgz:154185.got - 2010.06.28 07:06:18.
