data_PCOD8141468
_publ_section_title
;
Structure prediction by ZEFSAII (Michael W. Deem and Ramdas Pophale) SiO2 
 PCOD8141468
Probable space group: C 2/C
;
_chemical_formula_sum "Si O2"
_cell_formula_units_Z 64
_cell_length_a 19.038830
_cell_length_b 19.138622
_cell_length_c 12.224629
_cell_angle_alpha 90.000000
_cell_angle_beta 132.565897
_cell_angle_gamma 90.000000
_cell_volume 3280.645209
_symmetry_space_group_name_H-M "C 2/C"
_symmetry_group_IT_number 15
_symmetry_cell_setting 'monoclinic'
loop_
_space_group_symop_operation_xyz
x,y,z
-x,y,1/2-z
-x,-y,-z
x,-y,1/2+z
1/2+x,1/2+y,z
1/2-x,1/2+y,1/2-z
1/2-x,1/2-y,-z
1/2+x,1/2-y,1/2+z
loop_
_atom_site_type_symbol
_atom_site_label
_atom_site_fract_x
_atom_site_fract_y
_atom_site_fract_z
Si Si1 0.305452 0.872645 0.155186
Si Si2 0.753201 0.457759 0.306035
Si Si3 0.376440 0.341588 0.245740
Si Si4 0.730088 0.753497 0.222568
Si Si5 0.955842 0.436112 0.592918
Si Si6 0.778245 0.386110 0.885133
Si Si7 0.007246 0.594279 0.916427
Si Si8 0.566463 0.286614 0.406887
O O1 0.277442 0.936276 0.206858
O O2 0.273075 0.799541 0.172075
O O3 0.420180 0.871704 0.256254
O O4 0.248460 0.881452 0.981377
O O5 0.660050 0.417209 0.251754
O O6 0.840804 0.436472 0.477697
O O7 0.740367 0.541111 0.295435
O O8 0.317200 0.278674 0.239513
O O9 0.489478 0.332692 0.396598
O O10 0.367283 0.335867 0.102885
O O11 0.733351 0.673134 0.261730
O O12 0.631491 0.762557 0.050435
O O13 0.996681 0.513201 0.617591
O O14 0.000000 0.404519 0.750000
O O15 0.989516 0.389948 0.526011
O O16 0.891305 0.373337 0.004316
O O17 0.500000 0.241545 0.250000
#
# Coordination Sequence:
#
# PCOD8141468 Si02
#       8
#     8   8   8   8   8   8   8   8
#     4  10  21  37  52  79 121 153 189 240 293 346
#     4   9  19  36  56  79 114 155 186 241 295 339
#     4   8  19  38  59  83 119 147 189 247 289 338
#     4  11  21  36  58  84 117 153 196 240 291 350
#     4   9  16  28  47  78 111 135 178 220 275 351
#     4  11  22  33  57  86 110 154 200 238 289 351
#     4   9  18  30  47  74 107 147 176 222 281 335
#     4   8  20  37  61  85 112 149 198 239 296 340
#
# _framework density 19.508358000000001
#
# number of rings (size 3 to 8) (size 9 to 14) (size 15 to 20)
#    0.750    1.750    0.000    3.375    1.750    2.000 
#    0.000    7.500    0.000    0.000    0.000    0.000 
#    0.000    0.000    0.000    0.000    0.000    0.000 
#
# Total GULP energy -396466.838183 kJ/mol
# GULP energy per Si atom -12389.588693 kJ/mol
# Density = 1.946396 g / cm^3
# Si number density = 19.508358 Si / 1000 Ang^3
#
#
#
# Elastic Constant Matrix: (Units=GPa)
#
#
# Indices 1 2 3 4 5 6 
#
# 1 96.0527 43.1228 27.3494 0.0000 7.3737 0.0000
# 2 43.1228 108.6990 31.6191 0.0000 -3.0957 0.0000
# 3 27.3494 31.6191 73.8998 0.0000 -15.6261 0.0000
# 4 0.0000 0.0000 0.0000 19.5254 0.0000 0.7364
# 5 7.3737 -3.0957 -15.6261 0.0000 22.1015 0.0000
# 6 0.0000 0.0000 0.0000 0.7364 0.0000 21.7826
#
#
#
# Elastic Compliance Matrix: (Units=1/GPa)
#
#
# Indices 1 2 3 4 5 6 
#
# 1 0.014732 -0.004507 -0.005522 0.000000 -0.009451 0.000000
# 2 -0.004507 0.011963 -0.003266 0.000000 0.000870 0.000000
# 3 -0.005522 -0.003266 0.020301 0.000000 0.015738 0.000000
# 4 0.000000 0.000000 0.000000 0.051281 0.000000 -0.001734
# 5 -0.009451 0.000870 0.015738 0.000000 0.059648 0.000000
# 6 0.000000 0.000000 0.000000 -0.001734 0.000000 0.045967
#
#
# Mechanical properties :
#
#
# Convention : Reuss Voigt Hill
#
# Bulk Modulus (GPa) = 49.00923 53.64824 51.32873
# Shear Modulus (GPa) = 21.07179 24.45259 22.76219
#
# Velocity S-wave (km/s) = 3.29012 3.54424 3.41954
# Velocity P-wave (km/s) = 6.29364 6.65648 6.47760
#
# Compressibility (1/GPa) = 0.02040432
#
# Stress axis : x y z
#
# Youngs Moduli (GPa) = 67.87763 83.59233 49.25922
#
# Poissons Ratio (x) = 0.37679 0.27201
# Poissons Ratio (y) = 0.30596 0.16090
# Poissons Ratio (z) = 0.37482 0.27304
#
# Static dielectric constant tensor:
#      x y z
#    x 3.688420 0.000000 -0.121740 
#    y 0.000000 3.224670 0.000000 
#    z -0.121740 0.000000 3.403120 
# 
# 
# High freq. dielectric constant tensor:
#      x y z
#    x 1.764420 0.000000 -0.011830 
#    y 0.000000 1.733580 0.000000 
#    z -0.011830 0.000000 1.741000 
# 
# From -- ./inp_files/107519.got.cif
#   From: 2010.06.25/outbox.cif.g09.slc.cpg/sg15_54_cif.got.tgz:107519.got - 2010.06.28 07:06:18.
