data_PCOD8141877
_publ_section_title
;
Structure prediction by ZEFSAII (Michael W. Deem and Ramdas Pophale) SiO2 
 PCOD8141877
Probable space group: C 2/C
;
_chemical_formula_sum "Si O2"
_cell_formula_units_Z 56
_cell_length_a 32.239233
_cell_length_b 14.774802
_cell_length_c 5.228413
_cell_angle_alpha 90.000000
_cell_angle_beta 89.655090
_cell_angle_gamma 90.000000
_cell_volume 2490.395869
_symmetry_space_group_name_H-M "C 2/C"
_symmetry_group_IT_number 15
_symmetry_cell_setting 'monoclinic'
loop_
_space_group_symop_operation_xyz
x,y,z
-x,y,1/2-z
-x,-y,-z
x,-y,1/2+z
1/2+x,1/2+y,z
1/2-x,1/2+y,1/2-z
1/2-x,1/2-y,-z
1/2+x,1/2-y,1/2+z
loop_
_atom_site_type_symbol
_atom_site_label
_atom_site_fract_x
_atom_site_fract_y
_atom_site_fract_z
Si Si1 0.724713 0.361872 0.754507
Si Si2 0.941085 0.556786 0.833247
Si Si3 0.372415 0.603288 0.220293
Si Si4 0.500000 0.781918 0.250000
Si Si5 0.653807 0.948486 0.133023
Si Si6 0.500000 0.338125 0.250000
Si Si7 0.731669 0.149394 0.748724
Si Si8 0.590565 0.400949 0.281036
O O1 0.677086 0.391583 0.780033
O O2 0.734632 0.256089 0.759933
O O3 0.742570 0.397078 0.484564
O O4 0.749957 0.399943 0.998590
O O5 0.954368 0.494969 0.591622
O O6 0.893080 0.581781 0.828273
O O7 0.961351 0.654573 0.815671
O O8 0.390173 0.501185 0.218391
O O9 0.391509 0.651752 0.470879
O O10 0.391248 0.651682 0.967533
O O11 0.508545 0.721502 0.498879
O O12 0.682935 0.866410 0.213594
O O13 0.663019 0.028300 0.337112
O O14 0.540433 0.401739 0.287868
#
# Coordination Sequence:
#
# PCOD8141877 Si02
#       8
#     8   8   8   4   8   4   8   8
#     4  10  21  39  61  86 119 156 205 263 309 379
#     4  10  21  40  66  91 128 161 213 260 309 373
#     4  10  21  41  63  86 114 161 217 251 324 360
#     4  12  24  41  65 100 126 170 208 254 320 381
#     4  10  21  38  56  89 121 163 200 244 305 378
#     4  12  26  41  61  94 134 162 210 252 322 383
#     4  10  21  38  58  86 121 158 199 257 323 358
#     4  10  23  41  61  88 125 159 207 268 306 376
#
# _framework density 22.486383
#
# number of rings (size 3 to 8) (size 9 to 14) (size 15 to 20)
#    0.000    1.714    0.000    3.857    0.000    4.571 
#   15.429    0.000    0.000    0.000    0.000    0.000 
#    0.000    0.000    0.000    0.000    0.000    0.000 
#
# Total GULP energy -347033.166557 kJ/mol
# GULP energy per Si atom -12394.041663 kJ/mol
# Density = 2.243520 g / cm^3
# Si number density = 22.486383 Si / 1000 Ang^3
#
#
#
# Elastic Constant Matrix: (Units=GPa)
#
#
# Indices 1 2 3 4 5 6 
#
# 1 102.7254 23.4381 25.8122 0.0000 -0.5790 0.0000
# 2 23.4381 28.7735 20.7377 0.0000 -0.4770 0.0000
# 3 25.8122 20.7377 186.5814 0.0000 0.7917 0.0000
# 4 0.0000 0.0000 0.0000 12.1669 0.0000 4.6574
# 5 -0.5790 -0.4770 0.7917 0.0000 38.6185 0.0000
# 6 0.0000 0.0000 0.0000 4.6574 0.0000 18.6824
#
#
#
# Elastic Compliance Matrix: (Units=1/GPa)
#
#
# Indices 1 2 3 4 5 6 
#
# 1 0.012024 -0.009342 -0.000625 0.000000 0.000078 0.000000
# 2 -0.009342 0.045051 -0.003717 0.000000 0.000493 0.000000
# 3 -0.000625 -0.003717 0.005860 0.000000 -0.000175 0.000000
# 4 0.000000 0.000000 0.000000 0.090861 0.000000 -0.022651
# 5 0.000078 0.000493 -0.000175 0.000000 0.025905 0.000000
# 6 0.000000 0.000000 0.000000 -0.022651 0.000000 0.059173
#
#
# Mechanical properties :
#
#
# Convention : Reuss Voigt Hill
#
# Bulk Modulus (GPa) = 28.11681 50.89514 39.50598
# Shear Modulus (GPa) = 17.97924 30.43305 24.20614
#
# Velocity S-wave (km/s) = 2.83072 3.68285 3.28454
# Velocity P-wave (km/s) = 4.81820 6.38493 5.65608
#
# Compressibility (1/GPa) = 0.03556591
#
# Stress axis : x y z
#
# Youngs Moduli (GPa) = 83.16816 22.19695 170.64939
#
# Poissons Ratio (x) = 0.20737 0.10672
# Poissons Ratio (y) = 0.77698 0.63428
# Poissons Ratio (z) = 0.05201 0.08250
#
# Static dielectric constant tensor:
#      x y z
#    x 4.089260 0.000000 0.033300 
#    y 0.000000 3.512510 0.000000 
#    z 0.033300 0.000000 6.644620 
# 
# 
# High freq. dielectric constant tensor:
#      x y z
#    x 1.900860 0.000000 0.002310 
#    y 0.000000 1.844400 0.000000 
#    z 0.002310 0.000000 1.922970 
# 
# From -- ./inp_files/18238.got.cif
#   From: 2010.06.25/outbox.cif.g09.slc.cpg/sg15_10_cif.got.tgz:18238.got - 2010.06.28 07:06:18.
