data_PCOD8141443
_publ_section_title
;
Structure prediction by ZEFSAII (Michael W. Deem and Ramdas Pophale) SiO2 
 PCOD8141443
Probable space group: C 2/C
;
_chemical_formula_sum "Si O2"
_cell_formula_units_Z 56
_cell_length_a 8.269660
_cell_length_b 18.927714
_cell_length_c 18.880754
_cell_angle_alpha 90.000000
_cell_angle_beta 59.312037
_cell_angle_gamma 90.000000
_cell_volume 2541.459287
_symmetry_space_group_name_H-M "C 2/C"
_symmetry_group_IT_number 15
_symmetry_cell_setting 'monoclinic'
loop_
_space_group_symop_operation_xyz
x,y,z
-x,y,1/2-z
-x,-y,-z
x,-y,1/2+z
1/2+x,1/2+y,z
1/2-x,1/2+y,1/2-z
1/2-x,1/2-y,-z
1/2+x,1/2-y,1/2+z
loop_
_atom_site_type_symbol
_atom_site_label
_atom_site_fract_x
_atom_site_fract_y
_atom_site_fract_z
Si Si1 0.091634 0.998554 0.584848
Si Si2 0.717826 0.044023 0.588085
Si Si3 0.500000 0.030514 0.250000
Si Si4 0.095104 0.140566 0.653845
Si Si5 0.692002 0.305956 0.401031
Si Si6 0.143193 0.244887 0.449829
Si Si7 0.500000 0.277230 0.750000
Si Si8 0.147287 0.872289 0.832840
O O1 0.269465 0.993505 0.491540
O O2 0.043159 0.920047 0.624618
O O3 0.145397 0.057571 0.631369
O O4 0.903784 0.023191 0.588514
O O5 0.718309 0.127943 0.577697
O O6 0.534548 0.018496 0.672833
O O7 0.677978 0.078652 0.223808
O O8 0.288449 0.186775 0.610114
O O9 0.000000 0.151218 0.750000
O O10 0.951293 0.168607 0.627352
O O11 0.579982 0.255737 0.482001
O O12 0.870775 0.267260 0.330518
O O13 0.250000 0.250000 0.500000
O O14 0.182474 0.171685 0.397896
O O15 0.638353 0.321207 0.768309
#
# Coordination Sequence:
#
# PCOD8141443 Si02
#       8
#     8   8   4   8   8   8   4   8
#     4   9  19  36  62  85 128 167 207 263 331 391
#     4   9  17  37  61  92 111 160 213 264 316 386
#     4  10  23  34  72  91 122 156 230 274 308 395
#     4  10  21  36  64  97 131 168 225 280 322 385
#     4  10  21  40  62  91 126 172 216 263 334 403
#     4  10  22  38  67  97 128 172 223 280 332 392
#     4  12  27  38  64  89 138 170 210 266 340 405
#     4  11  24  42  61  96 130 174 213 274 334 395
#
# _framework density 22.034585
#
# number of rings (size 3 to 8) (size 9 to 14) (size 15 to 20)
#    0.000    2.000    1.429    1.286   12.000    0.571 
#    0.000    0.000    0.000    1.714    0.000    0.000 
#    0.000    0.000    0.000    0.000    0.000    0.000 
#
# Total GULP energy -347007.690339 kJ/mol
# GULP energy per Si atom -12393.131798 kJ/mol
# Density = 2.198443 g / cm^3
# Si number density = 22.034585 Si / 1000 Ang^3
#
#
#
# Elastic Constant Matrix: (Units=GPa)
#
#
# Indices 1 2 3 4 5 6 
#
# 1 34.3942 28.8138 27.8918 0.0000 -6.0899 0.0000
# 2 28.8138 138.0847 73.1405 0.0000 -10.2268 0.0000
# 3 27.8918 73.1405 188.7486 0.0000 -23.0143 0.0000
# 4 0.0000 0.0000 0.0000 -11.7955 0.0000 17.0217
# 5 -6.0899 -10.2268 -23.0143 0.0000 27.6208 0.0000
# 6 0.0000 0.0000 0.0000 17.0217 0.0000 4.7527
#
#
#
# Elastic Compliance Matrix: (Units=1/GPa)
#
#
# Indices 1 2 3 4 5 6 
#
# 1 0.036939 -0.006017 -0.002678 0.000000 0.003686 0.000000
# 2 -0.006017 0.010098 -0.003038 0.000000 -0.000119 0.000000
# 3 -0.002678 -0.003038 0.007415 0.000000 0.004463 0.000000
# 4 0.000000 0.000000 0.000000 -0.013744 0.000000 0.049224
# 5 0.003686 -0.000119 0.004463 0.000000 0.040692 0.000000
# 6 0.000000 0.000000 0.000000 0.049224 0.000000 0.034111
#
#
# Mechanical properties :
#
#
# Convention : Reuss Voigt Hill
#
# Bulk Modulus (GPa) = 32.27184 68.99109 50.63147
# Shear Modulus (GPa) = 33.48835 19.54103 26.51469
#
# Velocity S-wave (km/s) = 3.90270 2.98121 3.47266
# Velocity P-wave (km/s) = 5.91489 6.57484 6.25357
#
# Compressibility (1/GPa) = 0.03098677
#
# Stress axis : x y z
#
# Youngs Moduli (GPa) = 27.07150 99.02960 134.85522
#
# Poissons Ratio (x) = 0.59583 0.36110
# Poissons Ratio (y) = 0.16288 0.40975
# Poissons Ratio (z) = 0.07249 0.30090
#
# Static dielectric constant tensor:
#      x y z
#    x 3.545060 0.000000 -0.082670 
#    y 0.000000 4.560520 0.000000 
#    z -0.082670 0.000000 4.433080 
# 
# 
# High freq. dielectric constant tensor:
#      x y z
#    x 1.820880 0.000000 -0.002230 
#    y 0.000000 1.878190 0.000000 
#    z -0.002230 0.000000 1.887850 
# 
# From -- ./inp_files/233792.got.cif
#   From: 2010.06.25/outbox.cif.g09.slc.cpg/sg15_117_cif.got.tgz:233792.got - 2010.06.28 07:06:18.
