data_PCOD8141556
_publ_section_title
;
Structure prediction by ZEFSAII (Michael W. Deem and Ramdas Pophale) SiO2 
 PCOD8141556
Probable space group: C 2/C
;
_chemical_formula_sum "Si O2"
_cell_formula_units_Z 44
_cell_length_a 31.613436
_cell_length_b 7.491400
_cell_length_c 8.963527
_cell_angle_alpha 90.000000
_cell_angle_beta 103.949217
_cell_angle_gamma 90.000000
_cell_volume 2060.219671
_symmetry_space_group_name_H-M "C 2/C"
_symmetry_group_IT_number 15
_symmetry_cell_setting 'monoclinic'
loop_
_space_group_symop_operation_xyz
x,y,z
-x,y,1/2-z
-x,-y,-z
x,-y,1/2+z
1/2+x,1/2+y,z
1/2-x,1/2+y,1/2-z
1/2-x,1/2-y,-z
1/2+x,1/2-y,1/2+z
loop_
_atom_site_type_symbol
_atom_site_label
_atom_site_fract_x
_atom_site_fract_y
_atom_site_fract_z
Si Si1 0.387521 0.761275 0.443793
Si Si2 0.382627 0.106320 0.268040
Si Si3 0.296296 0.592410 0.411470
Si Si4 0.559817 0.600640 0.550625
Si Si5 0.500000 0.520698 0.250000
Si Si6 0.292329 0.738536 0.728395
O O1 0.396725 0.850430 0.611914
O O2 0.337652 0.700876 0.386965
O O3 0.419201 0.595470 0.444842
O O4 0.397609 0.907576 0.324939
O O5 0.403631 0.250047 0.398665
O O6 0.330456 0.115996 0.244803
O O7 0.291618 0.608367 0.584672
O O8 0.301557 0.383274 0.380375
O O9 0.253349 0.662309 0.290623
O O10 0.532622 0.642701 0.376633
O O11 0.527369 0.607066 0.663604
#
# Coordination Sequence:
#
# PCOD8141556 Si02
#       6
#     8   8   8   8   4   8
#     4  11  24  40  65  96 129 172 215 258 317 382
#     4  11  24  40  65  96 129 172 215 258 317 382
#     4  10  21  37  58  90 129 169 214 259 306 365
#     4  11  22  46  66  96 126 168 210 266 328 383
#     4  10  24  42  74  90 126 162 212 274 326 384
#     4  10  21  37  58  90 129 169 214 259 306 365
#
# _framework density 21.356947000000002
#
# number of rings (size 3 to 8) (size 9 to 14) (size 15 to 20)
#    0.000    1.455    3.636    1.091    2.545    2.182 
#    0.000    5.455    0.000    0.000    0.000    0.000 
#    0.000    0.000    0.000    0.000    0.000    0.000 
#
# Total GULP energy -272861.701296 kJ/mol
# GULP energy per Si atom -12402.804604 kJ/mol
# Density = 2.130834 g / cm^3
# Si number density = 21.356947 Si / 1000 Ang^3
#
#
#
# Elastic Constant Matrix: (Units=GPa)
#
#
# Indices 1 2 3 4 5 6 
#
# 1 101.4188 32.5514 37.8451 0.0000 9.0317 0.0000
# 2 32.5514 84.8595 22.6205 0.0000 0.6146 0.0000
# 3 37.8451 22.6205 80.5480 0.0000 14.0866 0.0000
# 4 0.0000 0.0000 0.0000 32.8572 0.0000 -2.3629
# 5 9.0317 0.6146 14.0866 0.0000 34.2848 0.0000
# 6 0.0000 0.0000 0.0000 -2.3629 0.0000 17.7504
#
#
#
# Elastic Compliance Matrix: (Units=1/GPa)
#
#
# Indices 1 2 3 4 5 6 
#
# 1 0.012960 -0.003677 -0.004817 0.000000 -0.001369 0.000000
# 2 -0.003677 0.013838 -0.002461 0.000000 0.001732 0.000000
# 3 -0.004817 -0.002461 0.016312 0.000000 -0.005389 0.000000
# 4 0.000000 0.000000 0.000000 0.030729 0.000000 0.004091
# 5 -0.001369 0.001732 -0.005389 0.000000 0.031711 0.000000
# 6 0.000000 0.000000 0.000000 0.004091 0.000000 0.056881
#
#
# Mechanical properties :
#
#
# Convention : Reuss Voigt Hill
#
# Bulk Modulus (GPa) = 47.17278 50.31780 48.74529
# Shear Modulus (GPa) = 26.12207 28.56575 27.34391
#
# Velocity S-wave (km/s) = 3.50110 3.66121 3.58205
# Velocity P-wave (km/s) = 6.20318 6.44082 6.32311
#
# Compressibility (1/GPa) = 0.02119867
#
# Stress axis : x y z
#
# Youngs Moduli (GPa) = 77.16178 72.26292 61.30497
#
# Poissons Ratio (x) = 0.26573 0.29530
# Poissons Ratio (y) = 0.28375 0.15089
# Poissons Ratio (z) = 0.37169 0.17787
#
# Static dielectric constant tensor:
#      x y z
#    x 3.953740 0.000000 0.170810 
#    y 0.000000 3.523530 0.000000 
#    z 0.170810 0.000000 3.959840 
# 
# 
# High freq. dielectric constant tensor:
#      x y z
#    x 1.847910 0.000000 0.007620 
#    y 0.000000 1.814030 0.000000 
#    z 0.007620 0.000000 1.844160 
# 
# From -- ./inp_files/68345.got.cif
#   From: 2010.06.25/outbox.cif.g09.slc.cpg/sg15_35_cif.got.tgz:68345.got - 2010.06.28 07:06:18.
