data_PCOD8141218
_publ_section_title
;
Structure prediction by ZEFSAII (Michael W. Deem and Ramdas Pophale) SiO2 
 PCOD8141218
Probable space group: C 2/C
;
_chemical_formula_sum "Si O2"
_cell_formula_units_Z 40
_cell_length_a 24.609604
_cell_length_b 11.654286
_cell_length_c 20.215479
_cell_angle_alpha 90.000000
_cell_angle_beta 19.681725
_cell_angle_gamma 90.000000
_cell_volume 1952.719690
_symmetry_space_group_name_H-M "C 2/C"
_symmetry_group_IT_number 15
_symmetry_cell_setting 'monoclinic'
loop_
_space_group_symop_operation_xyz
x,y,z
-x,y,1/2-z
-x,-y,-z
x,-y,1/2+z
1/2+x,1/2+y,z
1/2-x,1/2+y,1/2-z
1/2-x,1/2-y,-z
1/2+x,1/2-y,1/2+z
loop_
_atom_site_type_symbol
_atom_site_label
_atom_site_fract_x
_atom_site_fract_y
_atom_site_fract_z
Si Si1 0.390239 0.467148 0.200607
Si Si2 0.813859 0.375539 0.944597
Si Si3 0.704356 0.578097 0.828096
Si Si4 0.111947 0.758160 0.946178
Si Si5 0.170677 0.404611 0.714997
O O1 0.289325 0.439394 0.381212
O O2 0.280790 0.486884 0.261059
O O3 0.518489 0.569788 0.067987
O O4 0.499147 0.359406 0.049818
O O5 0.785750 0.447219 0.908901
O O6 0.000000 0.371001 0.750000
O O7 0.750000 0.250000 0.000000
O O8 0.763000 0.710695 0.753496
O O9 0.822478 0.511402 0.742892
O O10 0.208605 0.802009 0.900062
O O11 0.008834 0.646537 0.084205
#
# Coordination Sequence:
#
# PCOD8141218 Si02
#       5
#     8   8   8   8   8
#     4  10  22  36  57  84 125 150 186 240 293 338
#     4  12  23  35  57  87 122 152 185 231 299 357
#     4  10  21  36  53  84 119 153 196 233 276 352
#     4  11  19  36  55  83 120 152 191 230 288 339
#     4  11  22  34  59  85 120 153 191 231 291 347
#
# _framework density 20.484252000000001
#
# number of rings (size 3 to 8) (size 9 to 14) (size 15 to 20)
#    0.000    1.200    4.000    3.000    2.800    0.000 
#    0.000    0.000    0.000    0.000    0.000   22.400 
#    0.000    0.000    0.000    0.000    0.000    0.000 
#
# Total GULP energy -247761.319346 kJ/mol
# GULP energy per Si atom -12388.065967 kJ/mol
# Density = 2.043763 g / cm^3
# Si number density = 20.484252 Si / 1000 Ang^3
#
#
#
# Elastic Constant Matrix: (Units=GPa)
#
#
# Indices 1 2 3 4 5 6 
#
# 1 131.8744 35.6086 50.5541 0.0017 21.6731 -0.0013
# 2 35.6086 45.8815 39.8723 0.0025 7.6719 -0.0014
# 3 50.5541 39.8723 121.0712 0.0025 15.5599 -0.0021
# 4 0.0017 0.0025 0.0025 36.8650 -0.0022 0.7596
# 5 21.6731 7.6719 15.5599 -0.0022 36.1238 0.0014
# 6 -0.0013 -0.0014 -0.0021 0.7596 0.0014 30.2930
#
#
#
# Elastic Compliance Matrix: (Units=1/GPa)
#
#
# Indices 1 2 3 4 5 6 
#
# 1 0.010609 -0.005809 -0.001966 0.000000 -0.004285 0.000000
# 2 -0.005809 0.033893 -0.008743 -0.000001 0.000053 0.000001
# 3 -0.001966 -0.008743 0.012248 0.000000 -0.002239 0.000000
# 4 0.000000 -0.000001 0.000000 0.027140 0.000002 -0.000681
# 5 -0.004285 0.000053 -0.002239 0.000002 0.031206 -0.000002
# 6 0.000000 0.000001 0.000000 -0.000681 -0.000002 0.033028
#
#
# Mechanical properties :
#
#
# Convention : Reuss Voigt Hill
#
# Bulk Modulus (GPa) = 42.17043 61.21080 51.69061
# Shear Modulus (GPa) = 26.44591 32.17583 29.31087
#
# Velocity S-wave (km/s) = 3.59700 3.96758 3.78682
# Velocity P-wave (km/s) = 6.15489 7.13692 6.66402
#
# Compressibility (1/GPa) = 0.02371330
#
# Stress axis : x y z
#
# Youngs Moduli (GPa) = 94.25600 29.50500 81.64704
#
# Poissons Ratio (x) = 0.17138 0.16055
# Poissons Ratio (y) = 0.54750 0.71386
# Poissons Ratio (z) = 0.18535 0.25797
#
# Static dielectric constant tensor:
#      x y z
#    x 4.064940 0.000000 -0.114780 
#    y 0.000000 3.481560 0.000000 
#    z -0.114780 0.000000 4.086520 
# 
# 
# High freq. dielectric constant tensor:
#      x y z
#    x 1.819680 0.000000 -0.019320 
#    y 0.000000 1.747120 0.000000 
#    z -0.019320 0.000000 1.803130 
# 
# From -- ./inp_files/211127.got.cif
#   From: 2010.06.25/outbox.cif.g09.slc.cpg/sg15_106_cif.got.tgz:211127.got - 2010.06.28 07:06:18.
