data_PCOD8141017
_publ_section_title
;
Structure prediction by ZEFSAII (Michael W. Deem and Ramdas Pophale) SiO2 
 PCOD8141017
Probable space group: C 2/C
;
_chemical_formula_sum "Si O2"
_cell_formula_units_Z 44
_cell_length_a 11.994867
_cell_length_b 19.901497
_cell_length_c 12.064846
_cell_angle_alpha 90.000000
_cell_angle_beta 126.596418
_cell_angle_gamma 90.000000
_cell_volume 2312.277458
_symmetry_space_group_name_H-M "C 2/C"
_symmetry_group_IT_number 15
_symmetry_cell_setting 'monoclinic'
loop_
_space_group_symop_operation_xyz
x,y,z
-x,y,1/2-z
-x,-y,-z
x,-y,1/2+z
1/2+x,1/2+y,z
1/2-x,1/2+y,1/2-z
1/2-x,1/2-y,-z
1/2+x,1/2-y,1/2+z
loop_
_atom_site_type_symbol
_atom_site_label
_atom_site_fract_x
_atom_site_fract_y
_atom_site_fract_z
Si Si1 0.102568 0.475583 0.901262
Si Si2 0.217094 0.686909 0.095719
Si Si3 0.473847 0.102848 0.939345
Si Si4 0.000000 0.121313 0.250000
Si Si5 0.729580 0.831458 0.342698
Si Si6 0.623315 0.539883 0.517887
O O1 0.251774 0.488846 0.934536
O O2 0.000000 0.441760 0.750000
O O3 0.030524 0.545321 0.892454
O O4 0.122675 0.428069 0.020689
O O5 0.375544 0.667969 0.222106
O O6 0.190425 0.761110 0.131132
O O7 0.184376 0.677580 0.944499
O O8 0.102899 0.637700 0.081323
O O9 0.396308 0.158610 0.818060
O O10 0.065605 0.070776 0.373454
O O11 0.825846 0.896850 0.378128
O O12 0.500000 0.500000 0.500000
#
# Coordination Sequence:
#
# PCOD8141017 Si02
#       6
#     8   8   8   4   8   8
#     4  11  22  38  60  86 116 156 197 239 288 353
#     4  10  21  34  58  87 120 146 192 242 293 349
#     4  11  21  37  62  84 118 152 196 239 294 352
#     4  10  22  34  52  90 114 148 182 240 304 336
#     4  10  21  36  58  88 116 152 188 245 296 341
#     4  11  24  36  57  84 121 150 190 241 291 346
#
# _framework density 19.028860000000002
#
# number of rings (size 3 to 8) (size 9 to 14) (size 15 to 20)
#    0.000    1.455    5.455    0.545   12.727    0.000 
#    0.000    0.000    0.000    4.364    0.000    0.000 
#    0.000    0.000    0.000    0.000    0.000    0.000 
#
# Total GULP energy -272608.061233 kJ/mol
# GULP energy per Si atom -12391.275511 kJ/mol
# Density = 1.898555 g / cm^3
# Si number density = 19.028860 Si / 1000 Ang^3
#
#
#
# Elastic Constant Matrix: (Units=GPa)
#
#
# Indices 1 2 3 4 5 6 
#
# 1 98.2038 41.3430 27.4730 0.0000 20.3359 0.0000
# 2 41.3430 89.3073 23.3561 0.0000 10.7186 0.0000
# 3 27.4730 23.3561 89.4734 0.0000 21.5652 0.0000
# 4 0.0000 0.0000 0.0000 29.7259 0.0000 9.2727
# 5 20.3359 10.7186 21.5652 0.0000 22.5605 0.0000
# 6 0.0000 0.0000 0.0000 9.2727 0.0000 8.0650
#
#
#
# Elastic Compliance Matrix: (Units=1/GPa)
#
#
# Indices 1 2 3 4 5 6 
#
# 1 0.014747 -0.005441 -0.000685 0.000000 -0.010053 0.000000
# 2 -0.005441 0.014245 -0.002077 0.000000 0.000122 0.000000
# 3 -0.000685 -0.002077 0.014998 0.000000 -0.012732 0.000000
# 4 0.000000 0.000000 0.000000 0.052453 0.000000 -0.060308
# 5 -0.010053 0.000122 -0.012732 0.000000 0.065499 0.000000
# 6 0.000000 0.000000 0.000000 -0.060308 0.000000 0.193332
#
#
# Mechanical properties :
#
#
# Convention : Reuss Voigt Hill
#
# Bulk Modulus (GPa) = 36.25396 51.25876 43.75636
# Shear Modulus (GPa) = 13.12768 24.39110 18.75939
#
# Velocity S-wave (km/s) = 2.62941 3.58410 3.14321
# Velocity P-wave (km/s) = 5.32089 6.64256 6.01812
#
# Compressibility (1/GPa) = 0.02758319
#
# Stress axis : x y z
#
# Youngs Moduli (GPa) = 67.81072 70.20144 66.67703
#
# Poissons Ratio (x) = 0.38198 0.04565
# Poissons Ratio (y) = 0.36897 0.13850
# Poissons Ratio (z) = 0.04643 0.14583
#
# Static dielectric constant tensor:
#      x y z
#    x 4.121890 0.000000 1.571970 
#    y 0.000000 3.495780 0.000000 
#    z 1.571970 0.000000 5.428890 
# 
# 
# High freq. dielectric constant tensor:
#      x y z
#    x 1.699490 0.000000 0.025680 
#    y 0.000000 1.739570 0.000000 
#    z 0.025680 0.000000 1.745990 
# 
# From -- ./inp_files/89209.got.cif
#   From: 2010.06.25/outbox.cif.g09.slc.cpg/sg15_45_cif.got.tgz:89209.got - 2010.06.28 07:06:18.
