data_PCOD8141301
_publ_section_title
;
Structure prediction by ZEFSAII (Michael W. Deem and Ramdas Pophale) SiO2 
 PCOD8141301
Probable space group: C 2/C
;
_chemical_formula_sum "Si O2"
_cell_formula_units_Z 56
_cell_length_a 14.117461
_cell_length_b 26.714663
_cell_length_c 8.533610
_cell_angle_alpha 90.000000
_cell_angle_beta 120.304376
_cell_angle_gamma 90.000000
_cell_volume 2778.622253
_symmetry_space_group_name_H-M "C 2/C"
_symmetry_group_IT_number 15
_symmetry_cell_setting 'monoclinic'
loop_
_space_group_symop_operation_xyz
x,y,z
-x,y,1/2-z
-x,-y,-z
x,-y,1/2+z
1/2+x,1/2+y,z
1/2-x,1/2+y,1/2-z
1/2-x,1/2-y,-z
1/2+x,1/2-y,1/2+z
loop_
_atom_site_type_symbol
_atom_site_label
_atom_site_fract_x
_atom_site_fract_y
_atom_site_fract_z
Si Si1 0.214785 0.940574 0.144328
Si Si2 0.500242 0.198932 0.568698
Si Si3 0.740586 0.452585 0.802496
Si Si4 0.891583 0.621179 0.257775
Si Si5 0.953273 0.799205 0.374906
Si Si6 0.781889 0.343500 0.369794
Si Si7 0.983092 0.897811 0.915750
O O1 0.283027 0.894495 0.270889
O O2 0.244562 0.989053 0.268729
O O3 0.251491 0.946463 0.996646
O O4 0.084484 0.932146 0.054414
O O5 0.500000 0.185613 0.750000
O O6 0.416788 0.162406 0.409939
O O7 0.462412 0.255910 0.511395
O O8 0.622149 0.192806 0.605856
O O9 0.844348 0.427506 0.804557
O O10 0.627730 0.428334 0.645763
O O11 0.000000 0.606016 0.250000
O O12 0.798438 0.643491 0.066042
O O13 0.827346 0.812715 0.248414
O O14 0.000000 0.778894 0.250000
O O15 0.022662 0.847429 0.487118
O O16 0.000000 0.882119 0.750000
#
# Coordination Sequence:
#
# PCOD8141301 Si02
#       7
#     8   8   8   8   8   8   8
#     4  10  21  36  58  87 116 152 188 230 288 340
#     4  11  24  41  60  84 114 150 190 234 284 336
#     4  11  20  36  59  84 117 153 191 235 282 333
#     4  10  22  40  60  83 113 149 192 237 280 330
#     4  11  22  36  60  88 114 151 189 229 284 339
#     4  10  22  41  59  83 118 147 188 238 281 335
#     4   9  20  36  56  86 120 150 188 233 281 340
#
# _framework density 20.153872
#
# number of rings (size 3 to 8) (size 9 to 14) (size 15 to 20)
#    0.000    1.714    0.000    4.714    0.000    5.143 
#    0.000    7.857    0.000    0.000    0.000    0.000 
#    0.000    0.000    0.000    0.000    0.000    0.000 
#
# Total GULP energy -347368.102878 kJ/mol
# GULP energy per Si atom -12406.003674 kJ/mol
# Density = 2.010800 g / cm^3
# Si number density = 20.153872 Si / 1000 Ang^3
#
#
#
# Elastic Constant Matrix: (Units=GPa)
#
#
# Indices 1 2 3 4 5 6 
#
# 1 72.0814 52.7224 35.0595 0.0000 -2.7882 0.0000
# 2 52.7224 120.9607 62.8276 0.0000 5.6237 0.0000
# 3 35.0595 62.8276 127.0159 0.0000 -5.5323 0.0000
# 4 0.0000 0.0000 0.0000 30.8126 0.0000 -6.9360
# 5 -2.7882 5.6237 -5.5323 0.0000 33.3194 0.0000
# 6 0.0000 0.0000 0.0000 -6.9360 0.0000 21.9438
#
#
#
# Elastic Compliance Matrix: (Units=1/GPa)
#
#
# Indices 1 2 3 4 5 6 
#
# 1 0.020905 -0.008503 -0.001436 0.000000 0.002946 0.000000
# 2 -0.008503 0.014852 -0.005177 0.000000 -0.004078 0.000000
# 3 -0.001436 -0.005177 0.010942 0.000000 0.002570 0.000000
# 4 0.000000 0.000000 0.000000 0.034940 0.000000 0.011044
# 5 0.002946 -0.004078 0.002570 0.000000 0.031374 0.000000
# 6 0.000000 0.000000 0.000000 0.011044 0.000000 0.049062
#
#
# Mechanical properties :
#
#
# Convention : Reuss Voigt Hill
#
# Bulk Modulus (GPa) = 60.72715 69.03075 64.87895
# Shear Modulus (GPa) = 25.27867 28.51172 26.89520
#
# Velocity S-wave (km/s) = 3.54543 3.76533 3.65703
# Velocity P-wave (km/s) = 6.85254 7.29588 7.07768
#
# Compressibility (1/GPa) = 0.01646710
#
# Stress axis : x y z
#
# Youngs Moduli (GPa) = 47.83596 67.33249 91.38977
#
# Poissons Ratio (x) = 0.57251 0.13125
# Poissons Ratio (y) = 0.40673 0.47312
# Poissons Ratio (z) = 0.06870 0.34858
#
# Static dielectric constant tensor:
#      x y z
#    x 3.566510 0.000000 -0.002210 
#    y 0.000000 3.567500 0.000000 
#    z -0.002210 0.000000 3.916750 
# 
# 
# High freq. dielectric constant tensor:
#      x y z
#    x 1.783040 0.000000 -0.001390 
#    y 0.000000 1.789120 0.000000 
#    z -0.001390 0.000000 1.802830 
# 
# From -- ./inp_files/42525.got.cif
#   From: 2010.06.25/outbox.cif.g09.slc.cpg/sg15_22_cif.got.tgz:42525.got - 2010.06.28 07:06:18.
