data_PCOD8141207
_publ_section_title
;
Structure prediction by ZEFSAII (Michael W. Deem and Ramdas Pophale) SiO2 
 PCOD8141207
Probable space group: C 2/C
;
_chemical_formula_sum "Si O2"
_cell_formula_units_Z 60
_cell_length_a 21.647232
_cell_length_b 29.205308
_cell_length_c 5.325916
_cell_angle_alpha 90.000000
_cell_angle_beta 76.823625
_cell_angle_gamma 90.000000
_cell_volume 3278.472851
_symmetry_space_group_name_H-M "C 2/C"
_symmetry_group_IT_number 15
_symmetry_cell_setting 'monoclinic'
loop_
_space_group_symop_operation_xyz
x,y,z
-x,y,1/2-z
-x,-y,-z
x,-y,1/2+z
1/2+x,1/2+y,z
1/2-x,1/2+y,1/2-z
1/2-x,1/2-y,-z
1/2+x,1/2-y,1/2+z
loop_
_atom_site_type_symbol
_atom_site_label
_atom_site_fract_x
_atom_site_fract_y
_atom_site_fract_z
Si Si1 0.273322 0.323944 0.967660
Si Si2 0.000000 0.105365 0.250000
Si Si3 0.930768 0.022209 0.459251
Si Si4 0.302961 0.377162 0.435484
Si Si5 0.352791 0.765145 0.413475
Si Si6 0.928623 0.737969 0.351247
Si Si7 0.210509 0.984266 0.971323
Si Si8 0.564754 0.344972 0.080541
O O1 0.271617 0.356899 0.212085
O O2 0.208615 0.296302 0.028987
O O3 0.276076 0.352397 0.708101
O O4 0.332647 0.288456 0.915687
O O5 0.045881 0.074450 0.027412
O O6 0.055681 0.138748 0.303452
O O7 0.958714 0.992325 0.661475
O O8 0.854897 0.012831 0.523542
O O9 0.293811 0.430964 0.467043
O O10 0.377438 0.369820 0.341044
O O11 0.389743 0.774573 0.637938
O O12 0.395403 0.781016 0.135344
O O13 0.930441 0.791583 0.389541
O O14 0.000000 0.718321 0.250000
O O15 0.247308 0.008054 0.172210
O O16 0.500000 0.365219 0.250000
#
# Coordination Sequence:
#
# PCOD8141207 Si02
#       8
#     8   4   8   8   8   8   8   8
#     4  11  23  38  63  81 104 145 186 249 284 334
#     4  12  26  34  54  64 102 140 202 240 296 336
#     4  10  22  38  48  64  85 130 180 234 290 335
#     4  12  23  39  56  81 104 138 200 244 298 335
#     4  11  21  42  59  83 112 141 187 230 295 351
#     4  11  23  38  57  82 118 145 180 222 297 353
#     4  10  21  36  53  70 102 139 182 239 292 340
#     4  11  26  33  50  74 104 142 184 249 296 338
#
# _framework density 18.301203000000001
#
# number of rings (size 3 to 8) (size 9 to 14) (size 15 to 20)
#    0.000    1.067    2.667    4.000   11.200    2.133 
#    0.000    0.000    0.000    0.000    0.000    0.000 
#    0.000    0.000    0.000    0.000    0.000  168.000 
#
# Total GULP energy -371669.472498 kJ/mol
# GULP energy per Si atom -12388.982417 kJ/mol
# Density = 1.825955 g / cm^3
# Si number density = 18.301203 Si / 1000 Ang^3
#
#
#
# Elastic Constant Matrix: (Units=GPa)
#
#
# Indices 1 2 3 4 5 6 
#
# 1 69.9803 24.4428 39.8079 0.0000 8.1162 0.0000
# 2 24.4428 65.7815 26.6689 0.0000 3.3659 0.0000
# 3 39.8079 26.6689 140.6592 0.0000 6.9863 0.0000
# 4 0.0000 0.0000 0.0000 28.5565 0.0000 2.6800
# 5 8.1162 3.3659 6.9863 0.0000 24.6199 0.0000
# 6 0.0000 0.0000 0.0000 2.6800 0.0000 17.0777
#
#
#
# Elastic Compliance Matrix: (Units=1/GPa)
#
#
# Indices 1 2 3 4 5 6 
#
# 1 0.018964 -0.005130 -0.004178 0.000000 -0.004365 0.000000
# 2 -0.005130 0.017902 -0.001932 0.000000 -0.000208 0.000000
# 3 -0.004178 -0.001932 0.008699 0.000000 -0.000827 0.000000
# 4 0.000000 0.000000 0.000000 0.035542 0.000000 -0.005577
# 5 -0.004365 -0.000208 -0.000827 0.000000 0.042320 0.000000
# 6 0.000000 0.000000 0.000000 -0.005577 0.000000 0.059431
#
#
# Mechanical properties :
#
#
# Convention : Reuss Voigt Hill
#
# Bulk Modulus (GPa) = 43.31563 50.91779 47.11671
# Shear Modulus (GPa) = 23.47071 26.41759 24.94415
#
# Velocity S-wave (km/s) = 3.58504 3.80345 3.69586
# Velocity P-wave (km/s) = 6.39189 6.86810 6.63427
#
# Compressibility (1/GPa) = 0.02308636
#
# Stress axis : x y z
#
# Youngs Moduli (GPa) = 52.73130 55.86027 114.95426
#
# Poissons Ratio (x) = 0.28654 0.48024
# Poissons Ratio (y) = 0.27049 0.22211
# Poissons Ratio (z) = 0.22029 0.10793
#
# Static dielectric constant tensor:
#      x y z
#    x 1.907030 0.000000 -1.583060 
#    y 0.000000 3.136590 0.000000 
#    z -1.583060 0.000000 1.954460 
# 
# 
# High freq. dielectric constant tensor:
#      x y z
#    x 1.672170 0.000000 0.015660 
#    y 0.000000 1.685820 0.000000 
#    z 0.015660 0.000000 1.742310 
# 
# From -- ./inp_files/14264.got.cif
#   From: 2010.06.25/outbox.cif.g09.slc.cpg/sg15_8_cif.got.tgz:14264.got - 2010.06.28 07:06:18.
