data_PCOD8141441
_publ_section_title
;
Structure prediction by ZEFSAII (Michael W. Deem and Ramdas Pophale) SiO2 
 PCOD8141441
Probable space group: C 2/C
;
_chemical_formula_sum "Si O2"
_cell_formula_units_Z 60
_cell_length_a 10.813950
_cell_length_b 19.044314
_cell_length_c 14.893341
_cell_angle_alpha 90.000000
_cell_angle_beta 98.600957
_cell_angle_gamma 90.000000
_cell_volume 3032.704014
_symmetry_space_group_name_H-M "C 2/C"
_symmetry_group_IT_number 15
_symmetry_cell_setting 'monoclinic'
loop_
_space_group_symop_operation_xyz
x,y,z
-x,y,1/2-z
-x,-y,-z
x,-y,1/2+z
1/2+x,1/2+y,z
1/2-x,1/2+y,1/2-z
1/2-x,1/2-y,-z
1/2+x,1/2-y,1/2+z
loop_
_atom_site_type_symbol
_atom_site_label
_atom_site_fract_x
_atom_site_fract_y
_atom_site_fract_z
Si Si1 0.366127 0.618615 0.779471
Si Si2 0.239835 0.336117 0.736812
Si Si3 0.431757 0.739079 0.901078
Si Si4 0.813892 0.502876 0.234874
Si Si5 0.025437 0.304574 0.075151
Si Si6 0.500000 0.720326 0.250000
Si Si7 0.287256 0.275661 0.128095
Si Si8 0.002795 0.535546 0.902385
O O1 0.500000 0.606956 0.750000
O O2 0.369838 0.663736 0.873097
O O3 0.310538 0.542527 0.794654
O O4 0.281170 0.664769 0.704532
O O5 0.129986 0.301004 0.664973
O O6 0.216001 0.417419 0.747372
O O7 0.379196 0.326545 0.710512
O O8 0.237686 0.301343 0.834275
O O9 0.578380 0.727643 0.901077
O O10 0.424305 0.762258 0.003873
O O11 0.891944 0.497523 0.151151
O O12 0.875771 0.472889 0.332398
O O13 0.169262 0.297425 0.050754
O O14 0.033105 0.271625 0.173225
O O15 0.973856 0.382954 0.076170
O O16 0.000000 0.500000 0.000000
#
# Coordination Sequence:
#
# PCOD8141441 Si02
#       8
#     8   8   8   8   8   4   8   8
#     4   9  19  39  62  89 118 164 211 245 312 385
#     4  10  22  37  62  86 123 157 208 253 306 377
#     4  10  21  36  64  94 117 154 212 261 303 366
#     4  11  23  41  64  85 130 171 196 262 321 367
#     4  11  21  39  63  87 126 156 205 266 305 376
#     4  10  24  42  58  90 118 170 210 248 330 364
#     4   9  19  37  61  89 117 157 203 250 308 370
#     4  11  25  39  63  96 124 162 212 252 323 381
#
# _framework density 19.784323000000001
#
# number of rings (size 3 to 8) (size 9 to 14) (size 15 to 20)
#    0.000    1.867    1.333    3.200   10.267    0.533 
#    2.400    0.000    0.000    4.000    0.000    0.000 
#    0.000    0.000    0.000    0.000    0.000    0.000 
#
# Total GULP energy -371727.248311 kJ/mol
# GULP energy per Si atom -12390.908277 kJ/mol
# Density = 1.973929 g / cm^3
# Si number density = 19.784323 Si / 1000 Ang^3
#
#
#
# Elastic Constant Matrix: (Units=GPa)
#
#
# Indices 1 2 3 4 5 6 
#
# 1 68.9944 42.9940 24.3013 0.0000 2.9454 0.0000
# 2 42.9940 121.8490 36.5102 0.0000 -3.5660 0.0000
# 3 24.3013 36.5102 107.4778 0.0000 7.3428 0.0000
# 4 0.0000 0.0000 0.0000 16.9375 0.0000 6.0671
# 5 2.9454 -3.5660 7.3428 0.0000 15.6357 0.0000
# 6 0.0000 0.0000 0.0000 6.0671 0.0000 27.1932
#
#
#
# Elastic Compliance Matrix: (Units=1/GPa)
#
#
# Indices 1 2 3 4 5 6 
#
# 1 0.019313 -0.006362 -0.001920 0.000000 -0.004188 0.000000
# 2 -0.006362 0.011440 -0.002797 0.000000 0.005121 0.000000
# 3 -0.001920 -0.002797 0.011062 0.000000 -0.005472 0.000000
# 4 0.000000 0.000000 0.000000 0.064169 0.000000 -0.014317
# 5 -0.004188 0.005121 -0.005472 0.000000 0.068483 0.000000
# 6 0.000000 0.000000 0.000000 -0.014317 0.000000 0.039968
#
#
# Mechanical properties :
#
#
# Convention : Reuss Voigt Hill
#
# Bulk Modulus (GPa) = 50.87157 56.21469 53.54313
# Shear Modulus (GPa) = 20.56378 24.92098 22.74238
#
# Velocity S-wave (km/s) = 3.22747 3.55298 3.39413
# Velocity P-wave (km/s) = 6.29743 6.73105 6.51785
#
# Compressibility (1/GPa) = 0.01965735
#
# Stress axis : x y z
#
# Youngs Moduli (GPa) = 51.77768 87.41400 90.39642
#
# Poissons Ratio (x) = 0.55613 0.17352
# Poissons Ratio (y) = 0.32941 0.25288
# Poissons Ratio (z) = 0.09939 0.24454
#
# Static dielectric constant tensor:
#      x y z
#    x 3.888680 0.000000 0.257360 
#    y 0.000000 3.572920 0.000000 
#    z 0.257360 0.000000 3.725070 
# 
# 
# High freq. dielectric constant tensor:
#      x y z
#    x 1.778330 0.000000 0.011550 
#    y 0.000000 1.768120 0.000000 
#    z 0.011550 0.000000 1.762860 
# 
# From -- ./inp_files/145728.got.cif
#   From: 2010.06.25/outbox.cif.g09.slc.cpg/sg15_73_cif.got.tgz:145728.got - 2010.06.28 07:06:18.
