data_PCOD8141210
_publ_section_title
;
Structure prediction by ZEFSAII (Michael W. Deem and Ramdas Pophale) SiO2 
 PCOD8141210
Probable space group: C 2/C
;
_chemical_formula_sum "Si O2"
_cell_formula_units_Z 48
_cell_length_a 4.987058
_cell_length_b 16.537580
_cell_length_c 29.989954
_cell_angle_alpha 90.000000
_cell_angle_beta 105.916789
_cell_angle_gamma 90.000000
_cell_volume 2378.560360
_symmetry_space_group_name_H-M "C 2/C"
_symmetry_group_IT_number 15
_symmetry_cell_setting 'monoclinic'
loop_
_space_group_symop_operation_xyz
x,y,z
-x,y,1/2-z
-x,-y,-z
x,-y,1/2+z
1/2+x,1/2+y,z
1/2-x,1/2+y,1/2-z
1/2-x,1/2-y,-z
1/2+x,1/2-y,1/2+z
loop_
_atom_site_type_symbol
_atom_site_label
_atom_site_fract_x
_atom_site_fract_y
_atom_site_fract_z
Si Si1 0.201292 0.266156 0.221313
Si Si2 0.893472 0.434497 0.531091
Si Si3 0.796927 0.457400 0.278832
Si Si4 0.893042 0.439432 0.866753
Si Si5 0.887250 0.174149 0.031044
Si Si6 0.121803 0.165461 0.133343
O O1 0.500000 0.233382 0.250000
O O2 0.193991 0.361765 0.217882
O O3 0.098701 0.234689 0.168971
O O4 0.000000 0.232086 0.250000
O O5 0.581336 0.391902 0.511514
O O6 0.000000 0.500000 0.500000
O O7 0.927707 0.472054 0.582318
O O8 0.111317 0.363347 0.538520
O O9 0.500000 0.490774 0.250000
O O10 0.871432 0.487348 0.331386
O O11 0.000000 0.491139 0.250000
O O12 0.587165 0.408762 0.866406
O O13 0.063007 0.367005 0.851364
O O14 0.066970 0.204016 0.081770
O O15 0.750000 0.250000 0.000000
#
# Coordination Sequence:
#
# PCOD8141210 Si02
#       6
#     8   8   8   8   8   8
#     4  10  21  36  53  77 108 140 177 220 267 322
#     4  10  21  38  58  83 113 145 185 231 278 332
#     4  10  21  36  53  77 108 140 177 220 267 322
#     4  10  21  36  55  80 108 139 180 225 268 322
#     4  10  21  38  58  83 113 145 185 231 278 332
#     4  10  21  36  55  80 108 139 180 225 268 322
#
# _framework density 20.180274000000001
#
# number of rings (size 3 to 8) (size 9 to 14) (size 15 to 20)
#    0.000    2.000    0.000    3.000    0.000    5.333 
#    0.000    5.000    0.000    0.000    0.000    0.000 
#    0.000    0.000    0.000    0.000    0.000    0.000 
#
# Total GULP energy -297360.838959 kJ/mol
# GULP energy per Si atom -12390.034957 kJ/mol
# Density = 2.013434 g / cm^3
# Si number density = 20.180274 Si / 1000 Ang^3
#
#
#
# Elastic Constant Matrix: (Units=GPa)
#
#
# Indices 1 2 3 4 5 6 
#
# 1 122.7175 20.0197 37.5985 0.0000 -8.5707 0.0000
# 2 20.0197 43.1462 52.6015 0.0000 -5.2318 0.0000
# 3 37.5985 52.6015 132.8628 0.0000 -12.7828 0.0000
# 4 0.0000 0.0000 0.0000 35.8750 0.0000 -0.1451
# 5 -8.5707 -5.2318 -12.7828 0.0000 28.5758 0.0000
# 6 0.0000 0.0000 0.0000 -0.1451 0.0000 2.0872
#
#
#
# Elastic Compliance Matrix: (Units=1/GPa)
#
#
# Indices 1 2 3 4 5 6 
#
# 1 0.009090 -0.002078 -0.001592 0.000000 0.001633 0.000000
# 2 -0.002078 0.045279 -0.017347 0.000000 -0.000093 0.000000
# 3 -0.001592 -0.017347 0.015145 0.000000 0.003121 0.000000
# 4 0.000000 0.000000 0.000000 0.027882 0.000000 0.001938
# 5 0.001633 -0.000093 0.003121 0.000000 0.036864 0.000000
# 6 0.000000 0.000000 0.000000 0.001938 0.000000 0.479237
#
#
# Mechanical properties :
#
#
# Convention : Reuss Voigt Hill
#
# Bulk Modulus (GPa) = 36.39218 57.68512 47.03865
# Shear Modulus (GPa) = 7.52229 25.87472 16.69850
#
# Velocity S-wave (km/s) = 1.93278 3.58464 2.87969
# Velocity P-wave (km/s) = 4.80141 6.76608 5.86657
#
# Compressibility (1/GPa) = 0.02747843
#
# Stress axis : x y z
#
# Youngs Moduli (GPa) = 110.01362 22.08545 66.02701
#
# Poissons Ratio (x) = 0.04590 0.10514
# Poissons Ratio (y) = 0.22864 1.14537
# Poissons Ratio (z) = 0.17518 0.38312
#
# Static dielectric constant tensor:
#      x y z
#    x 4.098640 0.000000 -0.003690 
#    y 0.000000 3.279040 0.000000 
#    z -0.003690 0.000000 3.993070 
# 
# 
# High freq. dielectric constant tensor:
#      x y z
#    x 1.812800 0.000000 -0.005230 
#    y 0.000000 1.759370 0.000000 
#    z -0.005230 0.000000 1.793960 
# 
# From -- ./inp_files/260766.got.cif
#   From: 2010.06.25/outbox.cif.g09.slc.cpg/sg15_131_cif.got.tgz:260766.got - 2010.06.28 07:06:18.
