data_PCOD8141715
_publ_section_title
;
Structure prediction by ZEFSAII (Michael W. Deem and Ramdas Pophale) SiO2 
 PCOD8141715
Probable space group: C 2/C
;
_chemical_formula_sum "Si O2"
_cell_formula_units_Z 60
_cell_length_a 24.478163
_cell_length_b 9.281392
_cell_length_c 15.837651
_cell_angle_alpha 90.000000
_cell_angle_beta 56.253556
_cell_angle_gamma 90.000000
_cell_volume 2991.900161
_symmetry_space_group_name_H-M "C 2/C"
_symmetry_group_IT_number 15
_symmetry_cell_setting 'monoclinic'
loop_
_space_group_symop_operation_xyz
x,y,z
-x,y,1/2-z
-x,-y,-z
x,-y,1/2+z
1/2+x,1/2+y,z
1/2-x,1/2+y,1/2-z
1/2-x,1/2-y,-z
1/2+x,1/2-y,1/2+z
loop_
_atom_site_type_symbol
_atom_site_label
_atom_site_fract_x
_atom_site_fract_y
_atom_site_fract_z
Si Si1 0.179318 0.769421 0.395065
Si Si2 0.394454 0.992018 0.597562
Si Si3 0.896205 0.010919 0.121272
Si Si4 0.481711 0.451888 0.382585
Si Si5 0.500000 0.915233 0.250000
Si Si6 0.667877 0.237489 0.744984
Si Si7 0.602668 0.319960 0.628885
Si Si8 0.005040 0.369850 0.603787
O O1 0.165494 0.600846 0.388981
O O2 0.145392 0.864064 0.350450
O O3 0.256211 0.799113 0.327365
O O4 0.153637 0.818367 0.508387
O O5 0.369959 0.091471 0.696153
O O6 0.424487 0.090419 0.497204
O O7 0.449864 0.874527 0.577768
O O8 0.945130 0.012385 0.160561
O O9 0.845463 0.143166 0.171946
O O10 0.938745 0.031898 0.002202
O O11 0.445457 0.538612 0.337413
O O12 0.488147 0.283233 0.355520
O O13 0.441889 0.821122 0.338627
O O14 0.523213 0.015318 0.306051
O O15 0.643025 0.311609 0.680266
#
# Coordination Sequence:
#
# PCOD8141715 Si02
#       8
#     8   8   8   8   4   8   8   8
#     4  11  23  42  62  87 131 170 210 258 308 381
#     4  11  22  39  65  94 121 156 217 264 311 365
#     4  10  21  37  62  91 116 161 215 252 316 371
#     4  10  21  39  62  88 127 154 201 271 318 366
#     4  12  22  38  62  90 122 154 206 260 316 374
#     4  12  23  40  63  91 125 173 214 252 308 388
#     4  11  24  39  61  95 124 165 210 258 320 382
#     4  11  22  38  64  92 123 157 197 271 322 368
#
# _framework density 20.054145999999999
#
# number of rings (size 3 to 8) (size 9 to 14) (size 15 to 20)
#    0.000    1.067    5.333    2.000    0.000    1.600 
#    0.000    0.000    0.000    0.800    0.000    0.000 
#    0.000    0.000    0.000    0.000    0.000    0.000 
#
# Total GULP energy -371953.656150 kJ/mol
# GULP energy per Si atom -12398.455205 kJ/mol
# Density = 2.000850 g / cm^3
# Si number density = 20.054146 Si / 1000 Ang^3
#
#
#
# Elastic Constant Matrix: (Units=GPa)
#
#
# Indices 1 2 3 4 5 6 
#
# 1 79.7256 34.9040 41.8367 0.0000 -5.7819 0.0000
# 2 34.9040 121.3336 34.2743 0.0000 -11.1193 0.0001
# 3 41.8367 34.2743 72.3419 0.0000 -18.8727 0.0000
# 4 0.0000 0.0000 0.0000 26.4255 0.0000 -1.2805
# 5 -5.7819 -11.1193 -18.8727 0.0000 31.2769 0.0000
# 6 0.0000 0.0001 0.0000 -1.2805 0.0000 25.0935
#
#
#
# Elastic Compliance Matrix: (Units=1/GPa)
#
#
# Indices 1 2 3 4 5 6 
#
# 1 0.019143 -0.002829 -0.010764 0.000000 -0.003962 0.000000
# 2 -0.002829 0.009950 -0.002719 0.000000 0.001373 0.000000
# 3 -0.010764 -0.002719 0.024407 0.000000 0.011771 0.000000
# 4 0.000000 0.000000 0.000000 0.037936 0.000000 0.001936
# 5 -0.003962 0.001373 0.011771 0.000000 0.038831 0.000000
# 6 0.000000 0.000000 0.000000 0.001936 0.000000 0.039950
#
#
# Mechanical properties :
#
#
# Convention : Reuss Voigt Hill
#
# Bulk Modulus (GPa) = 47.90481 55.04790 51.47635
# Shear Modulus (GPa) = 23.83224 27.38492 25.60858
#
# Velocity S-wave (km/s) = 3.45105 3.69934 3.57735
# Velocity P-wave (km/s) = 6.31025 6.76432 6.54123
#
# Compressibility (1/GPa) = 0.02087473
#
# Stress axis : x y z
#
# Youngs Moduli (GPa) = 52.23909 100.50557 40.97119
#
# Poissons Ratio (x) = 0.28436 0.44100
# Poissons Ratio (y) = 0.14780 0.11142
# Poissons Ratio (z) = 0.56229 0.27332
#
# Static dielectric constant tensor:
#      x y z
#    x 3.568200 0.000000 0.000310 
#    y 0.000000 3.736590 0.000000 
#    z 0.000310 0.000000 3.569210 
# 
# 
# High freq. dielectric constant tensor:
#      x y z
#    x 1.765630 0.000000 0.000480 
#    y 0.000000 1.789220 0.000000 
#    z 0.000480 0.000000 1.787730 
# 
# From -- ./inp_files/218575.got.cif
#   From: 2010.06.25/outbox.cif.g09.slc.cpg/sg15_110_cif.got.tgz:218575.got - 2010.06.28 07:06:18.
