data_PCOD8141683
_publ_section_title
;
Structure prediction by ZEFSAII (Michael W. Deem and Ramdas Pophale) SiO2 
 PCOD8141683
Probable space group: C 2/C
;
_chemical_formula_sum "Si O2"
_cell_formula_units_Z 64
_cell_length_a 11.321028
_cell_length_b 19.625504
_cell_length_c 20.240568
_cell_angle_alpha 90.000000
_cell_angle_beta 136.385606
_cell_angle_gamma 90.000000
_cell_volume 3102.083488
_symmetry_space_group_name_H-M "C 2/C"
_symmetry_group_IT_number 15
_symmetry_cell_setting 'monoclinic'
loop_
_space_group_symop_operation_xyz
x,y,z
-x,y,1/2-z
-x,-y,-z
x,-y,1/2+z
1/2+x,1/2+y,z
1/2-x,1/2+y,1/2-z
1/2-x,1/2-y,-z
1/2+x,1/2-y,1/2+z
loop_
_atom_site_type_symbol
_atom_site_label
_atom_site_fract_x
_atom_site_fract_y
_atom_site_fract_z
Si Si1 0.584421 0.849557 0.534141
Si Si2 0.341638 0.599955 0.045577
Si Si3 0.446915 0.265160 0.894393
Si Si4 0.179564 0.245373 0.296214
Si Si5 0.357310 0.232616 0.136011
Si Si6 0.766920 0.639482 0.986645
Si Si7 0.000557 0.027643 0.926160
Si Si8 0.307765 0.896562 0.155936
O O1 0.715931 0.904855 0.557997
O O2 0.558684 0.799810 0.460466
O O3 0.669592 0.807281 0.628202
O O4 0.409917 0.884342 0.490463
O O5 0.435574 0.672056 0.079011
O O6 0.480958 0.539316 0.112521
O O7 0.234267 0.583128 0.936062
O O8 0.327586 0.242716 0.785000
O O9 0.328257 0.283541 0.908202
O O10 0.218993 0.315884 0.348940
O O11 0.000000 0.215269 0.250000
O O12 0.500000 0.229121 0.250000
O O13 0.378177 0.173870 0.090150
O O14 0.358864 0.306135 0.100219
O O15 0.657998 0.577653 0.971956
O O16 0.819681 0.066248 0.843466
O O17 0.000000 0.000000 0.000000
O O18 0.500000 0.919674 0.250000
#
# Coordination Sequence:
#
# PCOD8141683 Si02
#       8
#     8   8   8   8   8   8   8   8
#     4  11  21  37  61  90 126 158 205 263 312 371
#     4  11  21  40  61  87 127 169 203 247 314 371
#     4  11  21  35  61  92 121 159 208 262 311 362
#     4  11  20  33  61  93 126 152 200 263 310 357
#     4  10  21  37  61  93 126 156 202 263 319 368
#     4  10  23  39  60  92 124 164 206 257 312 370
#     4  10  23  42  65  85 123 172 207 250 308 380
#     4  10  21  37  63  93 118 158 210 255 302 364
#
# _framework density 20.631295000000001
#
# number of rings (size 3 to 8) (size 9 to 14) (size 15 to 20)
#    0.000    1.500    2.500    4.125    5.250    0.500 
#    0.000    8.125    2.750    0.000    0.000    0.000 
#    0.000    0.000    0.000    0.000    0.000    0.000 
#
# Total GULP energy -396701.139813 kJ/mol
# GULP energy per Si atom -12396.910619 kJ/mol
# Density = 2.058434 g / cm^3
# Si number density = 20.631295 Si / 1000 Ang^3
#
#
#
# Elastic Constant Matrix: (Units=GPa)
#
#
# Indices 1 2 3 4 5 6 
#
# 1 134.8976 60.9145 16.6902 0.0000 16.2062 0.0000
# 2 60.9145 70.5698 19.2459 0.0000 11.1835 0.0000
# 3 16.6902 19.2459 90.5962 0.0000 -2.0389 0.0000
# 4 0.0000 0.0000 0.0000 12.6988 0.0000 6.3320
# 5 16.2062 11.1835 -2.0389 0.0000 35.3324 0.0000
# 6 0.0000 0.0000 0.0000 6.3320 0.0000 40.0706
#
#
#
# Elastic Compliance Matrix: (Units=1/GPa)
#
#
# Indices 1 2 3 4 5 6 
#
# 1 0.012342 -0.010225 -0.000156 0.000000 -0.002434 0.000000
# 2 -0.010225 0.024431 -0.003379 0.000000 -0.003238 0.000000
# 3 -0.000156 -0.003379 0.011826 0.000000 0.001824 0.000000
# 4 0.000000 0.000000 0.000000 0.085483 0.000000 -0.013508
# 5 -0.002434 -0.003238 0.001824 0.000000 0.030549 0.000000
# 6 0.000000 0.000000 0.000000 -0.013508 0.000000 0.027091
#
#
# Mechanical properties :
#
#
# Convention : Reuss Voigt Hill
#
# Bulk Modulus (GPa) = 47.44357 54.41830 50.93094
# Shear Modulus (GPa) = 22.09764 30.90123 26.49943
#
# Velocity S-wave (km/s) = 3.27628 3.87432 3.58778
# Velocity P-wave (km/s) = 6.11211 6.81525 6.47323
#
# Compressibility (1/GPa) = 0.02107767
#
# Stress axis : x y z
#
# Youngs Moduli (GPa) = 81.02430 40.93127 84.56160
#
# Poissons Ratio (x) = 0.41853 0.01322
# Poissons Ratio (y) = 0.82848 0.28575
# Poissons Ratio (z) = 0.01267 0.13832
#
# Static dielectric constant tensor:
#      x y z
#    x 4.128690 0.000000 0.043660 
#    y 0.000000 3.673750 0.000000 
#    z 0.043660 0.000000 3.686250 
# 
# 
# High freq. dielectric constant tensor:
#      x y z
#    x 1.829440 0.000000 0.005540 
#    y 0.000000 1.779020 0.000000 
#    z 0.005540 0.000000 1.793040 
# 
# From -- ./inp_files/240444.got.cif
#   From: 2010.06.25/outbox.cif.g09.slc.cpg/sg15_121_cif.got.tgz:240444.got - 2010.06.28 07:06:18.
