data_PCOD8141961
_publ_section_title
;
Structure prediction by ZEFSAII (Michael W. Deem and Ramdas Pophale) SiO2 
 PCOD8141961
Probable space group: C 2/C
;
_chemical_formula_sum "Si O2"
_cell_formula_units_Z 52
_cell_length_a 12.300655
_cell_length_b 21.591265
_cell_length_c 9.852724
_cell_angle_alpha 90.000000
_cell_angle_beta 61.946835
_cell_angle_gamma 90.000000
_cell_volume 2309.314379
_symmetry_space_group_name_H-M "C 2/C"
_symmetry_group_IT_number 15
_symmetry_cell_setting 'monoclinic'
loop_
_space_group_symop_operation_xyz
x,y,z
-x,y,1/2-z
-x,-y,-z
x,-y,1/2+z
1/2+x,1/2+y,z
1/2-x,1/2+y,1/2-z
1/2-x,1/2-y,-z
1/2+x,1/2-y,1/2+z
loop_
_atom_site_type_symbol
_atom_site_label
_atom_site_fract_x
_atom_site_fract_y
_atom_site_fract_z
Si Si1 0.695167 0.883663 0.846393
Si Si2 0.374230 0.317401 0.059756
Si Si3 0.500000 0.341389 0.250000
Si Si4 0.463581 0.049110 0.413334
Si Si5 0.882458 0.053186 0.416319
Si Si6 0.121734 0.705328 0.615758
Si Si7 0.698349 0.579016 0.488818
O O1 0.554822 0.893578 0.883959
O O2 0.756478 0.936598 0.904809
O O3 0.780144 0.881100 0.661335
O O4 0.685847 0.821990 0.941517
O O5 0.448682 0.300399 0.154129
O O6 0.228399 0.301989 0.166717
O O7 0.401543 0.389839 0.010021
O O8 0.418578 0.274661 0.906569
O O9 0.387906 0.383813 0.361062
O O10 0.500000 0.017491 0.250000
O O11 0.323741 0.071267 0.500496
O O12 0.500000 0.000000 0.500000
O O13 0.000000 0.048252 0.250000
O O14 0.861616 0.988581 0.509864
O O15 0.000000 0.672451 0.750000
#
# Coordination Sequence:
#
# PCOD8141961 Si02
#       7
#     8   8   4   8   8   8   8
#     4  10  23  41  64  96 127 176 227 291 332 398
#     4  10  25  44  68 101 135 174 231 291 333 410
#     4  12  26  42  64 104 146 180 220 280 356 420
#     4  10  21  38  59  91 133 176 230 288 344 410
#     4  11  21  38  67  95 136 183 224 271 338 409
#     4  10  23  49  76  96 124 179 242 284 343 408
#     4  11  24  39  63 100 143 180 225 273 353 418
#
# _framework density 22.517505
#
# number of rings (size 3 to 8) (size 9 to 14) (size 15 to 20)
#    0.000    1.538    2.308    1.385    4.308    4.308 
#    4.154    1.538    0.000    0.000    0.000    0.000 
#    0.000    0.000    0.000    0.000    0.000    0.000 
#
# Total GULP energy -322145.852126 kJ/mol
# GULP energy per Si atom -12390.225082 kJ/mol
# Density = 2.246625 g / cm^3
# Si number density = 22.517505 Si / 1000 Ang^3
#
#
#
# Elastic Constant Matrix: (Units=GPa)
#
#
# Indices 1 2 3 4 5 6 
#
# 1 146.2818 21.2560 65.2848 0.0000 3.3832 0.0000
# 2 21.2560 65.7465 29.0633 0.0000 -4.1267 0.0000
# 3 65.2848 29.0633 109.9828 0.0000 -13.9805 0.0000
# 4 0.0000 0.0000 0.0000 23.1867 0.0000 1.6343
# 5 3.3832 -4.1267 -13.9805 0.0000 43.8472 0.0000
# 6 0.0000 0.0000 0.0000 1.6343 0.0000 20.0846
#
#
#
# Elastic Compliance Matrix: (Units=1/GPa)
#
#
# Indices 1 2 3 4 5 6 
#
# 1 0.009616 -0.000683 -0.005868 0.000000 -0.002677 0.000000
# 2 -0.000683 0.017271 -0.004112 0.000000 0.000367 0.000000
# 3 -0.005868 -0.004112 0.014248 0.000000 0.004609 0.000000
# 4 0.000000 0.000000 0.000000 0.043377 0.000000 -0.003530
# 5 -0.002677 0.000367 0.004609 0.000000 0.024517 0.000000
# 6 0.000000 0.000000 0.000000 -0.003530 0.000000 0.050077
#
#
# Mechanical properties :
#
#
# Convention : Reuss Voigt Hill
#
# Bulk Modulus (GPa) = 50.48009 61.46882 55.97445
# Shear Modulus (GPa) = 26.73298 31.18417 28.95857
#
# Velocity S-wave (km/s) = 3.44933 3.72544 3.59004
# Velocity P-wave (km/s) = 6.19117 6.77220 6.48820
#
# Compressibility (1/GPa) = 0.01980979
#
# Stress axis : x y z
#
# Youngs Moduli (GPa) = 103.99251 57.89892 70.18610
#
# Poissons Ratio (x) = 0.03955 0.41184
# Poissons Ratio (y) = 0.07103 0.28860
# Poissons Ratio (z) = 0.61021 0.23807
#
# Static dielectric constant tensor:
#      x y z
#    x 4.206520 0.000000 0.192320 
#    y 0.000000 3.427220 0.000000 
#    z 0.192320 0.000000 3.718500 
# 
# 
# High freq. dielectric constant tensor:
#      x y z
#    x 1.913140 0.000000 -0.006790 
#    y 0.000000 1.858730 0.000000 
#    z -0.006790 0.000000 1.882730 
# 
# From -- ./inp_files/34076.got.cif
#   From: 2010.06.25/outbox.cif.g09.slc.cpg/sg15_18_cif.got.tgz:34076.got - 2010.06.28 07:06:18.
