data_PCOD8141185
_publ_section_title
;
Structure prediction by ZEFSAII (Michael W. Deem and Ramdas Pophale) SiO2 
 PCOD8141185
Probable space group: C 2/C
;
_chemical_formula_sum "Si O2"
_cell_formula_units_Z 60
_cell_length_a 15.091730
_cell_length_b 9.747986
_cell_length_c 24.632830
_cell_angle_alpha 90.000000
_cell_angle_beta 53.142385
_cell_angle_gamma 90.000000
_cell_volume 2899.532829
_symmetry_space_group_name_H-M "C 2/C"
_symmetry_group_IT_number 15
_symmetry_cell_setting 'monoclinic'
loop_
_space_group_symop_operation_xyz
x,y,z
-x,y,1/2-z
-x,-y,-z
x,-y,1/2+z
1/2+x,1/2+y,z
1/2-x,1/2+y,1/2-z
1/2-x,1/2-y,-z
1/2+x,1/2-y,1/2+z
loop_
_atom_site_type_symbol
_atom_site_label
_atom_site_fract_x
_atom_site_fract_y
_atom_site_fract_z
Si Si1 0.452267 0.185035 0.167753
Si Si2 0.915384 0.804364 0.690039
Si Si3 0.762838 0.208562 0.662975
Si Si4 0.500000 0.482415 0.750000
Si Si5 0.821213 0.452030 0.568582
Si Si6 0.843152 0.833558 0.358372
Si Si7 0.269210 0.906217 0.817842
Si Si8 0.004977 0.567845 0.914134
O O1 0.375890 0.269952 0.154626
O O2 0.546668 0.290010 0.150902
O O3 0.383090 0.116918 0.242478
O O4 0.519280 0.063093 0.114204
O O5 0.841282 0.722007 0.759541
O O6 0.000266 0.895176 0.694137
O O7 0.836167 0.897375 0.682494
O O8 0.983286 0.702118 0.626853
O O9 0.760226 0.316384 0.614331
O O10 0.745764 0.053611 0.647531
O O11 0.611834 0.575609 0.709306
O O12 0.732740 0.563017 0.578010
O O13 0.883347 0.534728 0.593772
O O14 0.902684 0.404086 0.491487
O O15 0.768694 0.706815 0.365544
#
# Coordination Sequence:
#
# PCOD8141185 Si02
#       8
#     8   8   8   4   8   8   8   8
#     4  10  21  35  63  93 126 159 213 259 317 366
#     4  11  22  37  65  93 124 164 211 262 317 369
#     4  10  21  38  63  94 124 161 211 265 306 374
#     4  12  24  36  62  98 130 154 208 272 322 366
#     4  10  22  42  67  91 129 172 213 255 320 386
#     4  12  22  39  62  96 124 165 204 264 318 373
#     4  11  21  35  63  93 125 155 213 261 311 369
#     4  10  21  42  66  92 127 174 214 255 318 387
#
# _framework density 20.692988
#
# number of rings (size 3 to 8) (size 9 to 14) (size 15 to 20)
#    0.000    1.333    5.333    0.800    1.867    1.600 
#    0.000    1.333    2.933    0.000    0.000    0.000 
#    0.000    0.000    0.000    0.000    0.000    0.000 
#
# Total GULP energy -371919.439074 kJ/mol
# GULP energy per Si atom -12397.314636 kJ/mol
# Density = 2.064589 g / cm^3
# Si number density = 20.692988 Si / 1000 Ang^3
#
#
#
# Elastic Constant Matrix: (Units=GPa)
#
#
# Indices 1 2 3 4 5 6 
#
# 1 73.9565 43.9103 14.8085 0.0000 -5.6192 0.0000
# 2 43.9103 157.0233 50.1577 0.0000 -3.7871 0.0000
# 3 14.8085 50.1577 75.1071 0.0000 -0.7339 0.0000
# 4 0.0000 0.0000 0.0000 30.6764 0.0000 -5.1125
# 5 -5.6192 -3.7871 -0.7339 0.0000 17.0948 0.0000
# 6 0.0000 0.0000 0.0000 -5.1125 0.0000 21.6221
#
#
#
# Elastic Compliance Matrix: (Units=1/GPa)
#
#
# Indices 1 2 3 4 5 6 
#
# 1 0.016545 -0.004438 -0.000255 0.000000 0.004444 0.000000
# 2 -0.004438 0.009328 -0.005351 0.000000 0.000378 0.000000
# 3 -0.000255 -0.005351 0.016932 0.000000 -0.000542 0.000000
# 4 0.000000 0.000000 0.000000 0.033936 0.000000 0.008024
# 5 0.004444 0.000378 -0.000542 0.000000 0.060019 0.000000
# 6 0.000000 0.000000 0.000000 0.008024 0.000000 0.048146
#
#
# Mechanical properties :
#
#
# Convention : Reuss Voigt Hill
#
# Bulk Modulus (GPa) = 44.01708 58.20443 51.11075
# Shear Modulus (GPa) = 23.52210 27.02600 25.27405
#
# Velocity S-wave (km/s) = 3.37518 3.61785 3.49862
# Velocity P-wave (km/s) = 6.04209 6.75577 6.40887
#
# Compressibility (1/GPa) = 0.02271845
#
# Stress axis : x y z
#
# Youngs Moduli (GPa) = 60.44029 107.20650 59.05829
#
# Poissons Ratio (x) = 0.47580 0.01505
# Poissons Ratio (y) = 0.26824 0.31599
# Poissons Ratio (z) = 0.01540 0.57361
#
# Static dielectric constant tensor:
#      x y z
#    x 3.642610 0.000000 -0.034030 
#    y 0.000000 3.833250 0.000000 
#    z -0.034030 0.000000 3.522670 
# 
# 
# High freq. dielectric constant tensor:
#      x y z
#    x 1.799490 0.000000 -0.012360 
#    y 0.000000 1.824150 0.000000 
#    z -0.012360 0.000000 1.780000 
# 
# From -- ./inp_files/298378.got.cif
#   From: 2010.06.25/outbox.cif.g09.slc.cpg/sg15_150_cif.got.tgz:298378.got - 2010.06.28 07:06:18.
