data_PCOD8141567
_publ_section_title
;
Structure prediction by ZEFSAII (Michael W. Deem and Ramdas Pophale) SiO2 
 PCOD8141567
Probable space group: C 2/C
;
_chemical_formula_sum "Si O2"
_cell_formula_units_Z 52
_cell_length_a 15.950419
_cell_length_b 13.373321
_cell_length_c 13.263656
_cell_angle_alpha 90.000000
_cell_angle_beta 109.891403
_cell_angle_gamma 90.000000
_cell_volume 2660.474806
_symmetry_space_group_name_H-M "C 2/C"
_symmetry_group_IT_number 15
_symmetry_cell_setting 'monoclinic'
loop_
_space_group_symop_operation_xyz
x,y,z
-x,y,1/2-z
-x,-y,-z
x,-y,1/2+z
1/2+x,1/2+y,z
1/2-x,1/2+y,1/2-z
1/2-x,1/2-y,-z
1/2+x,1/2-y,1/2+z
loop_
_atom_site_type_symbol
_atom_site_label
_atom_site_fract_x
_atom_site_fract_y
_atom_site_fract_z
Si Si1 0.636332 0.066273 0.201468
Si Si2 0.753394 0.896585 0.554738
Si Si3 0.133807 0.719596 0.858280
Si Si4 0.000000 0.286221 0.750000
Si Si5 0.751640 0.907559 0.938160
Si Si6 0.614605 0.751188 0.971821
Si Si7 0.055673 0.352052 0.139401
O O1 0.686018 0.105061 0.121765
O O2 0.568402 0.148442 0.213189
O O3 0.711237 0.046361 0.318628
O O4 0.575739 0.970157 0.151392
O O5 0.845653 0.837661 0.617355
O O6 0.711786 0.843279 0.440613
O O7 0.775432 0.008556 0.530408
O O8 0.132466 0.701700 0.737298
O O9 0.041450 0.676072 0.860849
O O10 0.053301 0.217642 0.851796
O O11 0.685771 0.830372 0.962658
O O12 0.843248 0.846417 0.957785
O O13 0.555355 0.811338 0.026750
#
# Coordination Sequence:
#
# PCOD8141567 Si02
#       7
#     8   8   8   4   8   8   8
#     4  11  21  35  63  85 118 152 202 243 305 340
#     4  11  21  39  56  85 117 161 188 240 294 365
#     4  10  23  35  58  86 123 145 196 239 302 350
#     4  10  22  36  54  90 116 152 196 250 286 354
#     4  10  21  38  57  86 115 156 200 245 286 370
#     4  10  21  37  59  83 120 151 201 246 296 342
#     4  11  20  37  59  89 114 155 190 256 294 343
#
# _framework density 19.545383000000001
#
# number of rings (size 3 to 8) (size 9 to 14) (size 15 to 20)
#    0.000    1.538    3.077    2.769    2.154    1.231 
#    0.000    3.846    0.000    0.000    0.000    0.000 
#    0.000    0.000    0.000    0.000    0.000    0.000 
#
# Total GULP energy -322238.644723 kJ/mol
# GULP energy per Si atom -12393.794028 kJ/mol
# Density = 1.950090 g / cm^3
# Si number density = 19.545383 Si / 1000 Ang^3
#
#
#
# Elastic Constant Matrix: (Units=GPa)
#
#
# Indices 1 2 3 4 5 6 
#
# 1 55.7113 30.1628 16.4146 0.0000 5.5274 0.0000
# 2 30.1628 60.4299 28.2314 0.0000 11.8125 0.0000
# 3 16.4146 28.2314 80.0285 0.0000 2.1678 0.0000
# 4 0.0000 0.0000 0.0000 -58.0789 0.0000 -40.7337
# 5 5.5274 11.8125 2.1678 0.0000 26.8989 0.0000
# 6 0.0000 0.0000 0.0000 -40.7337 0.0000 4.0209
#
#
#
# Elastic Compliance Matrix: (Units=1/GPa)
#
#
# Indices 1 2 3 4 5 6 
#
# 1 0.024647 -0.011958 -0.000844 0.000000 0.000255 0.000000
# 2 -0.011958 0.027577 -0.007029 0.000000 -0.009087 0.000000
# 3 -0.000844 -0.007029 0.015093 0.000000 0.002044 0.000000
# 4 0.000000 0.000000 0.000000 -0.002124 0.000000 -0.021521
# 5 0.000255 -0.009087 0.002044 0.000000 0.040950 0.000000
# 6 0.000000 0.000000 0.000000 -0.021521 0.000000 0.030685
#
#
# Mechanical properties :
#
#
# Convention : Reuss Voigt Hill
#
# Bulk Modulus (GPa) = 36.16017 38.42082 37.29050
# Shear Modulus (GPa) = 26.92406 2.65890 14.79148
#
# Velocity S-wave (km/s) = 3.71552 1.16762 2.75394
# Velocity P-wave (km/s) = 6.07845 4.63872 5.40672
#
# Compressibility (1/GPa) = 0.02765474
#
# Stress axis : x y z
#
# Youngs Moduli (GPa) = 40.57259 36.26230 66.25574
#
# Poissons Ratio (x) = 0.43362 0.05592
# Poissons Ratio (y) = 0.48516 0.46574
# Poissons Ratio (z) = 0.03424 0.25490
#
# Static dielectric constant tensor:
#      x y z
#    x 3.463690 0.000000 0.066380 
#    y 0.000000 3.579230 0.000000 
#    z 0.066380 0.000000 4.254470 
# 
# 
# High freq. dielectric constant tensor:
#      x y z
#    x 1.743090 0.000000 -0.000700 
#    y 0.000000 1.744170 0.000000 
#    z -0.000700 0.000000 1.785720 
# 
# From -- ./inp_files/105476.got.cif
#   From: 2010.06.25/outbox.cif.g09.slc.cpg/sg15_53_cif.got.tgz:105476.got - 2010.06.28 07:06:18.
