data_PCOD8141705
_publ_section_title
;
Structure prediction by ZEFSAII (Michael W. Deem and Ramdas Pophale) SiO2 
 PCOD8141705
Probable space group: C 2/C
;
_chemical_formula_sum "Si O2"
_cell_formula_units_Z 56
_cell_length_a 20.942184
_cell_length_b 15.489791
_cell_length_c 8.766116
_cell_angle_alpha 90.000000
_cell_angle_beta 68.193293
_cell_angle_gamma 90.000000
_cell_volume 2640.156576
_symmetry_space_group_name_H-M "C 2/C"
_symmetry_group_IT_number 15
_symmetry_cell_setting 'monoclinic'
loop_
_space_group_symop_operation_xyz
x,y,z
-x,y,1/2-z
-x,-y,-z
x,-y,1/2+z
1/2+x,1/2+y,z
1/2-x,1/2+y,1/2-z
1/2-x,1/2-y,-z
1/2+x,1/2-y,1/2+z
loop_
_atom_site_type_symbol
_atom_site_label
_atom_site_fract_x
_atom_site_fract_y
_atom_site_fract_z
Si Si1 0.793424 0.876054 0.128016
Si Si2 0.571171 0.640150 0.609259
Si Si3 0.526992 0.750800 0.386406
Si Si4 0.139498 0.392077 0.315331
Si Si5 0.163120 0.568651 0.134615
Si Si6 0.311377 0.476004 0.413152
Si Si7 0.612347 0.234118 0.326799
O O1 0.714040 0.848239 0.219257
O O2 0.812276 0.951721 0.233894
O O3 0.841444 0.792180 0.100155
O O4 0.806870 0.920665 0.950491
O O5 0.500000 0.611999 0.750000
O O6 0.561249 0.670703 0.444336
O O7 0.620318 0.557887 0.564110
O O8 0.607106 0.718047 0.669315
O O9 0.500000 0.714868 0.250000
O O10 0.580608 0.827795 0.310287
O O11 0.462812 0.785083 0.541180
O O12 0.132825 0.479266 0.224025
O O13 0.127768 0.412200 0.503863
O O14 0.147871 0.642501 0.271383
O O15 0.245046 0.567796 0.048709
#
# Coordination Sequence:
#
# PCOD8141705 Si02
#       7
#     8   8   8   8   8   8   8
#     4   9  20  38  63  88 119 150 195 240 291 348
#     4   9  19  38  61  85 116 157 199 235 287 354
#     4  11  24  39  54  86 122 152 197 245 290 343
#     4  10  22  39  60  87 120 153 195 239 294 347
#     4  10  21  37  62  89 116 154 198 239 289 347
#     4   9  19  36  62  90 118 148 194 242 292 349
#     4  10  21  39  60  86 116 157 199 238 284 354
#
# _framework density 21.210864000000001
#
# number of rings (size 3 to 8) (size 9 to 14) (size 15 to 20)
#    0.000    2.286    1.429    0.000    4.000    3.429 
#    0.000    7.857    0.000    0.000    0.000    0.000 
#    0.000    0.000    0.000    0.000    0.000    0.000 
#
# Total GULP energy -347232.844733 kJ/mol
# GULP energy per Si atom -12401.173026 kJ/mol
# Density = 2.116259 g / cm^3
# Si number density = 21.210864 Si / 1000 Ang^3
#
#
#
# Elastic Constant Matrix: (Units=GPa)
#
#
# Indices 1 2 3 4 5 6 
#
# 1 89.3924 26.3775 14.1542 0.0000 -5.2481 0.0000
# 2 26.3775 41.1962 14.5623 0.0000 -11.7812 0.0000
# 3 14.1542 14.5623 42.2649 0.0000 -0.8522 0.0000
# 4 0.0000 0.0000 0.0000 22.7754 0.0000 -3.3395
# 5 -5.2481 -11.7812 -0.8522 0.0000 32.6549 0.0000
# 6 0.0000 0.0000 0.0000 -3.3395 0.0000 33.7053
#
#
#
# Elastic Compliance Matrix: (Units=1/GPa)
#
#
# Indices 1 2 3 4 5 6 
#
# 1 0.013936 -0.008567 -0.001734 0.000000 -0.000896 0.000000
# 2 -0.008567 0.036384 -0.009435 0.000000 0.011504 0.000000
# 3 -0.001734 -0.009435 0.027432 0.000000 -0.002967 0.000000
# 4 0.000000 0.000000 0.000000 0.044554 0.000000 0.004414
# 5 -0.000896 0.011504 -0.002967 0.000000 0.034552 0.000000
# 6 0.000000 0.000000 0.000000 0.004414 0.000000 0.030106
#
#
# Mechanical properties :
#
#
# Convention : Reuss Voigt Hill
#
# Bulk Modulus (GPa) = 26.12235 31.44905 28.78570
# Shear Modulus (GPa) = 20.90327 25.67776 23.29051
#
# Velocity S-wave (km/s) = 3.14267 3.48313 3.31727
# Velocity P-wave (km/s) = 5.05082 5.57094 5.31724
#
# Compressibility (1/GPa) = 0.03828140
#
# Stress axis : x y z
#
# Youngs Moduli (GPa) = 71.75467 27.48431 36.45388
#
# Poissons Ratio (x) = 0.23545 0.06320
# Poissons Ratio (y) = 0.61471 0.34395
# Poissons Ratio (z) = 0.12439 0.25932
#
# Static dielectric constant tensor:
#      x y z
#    x 3.934550 0.000000 0.027390 
#    y 0.000000 3.551230 0.000000 
#    z 0.027390 0.000000 3.838320 
# 
# 
# High freq. dielectric constant tensor:
#      x y z
#    x 1.838460 0.000000 -0.002810 
#    y 0.000000 1.810870 0.000000 
#    z -0.002810 0.000000 1.830110 
# 
# From -- ./inp_files/56491.got.cif
#   From: 2010.06.25/outbox.cif.g09.slc.cpg/sg15_29_cif.got.tgz:56491.got - 2010.06.28 07:06:18.
