data_PCOD8141432
_publ_section_title
;
Structure prediction by ZEFSAII (Michael W. Deem and Ramdas Pophale) SiO2 
 PCOD8141432
Probable space group: C 2/C
;
_chemical_formula_sum "Si O2"
_cell_formula_units_Z 60
_cell_length_a 26.201737
_cell_length_b 17.242793
_cell_length_c 12.197343
_cell_angle_alpha 90.000000
_cell_angle_beta 148.695010
_cell_angle_gamma 90.000000
_cell_volume 2863.298765
_symmetry_space_group_name_H-M "C 2/C"
_symmetry_group_IT_number 15
_symmetry_cell_setting 'monoclinic'
loop_
_space_group_symop_operation_xyz
x,y,z
-x,y,1/2-z
-x,-y,-z
x,-y,1/2+z
1/2+x,1/2+y,z
1/2-x,1/2+y,1/2-z
1/2-x,1/2-y,-z
1/2+x,1/2-y,1/2+z
loop_
_atom_site_type_symbol
_atom_site_label
_atom_site_fract_x
_atom_site_fract_y
_atom_site_fract_z
Si Si1 0.471169 0.114074 0.860958
Si Si2 0.626149 0.586156 0.085405
Si Si3 0.000000 0.740633 0.750000
Si Si4 0.272533 0.558198 0.657254
Si Si5 0.253992 0.837239 0.978844
Si Si6 0.644284 0.621268 0.479994
Si Si7 0.957295 0.561646 0.284776
Si Si8 0.416364 0.539713 0.719335
O O1 0.531693 0.181558 0.907138
O O2 0.357735 0.132009 0.627979
O O3 0.494762 0.027270 0.862502
O O4 0.497562 0.116317 0.037739
O O5 0.714061 0.523978 0.259430
O O6 0.669511 0.658927 0.229822
O O7 0.526683 0.556813 0.965621
O O8 0.606908 0.601125 0.921751
O O9 0.085919 0.797504 0.864722
O O10 0.159597 0.570836 0.420929
O O11 0.336378 0.557594 0.663899
O O12 0.310793 0.621451 0.814996
O O13 0.228425 0.884336 0.042294
O O14 0.250000 0.750000 0.000000
O O15 0.579537 0.545280 0.331159
O O16 0.000000 0.595415 0.250000
#
# Coordination Sequence:
#
# PCOD8141432 Si02
#       8
#     8   8   4   8   8   8   8   8
#     4  11  24  41  64  94 121 170 214 264 305 367
#     4  10  21  36  63  96 127 159 201 260 318 372
#     4  12  24  42  62  90 130 166 206 256 320 386
#     4  11  21  37  67  94 126 162 207 270 316 368
#     4  12  23  41  64  88 127 169 211 249 314 384
#     4  11  23  38  65  96 126 163 205 257 319 391
#     4  11  23  42  67  92 124 162 224 270 307 354
#     4  10  21  39  65 102 127 154 208 268 328 372
#
# _framework density 20.954851000000001
#
# number of rings (size 3 to 8) (size 9 to 14) (size 15 to 20)
#    0.000    1.067    4.667    2.800    1.867    4.267 
#    0.000    0.667   11.733    0.000    0.000    0.000 
#    0.000    0.000    0.000    0.000    0.000    0.000 
#
# Total GULP energy -371807.223980 kJ/mol
# GULP energy per Si atom -12393.574133 kJ/mol
# Density = 2.090716 g / cm^3
# Si number density = 20.954851 Si / 1000 Ang^3
#
#
#
# Elastic Constant Matrix: (Units=GPa)
#
#
# Indices 1 2 3 4 5 6 
#
# 1 106.9903 15.7242 34.0975 0.0000 -9.8551 0.0000
# 2 15.7242 81.6038 38.6694 0.0000 -16.1364 0.0000
# 3 34.0975 38.6694 117.4562 0.0000 -2.6632 0.0000
# 4 0.0000 0.0000 0.0000 29.2044 0.0000 -7.2866
# 5 -9.8551 -16.1364 -2.6632 0.0000 38.0122 0.0000
# 6 0.0000 0.0000 0.0000 -7.2866 0.0000 26.1299
#
#
#
# Elastic Compliance Matrix: (Units=1/GPa)
#
#
# Indices 1 2 3 4 5 6 
#
# 1 0.010537 -0.000142 -0.002956 0.000000 0.002464 0.000000
# 2 -0.000142 0.015941 -0.005062 0.000000 0.006376 0.000000
# 3 -0.002956 -0.005062 0.010990 0.000000 -0.002145 0.000000
# 4 0.000000 0.000000 0.000000 0.036802 0.000000 0.010263
# 5 0.002464 0.006376 -0.002145 0.000000 0.029502 0.000000
# 6 0.000000 0.000000 0.000000 0.010263 0.000000 0.041132
#
#
# Mechanical properties :
#
#
# Convention : Reuss Voigt Hill
#
# Bulk Modulus (GPa) = 47.28910 53.67027 50.47968
# Shear Modulus (GPa) = 29.71327 33.17324 31.44325
#
# Velocity S-wave (km/s) = 3.76967 3.98311 3.87786
# Velocity P-wave (km/s) = 6.44697 6.84262 6.64774
#
# Compressibility (1/GPa) = 0.02114652
#
# Stress axis : x y z
#
# Youngs Moduli (GPa) = 94.90707 62.72975 90.99184
#
# Poissons Ratio (x) = 0.00892 0.26898
# Poissons Ratio (y) = 0.01350 0.46064
# Poissons Ratio (z) = 0.28055 0.31757
#
# Static dielectric constant tensor:
#      x y z
#    x 3.823880 0.000000 -0.595940 
#    y 0.000000 3.799410 0.000000 
#    z -0.595940 0.000000 4.605540 
# 
# 
# High freq. dielectric constant tensor:
#      x y z
#    x 1.837110 0.000000 -0.006340 
#    y 0.000000 1.790920 0.000000 
#    z -0.006340 0.000000 1.819290 
# 
# From -- ./inp_files/124001.got.cif
#   From: 2010.06.25/outbox.cif.g09.slc.cpg/sg15_63_cif.got.tgz:124001.got - 2010.06.28 07:06:18.
