data_PCOD8141256
_publ_section_title
;
Structure prediction by ZEFSAII (Michael W. Deem and Ramdas Pophale) SiO2 
 PCOD8141256
Probable space group: C 2/C
;
_chemical_formula_sum "Si O2"
_cell_formula_units_Z 64
_cell_length_a 25.484777
_cell_length_b 14.359794
_cell_length_c 9.031790
_cell_angle_alpha 90.000000
_cell_angle_beta 99.918075
_cell_angle_gamma 90.000000
_cell_volume 3255.842407
_symmetry_space_group_name_H-M "C 2/C"
_symmetry_group_IT_number 15
_symmetry_cell_setting 'monoclinic'
loop_
_space_group_symop_operation_xyz
x,y,z
-x,y,1/2-z
-x,-y,-z
x,-y,1/2+z
1/2+x,1/2+y,z
1/2-x,1/2+y,1/2-z
1/2-x,1/2-y,-z
1/2+x,1/2-y,1/2+z
loop_
_atom_site_type_symbol
_atom_site_label
_atom_site_fract_x
_atom_site_fract_y
_atom_site_fract_z
Si Si1 0.141035 0.291409 0.282216
Si Si2 0.841599 0.077150 0.708891
Si Si3 0.283253 0.079090 0.847699
Si Si4 0.785931 0.607721 0.186705
Si Si5 0.544830 0.921476 0.157284
Si Si6 0.531555 0.874343 0.617174
Si Si7 0.160024 0.110117 0.129721
Si Si8 0.865105 0.742708 0.380622
O O1 0.193286 0.340275 0.243480
O O2 0.092971 0.364698 0.250892
O O3 0.129332 0.200266 0.177582
O O4 0.151664 0.261963 0.455988
O O5 0.779096 0.091273 0.694972
O O6 0.859057 0.089735 0.546789
O O7 0.870010 0.151030 0.829633
O O8 0.857191 0.974939 0.773477
O O9 0.301956 0.979358 0.796175
O O10 0.303374 0.087700 0.026132
O O11 0.723320 0.629205 0.166865
O O12 0.819599 0.695182 0.258723
O O13 0.500000 0.948372 0.250000
O O14 0.561330 0.024995 0.109007
O O15 0.516538 0.858801 0.020948
O O16 0.500000 0.856540 0.750000
O O17 0.576816 0.798620 0.616624
#
# Coordination Sequence:
#
# PCOD8141256 Si02
#       8
#     8   8   8   8   8   8   8   8
#     4  12  23  35  60  85 117 155 193 233 286 338
#     4  10  22  40  59  82 117 149 197 238 285 339
#     4  10  21  36  56  85 118 157 187 236 284 338
#     4  10  21  36  56  84 121 151 194 233 282 342
#     4  10  21  42  58  84 120 150 185 232 283 344
#     4  10  23  38  62  86 116 152 187 232 287 338
#     4  10  22  40  59  83 113 156 190 240 289 334
#     4  12  23  36  57  89 116 152 195 235 280 347
#
# _framework density 19.656970999999999
#
# number of rings (size 3 to 8) (size 9 to 14) (size 15 to 20)
#    0.000    1.500    1.250    3.750    3.500    6.000 
#    0.000    0.000    0.000    1.500    0.000    0.000 
#    0.000    0.000    0.000    0.000    0.000    0.000 
#
# Total GULP energy -396816.274926 kJ/mol
# GULP energy per Si atom -12400.508591 kJ/mol
# Density = 1.961223 g / cm^3
# Si number density = 19.656971 Si / 1000 Ang^3
#
#
#
# Elastic Constant Matrix: (Units=GPa)
#
#
# Indices 1 2 3 4 5 6 
#
# 1 34.3901 21.6505 14.8502 0.0000 -10.3807 0.0000
# 2 21.6505 87.3873 8.3809 0.0000 -8.2325 0.0000
# 3 14.8502 8.3809 101.0760 0.0000 -12.9584 0.0000
# 4 0.0000 0.0000 0.0000 38.5446 0.0000 0.9853
# 5 -10.3807 -8.2325 -12.9584 0.0000 23.8897 0.0000
# 6 0.0000 0.0000 0.0000 0.9853 0.0000 20.9164
#
#
#
# Elastic Compliance Matrix: (Units=1/GPa)
#
#
# Indices 1 2 3 4 5 6 
#
# 1 0.039576 -0.008296 -0.003534 0.000000 0.012421 0.000000
# 2 -0.008296 0.013589 0.000248 0.000000 0.001212 0.000000
# 3 -0.003534 0.000248 0.010969 0.000000 0.004499 0.000000
# 4 0.000000 0.000000 0.000000 0.025975 0.000000 -0.001224
# 5 0.012421 0.001212 0.004499 0.000000 0.050115 0.000000
# 6 0.000000 0.000000 0.000000 -0.001224 0.000000 0.047867
#
#
# Mechanical properties :
#
#
# Convention : Reuss Voigt Hill
#
# Bulk Modulus (GPa) = 24.40871 34.73518 29.57195
# Shear Modulus (GPa) = 22.23073 28.53492 25.38283
#
# Velocity S-wave (km/s) = 3.36658 3.81418 3.59735
# Velocity P-wave (km/s) = 5.24939 6.09149 5.68606
#
# Compressibility (1/GPa) = 0.04096898
#
# Stress axis : x y z
#
# Youngs Moduli (GPa) = 25.26756 73.58803 91.16487
#
# Poissons Ratio (x) = 0.61049 0.32220
# Poissons Ratio (y) = 0.20962 -0.02257
# Poissons Ratio (z) = 0.08930 -0.01821
#
# Static dielectric constant tensor:
#      x y z
#    x 3.264400 0.000000 -0.134450 
#    y 0.000000 3.614490 0.000000 
#    z -0.134450 0.000000 3.797030 
# 
# 
# High freq. dielectric constant tensor:
#      x y z
#    x 1.738320 0.000000 -0.010080 
#    y 0.000000 1.767440 0.000000 
#    z -0.010080 0.000000 1.784500 
# 
# From -- ./inp_files/66245.got.cif
#   From: 2010.06.25/outbox.cif.g09.slc.cpg/sg15_34_cif.got.tgz:66245.got - 2010.06.28 07:06:18.
