data_PCOD8141012
_publ_section_title
;
Structure prediction by ZEFSAII (Michael W. Deem and Ramdas Pophale) SiO2 
 PCOD8141012
Probable space group: C 2/C
;
_chemical_formula_sum "Si O2"
_cell_formula_units_Z 52
_cell_length_a 12.630531
_cell_length_b 20.621099
_cell_length_c 12.831100
_cell_angle_alpha 90.000000
_cell_angle_beta 125.501209
_cell_angle_gamma 90.000000
_cell_volume 2720.675855
_symmetry_space_group_name_H-M "C 2/C"
_symmetry_group_IT_number 15
_symmetry_cell_setting 'monoclinic'
loop_
_space_group_symop_operation_xyz
x,y,z
-x,y,1/2-z
-x,-y,-z
x,-y,1/2+z
1/2+x,1/2+y,z
1/2-x,1/2+y,1/2-z
1/2-x,1/2-y,-z
1/2+x,1/2-y,1/2+z
loop_
_atom_site_type_symbol
_atom_site_label
_atom_site_fract_x
_atom_site_fract_y
_atom_site_fract_z
Si Si1 0.207507 0.510404 0.816519
Si Si2 0.500000 0.907781 0.750000
Si Si3 0.420191 0.579249 0.053454
Si Si4 0.407959 0.145871 0.785059
Si Si5 0.568130 0.160336 0.078099
Si Si6 0.693341 0.428634 0.791325
Si Si7 0.313002 0.282960 0.433677
O O1 0.129175 0.453275 0.833442
O O2 0.127051 0.575618 0.779768
O O3 0.219601 0.487982 0.702923
O O4 0.354485 0.526456 0.939531
O O5 0.492226 0.860116 0.845459
O O6 0.365040 0.554520 0.131722
O O7 0.576702 0.580144 0.140954
O O8 0.385049 0.653271 0.013380
O O9 0.500000 0.177252 0.750000
O O10 0.287573 0.195635 0.715008
O O11 0.470590 0.135145 0.933419
O O12 0.714356 0.133840 0.147537
O O13 0.583520 0.237279 0.067320
O O14 0.250000 0.250000 0.500000
#
# Coordination Sequence:
#
# PCOD8141012 Si02
#       7
#     8   4   8   8   8   8   8
#     4  10  21  37  57  84 121 152 193 241 292 355
#     4  10  24  38  60  84 120 168 194 238 290 362
#     4  10  21  36  56  87 112 152 195 239 303 342
#     4  11  21  35  60  93 114 149 193 254 302 337
#     4  11  23  38  58  88 120 158 199 237 299 352
#     4  10  21  34  58  83 116 153 189 240 295 355
#     4  11  21  36  59  84 119 144 195 251 299 344
#
# _framework density 19.112898000000001
#
# number of rings (size 3 to 8) (size 9 to 14) (size 15 to 20)
#    0.000    1.538    3.846    1.385    4.308    1.231 
#    0.000    0.769    0.000    3.692    0.000    0.000 
#    0.000    0.000    0.000    0.000    0.000    0.000 
#
# Total GULP energy -322146.499755 kJ/mol
# GULP energy per Si atom -12390.249991 kJ/mol
# Density = 1.906940 g / cm^3
# Si number density = 19.112898 Si / 1000 Ang^3
#
#
#
# Elastic Constant Matrix: (Units=GPa)
#
#
# Indices 1 2 3 4 5 6 
#
# 1 49.8238 21.2046 32.0196 0.0000 -2.5870 0.0000
# 2 21.2046 86.0425 27.9443 0.0000 -8.3164 0.0000
# 3 32.0196 27.9443 109.6214 0.0000 1.6270 0.0000
# 4 0.0000 0.0000 0.0000 24.9977 0.0000 -1.6899
# 5 -2.5870 -8.3164 1.6270 0.0000 31.9539 0.0000
# 6 0.0000 0.0000 0.0000 -1.6899 0.0000 22.8123
#
#
#
# Elastic Compliance Matrix: (Units=1/GPa)
#
#
# Indices 1 2 3 4 5 6 
#
# 1 0.026157 -0.004171 -0.006597 0.000000 0.001368 0.000000
# 2 -0.004171 0.013732 -0.002332 0.000000 0.003355 0.000000
# 3 -0.006597 -0.002332 0.011669 0.000000 -0.001735 0.000000
# 4 0.000000 0.000000 0.000000 0.040205 0.000000 0.002978
# 5 0.001368 0.003355 -0.001735 0.000000 0.032367 0.000000
# 6 0.000000 0.000000 0.000000 0.002978 0.000000 0.044057
#
#
# Mechanical properties :
#
#
# Convention : Reuss Voigt Hill
#
# Bulk Modulus (GPa) = 39.43638 45.31386 42.37512
# Shear Modulus (GPa) = 24.64997 26.90740 25.77868
#
# Velocity S-wave (km/s) = 3.59514 3.75615 3.67653
# Velocity P-wave (km/s) = 6.15724 6.52469 6.34362
#
# Compressibility (1/GPa) = 0.02535730
#
# Stress axis : x y z
#
# Youngs Moduli (GPa) = 38.23101 72.82401 85.69380
#
# Poissons Ratio (x) = 0.30378 0.56534
# Poissons Ratio (y) = 0.15948 0.19982
# Poissons Ratio (z) = 0.25222 0.16981
#
# Static dielectric constant tensor:
#      x y z
#    x 3.504310 0.000000 0.225400 
#    y 0.000000 3.483820 0.000000 
#    z 0.225400 0.000000 3.688210 
# 
# 
# High freq. dielectric constant tensor:
#      x y z
#    x 1.732820 0.000000 0.015050 
#    y 0.000000 1.741900 0.000000 
#    z 0.015050 0.000000 1.744950 
# 
# From -- ./inp_files/89504.got.cif
#   From: 2010.06.25/outbox.cif.g09.slc.cpg/sg15_45_cif.got.tgz:89504.got - 2010.06.28 07:06:18.
