data_PCOD8141309
_publ_section_title
;
Structure prediction by ZEFSAII (Michael W. Deem and Ramdas Pophale) SiO2 
 PCOD8141309
Probable space group: C 2/C
;
_chemical_formula_sum "Si O2"
_cell_formula_units_Z 56
_cell_length_a 12.074225
_cell_length_b 26.476311
_cell_length_c 14.048392
_cell_angle_alpha 90.000000
_cell_angle_beta 141.670006
_cell_angle_gamma 90.000000
_cell_volume 2785.274195
_symmetry_space_group_name_H-M "C 2/C"
_symmetry_group_IT_number 15
_symmetry_cell_setting 'monoclinic'
loop_
_space_group_symop_operation_xyz
x,y,z
-x,y,1/2-z
-x,-y,-z
x,-y,1/2+z
1/2+x,1/2+y,z
1/2-x,1/2+y,1/2-z
1/2-x,1/2-y,-z
1/2+x,1/2-y,1/2+z
loop_
_atom_site_type_symbol
_atom_site_label
_atom_site_fract_x
_atom_site_fract_y
_atom_site_fract_z
Si Si1 0.320723 0.542707 0.477546
Si Si2 0.299994 0.467811 0.621463
Si Si3 0.816146 0.350631 0.579893
Si Si4 0.118025 0.683744 0.571275
Si Si5 0.492398 0.725384 0.856641
Si Si6 0.773072 0.028182 0.783047
Si Si7 0.488782 0.109685 0.631037
O O1 0.291112 0.521819 0.562881
O O2 0.226256 0.596037 0.400292
O O3 0.527307 0.549087 0.590156
O O4 0.230270 0.499892 0.352289
O O5 0.500000 0.446506 0.750000
O O6 0.233148 0.483597 0.680580
O O7 0.189688 0.422070 0.503580
O O8 0.832928 0.357528 0.476913
O O9 0.655088 0.311948 0.492437
O O10 0.000000 0.330230 0.750000
O O11 0.298925 0.701385 0.746550
O O12 0.989490 0.660335 0.566291
O O13 0.015936 0.727596 0.443793
O O14 0.500000 0.740836 0.750000
O O15 0.650696 0.077077 0.697989
O O16 0.500000 0.124302 0.750000
#
# Coordination Sequence:
#
# PCOD8141309 Si02
#       7
#     8   8   8   8   8   8   8
#     4  10  21  36  58  91 125 159 205 245 294 361
#     4  10  22  40  59  85 125 166 206 253 295 354
#     4  11  22  34  62  99 124 154 198 249 314 378
#     4  11  23  41  65  90 117 161 198 257 322 364
#     4  10  21  43  65  91 127 147 195 267 321 368
#     4  10  21  38  58  83 126 168 203 246 295 344
#     4  12  24  40  61  88 123 166 209 249 301 362
#
# _framework density 20.105740999999998
#
# number of rings (size 3 to 8) (size 9 to 14) (size 15 to 20)
#    0.000    1.429    1.429    5.143    4.000    4.000 
#    0.000    0.714    0.000    0.000    0.000    0.000 
#    0.000    0.000    0.000    0.000    0.000    0.000 
#
# Total GULP energy -347095.188114 kJ/mol
# GULP energy per Si atom -12396.256718 kJ/mol
# Density = 2.005998 g / cm^3
# Si number density = 20.105741 Si / 1000 Ang^3
#
#
#
# Elastic Constant Matrix: (Units=GPa)
#
#
# Indices 1 2 3 4 5 6 
#
# 1 82.5131 40.0752 32.8214 0.0000 -5.1088 0.0000
# 2 40.0752 102.4951 48.9631 0.0000 5.7376 0.0000
# 3 32.8214 48.9631 107.2560 0.0000 1.1992 0.0000
# 4 0.0000 0.0000 0.0000 18.7249 0.0000 -3.9243
# 5 -5.1088 5.7376 1.1992 0.0000 21.1698 0.0000
# 6 0.0000 0.0000 0.0000 -3.9243 0.0000 -46.1441
#
#
#
# Elastic Compliance Matrix: (Units=1/GPa)
#
#
# Indices 1 2 3 4 5 6 
#
# 1 0.016079 -0.005389 -0.002521 0.000000 0.005484 0.000000
# 2 -0.005389 0.014486 -0.004908 0.000000 -0.004949 0.000000
# 3 -0.002521 -0.004908 0.012335 0.000000 0.000023 0.000000
# 4 0.000000 0.000000 0.000000 0.052470 0.000000 -0.004462
# 5 0.005484 -0.004949 0.000023 0.000000 0.049901 0.000000
# 6 0.000000 0.000000 0.000000 -0.004462 0.000000 -0.021292
#
#
# Mechanical properties :
#
#
# Convention : Reuss Voigt Hill
#
# Bulk Modulus (GPa) = 57.93010 59.55373 58.74192
# Shear Modulus (GPa) = 32.18103 10.11040 21.14572
#
# Velocity S-wave (km/s) = 4.00508 2.24489 3.24655
# Velocity P-wave (km/s) = 7.08963 6.03357 6.58281
#
# Compressibility (1/GPa) = 0.01726218
#
# Stress axis : x y z
#
# Youngs Moduli (GPa) = 62.19164 69.03434 81.06720
#
# Poissons Ratio (x) = 0.37206 0.20441
# Poissons Ratio (y) = 0.33518 0.39789
# Poissons Ratio (z) = 0.15681 0.33883
#
# Static dielectric constant tensor:
#      x y z
#    x 3.574460 0.000000 -0.030090 
#    y 0.000000 3.432520 0.000000 
#    z -0.030090 0.000000 3.874650 
# 
# 
# High freq. dielectric constant tensor:
#      x y z
#    x 1.769540 0.000000 -0.001850 
#    y 0.000000 1.775150 0.000000 
#    z -0.001850 0.000000 1.799100 
# 
# From -- ./inp_files/148573.got.cif
#   From: 2010.06.25/outbox.cif.g09.slc.cpg/sg15_75_cif.got.tgz:148573.got - 2010.06.28 07:06:18.
