data_PCOD8141921
_publ_section_title
;
Structure prediction by ZEFSAII (Michael W. Deem and Ramdas Pophale) SiO2 
 PCOD8141921
Probable space group: C 2/C
;
_chemical_formula_sum "Si O2"
_cell_formula_units_Z 64
_cell_length_a 15.038558
_cell_length_b 11.429107
_cell_length_c 27.300513
_cell_angle_alpha 90.000000
_cell_angle_beta 41.397624
_cell_angle_gamma 90.000000
_cell_volume 3102.952930
_symmetry_space_group_name_H-M "C 2/C"
_symmetry_group_IT_number 15
_symmetry_cell_setting 'monoclinic'
loop_
_space_group_symop_operation_xyz
x,y,z
-x,y,1/2-z
-x,-y,-z
x,-y,1/2+z
1/2+x,1/2+y,z
1/2-x,1/2+y,1/2-z
1/2-x,1/2-y,-z
1/2+x,1/2-y,1/2+z
loop_
_atom_site_type_symbol
_atom_site_label
_atom_site_fract_x
_atom_site_fract_y
_atom_site_fract_z
Si Si1 0.739471 0.777317 0.303242
Si Si2 0.199336 0.799392 0.644977
Si Si3 0.517041 0.721144 0.637844
Si Si4 0.055407 0.555882 0.178380
Si Si5 0.142755 0.934378 0.165425
Si Si6 0.170353 0.929276 0.894651
Si Si7 0.455431 0.193136 0.700283
Si Si8 0.465818 0.333398 0.052461
O O1 0.862360 0.802817 0.215899
O O2 0.752596 0.860414 0.345113
O O3 0.733722 0.642412 0.323117
O O4 0.601407 0.799761 0.331034
O O5 0.137845 0.764954 0.723336
O O6 0.350027 0.751117 0.579722
O O7 0.106051 0.745666 0.640424
O O8 0.206872 0.938053 0.632505
O O9 0.549430 0.855765 0.636022
O O10 0.618864 0.632819 0.623729
O O11 0.537434 0.714339 0.571446
O O12 0.210591 0.518940 0.120808
O O13 0.000000 0.623804 0.250000
O O14 0.959877 0.443509 0.212144
O O15 0.000000 0.947955 0.250000
O O16 0.087851 0.039267 0.909153
O O17 0.075588 0.842120 0.964508
#
# Coordination Sequence:
#
# PCOD8141921 Si02
#       8
#     8   8   8   8   8   8   8   8
#     4  11  23  38  62  97 123 164 210 262 315 368
#     4  11  21  40  58  94 129 160 207 262 313 374
#     4  11  23  38  66  96 121 164 210 262 318 371
#     4  12  20  41  65  94 126 160 214 273 305 364
#     4  10  21  38  58  92 131 157 201 269 321 365
#     4  11  24  45  65  89 137 166 214 261 316 381
#     4  11  22  35  64  94 124 163 211 263 312 364
#     4  11  25  43  65  94 127 177 206 257 325 384
#
# _framework density 20.625515
#
# number of rings (size 3 to 8) (size 9 to 14) (size 15 to 20)
#    0.000    1.000    7.500    0.375    3.500    0.500 
#    0.000    2.500    0.000    0.000    0.000    0.000 
#    0.000    0.000    0.000    0.000    0.000    0.000 
#
# Total GULP energy -396836.752570 kJ/mol
# GULP energy per Si atom -12401.148518 kJ/mol
# Density = 2.057857 g / cm^3
# Si number density = 20.625515 Si / 1000 Ang^3
#
#
#
# Elastic Constant Matrix: (Units=GPa)
#
#
# Indices 1 2 3 4 5 6 
#
# 1 145.9222 27.6519 10.4300 0.0000 -0.5193 0.0000
# 2 27.6519 101.7239 3.0650 0.0000 2.8517 0.0000
# 3 10.4300 3.0650 23.5415 0.0000 -5.3752 0.0000
# 4 0.0000 0.0000 0.0000 18.9191 0.0000 -7.8442
# 5 -0.5193 2.8517 -5.3752 0.0000 17.5430 0.0000
# 6 0.0000 0.0000 0.0000 -7.8442 0.0000 24.2509
#
#
#
# Elastic Compliance Matrix: (Units=1/GPa)
#
#
# Indices 1 2 3 4 5 6 
#
# 1 0.007439 -0.001915 -0.003145 0.000000 -0.000432 0.000000
# 2 -0.001915 0.010438 -0.000979 0.000000 -0.002054 0.000000
# 3 -0.003145 -0.000979 0.047325 0.000000 0.014567 0.000000
# 4 0.000000 0.000000 0.000000 0.061043 0.000000 0.019745
# 5 -0.000432 -0.002054 0.014567 0.000000 0.061787 0.000000
# 6 0.000000 0.000000 0.000000 0.019745 0.000000 0.047622
#
#
# Mechanical properties :
#
#
# Convention : Reuss Voigt Hill
#
# Bulk Modulus (GPa) = 18.82431 39.27574 29.05003
# Shear Modulus (GPa) = 18.83647 27.47865 23.15756
#
# Velocity S-wave (km/s) = 3.02530 3.65398 3.35440
# Velocity P-wave (km/s) = 4.62058 6.07336 5.39609
#
# Compressibility (1/GPa) = 0.05312279
#
# Stress axis : x y z
#
# Youngs Moduli (GPa) = 134.42318 95.80145 21.13043
#
# Poissons Ratio (x) = 0.18349 0.06646
# Poissons Ratio (y) = 0.25747 0.02069
# Poissons Ratio (z) = 0.42279 0.09382
#
# Static dielectric constant tensor:
#      x y z
#    x 3.924510 0.000000 -0.167420 
#    y 0.000000 3.741120 0.000000 
#    z -0.167420 0.000000 3.333700 
# 
# 
# High freq. dielectric constant tensor:
#      x y z
#    x 1.816950 0.000000 -0.015130 
#    y 0.000000 1.813150 0.000000 
#    z -0.015130 0.000000 1.765790 
# 
# From -- ./inp_files/296130.got.cif
#   From: 2010.06.25/outbox.cif.g09.slc.cpg/sg15_149_cif.got.tgz:296130.got - 2010.06.28 07:06:18.
