data_PCOD8141440
_publ_section_title
;
Structure prediction by ZEFSAII (Michael W. Deem and Ramdas Pophale) SiO2 
 PCOD8141440
Probable space group: C 2/C
;
_chemical_formula_sum "Si O2"
_cell_formula_units_Z 28
_cell_length_a 17.566491
_cell_length_b 16.609563
_cell_length_c 5.133100
_cell_angle_alpha 90.000000
_cell_angle_beta 109.150472
_cell_angle_gamma 90.000000
_cell_volume 1414.811601
_symmetry_space_group_name_H-M "C 2/C"
_symmetry_group_IT_number 15
_symmetry_cell_setting 'monoclinic'
loop_
_space_group_symop_operation_xyz
x,y,z
-x,y,1/2-z
-x,-y,-z
x,-y,1/2+z
1/2+x,1/2+y,z
1/2-x,1/2+y,1/2-z
1/2-x,1/2-y,-z
1/2+x,1/2-y,1/2+z
loop_
_atom_site_type_symbol
_atom_site_label
_atom_site_fract_x
_atom_site_fract_y
_atom_site_fract_z
Si Si1 0.000000 0.143518 0.250000
Si Si2 0.849248 0.948003 0.431510
Si Si3 0.230496 0.302432 0.229892
Si Si4 0.452539 0.798376 0.440527
O O1 0.950610 0.200995 0.395998
O O2 0.061563 0.090071 0.487299
O O3 0.782583 0.882511 0.290261
O O4 0.838958 0.980845 0.712357
O O5 0.250000 0.250000 0.500000
O O6 0.137841 0.330442 0.133371
O O7 0.250000 0.250000 0.000000
O O8 0.500000 0.839095 0.250000
O O9 0.500000 0.823156 0.750000
#
# Coordination Sequence:
#
# PCOD8141440 Si02
#       4
#     4   8   8   8
#     4  10  22  38  62  90 130 162 202 244 326 372
#     4  12  26  39  60  94 135 166 194 255 328 382
#     4  12  22  42  66  89 125 170 221 258 296 376
#     4  10  21  36  64  94 115 159 221 260 303 347
#
# _framework density 19.790620000000001
#
# number of rings (size 3 to 8) (size 9 to 14) (size 15 to 20)
#    0.857    0.000    2.857    6.000    4.000    0.000 
#    0.000    0.000    0.000    5.143    0.000    0.000 
#    0.000    0.000    0.000    0.000    0.000    0.000 
#
# Total GULP energy -173603.640448 kJ/mol
# GULP energy per Si atom -12400.260032 kJ/mol
# Density = 1.974558 g / cm^3
# Si number density = 19.790620 Si / 1000 Ang^3
#
#
#
# Elastic Constant Matrix: (Units=GPa)
#
#
# Indices 1 2 3 4 5 6 
#
# 1 140.4945 31.7584 60.3834 0.0000 25.8702 0.0000
# 2 31.7584 69.1152 25.9116 0.0000 16.4990 0.0000
# 3 60.3834 25.9116 144.5879 0.0000 7.8944 0.0000
# 4 0.0000 0.0000 0.0000 28.3572 0.0000 8.3750
# 5 25.8702 16.4990 7.8944 0.0000 50.0130 0.0000
# 6 0.0000 0.0000 0.0000 8.3750 0.0000 18.0430
#
#
#
# Elastic Compliance Matrix: (Units=1/GPa)
#
#
# Indices 1 2 3 4 5 6 
#
# 1 0.009833 -0.002310 -0.003487 0.000000 -0.003774 0.000000
# 2 -0.002310 0.017242 -0.001896 0.000000 -0.004194 0.000000
# 3 -0.003487 -0.001896 0.008654 0.000000 0.001063 0.000000
# 4 0.000000 0.000000 0.000000 0.040867 0.000000 -0.018969
# 5 -0.003774 -0.004194 0.001063 0.000000 0.023163 0.000000
# 6 0.000000 0.000000 0.000000 -0.018969 0.000000 0.064228
#
#
# Mechanical properties :
#
#
# Convention : Reuss Voigt Hill
#
# Bulk Modulus (GPa) = 49.15577 65.58936 57.37257
# Shear Modulus (GPa) = 26.85943 35.02560 30.94251
#
# Velocity S-wave (km/s) = 3.68799 4.21147 3.95839
# Velocity P-wave (km/s) = 6.55949 7.54071 7.06715
#
# Compressibility (1/GPa) = 0.02034349
#
# Stress axis : x y z
#
# Youngs Moduli (GPa) = 101.69426 57.99723 115.55286
#
# Poissons Ratio (x) = 0.13400 0.40288
# Poissons Ratio (y) = 0.23495 0.21910
# Poissons Ratio (z) = 0.35456 0.10997
#
# Static dielectric constant tensor:
#      x y z
#    x 3.538550 0.000000 0.017530 
#    y 0.000000 3.455490 0.000000 
#    z 0.017530 0.000000 3.701350 
# 
# 
# High freq. dielectric constant tensor:
#      x y z
#    x 1.778990 0.000000 0.003750 
#    y 0.000000 1.738350 0.000000 
#    z 0.003750 0.000000 1.793260 
# 
# From -- ./inp_files/6270.got.cif
#   From: 2010.06.25/outbox.cif.g09.slc.cpg/sg15_4_cif.got.tgz:6270.got - 2010.06.28 07:06:18.
