data_PCOD8141359
_publ_section_title
;
Structure prediction by ZEFSAII (Michael W. Deem and Ramdas Pophale) SiO2 
 PCOD8141359
Probable space group: C 2/C
;
_chemical_formula_sum "Si O2"
_cell_formula_units_Z 60
_cell_length_a 17.739243
_cell_length_b 18.071108
_cell_length_c 18.099049
_cell_angle_alpha 90.000000
_cell_angle_beta 28.928764
_cell_angle_gamma 90.000000
_cell_volume 2806.540452
_symmetry_space_group_name_H-M "C 2/C"
_symmetry_group_IT_number 15
_symmetry_cell_setting 'monoclinic'
loop_
_space_group_symop_operation_xyz
x,y,z
-x,y,1/2-z
-x,-y,-z
x,-y,1/2+z
1/2+x,1/2+y,z
1/2-x,1/2+y,1/2-z
1/2-x,1/2-y,-z
1/2+x,1/2-y,1/2+z
loop_
_atom_site_type_symbol
_atom_site_label
_atom_site_fract_x
_atom_site_fract_y
_atom_site_fract_z
Si Si1 0.576461 0.264528 0.963194
Si Si2 0.091766 0.597819 0.740074
Si Si3 0.370732 0.686929 0.922340
Si Si4 0.295456 0.119695 0.076471
Si Si5 0.855929 0.353739 0.680019
Si Si6 0.153766 0.435086 0.661277
Si Si7 0.361623 0.708478 0.515246
Si Si8 0.500000 0.359470 0.750000
O O1 0.545485 0.294195 0.072399
O O2 0.525955 0.177644 0.008687
O O3 0.477219 0.305427 0.984662
O O4 0.756692 0.279857 0.787929
O O5 0.182172 0.523096 0.638258
O O6 0.213895 0.657915 0.662930
O O7 0.000000 0.633198 0.750000
O O8 0.956721 0.579654 0.915466
O O9 0.500000 0.677625 0.750000
O O10 0.250000 0.750000 0.000000
O O11 0.291421 0.606846 0.000979
O O12 0.274560 0.103103 0.181567
O O13 0.305299 0.207828 0.056499
O O14 0.146117 0.091617 0.156224
O O15 0.866904 0.410240 0.736803
O O16 0.000000 0.412887 0.750000
O O17 0.440876 0.689067 0.369513
#
# Coordination Sequence:
#
# PCOD8141359 Si02
#       8
#     8   8   8   8   8   8   8   4
#     4  10  21  36  60  97 126 155 207 273 317 367
#     4  11  24  42  60  88 128 173 210 260 324 387
#     4  11  21  40  71 100 127 165 214 265 328 382
#     4  11  23  36  63  90 121 165 215 262 316 376
#     4  10  21  38  60  91 125 157 208 262 318 377
#     4  10  23  44  64  89 129 170 209 264 325 394
#     4  11  23  37  60  92 126 162 212 268 316 375
#     4  12  20  36  60  90 120 160 210 262 308 378
#
# _framework density 21.378633000000001
#
# number of rings (size 3 to 8) (size 9 to 14) (size 15 to 20)
#    0.000    1.333    2.667    4.000    7.467    0.533 
#    1.200    2.667    0.000    0.000    0.000    0.000 
#    0.000    0.000    0.000    0.000    0.000    0.000 
#
# Total GULP energy -371807.571702 kJ/mol
# GULP energy per Si atom -12393.585723 kJ/mol
# Density = 2.132997 g / cm^3
# Si number density = 21.378633 Si / 1000 Ang^3
#
#
#
# Elastic Constant Matrix: (Units=GPa)
#
#
# Indices 1 2 3 4 5 6 
#
# 1 153.1195 20.7810 40.5573 0.0029 15.5191 -0.0038
# 2 20.7810 64.0128 20.9666 -0.0003 -12.3201 -0.0024
# 3 40.5573 20.9666 99.5995 -0.0051 9.8997 -0.0023
# 4 0.0029 -0.0003 -0.0051 27.0591 0.0005 -2.8452
# 5 15.5191 -12.3201 9.8997 0.0005 39.5535 0.0027
# 6 -0.0038 -0.0024 -0.0023 -2.8452 0.0027 13.4316
#
#
#
# Elastic Compliance Matrix: (Units=1/GPa)
#
#
# Indices 1 2 3 4 5 6 
#
# 1 0.007804 -0.002380 -0.002357 -0.000001 -0.003213 0.000002
# 2 -0.002380 0.019169 -0.003848 0.000000 0.007868 0.000000
# 3 -0.002357 -0.003848 0.012139 0.000003 -0.003312 0.000002
# 4 -0.000001 0.000000 0.000003 0.037798 -0.000001 0.008007
# 5 -0.003213 0.007868 -0.003312 -0.000001 0.029822 -0.000006
# 6 0.000002 0.000000 0.000002 0.008007 -0.000006 0.076147
#
#
# Mechanical properties :
#
#
# Convention : Reuss Voigt Hill
#
# Bulk Modulus (GPa) = 45.57543 53.48241 49.52892
# Shear Modulus (GPa) = 24.11209 31.63730 27.87469
#
# Velocity S-wave (km/s) = 3.36201 3.85106 3.61481
# Velocity P-wave (km/s) = 6.03616 6.69666 6.37497
#
# Compressibility (1/GPa) = 0.02194165
#
# Stress axis : x y z
#
# Youngs Moduli (GPa) = 128.14106 52.16730 82.37597
#
# Poissons Ratio (x) = 0.12414 0.19420
# Poissons Ratio (y) = 0.30494 0.31700
# Poissons Ratio (z) = 0.30209 0.20075
#
# Static dielectric constant tensor:
#      x y z
#    x 4.340330 -0.000020 0.021430 
#    y -0.000020 3.440550 0.000030 
#    z 0.021430 0.000030 4.106810 
# 
# 
# High freq. dielectric constant tensor:
#      x y z
#    x 1.865330 0.000000 0.008480 
#    y 0.000000 1.789950 0.000000 
#    z 0.008480 0.000000 1.847090 
# 
# From -- ./inp_files/211722.got.cif
#   From: 2010.06.25/outbox.cif.g09.slc.cpg/sg15_106_cif.got.tgz:211722.got - 2010.06.28 07:06:18.
