data_PCOD8141475
_publ_section_title
;
Structure prediction by ZEFSAII (Michael W. Deem and Ramdas Pophale) SiO2 
 PCOD8141475
Probable space group: C 2/C
;
_chemical_formula_sum "Si O2"
_cell_formula_units_Z 52
_cell_length_a 28.410192
_cell_length_b 12.334902
_cell_length_c 8.901592
_cell_angle_alpha 90.000000
_cell_angle_beta 125.516098
_cell_angle_gamma 90.000000
_cell_volume 2539.080836
_symmetry_space_group_name_H-M "C 2/C"
_symmetry_group_IT_number 15
_symmetry_cell_setting 'monoclinic'
loop_
_space_group_symop_operation_xyz
x,y,z
-x,y,1/2-z
-x,-y,-z
x,-y,1/2+z
1/2+x,1/2+y,z
1/2-x,1/2+y,1/2-z
1/2-x,1/2-y,-z
1/2+x,1/2-y,1/2+z
loop_
_atom_site_type_symbol
_atom_site_label
_atom_site_fract_x
_atom_site_fract_y
_atom_site_fract_z
Si Si1 0.909374 0.426880 0.855497
Si Si2 0.000000 0.346483 0.250000
Si Si3 0.234315 0.123753 0.811923
Si Si4 0.814202 0.335627 0.873386
Si Si5 0.360581 0.218938 0.013790
Si Si6 0.794623 0.069517 0.417896
Si Si7 0.901559 0.671209 0.770215
O O1 0.855751 0.421817 0.870269
O O2 0.901637 0.330026 0.719522
O O3 0.910393 0.541635 0.774982
O O4 0.967390 0.416327 0.061655
O O5 0.046844 0.276838 0.238451
O O6 0.198146 0.234842 0.761438
O O7 0.300655 0.150487 0.886996
O O8 0.196288 0.053714 0.620751
O O9 0.234666 0.066081 0.973216
O O10 0.753109 0.391962 0.793288
O O11 0.840756 0.296815 0.080467
O O12 0.349096 0.348266 0.017021
O O13 0.399563 0.212712 0.935852
#
# Coordination Sequence:
#
# PCOD8141475 Si02
#       7
#     8   4   8   8   8   8   8
#     4  11  19  39  57  83 114 156 186 237 288 340
#     4  10  24  38  56  84 118 146 192 244 292 340
#     4  11  22  37  57  85 123 157 189 233 273 333
#     4  10  21  37  54  82 124 155 192 226 282 336
#     4  11  22  36  58  85 121 153 199 223 283 344
#     4  11  22  36  57  86 119 158 190 234 272 334
#     4  11  23  35  59  85 113 158 187 236 283 348
#
# _framework density 20.479852999999999
#
# number of rings (size 3 to 8) (size 9 to 14) (size 15 to 20)
#    0.000    1.231    3.077    5.077    4.308    1.846 
#    0.000    0.000    0.000    0.000    0.000   17.231 
#    0.000    0.000    0.000    0.000    0.000    0.000 
#
# Total GULP energy -322165.149230 kJ/mol
# GULP energy per Si atom -12390.967278 kJ/mol
# Density = 2.043324 g / cm^3
# Si number density = 20.479853 Si / 1000 Ang^3
#
#
#
# Elastic Constant Matrix: (Units=GPa)
#
#
# Indices 1 2 3 4 5 6 
#
# 1 88.5771 18.2448 24.5705 0.0000 -15.4335 0.0000
# 2 18.2448 44.9738 7.2887 0.0000 1.5055 0.0000
# 3 24.5705 7.2887 108.9921 0.0000 4.2018 0.0000
# 4 0.0000 0.0000 0.0000 26.8060 0.0000 -6.6779
# 5 -15.4335 1.5055 4.2018 0.0000 31.6379 0.0000
# 6 0.0000 0.0000 0.0000 -6.6779 0.0000 15.3226
#
#
#
# Elastic Compliance Matrix: (Units=1/GPa)
#
#
# Indices 1 2 3 4 5 6 
#
# 1 0.014744 -0.005719 -0.003246 0.000000 0.007895 0.000000
# 2 -0.005719 0.024722 -0.000212 0.000000 -0.003938 0.000000
# 3 -0.003246 -0.000212 0.010033 0.000000 -0.002906 0.000000
# 4 0.000000 0.000000 0.000000 0.041849 0.000000 0.018238
# 5 0.007895 -0.003938 -0.002906 0.000000 0.036032 0.000000
# 6 0.000000 0.000000 0.000000 0.018238 0.000000 0.073212
#
#
# Mechanical properties :
#
#
# Convention : Reuss Voigt Hill
#
# Bulk Modulus (GPa) = 32.10902 38.08344 35.09623
# Shear Modulus (GPa) = 21.80300 27.58258 24.69279
#
# Velocity S-wave (km/s) = 3.26637 3.67388 3.47610
# Velocity P-wave (km/s) = 5.47156 6.05248 5.76933
#
# Compressibility (1/GPa) = 0.03114390
#
# Stress axis : x y z
#
# Youngs Moduli (GPa) = 67.82580 40.45041 99.67264
#
# Poissons Ratio (x) = 0.23135 0.32350
# Poissons Ratio (y) = 0.38793 0.02113
# Poissons Ratio (z) = 0.22014 0.00858
#
# Static dielectric constant tensor:
#      x y z
#    x 3.574990 0.000000 -0.020380 
#    y 0.000000 3.595500 0.000000 
#    z -0.020380 0.000000 3.859080 
# 
# 
# High freq. dielectric constant tensor:
#      x y z
#    x 1.784080 0.000000 -0.019180 
#    y 0.000000 1.764440 0.000000 
#    z -0.019180 0.000000 1.811430 
# 
# From -- ./inp_files/61255.got.cif
#   From: 2010.06.25/outbox.cif.g09.slc.cpg/sg15_31_cif.got.tgz:61255.got - 2010.06.28 07:06:18.
