data_PCOD8141586
_publ_section_title
;
Structure prediction by ZEFSAII (Michael W. Deem and Ramdas Pophale) SiO2 
 PCOD8141586
Probable space group: C 2/C
;
_chemical_formula_sum "Si O2"
_cell_formula_units_Z 48
_cell_length_a 29.921776
_cell_length_b 20.283008
_cell_length_c 8.215099
_cell_angle_alpha 90.000000
_cell_angle_beta 30.852661
_cell_angle_gamma 90.000000
_cell_volume 2556.864737
_symmetry_space_group_name_H-M "C 2/C"
_symmetry_group_IT_number 15
_symmetry_cell_setting 'monoclinic'
loop_
_space_group_symop_operation_xyz
x,y,z
-x,y,1/2-z
-x,-y,-z
x,-y,1/2+z
1/2+x,1/2+y,z
1/2-x,1/2+y,1/2-z
1/2-x,1/2-y,-z
1/2+x,1/2-y,1/2+z
loop_
_atom_site_type_symbol
_atom_site_label
_atom_site_fract_x
_atom_site_fract_y
_atom_site_fract_z
Si Si1 0.819134 0.055147 0.194366
Si Si2 0.067819 0.842522 0.767357
Si Si3 0.000000 0.927699 0.250000
Si Si4 0.000000 0.258896 0.250000
Si Si5 0.196509 0.079152 0.630948
Si Si6 0.228953 0.815108 0.465650
Si Si7 0.810121 0.309830 0.876283
O O1 0.772446 0.118804 0.419309
O O2 0.768166 0.987238 0.389585
O O3 0.833135 0.066091 0.960374
O O4 0.909873 0.033865 0.003902
O O5 0.004112 0.787732 0.894152
O O6 0.117771 0.885168 0.473983
O O7 0.135117 0.805975 0.676484
O O8 0.003527 0.886565 0.073166
O O9 0.912549 0.301653 0.526650
O O10 0.280609 0.126402 0.367117
O O11 0.250000 0.750000 0.500000
O O12 0.299726 0.822270 0.101661
O O13 0.750000 0.250000 0.000000
#
# Coordination Sequence:
#
# PCOD8141586 Si02
#       7
#     8   8   4   4   8   8   8
#     4  11  23  37  62  85 123 166 193 255 307 363
#     4  10  22  34  57  87 125 157 198 246 302 360
#     4  10  22  35  52  96 121 154 204 238 304 383
#     4  12  22  37  64  90 119 166 198 256 302 347
#     4  11  22  41  59  85 123 163 201 245 306 368
#     4  10  21  37  59  88 123 159 198 243 300 361
#     4  11  22  40  60  90 121 159 205 248 300 355
#
# _framework density 18.772991000000001
#
# number of rings (size 3 to 8) (size 9 to 14) (size 15 to 20)
#    0.000    1.333    3.333    5.000    4.667    3.333 
#    0.000    0.000    0.000    4.000    0.000    0.000 
#    0.000    0.000    0.000    0.000    0.000    0.000 
#
# Total GULP energy -297457.666180 kJ/mol
# GULP energy per Si atom -12394.069424 kJ/mol
# Density = 1.873026 g / cm^3
# Si number density = 18.772991 Si / 1000 Ang^3
#
#
#
# Elastic Constant Matrix: (Units=GPa)
#
#
# Indices 1 2 3 4 5 6 
#
# 1 101.5860 48.6107 28.8299 0.0000 14.3601 0.0000
# 2 48.6107 130.7006 33.9054 0.0000 -3.4682 0.0000
# 3 28.8299 33.9054 84.3777 0.0000 -0.6029 0.0000
# 4 0.0000 0.0000 0.0000 17.4631 0.0000 1.4331
# 5 14.3601 -3.4682 -0.6029 0.0000 33.8520 0.0000
# 6 0.0000 0.0000 0.0000 1.4331 0.0000 35.0891
#
#
#
# Elastic Compliance Matrix: (Units=1/GPa)
#
#
# Indices 1 2 3 4 5 6 
#
# 1 0.013731 -0.004517 -0.002922 0.000000 -0.006339 0.000000
# 2 -0.004517 0.010050 -0.002474 0.000000 0.002902 0.000000
# 3 -0.002922 -0.002474 0.013853 0.000000 0.001233 0.000000
# 4 0.000000 0.000000 0.000000 0.057456 0.000000 -0.002347
# 5 -0.006339 0.002902 0.001233 0.000000 0.032549 0.000000
# 6 0.000000 0.000000 0.000000 -0.002347 0.000000 0.028595
#
#
# Mechanical properties :
#
#
# Convention : Reuss Voigt Hill
#
# Bulk Modulus (GPa) = 56.15635 59.92849 58.04242
# Shear Modulus (GPa) = 27.47330 30.96872 29.22101
#
# Velocity S-wave (km/s) = 3.82965 4.06599 3.94959
# Velocity P-wave (km/s) = 7.03799 7.35085 7.19612
#
# Compressibility (1/GPa) = 0.01780742
#
# Stress axis : x y z
#
# Youngs Moduli (GPa) = 72.82976 99.50315 72.18774
#
# Poissons Ratio (x) = 0.44946 0.21091
# Poissons Ratio (y) = 0.32898 0.17861
# Poissons Ratio (z) = 0.21278 0.24620
#
# Static dielectric constant tensor:
#      x y z
#    x 3.642800 0.000000 0.215310 
#    y 0.000000 3.583080 0.000000 
#    z 0.215310 0.000000 3.442070 
# 
# 
# High freq. dielectric constant tensor:
#      x y z
#    x 1.743530 0.000000 0.019390 
#    y 0.000000 1.728680 0.000000 
#    z 0.019390 0.000000 1.707380 
# 
# From -- ./inp_files/48404.got.cif
#   From: 2010.06.25/outbox.cif.g09.slc.cpg/sg15_25_cif.got.tgz:48404.got - 2010.06.28 07:06:18.
