data_PCOD8141933
_publ_section_title
;
Structure prediction by ZEFSAII (Michael W. Deem and Ramdas Pophale) SiO2 
 PCOD8141933
Probable space group: C 2/C
;
_chemical_formula_sum "Si O2"
_cell_formula_units_Z 60
_cell_length_a 15.428629
_cell_length_b 13.733545
_cell_length_c 15.184442
_cell_angle_alpha 90.000000
_cell_angle_beta 50.794422
_cell_angle_gamma 90.000000
_cell_volume 2493.130061
_symmetry_space_group_name_H-M "C 2/C"
_symmetry_group_IT_number 15
_symmetry_cell_setting 'monoclinic'
loop_
_space_group_symop_operation_xyz
x,y,z
-x,y,1/2-z
-x,-y,-z
x,-y,1/2+z
1/2+x,1/2+y,z
1/2-x,1/2+y,1/2-z
1/2-x,1/2-y,-z
1/2+x,1/2-y,1/2+z
loop_
_atom_site_type_symbol
_atom_site_label
_atom_site_fract_x
_atom_site_fract_y
_atom_site_fract_z
Si Si1 0.413896 0.737050 0.714656
Si Si2 0.843001 0.591128 0.882752
Si Si3 0.622454 0.236884 0.970809
Si Si4 0.469470 0.770900 0.413371
Si Si5 0.636420 0.621255 0.132472
Si Si6 0.000000 0.940789 0.250000
Si Si7 0.247004 0.241571 0.827419
Si Si8 0.303201 0.866863 0.920624
O O1 0.502667 0.784836 0.592684
O O2 0.453945 0.626226 0.701554
O O3 0.287822 0.737417 0.753647
O O4 0.397825 0.794923 0.817130
O O5 0.953141 0.628705 0.865998
O O6 0.822371 0.646095 0.803183
O O7 0.841209 0.475582 0.872919
O O8 0.742650 0.634077 0.003616
O O9 0.699913 0.154242 0.970906
O O10 0.591181 0.225789 0.886091
O O11 0.680721 0.341272 0.957631
O O12 0.466936 0.681170 0.345030
O O13 0.371147 0.749639 0.545859
O O14 0.603329 0.508382 0.154742
O O15 0.674527 0.664996 0.202515
#
# Coordination Sequence:
#
# PCOD8141933 Si02
#       8
#     8   8   8   8   8   4   8   8
#     4  11  22  39  57  84 123 153 190 241 296 345
#     4   9  18  36  61  86 111 150 195 234 294 353
#     4  10  21  38  59  83 118 154 194 240 288 341
#     4   8  17  37  60  83 114 147 187 245 295 343
#     4   9  19  35  58  86 113 145 194 243 289 344
#     4  12  22  34  60  82 120 156 196 246 290 340
#     4   8  18  37  59  82 116 150 182 242 299 346
#     4  11  22  35  62  83 119 156 195 238 288 350
#
# _framework density 24.066133000000001
#
# number of rings (size 3 to 8) (size 9 to 14) (size 15 to 20)
#    0.000    2.400    1.333    2.400    1.867    3.733 
#    0.000    4.000   17.600    0.000    0.000    0.000 
#    0.000    0.000    0.000    0.000    0.000    0.000 
#
# Total GULP energy -371663.382978 kJ/mol
# GULP energy per Si atom -12388.779433 kJ/mol
# Density = 2.401136 g / cm^3
# Si number density = 24.066133 Si / 1000 Ang^3
#
#
#
# Elastic Constant Matrix: (Units=GPa)
#
#
# Indices 1 2 3 4 5 6 
#
# 1 201.7526 57.8842 31.9379 0.0000 28.8380 0.0000
# 2 57.8842 168.6663 10.3711 0.0000 23.9786 0.0000
# 3 31.9379 10.3711 23.0013 0.0000 19.3630 0.0000
# 4 0.0000 0.0000 0.0000 -2.0779 0.0000 7.2271
# 5 28.8380 23.9786 19.3630 0.0000 50.1599 0.0000
# 6 0.0000 0.0000 0.0000 7.2271 0.0000 21.6271
#
#
#
# Elastic Compliance Matrix: (Units=1/GPa)
#
#
# Indices 1 2 3 4 5 6 
#
# 1 0.006861 -0.001861 -0.009061 0.000000 0.000442 0.000000
# 2 -0.001861 0.006869 0.002000 0.000000 -0.002986 0.000000
# 3 -0.009061 0.002000 0.076403 0.000000 -0.025240 0.000000
# 4 0.000000 0.000000 0.000000 -0.222572 0.000000 0.074376
# 5 0.000442 -0.002986 -0.025240 0.000000 0.030853 0.000000
# 6 0.000000 0.000000 0.000000 0.074376 0.000000 0.021384
#
#
# Mechanical properties :
#
#
# Convention : Reuss Voigt Hill
#
# Bulk Modulus (GPa) = 13.83304 65.97851 39.90577
# Shear Modulus (GPa) = -130.67685 33.49028 -48.59328
#
# Velocity S-wave (km/s) = -7.37678 3.73445 -4.49838
# Velocity P-wave (km/s) = 8.17285 6.78748 3.21913
#
# Compressibility (1/GPa) = 0.07229069
#
# Stress axis : x y z
#
# Youngs Moduli (GPa) = 145.74093 145.58358 13.08848
#
# Poissons Ratio (x) = 0.27086 0.11859
# Poissons Ratio (y) = 0.27115 -0.02618
# Poissons Ratio (z) = 1.32053 -0.29116
#
# Static dielectric constant tensor:
#      x y z
#    x 4.959660 0.000000 0.099410 
#    y 0.000000 3.826870 0.000000 
#    z 0.099410 0.000000 4.506210 
# 
# 
# High freq. dielectric constant tensor:
#      x y z
#    x 1.986830 0.000000 -0.020550 
#    y 0.000000 1.910430 0.000000 
#    z -0.020550 0.000000 1.985180 
# 
# From -- ./inp_files/210622.got.cif
#   From: 2010.06.25/outbox.cif.g09.slc.cpg/sg15_106_cif.got.tgz:210622.got - 2010.06.28 07:06:18.
