data_PCOD8141842
_publ_section_title
;
Structure prediction by ZEFSAII (Michael W. Deem and Ramdas Pophale) SiO2 
 PCOD8141842
Probable space group: C 2/C
;
_chemical_formula_sum "Si O2"
_cell_formula_units_Z 56
_cell_length_a 27.107129
_cell_length_b 17.110356
_cell_length_c 9.691687
_cell_angle_alpha 90.000000
_cell_angle_beta 37.548706
_cell_angle_gamma 90.000000
_cell_volume 2739.490408
_symmetry_space_group_name_H-M "C 2/C"
_symmetry_group_IT_number 15
_symmetry_cell_setting 'monoclinic'
loop_
_space_group_symop_operation_xyz
x,y,z
-x,y,1/2-z
-x,-y,-z
x,-y,1/2+z
1/2+x,1/2+y,z
1/2-x,1/2+y,1/2-z
1/2-x,1/2-y,-z
1/2+x,1/2-y,1/2+z
loop_
_atom_site_type_symbol
_atom_site_label
_atom_site_fract_x
_atom_site_fract_y
_atom_site_fract_z
Si Si1 0.000000 0.826674 0.750000
Si Si2 0.736752 0.273287 0.865343
Si Si3 0.731173 0.004810 0.363652
Si Si4 0.667580 0.361762 0.462069
Si Si5 0.839579 0.147501 0.204645
Si Si6 0.074365 0.719777 0.353366
Si Si7 0.336249 0.914923 0.733987
Si Si8 0.000000 0.784148 0.250000
O O1 0.074645 0.882123 0.628534
O O2 0.024034 0.773154 0.567791
O O3 0.808557 0.210529 0.689510
O O4 0.705094 0.284169 0.780191
O O5 0.763334 0.354422 0.873457
O O6 0.668187 0.243711 0.122759
O O7 0.773561 0.934028 0.190182
O O8 0.685387 0.977049 0.601052
O O9 0.803056 0.063766 0.244267
O O10 0.660545 0.039876 0.420326
O O11 0.672549 0.335457 0.608709
O O12 0.933320 0.154925 0.953547
O O13 0.081434 0.631795 0.403691
O O14 0.029891 0.724961 0.304137
#
# Coordination Sequence:
#
# PCOD8141842 Si02
#       8
#     4   8   8   8   8   8   8   4
#     4  12  24  35  64  99 130 160 202 264 312 369
#     4  10  21  37  68  90 122 168 223 264 294 361
#     4  11  23  38  64  94 131 165 204 260 309 379
#     4  12  21  40  61 100 128 165 210 259 314 371
#     4  10  22  39  59  98 129 166 207 255 319 374
#     4  11  21  40  63  95 123 164 212 264 306 368
#     4  11  21  40  62  95 123 162 215 260 309 361
#     4  10  22  41  64  91 134 164 204 258 318 373
#
# _framework density 20.441756999999999
#
# number of rings (size 3 to 8) (size 9 to 14) (size 15 to 20)
#    0.000    1.143    5.714    1.714    0.000    0.571 
#    0.000    2.857    0.000    2.571    0.000    0.000 
#    0.000    0.000    0.000    0.000    0.000    0.000 
#
# Total GULP energy -347006.906564 kJ/mol
# GULP energy per Si atom -12393.103806 kJ/mol
# Density = 2.039523 g / cm^3
# Si number density = 20.441757 Si / 1000 Ang^3
#
#
#
# Elastic Constant Matrix: (Units=GPa)
#
#
# Indices 1 2 3 4 5 6 
#
# 1 79.1575 16.6923 19.3619 0.0000 36.5609 0.0000
# 2 16.6923 66.4994 5.3968 0.0000 11.4669 0.0000
# 3 19.3619 5.3968 48.8609 0.0000 20.2010 0.0000
# 4 0.0000 0.0000 0.0000 25.1625 0.0000 4.8339
# 5 36.5609 11.4669 20.2010 0.0000 34.7080 0.0000
# 6 0.0000 0.0000 0.0000 4.8339 0.0000 38.6901
#
#
#
# Elastic Compliance Matrix: (Units=1/GPa)
#
#
# Indices 1 2 3 4 5 6 
#
# 1 0.024866 -0.001804 0.001223 0.000000 -0.026309 0.000000
# 2 -0.001804 0.016088 0.000461 0.000000 -0.003683 0.000000
# 3 0.001223 0.000461 0.027031 0.000000 -0.017173 0.000000
# 4 0.000000 0.000000 0.000000 0.040719 0.000000 -0.005087
# 5 -0.026309 -0.003683 -0.017173 0.000000 0.067737 0.000000
# 6 0.000000 0.000000 0.000000 -0.005087 0.000000 0.026482
#
#
# Mechanical properties :
#
#
# Convention : Reuss Voigt Hill
#
# Bulk Modulus (GPa) = 14.76154 30.82442 22.79298
# Shear Modulus (GPa) = 22.14877 29.91656 26.03267
#
# Velocity S-wave (km/s) = 3.29524 3.82973 3.57249
# Velocity P-wave (km/s) = 4.65994 5.88792 5.30955
#
# Compressibility (1/GPa) = 0.06774359
#
# Stress axis : x y z
#
# Youngs Moduli (GPa) = 40.21572 62.15699 36.99482
#
# Poissons Ratio (x) = 0.11215 -0.04524
# Poissons Ratio (y) = 0.07256 -0.01704
# Poissons Ratio (z) = -0.04918 -0.02863
#
# Static dielectric constant tensor:
#      x y z
#    x 4.130280 0.000000 0.148250 
#    y 0.000000 3.602220 0.000000 
#    z 0.148250 0.000000 3.627680 
# 
# 
# High freq. dielectric constant tensor:
#      x y z
#    x 1.824620 0.000000 0.025010 
#    y 0.000000 1.778690 0.000000 
#    z 0.025010 0.000000 1.792480 
# 
# From -- ./inp_files/49201.got.cif
#   From: 2010.06.25/outbox.cif.g09.slc.cpg/sg15_25_cif.got.tgz:49201.got - 2010.06.28 07:06:18.
