data_PCOD8141941
_publ_section_title
;
Structure prediction by ZEFSAII (Michael W. Deem and Ramdas Pophale) SiO2 
 PCOD8141941
Probable space group: C 2/C
;
_chemical_formula_sum "Si O2"
_cell_formula_units_Z 40
_cell_length_a 9.682727
_cell_length_b 16.225705
_cell_length_c 13.764956
_cell_angle_alpha 90.000000
_cell_angle_beta 70.837693
_cell_angle_gamma 90.000000
_cell_volume 2042.775268
_symmetry_space_group_name_H-M "C 2/C"
_symmetry_group_IT_number 15
_symmetry_cell_setting 'monoclinic'
loop_
_space_group_symop_operation_xyz
x,y,z
-x,y,1/2-z
-x,-y,-z
x,-y,1/2+z
1/2+x,1/2+y,z
1/2-x,1/2+y,1/2-z
1/2-x,1/2-y,-z
1/2+x,1/2-y,1/2+z
loop_
_atom_site_type_symbol
_atom_site_label
_atom_site_fract_x
_atom_site_fract_y
_atom_site_fract_z
Si Si1 0.500000 0.372650 0.250000
Si Si2 0.292246 0.068119 0.930247
Si Si3 0.326316 0.414099 0.462897
Si Si4 0.988951 0.614272 0.055970
Si Si5 0.079270 0.199582 0.919930
Si Si6 0.500000 0.979806 0.750000
O O1 0.386554 0.428117 0.338775
O O2 0.407088 0.313991 0.199395
O O3 0.220802 0.157975 0.937627
O O4 0.367348 0.039532 0.812377
O O5 0.412418 0.061026 0.988563
O O6 0.165770 0.001271 0.983156
O O7 0.161865 0.379718 0.500216
O O8 0.430273 0.346141 0.491693
O O9 0.920705 0.704552 0.058097
O O10 0.950951 0.577480 0.170690
#
# Coordination Sequence:
#
# PCOD8141941 Si02
#       6
#     4   8   8   8   8   4
#     4   8  21  32  66  79 116 150 208 214 289 344
#     4  11  23  37  62  89 119 152 190 248 290 335
#     4   9  20  38  59  83 114 157 197 226 280 356
#     4  11  22  39  61  87 119 150 197 241 290 340
#     4  10  21  38  59  85 119 150 193 242 287 335
#     4  10  23  38  60  87 116 160 198 226 287 360
#
# _framework density 19.581204
#
# number of rings (size 3 to 8) (size 9 to 14) (size 15 to 20)
#    1.200    0.800    0.000    4.800    5.600    0.000 
#    0.000    0.000    0.000    0.000    0.000    0.000 
#    0.000    0.000    0.000    0.000    0.000    0.000 
#
# Total GULP energy -247823.485501 kJ/mol
# GULP energy per Si atom -12391.174275 kJ/mol
# Density = 1.953664 g / cm^3
# Si number density = 19.581204 Si / 1000 Ang^3
#
#
#
# Elastic Constant Matrix: (Units=GPa)
#
#
# Indices 1 2 3 4 5 6 
#
# 1 90.6079 23.0336 35.6643 0.0000 1.9937 0.0000
# 2 23.0336 88.8092 28.7932 0.0000 -14.8440 0.0000
# 3 35.6643 28.7932 121.7749 0.0000 -15.9407 0.0000
# 4 0.0000 0.0000 0.0000 16.8701 0.0000 1.6343
# 5 1.9937 -14.8440 -15.9407 0.0000 33.0192 0.0000
# 6 0.0000 0.0000 0.0000 1.6343 0.0000 31.5291
#
#
#
# Elastic Compliance Matrix: (Units=1/GPa)
#
#
# Indices 1 2 3 4 5 6 
#
# 1 0.013328 -0.002901 -0.003729 0.000000 -0.003909 0.000000
# 2 -0.002901 0.013446 -0.001618 0.000000 0.005439 0.000000
# 3 -0.003729 -0.001618 0.010270 0.000000 0.004456 0.000000
# 4 0.000000 0.000000 0.000000 0.059576 0.000000 -0.003088
# 5 -0.003909 0.005439 0.004456 0.000000 0.035118 0.000000
# 6 0.000000 0.000000 0.000000 -0.003088 0.000000 0.031877
#
#
# Mechanical properties :
#
#
# Convention : Reuss Voigt Hill
#
# Bulk Modulus (GPa) = 48.66646 52.90826 50.78736
# Shear Modulus (GPa) = 26.74383 30.53040 28.63712
#
# Velocity S-wave (km/s) = 3.69967 3.95292 3.82839
# Velocity P-wave (km/s) = 6.56945 6.92189 6.74797
#
# Compressibility (1/GPa) = 0.02054803
#
# Stress axis : x y z
#
# Youngs Moduli (GPa) = 75.03054 74.37105 97.37278
#
# Poissons Ratio (x) = 0.21576 0.36312
# Poissons Ratio (y) = 0.21767 0.15751
# Poissons Ratio (z) = 0.27980 0.12031
#
# Static dielectric constant tensor:
#      x y z
#    x 3.315960 0.000000 -0.027190 
#    y 0.000000 3.423460 0.000000 
#    z -0.027190 0.000000 3.464670 
# 
# 
# High freq. dielectric constant tensor:
#      x y z
#    x 1.758380 0.000000 0.000320 
#    y 0.000000 1.760750 0.000000 
#    z 0.000320 0.000000 1.753490 
# 
# From -- ./inp_files/142887.got.cif
#   From: 2010.06.25/outbox.cif.g09.slc.cpg/sg15_72_cif.got.tgz:142887.got - 2010.06.28 07:06:18.
