data_PCOD8141113
_publ_section_title
;
Structure prediction by ZEFSAII (Michael W. Deem and Ramdas Pophale) SiO2 
 PCOD8141113
Probable space group: C 2/C
;
_chemical_formula_sum "Si O2"
_cell_formula_units_Z 60
_cell_length_a 18.547274
_cell_length_b 12.854459
_cell_length_c 13.419840
_cell_angle_alpha 90.000000
_cell_angle_beta 107.364352
_cell_angle_gamma 90.000000
_cell_volume 3053.680400
_symmetry_space_group_name_H-M "C 2/C"
_symmetry_group_IT_number 15
_symmetry_cell_setting 'monoclinic'
loop_
_space_group_symop_operation_xyz
x,y,z
-x,y,1/2-z
-x,-y,-z
x,-y,1/2+z
1/2+x,1/2+y,z
1/2-x,1/2+y,1/2-z
1/2-x,1/2-y,-z
1/2+x,1/2-y,1/2+z
loop_
_atom_site_type_symbol
_atom_site_label
_atom_site_fract_x
_atom_site_fract_y
_atom_site_fract_z
Si Si1 0.625860 0.595821 0.157468
Si Si2 0.751917 0.023196 0.662303
Si Si3 0.891918 0.596791 0.463105
Si Si4 0.015286 0.509058 0.646955
Si Si5 0.000000 0.022378 0.250000
Si Si6 0.141070 0.679887 0.712352
Si Si7 0.128214 0.985965 0.436552
Si Si8 0.163902 0.770742 0.939339
O O1 0.696181 0.543595 0.242162
O O2 0.550632 0.590161 0.194367
O O3 0.640369 0.717493 0.143546
O O4 0.617117 0.542315 0.046462
O O5 0.714870 0.115050 0.710868
O O6 0.800956 0.069364 0.589654
O O7 0.691537 0.947160 0.587400
O O8 0.934677 0.525840 0.562147
O O9 0.886793 0.715807 0.496333
O O10 0.940532 0.588653 0.382539
O O11 0.000000 0.470360 0.750000
O O12 0.065481 0.613728 0.662069
O O13 0.053659 0.952849 0.343212
O O14 0.145583 0.713340 0.828626
O O15 0.140739 0.109775 0.427554
O O16 0.250000 0.750000 0.000000
#
# Coordination Sequence:
#
# PCOD8141113 Si02
#       8
#     8   8   8   8   4   8   8   8
#     4  11  23  40  64  92 125 163 203 261 306 361
#     4  10  22  39  58  95 125 154 204 258 309 370
#     4  10  21  35  57  92 121 154 206 253 307 360
#     4  10  21  36  59  87 122 164 200 255 308 371
#     4  10  22  42  58  92 120 158 214 244 304 366
#     4  11  22  37  63  90 123 161 210 248 312 375
#     4  11  23  39  65  87 125 163 207 257 309 361
#     4  12  20  36  63  91 115 161 210 252 301 368
#
# _framework density 19.648420999999999
#
# number of rings (size 3 to 8) (size 9 to 14) (size 15 to 20)
#    0.000    1.333    5.333    1.200    2.800    0.533 
#    0.000    0.000    1.467    4.800    0.000    0.000 
#    0.000    0.000    0.000    0.000    0.000    0.000 
#
# Total GULP energy -371874.327734 kJ/mol
# GULP energy per Si atom -12395.810924 kJ/mol
# Density = 1.960370 g / cm^3
# Si number density = 19.648421 Si / 1000 Ang^3
#
#
#
# Elastic Constant Matrix: (Units=GPa)
#
#
# Indices 1 2 3 4 5 6 
#
# 1 112.6692 36.9577 67.8004 0.0000 -4.1161 0.0000
# 2 36.9577 79.4240 41.3545 0.0000 -21.1058 0.0000
# 3 67.8004 41.3545 146.8607 0.0000 -8.9267 0.0000
# 4 0.0000 0.0000 0.0000 32.8447 0.0000 -5.9629
# 5 -4.1161 -21.1058 -8.9267 0.0000 41.6155 0.0000
# 6 0.0000 0.0000 0.0000 -5.9629 0.0000 26.4314
#
#
#
# Elastic Compliance Matrix: (Units=1/GPa)
#
#
# Indices 1 2 3 4 5 6 
#
# 1 0.013160 -0.003961 -0.005069 0.000000 -0.001795 0.000000
# 2 -0.003961 0.018038 -0.002754 0.000000 0.008165 0.000000
# 3 -0.005069 -0.002754 0.009939 0.000000 0.000234 0.000000
# 4 0.000000 0.000000 0.000000 0.031747 0.000000 0.007162
# 5 -0.001795 0.008165 0.000234 0.000000 0.028043 0.000000
# 6 0.000000 0.000000 0.000000 0.007162 0.000000 0.039449
#
#
# Mechanical properties :
#
#
# Convention : Reuss Voigt Hill
#
# Bulk Modulus (GPa) = 56.92200 70.13103 63.52651
# Shear Modulus (GPa) = 29.44631 33.03441 31.24036
#
# Velocity S-wave (km/s) = 3.87545 4.10478 3.99177
# Velocity P-wave (km/s) = 7.00419 7.63126 7.32444
#
# Compressibility (1/GPa) = 0.01756790
#
# Stress axis : x y z
#
# Youngs Moduli (GPa) = 75.98986 55.43928 100.61215
#
# Poissons Ratio (x) = 0.21960 0.51001
# Poissons Ratio (y) = 0.30100 0.27711
# Poissons Ratio (z) = 0.38520 0.15269
#
# Static dielectric constant tensor:
#      x y z
#    x 3.931460 0.000000 -0.039770 
#    y 0.000000 3.424670 0.000000 
#    z -0.039770 0.000000 3.878980 
# 
# 
# High freq. dielectric constant tensor:
#      x y z
#    x 1.783510 0.000000 0.006070 
#    y 0.000000 1.735080 0.000000 
#    z 0.006070 0.000000 1.780860 
# 
# From -- ./inp_files/160965.got.cif
#   From: 2010.06.25/outbox.cif.g09.slc.cpg/sg15_81_cif.got.tgz:160965.got - 2010.06.28 07:06:18.
