data_PCOD8141188
_publ_section_title
;
Structure prediction by ZEFSAII (Michael W. Deem and Ramdas Pophale) SiO2 
 PCOD8141188
Probable space group: C 2/C
;
_chemical_formula_sum "Si O2"
_cell_formula_units_Z 44
_cell_length_a 5.084770
_cell_length_b 21.238539
_cell_length_c 18.510294
_cell_angle_alpha 90.000000
_cell_angle_beta 69.430727
_cell_angle_gamma 90.000000
_cell_volume 1871.544736
_symmetry_space_group_name_H-M "C 2/C"
_symmetry_group_IT_number 15
_symmetry_cell_setting 'monoclinic'
loop_
_space_group_symop_operation_xyz
x,y,z
-x,y,1/2-z
-x,-y,-z
x,-y,1/2+z
1/2+x,1/2+y,z
1/2-x,1/2+y,1/2-z
1/2-x,1/2-y,-z
1/2+x,1/2-y,1/2+z
loop_
_atom_site_type_symbol
_atom_site_label
_atom_site_fract_x
_atom_site_fract_y
_atom_site_fract_z
Si Si1 0.203393 0.367526 0.497318
Si Si2 0.199783 0.107266 0.859896
Si Si3 0.960287 0.282586 0.102393
Si Si4 0.500000 0.002819 0.750000
Si Si5 0.500000 0.686233 0.750000
Si Si6 0.500000 0.418216 0.750000
Si Si7 0.098615 0.145271 0.090699
O O1 0.397887 0.410552 0.425558
O O2 0.192174 0.298525 0.459198
O O3 0.335386 0.367364 0.564243
O O4 0.881335 0.391180 0.537982
O O5 0.357686 0.154712 0.899046
O O6 0.366207 0.043258 0.828451
O O7 0.171934 0.140797 0.785761
O O8 0.720004 0.270177 0.185938
O O9 0.155114 0.220844 0.081311
O O10 0.271482 0.961459 0.731188
O O11 0.479410 0.373772 0.821312
#
# Coordination Sequence:
#
# PCOD8141188 Si02
#       7
#     8   8   8   4   4   4   8
#     4  11  25  44  72 111 140 185 219 291 363 416
#     4  11  23  42  75 109 134 178 237 305 347 397
#     4  11  23  39  74 111 144 181 220 291 361 415
#     4  12  26  52  72  99 139 182 256 298 340 400
#     4  10  21  35  64 118 141 173 232 280 364 404
#     4  12  31  49  72  95 140 207 232 290 354 410
#     4  12  27  47  68 102 154 180 233 271 357 456
#
# _framework density 23.509990999999999
#
# number of rings (size 3 to 8) (size 9 to 14) (size 15 to 20)
#    0.000    0.727    3.636    2.727   10.182    0.727 
#    0.000    5.455    0.000    0.000    0.000    0.000 
#    0.000    0.000    0.000    0.000    0.000    0.000 
#
# Total GULP energy -272716.370997 kJ/mol
# GULP energy per Si atom -12396.198682 kJ/mol
# Density = 2.345648 g / cm^3
# Si number density = 23.509991 Si / 1000 Ang^3
#
#
#
# Elastic Constant Matrix: (Units=GPa)
#
#
# Indices 1 2 3 4 5 6 
#
# 1 144.3925 34.0482 43.8621 0.0000 4.6840 0.0000
# 2 34.0482 72.7409 14.6941 0.0000 9.9818 0.0000
# 3 43.8621 14.6941 99.8824 0.0000 5.6206 0.0000
# 4 0.0000 0.0000 0.0000 26.9716 0.0000 -4.4578
# 5 4.6840 9.9818 5.6206 0.0000 52.3184 0.0000
# 6 0.0000 0.0000 0.0000 -4.4578 0.0000 15.5509
#
#
#
# Elastic Compliance Matrix: (Units=1/GPa)
#
#
# Indices 1 2 3 4 5 6 
#
# 1 0.008749 -0.003451 -0.003347 0.000000 0.000235 0.000000
# 2 -0.003451 0.015861 -0.000669 0.000000 -0.002645 0.000000
# 3 -0.003347 -0.000669 0.011626 0.000000 -0.000822 0.000000
# 4 0.000000 0.000000 0.000000 0.038920 0.000000 0.011157
# 5 0.000235 -0.002645 -0.000822 0.000000 0.019686 0.000000
# 6 0.000000 0.000000 0.000000 0.011157 0.000000 0.067503
#
#
# Mechanical properties :
#
#
# Convention : Reuss Voigt Hill
#
# Bulk Modulus (GPa) = 46.94602 55.80272 51.37437
# Shear Modulus (GPa) = 27.11798 33.92896 30.52347
#
# Velocity S-wave (km/s) = 3.39996 3.80303 3.60713
# Velocity P-wave (km/s) = 5.95188 6.56288 6.26483
#
# Compressibility (1/GPa) = 0.02130106
#
# Stress axis : x y z
#
# Youngs Moduli (GPa) = 114.30504 63.04814 86.01135
#
# Poissons Ratio (x) = 0.21758 0.28791
# Poissons Ratio (y) = 0.39447 0.05755
# Poissons Ratio (z) = 0.38262 0.04218
#
# Static dielectric constant tensor:
#      x y z
#    x 4.536070 0.000000 -0.052350 
#    y 0.000000 3.759870 0.000000 
#    z -0.052350 0.000000 4.485070 
# 
# 
# High freq. dielectric constant tensor:
#      x y z
#    x 1.951290 0.000000 -0.004050 
#    y 0.000000 1.876610 0.000000 
#    z -0.004050 0.000000 1.956750 
# 
# From -- ./inp_files/184861.got.cif
#   From: 2010.06.25/outbox.cif.g09.slc.cpg/sg15_93_cif.got.tgz:184861.got - 2010.06.28 07:06:18.
