data_PCOD8141554
_publ_section_title
;
Structure prediction by ZEFSAII (Michael W. Deem and Ramdas Pophale) SiO2 
 PCOD8141554
Probable space group: C 2/C
;
_chemical_formula_sum "Si O2"
_cell_formula_units_Z 56
_cell_length_a 13.789650
_cell_length_b 29.487449
_cell_length_c 13.640913
_cell_angle_alpha 90.000000
_cell_angle_beta 148.960312
_cell_angle_gamma 90.000000
_cell_volume 2860.049131
_symmetry_space_group_name_H-M "C 2/C"
_symmetry_group_IT_number 15
_symmetry_cell_setting 'monoclinic'
loop_
_space_group_symop_operation_xyz
x,y,z
-x,y,1/2-z
-x,-y,-z
x,-y,1/2+z
1/2+x,1/2+y,z
1/2-x,1/2+y,1/2-z
1/2-x,1/2-y,-z
1/2+x,1/2-y,1/2+z
loop_
_atom_site_type_symbol
_atom_site_label
_atom_site_fract_x
_atom_site_fract_y
_atom_site_fract_z
Si Si1 0.016899 0.193685 0.650337
Si Si2 0.253304 0.502795 0.378426
Si Si3 0.649702 0.472056 0.745625
Si Si4 0.102577 0.296844 0.736412
Si Si5 0.520656 0.077269 0.878622
Si Si6 0.859307 0.363912 0.410822
Si Si7 0.212303 0.060137 0.912245
O O1 0.816535 0.187222 0.426618
O O2 0.000000 0.182128 0.750000
O O3 0.096205 0.244089 0.704336
O O4 0.156339 0.158896 0.717143
O O5 0.423476 0.470457 0.567398
O O6 0.312819 0.533303 0.337517
O O7 0.194459 0.539036 0.409745
O O8 0.078450 0.471523 0.199934
O O9 0.713885 0.522496 0.829096
O O10 0.761697 0.432884 0.902281
O O11 0.000000 0.305824 0.750000
O O12 0.007099 0.325425 0.568028
O O13 0.500000 0.096244 0.750000
O O14 0.426018 0.113590 0.867853
O O15 0.842993 0.399587 0.485865
O O16 0.000000 0.077358 0.750000
#
# Coordination Sequence:
#
# PCOD8141554 Si02
#       7
#     8   8   8   8   8   8   8
#     4  11  20  42  65  94 133 162 193 238 319 389
#     4  10  21  39  60  80 120 170 211 265 306 360
#     4  10  21  40  57  82 117 173 213 246 321 358
#     4  11  21  39  67  95 130 168 187 240 316 393
#     4  12  25  41  61  83 121 171 219 266 304 361
#     4  12  25  38  59  99 126 159 217 257 304 373
#     4  10  21  37  58  89 126 162 211 257 300 363
#
# _framework density 19.580082999999998
#
# number of rings (size 3 to 8) (size 9 to 14) (size 15 to 20)
#    0.000    1.143    5.714    1.714    0.000    2.286 
#    0.000    0.000    0.000    0.857    0.000    0.000 
#    0.000    0.000    0.000    0.000    0.000    0.000 
#
# Total GULP energy -347229.222429 kJ/mol
# GULP energy per Si atom -12401.043658 kJ/mol
# Density = 1.953552 g / cm^3
# Si number density = 19.580083 Si / 1000 Ang^3
#
#
#
# Elastic Constant Matrix: (Units=GPa)
#
#
# Indices 1 2 3 4 5 6 
#
# 1 106.4782 50.6452 37.7294 0.0000 -9.0722 0.0000
# 2 50.6452 68.1667 23.4456 0.0000 -1.1816 0.0000
# 3 37.7294 23.4456 105.5356 0.0000 9.3987 0.0000
# 4 0.0000 0.0000 0.0000 24.5294 0.0000 0.4685
# 5 -9.0722 -1.1816 9.3987 0.0000 30.4259 0.0000
# 6 0.0000 0.0000 0.0000 0.4685 0.0000 19.9785
#
#
#
# Elastic Compliance Matrix: (Units=1/GPa)
#
#
# Indices 1 2 3 4 5 6 
#
# 1 0.016378 -0.010699 -0.003986 0.000000 0.005699 0.000000
# 2 -0.010699 0.022964 -0.001102 0.000000 -0.001958 0.000000
# 3 -0.003986 -0.001102 0.011573 0.000000 -0.004806 0.000000
# 4 0.000000 0.000000 0.000000 0.040786 0.000000 -0.000957
# 5 0.005699 -0.001958 -0.004806 0.000000 0.035975 0.000000
# 6 0.000000 0.000000 0.000000 -0.000957 0.000000 0.050076
#
#
# Mechanical properties :
#
#
# Convention : Reuss Voigt Hill
#
# Bulk Modulus (GPa) = 51.70293 55.98010 53.84151
# Shear Modulus (GPa) = 23.17240 26.21078 24.69159
#
# Velocity S-wave (km/s) = 3.44389 3.66272 3.55499
# Velocity P-wave (km/s) = 6.50208 6.82200 6.66396
#
# Compressibility (1/GPa) = 0.01934126
#
# Stress axis : x y z
#
# Youngs Moduli (GPa) = 61.05619 43.54660 86.40446
#
# Poissons Ratio (x) = 0.46589 0.34442
# Poissons Ratio (y) = 0.65322 0.09526
# Poissons Ratio (z) = 0.24338 0.04801
#
# Static dielectric constant tensor:
#      x y z
#    x 3.542760 0.000000 0.125500 
#    y 0.000000 3.396160 0.000000 
#    z 0.125500 0.000000 3.803850 
# 
# 
# High freq. dielectric constant tensor:
#      x y z
#    x 1.746960 0.000000 0.010270 
#    y 0.000000 1.735170 0.000000 
#    z 0.010270 0.000000 1.778880 
# 
# From -- ./inp_files/157468.got.cif
#   From: 2010.06.25/outbox.cif.g09.slc.cpg/sg15_79_cif.got.tgz:157468.got - 2010.06.28 07:06:18.
