data_PCOD8141747
_publ_section_title
;
Structure prediction by ZEFSAII (Michael W. Deem and Ramdas Pophale) SiO2 
 PCOD8141747
Probable space group: C 2/C
;
_chemical_formula_sum "Si O2"
_cell_formula_units_Z 60
_cell_length_a 13.029523
_cell_length_b 19.075162
_cell_length_c 21.128037
_cell_angle_alpha 90.000000
_cell_angle_beta 36.316218
_cell_angle_gamma 90.000000
_cell_volume 3109.958365
_symmetry_space_group_name_H-M "C 2/C"
_symmetry_group_IT_number 15
_symmetry_cell_setting 'monoclinic'
loop_
_space_group_symop_operation_xyz
x,y,z
-x,y,1/2-z
-x,-y,-z
x,-y,1/2+z
1/2+x,1/2+y,z
1/2-x,1/2+y,1/2-z
1/2-x,1/2-y,-z
1/2+x,1/2-y,1/2+z
loop_
_atom_site_type_symbol
_atom_site_label
_atom_site_fract_x
_atom_site_fract_y
_atom_site_fract_z
Si Si1 0.859010 0.806375 0.986287
Si Si2 0.749855 0.007083 0.667714
Si Si3 0.246733 0.765072 0.787223
Si Si4 0.518632 0.114427 0.312366
Si Si5 0.332437 0.342062 0.141875
Si Si6 0.000000 0.815929 0.250000
Si Si7 0.650725 0.391960 0.055846
Si Si8 0.388419 0.538309 0.467912
O O1 0.852721 0.883976 0.956356
O O2 0.049386 0.776969 0.902817
O O3 0.750000 0.750000 0.000000
O O4 0.791002 0.818989 0.091037
O O5 0.743008 0.083459 0.703134
O O6 0.750219 0.017479 0.591505
O O7 0.582161 0.966051 0.776496
O O8 0.918480 0.960207 0.599342
O O9 0.338242 0.838168 0.723771
O O10 0.244596 0.716640 0.727099
O O11 0.349222 0.729686 0.793818
O O12 0.500000 0.143024 0.250000
O O13 0.347189 0.123929 0.439105
O O14 0.535422 0.355227 0.057789
O O15 0.899418 0.862243 0.351301
O O16 0.623904 0.475983 0.077002
#
# Coordination Sequence:
#
# PCOD8141747 Si02
#       8
#     8   8   8   8   8   4   8   8
#     4  11  23  39  61  85 123 165 208 248 302 364
#     4   9  17  34  59  85 115 149 202 254 305 348
#     4  11  23  38  59  90 124 158 203 250 312 368
#     4  12  20  32  61 100 118 144 201 266 313 356
#     4   9  22  40  60  83 124 165 197 250 306 364
#     4  10  24  40  60  88 128 168 192 248 316 382
#     4  10  21  37  63  91 121 158 201 251 316 368
#     4   9  17  36  59  82 114 157 199 252 302 353
#
# _framework density 19.292862
#
# number of rings (size 3 to 8) (size 9 to 14) (size 15 to 20)
#    0.000    1.867    3.333    1.600    1.867    2.667 
#    0.000    1.333    0.000    8.000    0.000    0.000 
#    0.000    0.000    0.000    0.000    0.000    0.000 
#
# Total GULP energy -371779.636923 kJ/mol
# GULP energy per Si atom -12392.654564 kJ/mol
# Density = 1.924895 g / cm^3
# Si number density = 19.292862 Si / 1000 Ang^3
#
#
#
# Elastic Constant Matrix: (Units=GPa)
#
#
# Indices 1 2 3 4 5 6 
#
# 1 74.6426 48.5998 30.5707 0.0015 5.0682 -0.0003
# 2 48.5998 143.6392 47.2605 -0.0023 5.6480 -0.0057
# 3 30.5707 47.2605 94.6832 -0.0125 1.9447 -0.0068
# 4 0.0015 -0.0023 -0.0125 26.9379 -0.0009 -1.6844
# 5 5.0682 5.6480 1.9447 -0.0009 20.1651 0.0028
# 6 -0.0003 -0.0057 -0.0068 -1.6844 0.0028 33.4879
#
#
#
# Elastic Compliance Matrix: (Units=1/GPa)
#
#
# Indices 1 2 3 4 5 6 
#
# 1 0.018176 -0.004936 -0.003346 -0.000003 -0.002863 -0.000001
# 2 -0.004936 0.009747 -0.003247 0.000000 -0.001176 0.000001
# 3 -0.003346 -0.003247 0.013253 0.000006 0.000472 0.000002
# 4 -0.000003 0.000000 0.000006 0.037240 0.000002 0.001873
# 5 -0.002863 -0.001176 0.000472 0.000002 0.050594 -0.000004
# 6 -0.000001 0.000001 0.000002 0.001873 -0.000004 0.029956
#
#
# Mechanical properties :
#
#
# Convention : Reuss Voigt Hill
#
# Bulk Modulus (GPa) = 55.19638 62.86968 59.03303
# Shear Modulus (GPa) = 26.58697 28.55378 27.57038
#
# Velocity S-wave (km/s) = 3.71627 3.85127 3.78437
# Velocity P-wave (km/s) = 6.86193 7.24114 7.05408
#
# Compressibility (1/GPa) = 0.01811713
#
# Stress axis : x y z
#
# Youngs Moduli (GPa) = 55.01784 102.59915 75.45563
#
# Poissons Ratio (x) = 0.50647 0.25246
# Poissons Ratio (y) = 0.27159 0.24501
# Poissons Ratio (z) = 0.18408 0.33314
#
# Static dielectric constant tensor:
#      x y z
#    x 3.353630 -0.000010 -0.112360 
#    y -0.000010 3.837100 0.000010 
#    z -0.112360 0.000010 3.299280 
# 
# 
# High freq. dielectric constant tensor:
#      x y z
#    x 1.720920 0.000000 -0.017610 
#    y 0.000000 1.771090 0.000000 
#    z -0.017610 0.000000 1.737980 
# 
# From -- ./inp_files/239934.got.cif
#   From: 2010.06.25/outbox.cif.g09.slc.cpg/sg15_120_cif.got.tgz:239934.got - 2010.06.28 07:06:18.
