data_PCOD8141521
_publ_section_title
;
Structure prediction by ZEFSAII (Michael W. Deem and Ramdas Pophale) SiO2 
 PCOD8141521
Probable space group: C 2/C
;
_chemical_formula_sum "Si O2"
_cell_formula_units_Z 56
_cell_length_a 14.544163
_cell_length_b 15.760522
_cell_length_c 12.947796
_cell_angle_alpha 90.000000
_cell_angle_beta 63.159165
_cell_angle_gamma 90.000000
_cell_volume 2648.187133
_symmetry_space_group_name_H-M "C 2/C"
_symmetry_group_IT_number 15
_symmetry_cell_setting 'monoclinic'
loop_
_space_group_symop_operation_xyz
x,y,z
-x,y,1/2-z
-x,-y,-z
x,-y,1/2+z
1/2+x,1/2+y,z
1/2-x,1/2+y,1/2-z
1/2-x,1/2-y,-z
1/2+x,1/2-y,1/2+z
loop_
_atom_site_type_symbol
_atom_site_label
_atom_site_fract_x
_atom_site_fract_y
_atom_site_fract_z
Si Si1 0.617862 0.939539 0.047719
Si Si2 0.253843 0.166552 0.170122
Si Si3 0.933889 0.893092 0.090715
Si Si4 0.963141 0.715904 0.158505
Si Si5 0.704740 0.856905 0.192514
Si Si6 0.908147 0.605835 0.549707
Si Si7 0.553011 0.423569 0.831199
O O1 0.626069 0.914538 0.164520
O O2 0.501013 0.929389 0.071567
O O3 0.702590 0.877631 0.954288
O O4 0.642040 0.037173 0.004180
O O5 0.350426 0.176277 0.197989
O O6 0.202379 0.256664 0.165369
O O7 0.171686 0.105304 0.267097
O O8 0.956319 0.816961 0.157562
O O9 0.816173 0.896015 0.114806
O O10 0.961740 0.977147 0.139257
O O11 0.999163 0.875950 0.953747
O O12 0.000000 0.683984 0.250000
O O13 0.049081 0.685962 0.033929
O O14 0.679930 0.864833 0.326642
O O15 0.500000 0.398871 0.750000
#
# Coordination Sequence:
#
# PCOD8141521 Si02
#       7
#     8   8   8   8   8   8   8
#     4  10  21  37  57  86 122 156 193 250 303 347
#     4  10  22  38  61  92 117 153 206 242 295 364
#     4  10  23  39  59  88 119 157 205 240 290 362
#     4  10  22  43  63  86 122 155 190 249 305 356
#     4  11  21  38  60  86 122 157 194 250 299 350
#     4  10  22  36  59  90 117 154 203 239 296 369
#     4  11  22  39  61  86 120 160 200 249 292 344
#
# _framework density 21.146540999999999
#
# number of rings (size 3 to 8) (size 9 to 14) (size 15 to 20)
#    0.000    1.714    0.000    3.857    0.000    8.000 
#    0.000    9.286    0.000    0.000    0.000    0.000 
#    0.000    0.000    0.000    0.000    0.000    0.000 
#
# Total GULP energy -347193.504325 kJ/mol
# GULP energy per Si atom -12399.768012 kJ/mol
# Density = 2.109841 g / cm^3
# Si number density = 21.146541 Si / 1000 Ang^3
#
#
#
# Elastic Constant Matrix: (Units=GPa)
#
#
# Indices 1 2 3 4 5 6 
#
# 1 76.3808 31.4775 45.3997 0.0000 7.9640 0.0000
# 2 31.4775 79.3645 26.5873 0.0000 -1.4478 0.0000
# 3 45.3997 26.5873 113.2721 0.0000 -8.9124 0.0000
# 4 0.0000 0.0000 0.0000 25.2462 0.0000 -2.8003
# 5 7.9640 -1.4478 -8.9124 0.0000 34.5009 0.0000
# 6 0.0000 0.0000 0.0000 -2.8003 0.0000 28.7884
#
#
#
# Elastic Compliance Matrix: (Units=1/GPa)
#
#
# Indices 1 2 3 4 5 6 
#
# 1 0.020643 -0.005817 -0.007454 0.000000 -0.006935 0.000000
# 2 -0.005817 0.015317 -0.001131 0.000000 0.001693 0.000000
# 3 -0.007454 -0.001131 0.012466 0.000000 0.004894 0.000000
# 4 0.000000 0.000000 0.000000 0.040042 0.000000 0.003895
# 5 -0.006935 0.001693 0.004894 0.000000 0.031921 0.000000
# 6 0.000000 0.000000 0.000000 0.003895 0.000000 0.035115
#
#
# Mechanical properties :
#
#
# Convention : Reuss Voigt Hill
#
# Bulk Modulus (GPa) = 50.95987 52.88294 51.92141
# Shear Modulus (GPa) = 26.19884 28.74396 27.47140
#
# Velocity S-wave (km/s) = 3.52365 3.69083 3.60821
# Velocity P-wave (km/s) = 6.38009 6.57458 6.47807
#
# Compressibility (1/GPa) = 0.01962328
#
# Stress axis : x y z
#
# Youngs Moduli (GPa) = 48.44215 65.28785 80.21613
#
# Poissons Ratio (x) = 0.37977 0.59794
# Poissons Ratio (y) = 0.28178 0.09069
# Poissons Ratio (z) = 0.36109 0.07381
#
# Static dielectric constant tensor:
#      x y z
#    x 3.627000 0.000000 -0.109890 
#    y 0.000000 3.842770 0.000000 
#    z -0.109890 0.000000 3.801300 
# 
# 
# High freq. dielectric constant tensor:
#      x y z
#    x 1.816720 0.000000 -0.009510 
#    y 0.000000 1.832550 0.000000 
#    z -0.009510 0.000000 1.835880 
# 
# From -- ./inp_files/98645.got.cif
#   From: 2010.06.25/outbox.cif.g09.slc.cpg/sg15_50_cif.got.tgz:98645.got - 2010.06.28 07:06:18.
