data_PCOD8141277
_publ_section_title
;
Structure prediction by ZEFSAII (Michael W. Deem and Ramdas Pophale) SiO2 
 PCOD8141277
Probable space group: C 2/C
;
_chemical_formula_sum "Si O2"
_cell_formula_units_Z 52
_cell_length_a 35.235615
_cell_length_b 11.290647
_cell_length_c 11.314093
_cell_angle_alpha 90.000000
_cell_angle_beta 141.775342
_cell_angle_gamma 90.000000
_cell_volume 2785.051399
_symmetry_space_group_name_H-M "C 2/C"
_symmetry_group_IT_number 15
_symmetry_cell_setting 'monoclinic'
loop_
_space_group_symop_operation_xyz
x,y,z
-x,y,1/2-z
-x,-y,-z
x,-y,1/2+z
1/2+x,1/2+y,z
1/2-x,1/2+y,1/2-z
1/2-x,1/2-y,-z
1/2+x,1/2-y,1/2+z
loop_
_atom_site_type_symbol
_atom_site_label
_atom_site_fract_x
_atom_site_fract_y
_atom_site_fract_z
Si Si1 0.685278 0.129051 0.434544
Si Si2 0.391655 0.541659 0.870128
Si Si3 0.686975 0.735194 0.701807
Si Si4 0.500000 0.607982 0.750000
Si Si5 0.676446 0.327328 0.747115
Si Si6 0.683768 0.148555 0.950523
Si Si7 0.097461 0.807270 0.329185
O O1 0.693992 0.164662 0.319547
O O2 0.746899 0.170226 0.654809
O O3 0.622978 0.185482 0.336263
O O4 0.673553 0.990373 0.417182
O O5 0.365984 0.642588 0.894380
O O6 0.337337 0.447036 0.713149
O O7 0.408240 0.593051 0.783876
O O8 0.450618 0.478302 0.069694
O O9 0.662644 0.800917 0.525228
O O10 0.469394 0.696883 0.771869
O O11 0.649825 0.215719 0.758158
O O12 0.645105 0.346404 0.544828
O O13 0.746811 0.312667 0.893357
#
# Coordination Sequence:
#
# PCOD8141277 Si02
#       7
#     8   8   8   4   8   8   8
#     4  10  21  36  57  84 122 158 196 239 300 364
#     4  10  21  39  62  88 119 151 199 256 299 346
#     4  10  21  36  57  86 120 160 189 245 307 352
#     4  10  22  38  66  92 110 154 206 256 296 344
#     4  10  22  32  54  89 120 156 193 237 295 353
#     4  11  22  33  55  88 125 159 192 236 292 373
#     4  10  21  40  58  85 118 155 196 249 298 347
#
# _framework density 18.671109999999999
#
# number of rings (size 3 to 8) (size 9 to 14) (size 15 to 20)
#    0.000    1.846    3.077    0.462    6.462    0.000 
#    0.000    0.000    0.000    4.615    0.000    0.000 
#    0.000    0.000    0.000    0.000    0.000    0.000 
#
# Total GULP energy -322224.541709 kJ/mol
# GULP energy per Si atom -12393.251604 kJ/mol
# Density = 1.862861 g / cm^3
# Si number density = 18.671110 Si / 1000 Ang^3
#
#
#
# Elastic Constant Matrix: (Units=GPa)
#
#
# Indices 1 2 3 4 5 6 
#
# 1 126.0365 60.0461 30.7878 0.0000 -0.3314 0.0000
# 2 60.0461 123.1184 17.0386 0.0000 -7.5185 0.0000
# 3 30.7878 17.0386 52.7822 0.0000 -5.1644 0.0000
# 4 0.0000 0.0000 0.0000 22.6492 0.0000 4.9188
# 5 -0.3314 -7.5185 -5.1644 0.0000 23.4420 0.0000
# 6 0.0000 0.0000 0.0000 4.9188 0.0000 18.8709
#
#
#
# Elastic Compliance Matrix: (Units=1/GPa)
#
#
# Indices 1 2 3 4 5 6 
#
# 1 0.011689 -0.005113 -0.005429 0.000000 -0.002671 0.000000
# 2 -0.005113 0.010848 -0.000190 0.000000 0.003365 0.000000
# 3 -0.005429 -0.000190 0.022649 0.000000 0.004852 0.000000
# 4 0.000000 0.000000 0.000000 0.046801 0.000000 -0.012199
# 5 -0.002671 0.003365 0.004852 0.000000 0.044769 0.000000
# 6 0.000000 0.000000 0.000000 -0.012199 0.000000 0.056171
#
#
# Mechanical properties :
#
#
# Convention : Reuss Voigt Hill
#
# Bulk Modulus (GPa) = 42.15612 57.52021 49.83816
# Shear Modulus (GPa) = 22.49233 25.93006 24.21120
#
# Velocity S-wave (km/s) = 3.47459 3.73068 3.60491
# Velocity P-wave (km/s) = 6.22288 7.03073 6.63911
#
# Compressibility (1/GPa) = 0.02372135
#
# Stress axis : x y z
#
# Youngs Moduli (GPa) = 85.54927 92.18648 44.15254
#
# Poissons Ratio (x) = 0.47132 0.23971
# Poissons Ratio (y) = 0.43738 0.00840
# Poissons Ratio (z) = 0.46446 0.01754
#
# Static dielectric constant tensor:
#      x y z
#    x 3.789630 0.000000 -0.005420 
#    y 0.000000 3.519060 0.000000 
#    z -0.005420 0.000000 3.378180 
# 
# 
# High freq. dielectric constant tensor:
#      x y z
#    x 1.740010 0.000000 -0.012210 
#    y 0.000000 1.720760 0.000000 
#    z -0.012210 0.000000 1.698790 
# 
# From -- ./inp_files/126483.got.cif
#   From: 2010.06.25/outbox.cif.g09.slc.cpg/sg15_64_cif.got.tgz:126483.got - 2010.06.28 07:06:18.
