data_PCOD8141010
_publ_section_title
;
Structure prediction by ZEFSAII (Michael W. Deem and Ramdas Pophale) SiO2 
 PCOD8141010
Probable space group: C 2/C
;
_chemical_formula_sum "Si O2"
_cell_formula_units_Z 52
_cell_length_a 10.760089
_cell_length_b 16.664183
_cell_length_c 21.086942
_cell_angle_alpha 90.000000
_cell_angle_beta 142.761087
_cell_angle_gamma 90.000000
_cell_volume 2288.070047
_symmetry_space_group_name_H-M "C 2/C"
_symmetry_group_IT_number 15
_symmetry_cell_setting 'monoclinic'
loop_
_space_group_symop_operation_xyz
x,y,z
-x,y,1/2-z
-x,-y,-z
x,-y,1/2+z
1/2+x,1/2+y,z
1/2-x,1/2+y,1/2-z
1/2-x,1/2-y,-z
1/2+x,1/2-y,1/2+z
loop_
_atom_site_type_symbol
_atom_site_label
_atom_site_fract_x
_atom_site_fract_y
_atom_site_fract_z
Si Si1 0.853189 0.339572 0.803907
Si Si2 0.853518 0.051549 0.857072
Si Si3 0.833913 0.668635 0.806734
Si Si4 0.922374 0.655125 0.470460
Si Si5 0.500000 0.065937 0.250000
Si Si6 0.931930 0.913712 0.608289
Si Si7 0.727957 0.673991 0.570877
O O1 0.793585 0.248623 0.761220
O O2 0.986846 0.349540 0.923008
O O3 0.647291 0.393343 0.729737
O O4 0.004689 0.375725 0.812775
O O5 0.793821 0.089912 0.764859
O O6 0.882107 0.122901 0.918683
O O7 0.698339 0.989524 0.827005
O O8 0.057356 0.999366 0.924205
O O9 0.031867 0.657440 0.841726
O O10 0.885597 0.661951 0.902993
O O11 0.765960 0.582668 0.425666
O O12 0.782570 0.733665 0.417043
O O13 0.896354 0.841461 0.544047
#
# Coordination Sequence:
#
# PCOD8141010 Si02
#       7
#     8   8   8   8   4   8   8
#     4  11  21  39  64  84 125 160 207 249 305 369
#     4  11  21  37  63  88 126 163 206 248 307 371
#     4  11  20  36  63  93 121 159 210 252 297 367
#     4  11  21  36  64  97 120 154 208 264 306 350
#     4  10  24  40  58  86 118 174 198 240 314 376
#     4  10  21  34  57  95 124 153 200 263 310 355
#     4  11  18  34  61  98 119 154 209 260 297 360
#
# _framework density 22.726576999999999
#
# number of rings (size 3 to 8) (size 9 to 14) (size 15 to 20)
#    0.000    1.231    6.154    1.846    0.000    0.000 
#    0.000    3.846   10.154    0.000    0.000    0.000 
#    0.000    0.000    0.000    0.000    0.000    0.000 
#
# Total GULP energy -322244.894655 kJ/mol
# GULP energy per Si atom -12394.034410 kJ/mol
# Density = 2.267485 g / cm^3
# Si number density = 22.726577 Si / 1000 Ang^3
#
#
#
# Elastic Constant Matrix: (Units=GPa)
#
#
# Indices 1 2 3 4 5 6 
#
# 1 86.1781 43.0744 49.9009 0.0003 -35.6864 0.0001
# 2 43.0744 84.9654 17.3334 0.0002 -4.2947 0.0002
# 3 49.9009 17.3334 76.4496 0.0012 -38.0917 0.0005
# 4 0.0003 0.0002 0.0012 23.4810 0.0004 -13.9886
# 5 -35.6864 -4.2947 -38.0917 0.0004 36.3306 0.0001
# 6 0.0001 0.0002 0.0005 -13.9886 0.0001 29.4752
#
#
#
# Elastic Compliance Matrix: (Units=1/GPa)
#
#
# Indices 1 2 3 4 5 6 
#
# 1 0.031255 -0.013475 -0.005952 -0.000001 0.022867 0.000000
# 2 -0.013475 0.018318 -0.001829 0.000000 -0.012989 0.000000
# 3 -0.005952 -0.001829 0.030067 -0.000003 0.025461 -0.000002
# 4 -0.000001 0.000000 -0.000003 0.059375 -0.000004 0.028178
# 5 0.022867 -0.012989 0.025461 -0.000004 0.075147 -0.000003
# 6 0.000000 0.000000 -0.000002 0.028178 -0.000003 0.047300
#
#
# Mechanical properties :
#
#
# Convention : Reuss Voigt Hill
#
# Bulk Modulus (GPa) = 26.93500 52.02339 39.47920
# Shear Modulus (GPa) = 15.80534 27.00965 21.40750
#
# Velocity S-wave (km/s) = 2.64001 3.45115 3.07246
# Velocity P-wave (km/s) = 4.60113 6.23067 5.47684
#
# Compressibility (1/GPa) = 0.03712641
#
# Stress axis : x y z
#
# Youngs Moduli (GPa) = 31.99501 54.59260 33.25936
#
# Poissons Ratio (x) = 0.73564 0.19796
# Poissons Ratio (y) = 0.43113 0.06084
# Poissons Ratio (z) = 0.19044 0.09987
#
# Static dielectric constant tensor:
#      x y z
#    x 4.091030 0.000000 -0.321690 
#    y 0.000000 4.252910 0.000000 
#    z -0.321690 0.000000 3.984230 
# 
# 
# High freq. dielectric constant tensor:
#      x y z
#    x 1.869060 0.000000 -0.027610 
#    y 0.000000 1.901600 0.000000 
#    z -0.027610 0.000000 1.884110 
# 
# From -- ./inp_files/145051.got.cif
#   From: 2010.06.25/outbox.cif.g09.slc.cpg/sg15_73_cif.got.tgz:145051.got - 2010.06.28 07:06:18.
