data_PCOD8141584
_publ_section_title
;
Structure prediction by ZEFSAII (Michael W. Deem and Ramdas Pophale) SiO2 
 PCOD8141584
Probable space group: C 2/C
;
_chemical_formula_sum "Si O2"
_cell_formula_units_Z 56
_cell_length_a 13.889843
_cell_length_b 9.009773
_cell_length_c 25.898548
_cell_angle_alpha 90.000000
_cell_angle_beta 121.007356
_cell_angle_gamma 90.000000
_cell_volume 2777.913318
_symmetry_space_group_name_H-M "C 2/C"
_symmetry_group_IT_number 15
_symmetry_cell_setting 'monoclinic'
loop_
_space_group_symop_operation_xyz
x,y,z
-x,y,1/2-z
-x,-y,-z
x,-y,1/2+z
1/2+x,1/2+y,z
1/2-x,1/2+y,1/2-z
1/2-x,1/2-y,-z
1/2+x,1/2-y,1/2+z
loop_
_atom_site_type_symbol
_atom_site_label
_atom_site_fract_x
_atom_site_fract_y
_atom_site_fract_z
Si Si1 0.967456 0.166733 0.076108
Si Si2 0.002802 0.838713 0.392662
Si Si3 0.313144 0.686915 0.124898
Si Si4 0.101991 0.883978 0.316264
Si Si5 0.940129 0.350493 0.967574
Si Si6 0.209206 0.780581 0.689585
Si Si7 0.747423 0.113982 0.801280
O O1 0.873553 0.235455 0.088519
O O2 0.090174 0.208851 0.129481
O O3 0.947196 0.228118 0.013811
O O4 0.954676 0.989547 0.068649
O O5 0.006194 0.707721 0.435302
O O6 0.879465 0.858045 0.335189
O O7 0.081915 0.801528 0.365613
O O8 0.388972 0.560801 0.172787
O O9 0.189908 0.619594 0.080556
O O10 0.305076 0.832016 0.158981
O O11 0.217424 0.827574 0.324921
O O12 0.000000 0.850127 0.250000
O O13 0.000000 0.500000 0.000000
O O14 0.189320 0.708248 0.740009
O O15 0.273042 0.938618 0.711923
#
# Coordination Sequence:
#
# PCOD8141584 Si02
#       7
#     8   8   8   8   8   8   8
#     4  10  22  40  61  84 120 165 199 242 303 371
#     4   9  21  40  61  86 117 165 197 239 309 364
#     4  10  23  39  63  88 121 161 203 246 306 366
#     4  11  21  40  62  87 121 160 198 250 312 368
#     4  11  22  40  62  92 121 155 205 262 292 345
#     4  11  22  38  59  89 122 159 203 248 308 360
#     4  10  21  37  59  88 122 156 200 252 298 361
#
# _framework density 20.159015
#
# number of rings (size 3 to 8) (size 9 to 14) (size 15 to 20)
#    0.000    1.714    1.429    2.571    4.000    2.286 
#    2.571    7.857    0.000    0.000    0.000    0.000 
#    0.000    0.000    0.000    0.000    0.000    0.000 
#
# Total GULP energy -347301.100357 kJ/mol
# GULP energy per Si atom -12403.610727 kJ/mol
# Density = 2.011313 g / cm^3
# Si number density = 20.159015 Si / 1000 Ang^3
#
#
#
# Elastic Constant Matrix: (Units=GPa)
#
#
# Indices 1 2 3 4 5 6 
#
# 1 91.3807 10.9584 30.9349 0.0000 -13.9364 0.0000
# 2 10.9584 62.1973 29.0255 0.0000 -7.6480 0.0000
# 3 30.9349 29.0255 85.9036 0.0000 -17.3194 0.0000
# 4 0.0000 0.0000 0.0000 30.4862 0.0000 -1.7302
# 5 -13.9364 -7.6480 -17.3194 0.0000 24.4685 0.0000
# 6 0.0000 0.0000 0.0000 -1.7302 0.0000 26.5645
#
#
#
# Elastic Compliance Matrix: (Units=1/GPa)
#
#
# Indices 1 2 3 4 5 6 
#
# 1 0.012918 0.000038 -0.003708 0.000000 0.004745 0.000000
# 2 0.000038 0.019144 -0.006149 0.000000 0.001653 0.000000
# 3 -0.003708 -0.006149 0.016611 0.000000 0.007724 0.000000
# 4 0.000000 0.000000 0.000000 0.032923 0.000000 0.002144
# 5 0.004745 0.001653 0.007724 0.000000 0.049555 0.000000
# 6 0.000000 0.000000 0.000000 0.002144 0.000000 0.037784
#
#
# Mechanical properties :
#
#
# Convention : Reuss Voigt Hill
#
# Bulk Modulus (GPa) = 34.44150 42.36880 38.40515
# Shear Modulus (GPa) = 25.22056 27.54137 26.38096
#
# Velocity S-wave (km/s) = 3.54090 3.70023 3.62144
# Velocity P-wave (km/s) = 5.81716 6.27045 6.04805
#
# Compressibility (1/GPa) = 0.02903474
#
# Stress axis : x y z
#
# Youngs Moduli (GPa) = 77.41415 52.23595 60.20073
#
# Poissons Ratio (x) = -0.00198 0.22322
# Poissons Ratio (y) = -0.00293 0.37016
# Poissons Ratio (z) = 0.28705 0.32119
#
# Static dielectric constant tensor:
#      x y z
#    x 3.790200 0.000000 -0.127560 
#    y 0.000000 3.633360 0.000000 
#    z -0.127560 0.000000 3.639840 
# 
# 
# High freq. dielectric constant tensor:
#      x y z
#    x 1.793150 0.000000 -0.011030 
#    y 0.000000 1.778640 0.000000 
#    z -0.011030 0.000000 1.791670 
# 
# From -- ./inp_files/273253.got.cif
#   From: 2010.06.25/outbox.cif.g09.slc.cpg/sg15_137_cif.got.tgz:273253.got - 2010.06.28 07:06:18.
