data_PCOD8141232
_publ_section_title
;
Structure prediction by ZEFSAII (Michael W. Deem and Ramdas Pophale) SiO2 
 PCOD8141232
Probable space group: C 2/C
;
_chemical_formula_sum "Si O2"
_cell_formula_units_Z 52
_cell_length_a 10.846239
_cell_length_b 8.929829
_cell_length_c 28.270414
_cell_angle_alpha 90.000000
_cell_angle_beta 117.852123
_cell_angle_gamma 90.000000
_cell_volume 2420.937296
_symmetry_space_group_name_H-M "C 2/C"
_symmetry_group_IT_number 15
_symmetry_cell_setting 'monoclinic'
loop_
_space_group_symop_operation_xyz
x,y,z
-x,y,1/2-z
-x,-y,-z
x,-y,1/2+z
1/2+x,1/2+y,z
1/2-x,1/2+y,1/2-z
1/2-x,1/2-y,-z
1/2+x,1/2-y,1/2+z
loop_
_atom_site_type_symbol
_atom_site_label
_atom_site_fract_x
_atom_site_fract_y
_atom_site_fract_z
Si Si1 0.500000 0.959764 0.250000
Si Si2 0.442962 0.512417 0.384212
Si Si3 0.496259 0.095742 0.350103
Si Si4 0.190568 0.816942 0.441837
Si Si5 0.652350 0.151677 0.617982
Si Si6 0.757997 0.715284 0.677326
Si Si7 0.918699 0.006499 0.187363
O O1 0.538443 0.048273 0.304664
O O2 0.637431 0.858480 0.265330
O O3 0.580764 0.449377 0.435867
O O4 0.408724 0.681958 0.389650
O O5 0.308461 0.407176 0.370944
O O6 0.468684 0.482789 0.333196
O O7 0.460975 0.957950 0.378961
O O8 0.619115 0.187033 0.397428
O O9 0.362087 0.198060 0.316151
O O10 0.250000 0.750000 0.500000
O O11 0.318089 0.882350 0.432676
O O12 0.804217 0.127456 0.669967
O O13 0.842652 0.836270 0.661408
O O14 0.000000 0.014249 0.250000
#
# Coordination Sequence:
#
# PCOD8141232 Si02
#       7
#     4   8   8   8   8   8   8
#     4  12  22  34  60  92 126 160 202 246 292 382
#     4  10  22  39  59  90 120 157 203 250 305 359
#     4  10  24  41  60  93 124 164 204 248 311 371
#     4  10  23  46  66  88 121 159 213 269 311 361
#     4  10  22  40  61  89 122 157 204 253 306 363
#     4  10  22  36  54  83 124 164 197 238 293 360
#     4  10  21  36  54  85 124 165 201 235 287 365
#
# _framework density 21.479284
#
# number of rings (size 3 to 8) (size 9 to 14) (size 15 to 20)
#    0.000    1.846    0.769    1.846    4.308    2.462 
#   16.615    0.769    0.000    0.000    0.000    0.000 
#    0.000    0.000    0.000    0.000    0.000    0.000 
#
# Total GULP energy -322165.058297 kJ/mol
# GULP energy per Si atom -12390.963781 kJ/mol
# Density = 2.143040 g / cm^3
# Si number density = 21.479284 Si / 1000 Ang^3
#
#
#
# Elastic Constant Matrix: (Units=GPa)
#
#
# Indices 1 2 3 4 5 6 
#
# 1 70.0201 34.5164 34.4780 0.0000 0.4981 0.0000
# 2 34.5164 128.4146 29.6476 0.0000 8.8419 0.0000
# 3 34.4780 29.6476 96.5956 0.0000 -0.7643 0.0000
# 4 0.0000 0.0000 0.0000 25.6185 0.0000 6.5496
# 5 0.4981 8.8419 -0.7643 0.0000 23.1058 0.0000
# 6 0.0000 0.0000 0.0000 6.5496 0.0000 30.6596
#
#
#
# Elastic Compliance Matrix: (Units=1/GPa)
#
#
# Indices 1 2 3 4 5 6 
#
# 1 0.018917 -0.003862 -0.005560 0.000000 0.000886 0.000000
# 2 -0.003862 0.009428 -0.001543 0.000000 -0.003576 0.000000
# 3 -0.005560 -0.001543 0.012820 0.000000 0.001135 0.000000
# 4 0.000000 0.000000 0.000000 0.041289 0.000000 -0.008820
# 5 0.000886 -0.003576 0.001135 0.000000 0.044666 0.000000
# 6 0.000000 0.000000 0.000000 -0.008820 0.000000 0.034500
#
#
# Mechanical properties :
#
#
# Convention : Reuss Voigt Hill
#
# Bulk Modulus (GPa) = 51.99151 54.70159 53.34655
# Shear Modulus (GPa) = 26.32115 28.96932 27.64523
#
# Velocity S-wave (km/s) = 3.50440 3.67646 3.59146
# Velocity P-wave (km/s) = 6.37435 6.59881 6.48755
#
# Compressibility (1/GPa) = 0.01923391
#
# Stress axis : x y z
#
# Youngs Moduli (GPa) = 52.86345 106.06827 78.00598
#
# Poissons Ratio (x) = 0.40964 0.43368
# Poissons Ratio (y) = 0.20416 0.12040
# Poissons Ratio (z) = 0.29390 0.16371
#
# Static dielectric constant tensor:
#      x y z
#    x 4.172030 0.000000 0.134670 
#    y 0.000000 4.285500 0.000000 
#    z 0.134670 0.000000 3.458030 
# 
# 
# High freq. dielectric constant tensor:
#      x y z
#    x 1.857730 0.000000 0.011370 
#    y 0.000000 1.861490 0.000000 
#    z 0.011370 0.000000 1.794850 
# 
# From -- ./inp_files/291117.got.cif
#   From: 2010.06.25/outbox.cif.g09.slc.cpg/sg15_146_cif.got.tgz:291117.got - 2010.06.28 07:06:18.
