data_PCOD8141499
_publ_section_title
;
Structure prediction by ZEFSAII (Michael W. Deem and Ramdas Pophale) SiO2 
 PCOD8141499
Probable space group: C 2/C
;
_chemical_formula_sum "Si O2"
_cell_formula_units_Z 48
_cell_length_a 12.466669
_cell_length_b 12.861319
_cell_length_c 16.291163
_cell_angle_alpha 90.000000
_cell_angle_beta 73.492016
_cell_angle_gamma 90.000000
_cell_volume 2504.419413
_symmetry_space_group_name_H-M "C 2/C"
_symmetry_group_IT_number 15
_symmetry_cell_setting 'monoclinic'
loop_
_space_group_symop_operation_xyz
x,y,z
-x,y,1/2-z
-x,-y,-z
x,-y,1/2+z
1/2+x,1/2+y,z
1/2-x,1/2+y,1/2-z
1/2-x,1/2-y,-z
1/2+x,1/2-y,1/2+z
loop_
_atom_site_type_symbol
_atom_site_label
_atom_site_fract_x
_atom_site_fract_y
_atom_site_fract_z
Si Si1 0.615333 0.140962 0.176108
Si Si2 0.718502 0.634917 0.982882
Si Si3 0.968827 0.986216 0.912761
Si Si4 0.699799 0.369450 0.143181
Si Si5 0.614602 0.042877 0.007390
Si Si6 0.797306 0.027221 0.682947
O O1 0.500000 0.147351 0.250000
O O2 0.680805 0.248764 0.163691
O O3 0.585342 0.116207 0.089542
O O4 0.695729 0.052188 0.194725
O O5 0.817656 0.558334 0.982830
O O6 0.693926 0.615236 0.891116
O O7 0.750000 0.750000 0.000000
O O8 0.614524 0.611937 0.066984
O O9 0.904216 0.084459 0.886391
O O10 0.084179 0.964843 0.839517
O O11 0.000000 0.000000 0.000000
O O12 0.716975 0.419964 0.227351
O O13 0.816771 0.385969 0.070995
O O14 0.500000 0.000000 0.000000
#
# Coordination Sequence:
#
# PCOD8141499 Si02
#       6
#     8   8   8   8   8   8
#     4  11  23  39  59  85 117 155 194 239 292 351
#     4   9  20  36  57  83 115 153 190 235 294 349
#     4   9  19  36  55  80 111 145 189 237 279 340
#     4  11  22  38  61  86 114 155 198 240 293 353
#     4  10  22  38  58  86 119 150 190 242 293 349
#     4  10  21  37  56  84 115 148 196 245 288 344
#
# _framework density 19.166118999999998
#
# number of rings (size 3 to 8) (size 9 to 14) (size 15 to 20)
#    0.000    2.000    0.000    4.000    0.000    8.000 
#    0.000    0.000    0.000    0.000    0.000    0.000 
#    0.000    0.000    0.000    0.000    0.000    0.000 
#
# Total GULP energy -297449.748503 kJ/mol
# GULP energy per Si atom -12393.739521 kJ/mol
# Density = 1.912250 g / cm^3
# Si number density = 19.166119 Si / 1000 Ang^3
#
#
#
# Elastic Constant Matrix: (Units=GPa)
#
#
# Indices 1 2 3 4 5 6 
#
# 1 120.6993 40.3451 65.8844 0.0000 -14.6044 0.0000
# 2 40.3451 121.7153 67.6948 0.0000 -5.3372 0.0000
# 3 65.8844 67.6948 155.5567 0.0000 -9.0343 0.0000
# 4 0.0000 0.0000 0.0000 25.3906 0.0000 -1.0211
# 5 -14.6044 -5.3372 -9.0343 0.0000 42.3166 0.0000
# 6 0.0000 0.0000 0.0000 -1.0211 0.0000 23.4067
#
#
#
# Elastic Compliance Matrix: (Units=1/GPa)
#
#
# Indices 1 2 3 4 5 6 
#
# 1 0.011283 -0.001384 -0.004010 0.000000 0.002863 0.000000
# 2 -0.001384 0.011015 -0.004206 0.000000 0.000014 0.000000
# 3 -0.004010 -0.004206 0.009970 0.000000 0.000214 0.000000
# 4 0.000000 0.000000 0.000000 0.039454 0.000000 0.001721
# 5 0.002863 0.000014 0.000214 0.000000 0.024667 0.000000
# 6 0.000000 0.000000 0.000000 0.001721 0.000000 0.042798
#
#
# Mechanical properties :
#
#
# Convention : Reuss Voigt Hill
#
# Bulk Modulus (GPa) = 76.53176 82.86887 79.70031
# Shear Modulus (GPa) = 30.72318 33.15924 31.94121
#
# Velocity S-wave (km/s) = 4.00808 4.16396 4.08676
# Velocity P-wave (km/s) = 7.83818 8.15163 7.99644
#
# Compressibility (1/GPa) = 0.01306647
#
# Stress axis : x y z
#
# Youngs Moduli (GPa) = 88.62747 90.78737 100.30120
#
# Poissons Ratio (x) = 0.12566 0.40223
# Poissons Ratio (y) = 0.12267 0.42190
# Poissons Ratio (z) = 0.35542 0.38189
#
# Static dielectric constant tensor:
#      x y z
#    x 3.905590 0.000000 -0.650020 
#    y 0.000000 3.164790 0.000000 
#    z -0.650020 0.000000 4.033000 
# 
# 
# High freq. dielectric constant tensor:
#      x y z
#    x 1.762700 0.000000 -0.003710 
#    y 0.000000 1.731400 0.000000 
#    z -0.003710 0.000000 1.759290 
# 
# From -- ./inp_files/196030.got.cif
#   From: 2010.06.25/outbox.cif.g09.slc.cpg/sg15_99_cif.got.tgz:196030.got - 2010.06.28 07:06:18.
