data_PCOD8141145
_publ_section_title
;
Structure prediction by ZEFSAII (Michael W. Deem and Ramdas Pophale) SiO2 
 PCOD8141145
Probable space group: C 2/C
;
_chemical_formula_sum "Si O2"
_cell_formula_units_Z 52
_cell_length_a 19.056281
_cell_length_b 20.430690
_cell_length_c 13.835409
_cell_angle_alpha 90.000000
_cell_angle_beta 151.851476
_cell_angle_gamma 90.000000
_cell_volume 2541.166867
_symmetry_space_group_name_H-M "C 2/C"
_symmetry_group_IT_number 15
_symmetry_cell_setting 'monoclinic'
loop_
_space_group_symop_operation_xyz
x,y,z
-x,y,1/2-z
-x,-y,-z
x,-y,1/2+z
1/2+x,1/2+y,z
1/2-x,1/2+y,1/2-z
1/2-x,1/2-y,-z
1/2+x,1/2-y,1/2+z
loop_
_atom_site_type_symbol
_atom_site_label
_atom_site_fract_x
_atom_site_fract_y
_atom_site_fract_z
Si Si1 0.363699 0.409303 0.026413
Si Si2 0.092414 0.591624 0.629290
Si Si3 0.654110 0.351257 0.848928
Si Si4 0.422146 0.025444 0.257740
Si Si5 0.000000 0.031102 0.250000
Si Si6 0.197433 0.335374 0.661984
Si Si7 0.666697 0.691576 0.571321
O O1 0.500000 0.372724 0.250000
O O2 0.424795 0.483109 0.077298
O O3 0.214561 0.422197 0.910010
O O4 0.324311 0.368160 0.883344
O O5 0.129748 0.546012 0.767187
O O6 0.236972 0.631654 0.770762
O O7 0.049425 0.548322 0.485833
O O8 0.964605 0.643207 0.502028
O O9 0.623610 0.424534 0.849284
O O10 0.781898 0.356815 0.924308
O O11 0.506588 0.321710 0.619886
O O12 0.700155 0.305196 0.995805
O O13 0.500000 0.019375 0.250000
O O14 0.213095 0.257012 0.684204
#
# Coordination Sequence:
#
# PCOD8141145 Si02
#       7
#     8   8   8   8   4   8   8
#     4   9  21  39  57  83 119 151 198 249 281 361
#     4  10  23  37  59  90 120 152 200 244 297 364
#     4  10  21  35  60  85 113 159 192 243 303 346
#     4  10  21  39  60  88 120 154 193 249 307 347
#     4   8  18  36  54  80 116 138 192 250 280 346
#     4  11  22  36  58  87 115 160 198 236 297 354
#     4  10  21  39  55  84 126 150 196 244 287 361
#
# _framework density 20.463039999999999
#
# number of rings (size 3 to 8) (size 9 to 14) (size 15 to 20)
#    0.462    1.846    0.000    3.231    4.308    3.077 
#    0.000    0.769    0.000    4.615    0.000    0.000 
#    0.000    0.000    0.000    0.000    0.000    0.000 
#
# Total GULP energy -322156.950577 kJ/mol
# GULP energy per Si atom -12390.651945 kJ/mol
# Density = 2.041646 g / cm^3
# Si number density = 20.463040 Si / 1000 Ang^3
#
#
#
# Elastic Constant Matrix: (Units=GPa)
#
#
# Indices 1 2 3 4 5 6 
#
# 1 64.5130 22.2109 6.8227 0.0000 -13.5161 0.0000
# 2 22.2109 119.6636 30.5855 0.0000 -13.8418 0.0000
# 3 6.8227 30.5855 88.6433 0.0000 -8.3144 0.0000
# 4 0.0000 0.0000 0.0000 24.6504 0.0000 -9.8270
# 5 -13.5161 -13.8418 -8.3144 0.0000 17.4016 0.0000
# 6 0.0000 0.0000 0.0000 -9.8270 0.0000 25.1119
#
#
#
# Elastic Compliance Matrix: (Units=1/GPa)
#
#
# Indices 1 2 3 4 5 6 
#
# 1 0.018958 -0.002114 0.000517 0.000000 0.013291 0.000000
# 2 -0.002114 0.010052 -0.002837 0.000000 0.004999 0.000000
# 3 0.000517 -0.002837 0.012611 0.000000 0.004170 0.000000
# 4 0.000000 0.000000 0.000000 0.048066 0.000000 0.018810
# 5 0.013291 0.004999 0.004170 0.000000 0.073758 0.000000
# 6 0.000000 0.000000 0.000000 0.018810 0.000000 0.047183
#
#
# Mechanical properties :
#
#
# Convention : Reuss Voigt Hill
#
# Bulk Modulus (GPa) = 30.53003 43.56199 37.04601
# Shear Modulus (GPa) = 21.70004 27.64617 24.67310
#
# Velocity S-wave (km/s) = 3.25999 3.67962 3.47614
# Velocity P-wave (km/s) = 5.39648 6.27592 5.85274
#
# Compressibility (1/GPa) = 0.03275463
#
# Stress axis : x y z
#
# Youngs Moduli (GPa) = 52.74724 99.47874 79.29315
#
# Poissons Ratio (x) = 0.21025 -0.04097
# Poissons Ratio (y) = 0.11148 0.22495
# Poissons Ratio (z) = -0.02726 0.28221
#
# Static dielectric constant tensor:
#      x y z
#    x 3.362500 0.000000 0.099420 
#    y 0.000000 3.635750 0.000000 
#    z 0.099420 0.000000 3.869730 
# 
# 
# High freq. dielectric constant tensor:
#      x y z
#    x 1.767040 0.000000 0.017860 
#    y 0.000000 1.795120 0.000000 
#    z 0.017860 0.000000 1.811160 
# 
# From -- ./inp_files/169018.got.cif
#   From: 2010.06.25/outbox.cif.g09.slc.cpg/sg15_85_cif.got.tgz:169018.got - 2010.06.28 07:06:18.
