data_PCOD8141744
_publ_section_title
;
Structure prediction by ZEFSAII (Michael W. Deem and Ramdas Pophale) SiO2 
 PCOD8141744
Probable space group: C 2/C
;
_chemical_formula_sum "Si O2"
_cell_formula_units_Z 44
_cell_length_a 11.806819
_cell_length_b 24.601246
_cell_length_c 11.550149
_cell_angle_alpha 90.000000
_cell_angle_beta 37.852663
_cell_angle_gamma 90.000000
_cell_volume 2058.668150
_symmetry_space_group_name_H-M "C 2/C"
_symmetry_group_IT_number 15
_symmetry_cell_setting 'monoclinic'
loop_
_space_group_symop_operation_xyz
x,y,z
-x,y,1/2-z
-x,-y,-z
x,-y,1/2+z
1/2+x,1/2+y,z
1/2-x,1/2+y,1/2-z
1/2-x,1/2-y,-z
1/2+x,1/2-y,1/2+z
loop_
_atom_site_type_symbol
_atom_site_label
_atom_site_fract_x
_atom_site_fract_y
_atom_site_fract_z
Si Si1 0.871062 0.430565 0.094902
Si Si2 0.000000 0.748642 0.250000
Si Si3 0.169589 0.307492 0.419040
Si Si4 0.156186 0.911700 0.486788
Si Si5 0.727959 0.542063 0.174653
Si Si6 0.803077 0.701957 0.867536
O O1 0.819786 0.372327 0.086946
O O2 0.816138 0.432859 0.273894
O O3 0.746353 0.477356 0.135304
O O4 0.090118 0.440130 0.900772
O O5 0.169492 0.789177 0.125454
O O6 0.005768 0.713240 0.365015
O O7 0.173328 0.280749 0.286976
O O8 0.221353 0.928214 0.559332
O O9 0.148181 0.845535 0.494728
O O10 0.959406 0.938743 0.608099
O O11 0.000000 0.678139 0.750000
O O12 0.750000 0.750000 0.000000
#
# Coordination Sequence:
#
# PCOD8141744 Si02
#       6
#     8   4   8   8   8   8
#     4  10  21  41  60  91 120 162 207 262 313 378
#     4  10  22  44  62  86 122 174 210 260 310 378
#     4  10  22  43  63  89 127 164 215 262 315 386
#     4  10  21  39  59  88 130 159 200 264 315 384
#     4  10  21  37  63  88 123 162 204 251 326 378
#     4  11  23  39  65  97 130 168 213 270 333 384
#
# _framework density 21.373041000000001
#
# number of rings (size 3 to 8) (size 9 to 14) (size 15 to 20)
#    0.000    1.818    0.000    4.364    2.545    1.455 
#   19.636    0.000    0.000    0.000    0.000    0.000 
#    0.000    0.000    0.000    0.000    0.000    0.000 
#
# Total GULP energy -272562.391644 kJ/mol
# GULP energy per Si atom -12389.199620 kJ/mol
# Density = 2.132440 g / cm^3
# Si number density = 21.373041 Si / 1000 Ang^3
#
#
#
# Elastic Constant Matrix: (Units=GPa)
#
#
# Indices 1 2 3 4 5 6 
#
# 1 74.0697 38.9746 33.7465 0.0000 0.1712 0.0000
# 2 38.9746 140.8682 57.4935 0.0000 -0.6151 0.0000
# 3 33.7465 57.4935 83.5674 0.0000 -2.2625 0.0000
# 4 0.0000 0.0000 0.0000 17.6290 0.0000 -10.7264
# 5 0.1712 -0.6151 -2.2625 0.0000 46.7160 0.0000
# 6 0.0000 0.0000 0.0000 -10.7264 0.0000 17.7370
#
#
#
# Elastic Compliance Matrix: (Units=1/GPa)
#
#
# Indices 1 2 3 4 5 6 
#
# 1 0.017250 -0.002680 -0.005132 0.000000 -0.000347 0.000000
# 2 -0.002680 0.010288 -0.006000 0.000000 -0.000145 0.000000
# 3 -0.005132 -0.006000 0.018189 0.000000 0.000821 0.000000
# 4 0.000000 0.000000 0.000000 0.089749 0.000000 0.054275
# 5 -0.000347 -0.000145 0.000821 0.000000 0.021445 0.000000
# 6 0.000000 0.000000 0.000000 0.054275 0.000000 0.089202
#
#
# Mechanical properties :
#
#
# Convention : Reuss Voigt Hill
#
# Bulk Modulus (GPa) = 55.23610 62.10382 58.66996
# Shear Modulus (GPa) = 17.87116 27.63580 22.75348
#
# Velocity S-wave (km/s) = 2.89477 3.59976 3.26634
# Velocity P-wave (km/s) = 6.08875 6.81160 6.46029
#
# Compressibility (1/GPa) = 0.01810410
#
# Stress axis : x y z
#
# Youngs Moduli (GPa) = 57.97247 97.19607 54.97843
#
# Poissons Ratio (x) = 0.26045 0.28213
# Poissons Ratio (y) = 0.15534 0.32988
# Poissons Ratio (z) = 0.29749 0.58320
#
# Static dielectric constant tensor:
#      x y z
#    x 3.668510 0.000000 -0.165300 
#    y 0.000000 4.038450 0.000000 
#    z -0.165300 0.000000 4.492200 
# 
# 
# High freq. dielectric constant tensor:
#      x y z
#    x 1.821980 0.000000 -0.002640 
#    y 0.000000 1.843180 0.000000 
#    z -0.002640 0.000000 1.848070 
# 
# From -- ./inp_files/91139.got.cif
#   From: 2010.06.25/outbox.cif.g09.slc.cpg/sg15_46_cif.got.tgz:91139.got - 2010.06.28 07:06:18.
