data_PCOD8141171
_publ_section_title
;
Structure prediction by ZEFSAII (Michael W. Deem and Ramdas Pophale) SiO2 
 PCOD8141171
Probable space group: C 2/C
;
_chemical_formula_sum "Si O2"
_cell_formula_units_Z 56
_cell_length_a 20.140070
_cell_length_b 11.662437
_cell_length_c 22.537953
_cell_angle_alpha 90.000000
_cell_angle_beta 147.716110
_cell_angle_gamma 90.000000
_cell_volume 2827.478145
_symmetry_space_group_name_H-M "C 2/C"
_symmetry_group_IT_number 15
_symmetry_cell_setting 'monoclinic'
loop_
_space_group_symop_operation_xyz
x,y,z
-x,y,1/2-z
-x,-y,-z
x,-y,1/2+z
1/2+x,1/2+y,z
1/2-x,1/2+y,1/2-z
1/2-x,1/2-y,-z
1/2+x,1/2-y,1/2+z
loop_
_atom_site_type_symbol
_atom_site_label
_atom_site_fract_x
_atom_site_fract_y
_atom_site_fract_z
Si Si1 0.965213 0.488247 0.286888
Si Si2 0.113058 0.758876 0.792652
Si Si3 0.025323 0.684704 0.527297
Si Si4 0.669818 0.916454 0.531676
Si Si5 0.881566 0.315185 0.806333
Si Si6 0.283357 0.584702 0.703643
Si Si7 0.632282 0.634359 0.181195
O O1 0.878225 0.378421 0.208389
O O2 0.887380 0.579034 0.265837
O O3 0.000000 0.544993 0.250000
O O4 0.092953 0.450614 0.415667
O O5 0.241559 0.808467 0.917053
O O6 0.088577 0.810853 0.709723
O O7 0.000000 0.793623 0.750000
O O8 0.153284 0.617645 0.636773
O O9 0.036796 0.816617 0.559682
O O10 0.920080 0.614721 0.481848
O O11 0.003968 0.689213 0.440253
O O12 0.756857 0.020967 0.620953
O O13 0.865684 0.198970 0.755771
O O14 0.770446 0.325414 0.769081
O O15 0.363156 0.503296 0.808557
#
# Coordination Sequence:
#
# PCOD8141171 Si02
#       7
#     8   8   8   8   8   8   8
#     4  11  24  42  65  90 123 168 214 250 304 378
#     4  10  22  38  62  94 127 157 207 258 308 367
#     4  11  19  35  64  92 124 163 203 252 307 372
#     4  11  20  39  65  88 120 169 201 251 325 359
#     4  11  22  37  63  91 127 163 209 252 299 371
#     4  10  21  36  60  92 124 164 200 255 305 363
#     4  10  21  35  61  96 121 160 208 252 305 357
#
# _framework density 19.805634999999999
#
# number of rings (size 3 to 8) (size 9 to 14) (size 15 to 20)
#    0.000    1.429    5.714    1.286    2.000    2.857 
#    0.000    5.000    6.286    0.000    0.000    0.000 
#    0.000    0.000    0.000    0.000    0.000    0.000 
#
# Total GULP energy -347077.136135 kJ/mol
# GULP energy per Si atom -12395.612005 kJ/mol
# Density = 1.976056 g / cm^3
# Si number density = 19.805635 Si / 1000 Ang^3
#
#
#
# Elastic Constant Matrix: (Units=GPa)
#
#
# Indices 1 2 3 4 5 6 
#
# 1 105.1219 50.9858 35.8876 0.0000 -6.2530 0.0000
# 2 50.9858 126.9342 41.2632 0.0000 -5.1095 0.0000
# 3 35.8876 41.2632 57.8397 -0.0001 -21.1180 0.0000
# 4 0.0000 0.0000 -0.0001 31.9707 0.0000 -3.4718
# 5 -6.2530 -5.1095 -21.1180 0.0000 21.9186 0.0000
# 6 0.0000 0.0000 0.0000 -3.4718 0.0000 26.1219
#
#
#
# Elastic Compliance Matrix: (Units=1/GPa)
#
#
# Indices 1 2 3 4 5 6 
#
# 1 0.013356 -0.003037 -0.007694 0.000000 -0.004311 0.000000
# 2 -0.003037 0.011738 -0.008958 0.000000 -0.006761 0.000000
# 3 -0.007694 -0.008958 0.041483 0.000000 0.035684 0.000000
# 4 0.000000 0.000000 0.000000 0.031737 0.000000 0.004218
# 5 -0.004311 -0.006761 0.035684 0.000000 0.077198 0.000000
# 6 0.000000 0.000000 0.000000 0.004218 0.000000 0.038843
#
#
# Mechanical properties :
#
#
# Convention : Reuss Voigt Hill
#
# Bulk Modulus (GPa) = 36.76759 60.68545 48.72652
# Shear Modulus (GPa) = 19.02591 26.78618 22.90605
#
# Velocity S-wave (km/s) = 3.10277 3.68156 3.40449
# Velocity P-wave (km/s) = 5.60720 6.98419 6.33323
#
# Compressibility (1/GPa) = 0.02719786
#
# Stress axis : x y z
#
# Youngs Moduli (GPa) = 74.87187 85.19433 24.10635
#
# Poissons Ratio (x) = 0.25874 0.18549
# Poissons Ratio (y) = 0.22739 0.21594
# Poissons Ratio (z) = 0.57610 0.76317
#
# Static dielectric constant tensor:
#      x y z
#    x 3.402750 0.000000 -0.066850 
#    y 0.000000 3.860620 0.000000 
#    z -0.066850 0.000000 3.704360 
# 
# 
# High freq. dielectric constant tensor:
#      x y z
#    x 1.749230 0.000000 -0.008650 
#    y 0.000000 1.775390 0.000000 
#    z -0.008650 0.000000 1.765620 
# 
# From -- ./inp_files/111062.got.cif
#   From: 2010.06.25/outbox.cif.g09.slc.cpg/sg15_56_cif.got.tgz:111062.got - 2010.06.28 07:06:18.
