data_PCOD8141898
_publ_section_title
;
Structure prediction by ZEFSAII (Michael W. Deem and Ramdas Pophale) SiO2 
 PCOD8141898
Probable space group: C 2/C
;
_chemical_formula_sum "Si O2"
_cell_formula_units_Z 64
_cell_length_a 29.339674
_cell_length_b 13.668103
_cell_length_c 9.204262
_cell_angle_alpha 90.000000
_cell_angle_beta 108.804422
_cell_angle_gamma 90.000000
_cell_volume 3494.058622
_symmetry_space_group_name_H-M "C 2/C"
_symmetry_group_IT_number 15
_symmetry_cell_setting 'monoclinic'
loop_
_space_group_symop_operation_xyz
x,y,z
-x,y,1/2-z
-x,-y,-z
x,-y,1/2+z
1/2+x,1/2+y,z
1/2-x,1/2+y,1/2-z
1/2-x,1/2-y,-z
1/2+x,1/2-y,1/2+z
loop_
_atom_site_type_symbol
_atom_site_label
_atom_site_fract_x
_atom_site_fract_y
_atom_site_fract_z
Si Si1 0.225659 0.094172 0.965780
Si Si2 0.690710 0.897545 0.173840
Si Si3 0.803063 0.716762 0.547031
Si Si4 0.855110 0.260753 0.582092
Si Si5 0.312144 0.111201 0.268748
Si Si6 0.053573 0.130258 0.794754
Si Si7 0.345936 0.418947 0.620913
Si Si8 0.591279 0.487489 0.070502
O O1 0.258202 0.113917 0.857164
O O2 0.184029 0.175666 0.929954
O O3 0.201570 0.987343 0.930718
O O4 0.258715 0.100482 0.143774
O O5 0.693796 0.878299 0.348228
O O6 0.671445 0.008383 0.143726
O O7 0.653351 0.815804 0.078510
O O8 0.750000 0.750000 0.500000
O O9 0.814786 0.691527 0.395044
O O10 0.835468 0.805884 0.634830
O O11 0.850266 0.349367 0.691565
O O12 0.908274 0.216535 0.641349
O O13 0.060279 0.084554 0.640610
O O14 0.000000 0.174651 0.750000
O O15 0.057928 0.050461 0.928083
O O16 0.372367 0.427186 0.493282
O O17 0.378421 0.443629 0.792392
#
# Coordination Sequence:
#
# PCOD8141898 Si02
#       8
#     8   8   8   8   8   8   8   8
#     4  11  22  35  55  77 118 159 186 220 279 336
#     4  11  23  36  52  78 111 153 192 235 269 317
#     4  12  22  30  48  78 106 142 200 230 262 311
#     4  11  21  40  57  77 114 153 186 226 288 341
#     4  11  23  36  52  78 111 153 192 235 269 317
#     4  11  22  38  62  88 111 142 182 230 288 353
#     4  11  23  35  57  80 115 154 186 228 275 339
#     4  10  21  38  58  82 116 146 176 226 287 346
#
# _framework density 18.316807000000001
#
# number of rings (size 3 to 8) (size 9 to 14) (size 15 to 20)
#    0.000    1.000    2.500    7.875    5.250    0.000 
#    0.000    0.000    0.000    0.750    0.000    0.000 
#    0.000    0.000    0.000    0.000    0.000    0.000 
#
# Total GULP energy -396720.629714 kJ/mol
# GULP energy per Si atom -12397.519679 kJ/mol
# Density = 1.827512 g / cm^3
# Si number density = 18.316807 Si / 1000 Ang^3
#
#
#
# Elastic Constant Matrix: (Units=GPa)
#
#
# Indices 1 2 3 4 5 6 
#
# 1 97.3350 35.6945 38.2774 0.0000 11.7810 0.0000
# 2 35.6945 93.0179 19.0227 0.0000 5.8511 0.0000
# 3 38.2774 19.0227 75.4191 0.0000 -14.8861 0.0000
# 4 0.0000 0.0000 0.0000 31.6335 0.0000 -2.2284
# 5 11.7810 5.8511 -14.8861 0.0000 24.9926 0.0000
# 6 0.0000 0.0000 0.0000 -2.2284 0.0000 23.0941
#
#
#
# Elastic Compliance Matrix: (Units=1/GPa)
#
#
# Indices 1 2 3 4 5 6 
#
# 1 0.017464 -0.003661 -0.010647 0.000000 -0.013717 0.000000
# 2 -0.003661 0.012667 -0.001792 0.000000 -0.002307 0.000000
# 3 -0.010647 -0.001792 0.022878 0.000000 0.019065 0.000000
# 4 0.000000 0.000000 0.000000 0.031828 0.000000 0.003071
# 5 -0.013717 -0.002307 0.019065 0.000000 0.058373 0.000000
# 6 0.000000 0.000000 0.000000 0.003071 0.000000 0.043597
#
#
# Mechanical properties :
#
#
# Convention : Reuss Voigt Hill
#
# Bulk Modulus (GPa) = 48.05925 50.19569 49.12747
# Shear Modulus (GPa) = 22.12922 27.46252 24.79587
#
# Velocity S-wave (km/s) = 3.47960 3.87629 3.68329
# Velocity P-wave (km/s) = 6.51446 6.89187 6.70582
#
# Compressibility (1/GPa) = 0.02080765
#
# Stress axis : x y z
#
# Youngs Moduli (GPa) = 57.26161 78.94388 43.70990
#
# Poissons Ratio (x) = 0.28903 0.46539
# Poissons Ratio (y) = 0.20965 0.07834
# Poissons Ratio (z) = 0.60968 0.14148
#
# Static dielectric constant tensor:
#      x y z
#    x 3.116630 0.000000 -0.204580 
#    y 0.000000 3.308390 0.000000 
#    z -0.204580 0.000000 3.503270 
# 
# 
# High freq. dielectric constant tensor:
#      x y z
#    x 1.675370 0.000000 -0.027440 
#    y 0.000000 1.713640 0.000000 
#    z -0.027440 0.000000 1.723400 
# 
# From -- ./inp_files/69961.got.cif
#   From: 2010.06.25/outbox.cif.g09.slc.cpg/sg15_35_cif.got.tgz:69961.got - 2010.06.28 07:06:18.
