data_PCOD8141410
_publ_section_title
;
Structure prediction by ZEFSAII (Michael W. Deem and Ramdas Pophale) SiO2 
 PCOD8141410
Probable space group: C 2/C
;
_chemical_formula_sum "Si O2"
_cell_formula_units_Z 48
_cell_length_a 11.110863
_cell_length_b 11.669239
_cell_length_c 17.468712
_cell_angle_alpha 90.000000
_cell_angle_beta 69.808561
_cell_angle_gamma 90.000000
_cell_volume 2125.720351
_symmetry_space_group_name_H-M "C 2/C"
_symmetry_group_IT_number 15
_symmetry_cell_setting 'monoclinic'
loop_
_space_group_symop_operation_xyz
x,y,z
-x,y,1/2-z
-x,-y,-z
x,-y,1/2+z
1/2+x,1/2+y,z
1/2-x,1/2+y,1/2-z
1/2-x,1/2-y,-z
1/2+x,1/2-y,1/2+z
loop_
_atom_site_type_symbol
_atom_site_label
_atom_site_fract_x
_atom_site_fract_y
_atom_site_fract_z
Si Si1 0.569924 0.509746 0.657213
Si Si2 0.727117 0.150429 0.817984
Si Si3 0.864315 0.593743 0.817537
Si Si4 0.946000 0.819395 0.468374
Si Si5 0.815267 0.347992 0.889762
Si Si6 0.955198 0.237685 0.403522
O O1 0.500000 0.547851 0.750000
O O2 0.719662 0.546526 0.638956
O O3 0.511213 0.580400 0.598683
O O4 0.546074 0.376257 0.647948
O O5 0.741851 0.114210 0.725423
O O6 0.813783 0.261854 0.817438
O O7 0.583173 0.184327 0.871677
O O8 0.868157 0.466358 0.847636
O O9 0.000000 0.624802 0.750000
O O10 0.842688 0.681393 0.893780
O O11 0.911178 0.701717 0.432779
O O12 0.825271 0.865342 0.543850
O O13 0.062339 0.795021 0.502927
#
# Coordination Sequence:
#
# PCOD8141410 Si02
#       6
#     8   8   8   8   8   8
#     4  11  22  37  68  92 118 168 217 260 317 380
#     4   9  21  37  60  92 125 158 206 260 306 372
#     4  10  21  36  62  93 122 167 206 253 321 368
#     4   9  20  39  60  87 123 165 209 253 318 379
#     4   9  19  37  62  84 127 170 197 261 319 369
#     4  10  21  40  63  90 125 167 206 257 324 383
#
# _framework density 22.580580999999999
#
# number of rings (size 3 to 8) (size 9 to 14) (size 15 to 20)
#    0.000    2.333    0.000    3.000    7.000    3.333 
#    0.000    0.833    3.667    0.000    0.000    0.000 
#    0.000    0.000    0.000    0.000    0.000    0.000 
#
# Total GULP energy -297404.800438 kJ/mol
# GULP energy per Si atom -12391.866685 kJ/mol
# Density = 2.252919 g / cm^3
# Si number density = 22.580581 Si / 1000 Ang^3
#
#
#
# Elastic Constant Matrix: (Units=GPa)
#
#
# Indices 1 2 3 4 5 6 
#
# 1 48.2333 30.0147 37.8819 0.0000 27.6125 0.0000
# 2 30.0147 114.5492 48.4247 0.0000 20.4593 0.0000
# 3 37.8819 48.4247 98.8915 0.0000 43.4262 0.0000
# 4 0.0000 0.0000 0.0000 36.4135 0.0000 5.2601
# 5 27.6125 20.4593 43.4262 0.0000 43.0745 0.0000
# 6 0.0000 0.0000 0.0000 5.2601 0.0000 26.6881
#
#
#
# Elastic Compliance Matrix: (Units=1/GPa)
#
#
# Indices 1 2 3 4 5 6 
#
# 1 0.036819 -0.004798 -0.004290 0.000000 -0.016998 0.000000
# 2 -0.004798 0.011637 -0.004996 0.000000 0.002584 0.000000
# 3 -0.004290 -0.004996 0.021447 0.000000 -0.016499 0.000000
# 4 0.000000 0.000000 0.000000 0.028267 0.000000 -0.005571
# 5 -0.016998 0.002584 -0.016499 0.000000 0.049518 0.000000
# 6 0.000000 0.000000 0.000000 -0.005571 0.000000 0.038568
#
#
# Mechanical properties :
#
#
# Convention : Reuss Voigt Hill
#
# Bulk Modulus (GPa) = 23.96020 54.92407 39.44214
# Shear Modulus (GPa) = 21.89764 30.92541 26.41153
#
# Velocity S-wave (km/s) = 3.11747 3.70477 3.42373
# Velocity P-wave (km/s) = 4.85718 6.53275 5.75626
#
# Compressibility (1/GPa) = 0.04173588
#
# Stress axis : x y z
#
# Youngs Moduli (GPa) = 27.16015 85.93127 46.62667
#
# Poissons Ratio (x) = 0.41228 0.20004
# Poissons Ratio (y) = 0.13031 0.23292
# Poissons Ratio (z) = 0.11652 0.42927
#
# Static dielectric constant tensor:
#      x y z
#    x 4.157230 0.000000 0.785260 
#    y 0.000000 3.953650 0.000000 
#    z 0.785260 0.000000 4.426000 
# 
# 
# High freq. dielectric constant tensor:
#      x y z
#    x 1.870150 0.000000 0.042380 
#    y 0.000000 1.888710 0.000000 
#    z 0.042380 0.000000 1.890240 
# 
# From -- ./inp_files/196011.got.cif
#   From: 2010.06.25/outbox.cif.g09.slc.cpg/sg15_99_cif.got.tgz:196011.got - 2010.06.28 07:06:18.
