data_PCOD8141718
_publ_section_title
;
Structure prediction by ZEFSAII (Michael W. Deem and Ramdas Pophale) SiO2 
 PCOD8141718
Probable space group: C 2/C
;
_chemical_formula_sum "Si O2"
_cell_formula_units_Z 48
_cell_length_a 5.157566
_cell_length_b 29.471247
_cell_length_c 15.023897
_cell_angle_alpha 90.000000
_cell_angle_beta 103.007923
_cell_angle_gamma 90.000000
_cell_volume 2225.030495
_symmetry_space_group_name_H-M "C 2/C"
_symmetry_group_IT_number 15
_symmetry_cell_setting 'monoclinic'
loop_
_space_group_symop_operation_xyz
x,y,z
-x,y,1/2-z
-x,-y,-z
x,-y,1/2+z
1/2+x,1/2+y,z
1/2-x,1/2+y,1/2-z
1/2-x,1/2-y,-z
1/2+x,1/2-y,1/2+z
loop_
_atom_site_type_symbol
_atom_site_label
_atom_site_fract_x
_atom_site_fract_y
_atom_site_fract_z
Si Si1 0.139595 0.089365 0.168154
Si Si2 0.892552 0.715097 0.408350
Si Si3 0.467753 0.691729 0.517603
Si Si4 0.500000 0.011516 0.250000
Si Si5 0.500000 0.164945 0.250000
Si Si6 0.922126 0.091102 0.962857
Si Si7 0.094023 0.463659 0.080975
O O1 0.329236 0.132801 0.171071
O O2 0.000000 0.097167 0.250000
O O3 0.292299 0.041907 0.179479
O O4 0.938300 0.088121 0.071121
O O5 0.151884 0.693764 0.476313
O O6 0.840104 0.697174 0.304790
O O7 0.625306 0.700566 0.438162
O O8 0.934233 0.769475 0.406319
O O9 0.539031 0.642925 0.565481
O O10 0.650767 0.984015 0.183698
O O11 0.134866 0.058979 0.931266
O O12 0.627880 0.074453 0.918075
O O13 0.000000 0.500000 0.000000
#
# Coordination Sequence:
#
# PCOD8141718 Si02
#       7
#     8   8   8   4   4   8   8
#     4  11  23  37  65  93 129 162 212 278 323 380
#     4  10  21  37  62  91 130 159 207 250 319 381
#     4  10  21  40  62  90 122 173 203 252 309 383
#     4  11  26  42  62  92 128 168 218 274 324 381
#     4  11  22  36  58 102 126 160 202 274 326 363
#     4  12  24  42  67  94 129 167 221 261 320 393
#     4  12  26  44  65  95 127 174 216 269 329 385
#
# _framework density 21.57274
#
# number of rings (size 3 to 8) (size 9 to 14) (size 15 to 20)
#    0.000    1.000    3.333    3.500    4.667    0.000 
#    0.000    1.667    0.000    0.000    0.000    0.000 
#    0.000    0.000    0.000    0.000    0.000    0.000 
#
# Total GULP energy -297598.706773 kJ/mol
# GULP energy per Si atom -12399.946116 kJ/mol
# Density = 2.152364 g / cm^3
# Si number density = 21.572740 Si / 1000 Ang^3
#
#
#
# Elastic Constant Matrix: (Units=GPa)
#
#
# Indices 1 2 3 4 5 6 
#
# 1 64.5994 4.5571 4.6603 0.0000 -11.1500 0.0000
# 2 4.5571 124.5373 33.2577 0.0000 -7.1014 0.0000
# 3 4.6603 33.2577 92.6915 0.0000 -20.0748 0.0000
# 4 0.0000 0.0000 0.0000 13.9161 0.0000 -2.3237
# 5 -11.1500 -7.1014 -20.0748 0.0000 31.0483 0.0000
# 6 0.0000 0.0000 0.0000 -2.3237 0.0000 7.1943
#
#
#
# Elastic Compliance Matrix: (Units=1/GPa)
#
#
# Indices 1 2 3 4 5 6 
#
# 1 0.016546 -0.000430 0.000684 0.000000 0.006286 0.000000
# 2 -0.000430 0.008892 -0.003211 0.000000 -0.000197 0.000000
# 3 0.000684 -0.003211 0.013722 0.000000 0.008383 0.000000
# 4 0.000000 0.000000 0.000000 0.075956 0.000000 0.024533
# 5 0.006286 -0.000197 0.008383 0.000000 0.039840 0.000000
# 6 0.000000 0.000000 0.000000 0.024533 0.000000 0.146923
#
#
# Mechanical properties :
#
#
# Convention : Reuss Voigt Hill
#
# Bulk Modulus (GPa) = 30.07988 40.75318 35.41653
# Shear Modulus (GPa) = 15.68011 26.38860 21.03436
#
# Velocity S-wave (km/s) = 2.69894 3.50128 3.12596
# Velocity P-wave (km/s) = 4.86684 5.93947 5.42971
#
# Compressibility (1/GPa) = 0.03324481
#
# Stress axis : x y z
#
# Youngs Moduli (GPa) = 60.43782 112.46278 72.87586
#
# Poissons Ratio (x) = 0.04831 -0.04982
# Poissons Ratio (y) = 0.02596 0.23404
# Poissons Ratio (z) = -0.04131 0.36117
#
# Static dielectric constant tensor:
#      x y z
#    x 4.064660 0.000000 -0.141050 
#    y 0.000000 4.294310 0.000000 
#    z -0.141050 0.000000 3.708100 
# 
# 
# High freq. dielectric constant tensor:
#      x y z
#    x 1.851710 0.000000 -0.017060 
#    y 0.000000 1.862990 0.000000 
#    z -0.017060 0.000000 1.822220 
# 
# From -- ./inp_files/130108.got.cif
#   From: 2010.06.25/outbox.cif.g09.slc.cpg/sg15_66_cif.got.tgz:130108.got - 2010.06.28 07:06:18.
