data_PCOD8141922
_publ_section_title
;
Structure prediction by ZEFSAII (Michael W. Deem and Ramdas Pophale) SiO2 
 PCOD8141922
Probable space group: C 2/C
;
_chemical_formula_sum "Si O2"
_cell_formula_units_Z 64
_cell_length_a 13.100763
_cell_length_b 17.473772
_cell_length_c 28.211371
_cell_angle_alpha 90.000000
_cell_angle_beta 151.296707
_cell_angle_gamma 90.000000
_cell_volume 3101.676086
_symmetry_space_group_name_H-M "C 2/C"
_symmetry_group_IT_number 15
_symmetry_cell_setting 'monoclinic'
loop_
_space_group_symop_operation_xyz
x,y,z
-x,y,1/2-z
-x,-y,-z
x,-y,1/2+z
1/2+x,1/2+y,z
1/2-x,1/2+y,1/2-z
1/2-x,1/2-y,-z
1/2+x,1/2-y,1/2+z
loop_
_atom_site_type_symbol
_atom_site_label
_atom_site_fract_x
_atom_site_fract_y
_atom_site_fract_z
Si Si1 0.328034 0.955964 0.990004
Si Si2 0.788050 0.526886 0.144218
Si Si3 0.233689 0.020605 0.343607
Si Si4 0.332836 0.684250 0.221139
Si Si5 0.600913 0.541259 0.971656
Si Si6 0.772968 0.701383 0.143854
Si Si7 0.925547 0.189068 0.083469
Si Si8 0.084334 0.221612 0.970554
O O1 0.282742 0.949128 0.916164
O O2 0.215208 0.887822 0.972220
O O3 0.224742 0.031208 0.972259
O O4 0.586106 0.961092 0.101058
O O5 0.619417 0.505407 0.116395
O O6 0.829910 0.615943 0.152073
O O7 0.000000 0.486652 0.250000
O O8 0.728538 0.499836 0.066996
O O9 0.230379 0.094400 0.307689
O O10 0.000000 0.980821 0.250000
O O11 0.500000 0.707226 0.250000
O O12 0.443495 0.703337 0.315626
O O13 0.133097 0.737835 0.131298
O O14 0.552100 0.630568 0.957504
O O15 0.603050 0.694237 0.115971
O O16 0.000000 0.741465 0.250000
O O17 0.667894 0.746689 0.056769
O O18 0.750000 0.250000 0.000000
O O19 0.250000 0.250000 0.000000
#
# Coordination Sequence:
#
# PCOD8141922 Si02
#       8
#     8   8   8   8   8   8   8   8
#     4  11  22  41  67  94 130 164 222 274 328 391
#     4   9  19  36  59  87 122 162 205 256 323 377
#     4  10  22  42  68  95 123 174 218 272 328 393
#     4  11  22  43  67  92 129 177 219 263 335 401
#     4  10  21  38  58  93 125 160 211 271 315 379
#     4  10  21  39  66  92 127 170 217 268 320 392
#     4  12  24  43  66  96 132 175 219 272 336 395
#     4  11  23  40  64  93 131 175 217 262 325 398
#
# _framework density 20.634004999999998
#
# number of rings (size 3 to 8) (size 9 to 14) (size 15 to 20)
#    0.000    1.500    3.750    2.250    0.000    3.500 
#    4.500    0.625    0.000    0.000    0.000    0.000 
#    0.000    0.000    0.000    0.000    0.000    0.000 
#
# Total GULP energy -396537.101086 kJ/mol
# GULP energy per Si atom -12391.784409 kJ/mol
# Density = 2.058704 g / cm^3
# Si number density = 20.634005 Si / 1000 Ang^3
#
#
#
# Elastic Constant Matrix: (Units=GPa)
#
#
# Indices 1 2 3 4 5 6 
#
# 1 133.4720 28.1954 72.7997 0.0001 7.9528 0.0001
# 2 28.1954 45.6337 53.2579 0.0000 6.0762 0.0005
# 3 72.7997 53.2579 196.8452 -0.0032 15.8188 0.0019
# 4 0.0001 0.0000 -0.0032 30.9311 0.0007 3.9519
# 5 7.9528 6.0762 15.8188 0.0007 43.8746 -0.0001
# 6 0.0001 0.0005 0.0019 3.9519 -0.0001 27.6721
#
#
#
# Elastic Compliance Matrix: (Units=1/GPa)
#
#
# Indices 1 2 3 4 5 6 
#
# 1 0.009599 -0.002592 -0.002820 0.000000 -0.000364 0.000000
# 2 -0.002592 0.032804 -0.007816 -0.000001 -0.001255 0.000000
# 3 -0.002820 -0.007816 0.008351 0.000001 -0.001418 -0.000001
# 4 0.000000 -0.000001 0.000001 0.032931 -0.000001 -0.004703
# 5 -0.000364 -0.001255 -0.001418 -0.000001 0.023543 0.000000
# 6 0.000000 0.000000 -0.000001 -0.004703 0.000000 0.036809
#
#
# Mechanical properties :
#
#
# Convention : Reuss Voigt Hill
#
# Bulk Modulus (GPa) = 41.15226 76.05076 58.60151
# Shear Modulus (GPa) = 27.99666 35.27542 31.63604
#
# Velocity S-wave (km/s) = 3.68750 4.13919 3.91986
# Velocity P-wave (km/s) = 6.17393 7.73181 6.99637
#
# Compressibility (1/GPa) = 0.02430000
#
# Stress axis : x y z
#
# Youngs Moduli (GPa) = 104.17378 30.48414 119.73912
#
# Poissons Ratio (x) = 0.07901 0.33762
# Poissons Ratio (y) = 0.27000 0.93587
# Poissons Ratio (z) = 0.29373 0.23826
#
# Static dielectric constant tensor:
#      x y z
#    x 3.836770 0.000000 0.000340 
#    y 0.000000 3.582400 0.000000 
#    z 0.000340 0.000000 4.151270 
# 
# 
# High freq. dielectric constant tensor:
#      x y z
#    x 1.818880 0.000000 0.006920 
#    y 0.000000 1.777740 0.000000 
#    z 0.006920 0.000000 1.826410 
# 
# From -- ./inp_files/293773.got.cif
#   From: 2010.06.25/outbox.cif.g09.slc.cpg/sg15_147_cif.got.tgz:293773.got - 2010.06.28 07:06:18.
