data_PCOD8141346
_publ_section_title
;
Structure prediction by ZEFSAII (Michael W. Deem and Ramdas Pophale) SiO2 
 PCOD8141346
Probable space group: C 2/C
;
_chemical_formula_sum "Si O2"
_cell_formula_units_Z 48
_cell_length_a 24.999436
_cell_length_b 12.799936
_cell_length_c 22.152598
_cell_angle_alpha 90.000000
_cell_angle_beta 20.418115
_cell_angle_gamma 90.000000
_cell_volume 2473.000863
_symmetry_space_group_name_H-M "C 2/C"
_symmetry_group_IT_number 15
_symmetry_cell_setting 'monoclinic'
loop_
_space_group_symop_operation_xyz
x,y,z
-x,y,1/2-z
-x,-y,-z
x,-y,1/2+z
1/2+x,1/2+y,z
1/2-x,1/2+y,1/2-z
1/2-x,1/2-y,-z
1/2+x,1/2-y,1/2+z
loop_
_atom_site_type_symbol
_atom_site_label
_atom_site_fract_x
_atom_site_fract_y
_atom_site_fract_z
Si Si1 0.911917 0.361994 0.027718
Si Si2 0.589470 0.396413 0.100131
Si Si3 0.264157 0.443151 0.774349
Si Si4 0.930269 0.685381 0.259160
Si Si5 0.556919 0.473050 0.521701
Si Si6 0.359239 0.261027 0.130536
O O1 0.882603 0.481996 0.078618
O O2 0.748100 0.302546 0.201245
O O3 0.988784 0.374716 0.881338
O O4 0.005928 0.300421 0.978860
O O5 0.500000 0.451414 0.250000
O O6 0.469991 0.307008 0.204402
O O7 0.617734 0.488845 0.022236
O O8 0.748490 0.339273 0.950740
O O9 0.371343 0.481305 0.716592
O O10 0.370067 0.445189 0.602319
O O11 0.218277 0.323234 0.831956
O O12 0.000000 0.649484 0.250000
O O13 0.597849 0.354217 0.460418
#
# Coordination Sequence:
#
# PCOD8141346 Si02
#       6
#     8   8   8   8   8   8
#     4  11  22  34  61  87 126 152 197 241 300 353
#     4  11  24  39  62  85 124 159 203 244 297 353
#     4  10  21  36  60  88 122 157 195 245 300 354
#     4  11  23  38  59  92 120 162 197 243 297 355
#     4  10  22  38  60  91 120 156 197 246 304 352
#     4  11  21  39  58  91 120 158 196 246 298 355
#
# _framework density 19.409617000000001
#
# number of rings (size 3 to 8) (size 9 to 14) (size 15 to 20)
#    0.000    1.333    1.667    5.500    9.333    1.333 
#    0.000    0.000    0.000    2.000    0.000    0.000 
#    0.000    0.000    0.000    0.000    0.000    0.000 
#
# Total GULP energy -297356.547997 kJ/mol
# GULP energy per Si atom -12389.856167 kJ/mol
# Density = 1.936544 g / cm^3
# Si number density = 19.409617 Si / 1000 Ang^3
#
#
#
# Elastic Constant Matrix: (Units=GPa)
#
#
# Indices 1 2 3 4 5 6 
#
# 1 100.6895 48.1698 44.0385 0.0048 -2.7838 -0.0020
# 2 48.1698 115.0640 44.4017 0.0089 -5.8720 -0.0058
# 3 44.0385 44.4017 104.6272 0.0094 -1.5600 -0.0061
# 4 0.0048 0.0089 0.0094 19.3797 -0.0040 -6.7632
# 5 -2.7838 -5.8720 -1.5600 -0.0040 21.2430 0.0023
# 6 -0.0020 -0.0058 -0.0061 -6.7632 0.0023 25.8614
#
#
#
# Elastic Compliance Matrix: (Units=1/GPa)
#
#
# Indices 1 2 3 4 5 6 
#
# 1 0.013679 -0.004172 -0.003982 0.000000 0.000347 -0.000001
# 2 -0.004172 0.011805 -0.003217 -0.000002 0.002480 0.000001
# 3 -0.003982 -0.003217 0.012592 -0.000003 -0.000486 0.000001
# 4 0.000000 -0.000002 -0.000003 0.056783 0.000008 0.014850
# 5 0.000347 0.002480 -0.000486 0.000008 0.047770 -0.000002
# 6 -0.000001 0.000001 0.000001 0.014850 -0.000002 0.042551
#
#
# Mechanical properties :
#
#
# Convention : Reuss Voigt Hill
#
# Bulk Modulus (GPa) = 65.21421 65.95566 65.58494
# Shear Modulus (GPa) = 23.47069 25.54819 24.50944
#
# Velocity S-wave (km/s) = 3.48117 3.63197 3.55737
# Velocity P-wave (km/s) = 7.05903 7.18631 7.12295
#
# Compressibility (1/GPa) = 0.01533408
#
# Stress axis : x y z
#
# Youngs Moduli (GPa) = 73.10734 84.70741 79.41808
#
# Poissons Ratio (x) = 0.35341 0.31622
# Poissons Ratio (y) = 0.30501 0.25548
# Poissons Ratio (z) = 0.29109 0.27249
#
# Static dielectric constant tensor:
#      x y z
#    x 3.415650 -0.000010 -0.156430 
#    y -0.000010 3.463060 0.000010 
#    z -0.156430 0.000010 3.818800 
# 
# 
# High freq. dielectric constant tensor:
#      x y z
#    x 1.732010 0.000000 -0.018720 
#    y 0.000000 1.746580 0.000000 
#    z -0.018720 0.000000 1.769040 
# 
# From -- ./inp_files/55251.got.cif
#   From: 2010.06.25/outbox.cif.g09.slc.cpg/sg15_28_cif.got.tgz:55251.got - 2010.06.28 07:06:18.
