data_PCOD8141797
_publ_section_title
;
Structure prediction by ZEFSAII (Michael W. Deem and Ramdas Pophale) SiO2 
 PCOD8141797
Probable space group: C 2/C
;
_chemical_formula_sum "Si O2"
_cell_formula_units_Z 60
_cell_length_a 13.565812
_cell_length_b 20.971665
_cell_length_c 25.533014
_cell_angle_alpha 90.000000
_cell_angle_beta 157.817091
_cell_angle_gamma 90.000000
_cell_volume 2742.660452
_symmetry_space_group_name_H-M "C 2/C"
_symmetry_group_IT_number 15
_symmetry_cell_setting 'monoclinic'
loop_
_space_group_symop_operation_xyz
x,y,z
-x,y,1/2-z
-x,-y,-z
x,-y,1/2+z
1/2+x,1/2+y,z
1/2-x,1/2+y,1/2-z
1/2-x,1/2-y,-z
1/2+x,1/2-y,1/2+z
loop_
_atom_site_type_symbol
_atom_site_label
_atom_site_fract_x
_atom_site_fract_y
_atom_site_fract_z
Si Si1 0.000000 0.859528 0.750000
Si Si2 0.037232 0.935755 0.664916
Si Si3 0.630508 0.647639 0.863974
Si Si4 0.616302 0.658461 0.116839
Si Si5 0.572475 0.237383 0.049716
Si Si6 0.762475 0.954517 0.896922
Si Si7 0.869690 0.543116 0.051432
Si Si8 0.057304 0.243028 0.657498
O O1 0.077575 0.902949 0.739888
O O2 0.244112 0.815814 0.885398
O O3 0.960176 0.885134 0.581770
O O4 0.317944 0.969836 0.789885
O O5 0.793198 0.983279 0.550215
O O6 0.500000 0.611551 0.750000
O O7 0.405183 0.676605 0.791846
O O8 0.827878 0.601563 0.991155
O O9 0.785170 0.708152 0.915988
O O10 0.743374 0.612144 0.136723
O O11 0.833854 0.696804 0.256622
O O12 0.425836 0.705479 0.991523
O O13 0.684537 0.260309 0.161882
O O14 0.500000 0.991895 0.750000
O O15 0.755888 0.938353 0.954895
O O16 0.000000 0.000000 0.000000
O O17 0.750000 0.250000 0.500000
#
# Coordination Sequence:
#
# PCOD8141797 Si02
#       8
#     4   8   8   8   8   8   8   8
#     4  12  26  50  66 100 142 196 236 294 364 430
#     4  12  27  47  76  97 149 190 248 297 359 425
#     4  11  22  39  69 106 137 174 242 297 351 424
#     4  12  23  44  72 107 140 189 227 299 368 425
#     4  11  24  42  68 100 142 181 230 296 362 429
#     4  12  25  44  75 103 142 188 237 299 357 430
#     4  12  25  48  69 109 139 192 240 299 356 428
#     4  10  21  37  65 101 136 172 227 290 352 415
#
# _framework density 21.876567999999999
#
# number of rings (size 3 to 8) (size 9 to 14) (size 15 to 20)
#    0.000    0.533    6.667    1.600    4.667    2.133 
#    1.200    0.000    0.000    0.000    0.000    0.000 
#    0.000    0.000    0.000    0.000    0.000    0.000 
#
# Total GULP energy -371895.542441 kJ/mol
# GULP energy per Si atom -12396.518081 kJ/mol
# Density = 2.182678 g / cm^3
# Si number density = 21.876568 Si / 1000 Ang^3
#
#
#
# Elastic Constant Matrix: (Units=GPa)
#
#
# Indices 1 2 3 4 5 6 
#
# 1 110.1405 38.7517 47.8953 0.0049 -12.7164 0.0054
# 2 38.7517 102.6045 53.8985 -0.0008 -3.1230 0.0086
# 3 47.8953 53.8985 99.7445 0.0655 -14.1639 -0.0241
# 4 0.0049 -0.0008 0.0655 31.2950 0.0000 -4.1527
# 5 -12.7164 -3.1230 -14.1639 0.0000 37.0884 0.0023
# 6 0.0054 0.0086 -0.0241 -4.1527 0.0023 34.1743
#
#
#
# Elastic Compliance Matrix: (Units=1/GPa)
#
#
# Indices 1 2 3 4 5 6 
#
# 1 0.011963 -0.002238 -0.004208 0.000006 0.002306 -0.000004
# 2 -0.002238 0.014137 -0.006878 0.000014 -0.002203 -0.000006
# 3 -0.004208 -0.006878 0.016363 -0.000032 0.004227 0.000010
# 4 0.000006 0.000014 -0.000032 0.032478 -0.000009 0.003946
# 5 0.002306 -0.002203 0.004227 -0.000009 0.029182 0.000000
# 6 -0.000004 -0.000006 0.000010 0.003946 0.000000 0.029741
#
#
# Mechanical properties :
#
#
# Convention : Reuss Voigt Hill
#
# Bulk Modulus (GPa) = 63.22403 65.95337 64.58870
# Shear Modulus (GPa) = 30.16024 31.97448 31.06736
#
# Velocity S-wave (km/s) = 3.71705 3.82722 3.77254
# Velocity P-wave (km/s) = 6.88368 7.05291 6.96881
#
# Compressibility (1/GPa) = 0.01581677
#
# Stress axis : x y z
#
# Youngs Moduli (GPa) = 83.59422 70.73631 61.11456
#
# Poissons Ratio (x) = 0.15828 0.25714
# Poissons Ratio (y) = 0.18705 0.42032
# Poissons Ratio (z) = 0.35173 0.48650
#
# Static dielectric constant tensor:
#      x y z
#    x 4.566010 0.000060 -0.358540 
#    y 0.000060 3.942590 -0.000170 
#    z -0.358540 -0.000170 3.924920 
# 
# 
# High freq. dielectric constant tensor:
#      x y z
#    x 1.874010 0.000000 -0.023890 
#    y 0.000000 1.846380 -0.000020 
#    z -0.023890 -0.000020 1.852690 
# 
# From -- ./inp_files/297035.got.cif
#   From: 2010.06.25/outbox.cif.g09.slc.cpg/sg15_149_cif.got.tgz:297035.got - 2010.06.28 07:06:18.
