data_PCOD8141664
_publ_section_title
;
Structure prediction by ZEFSAII (Michael W. Deem and Ramdas Pophale) SiO2 
 PCOD8141664
Probable space group: C 2/C
;
_chemical_formula_sum "Si O2"
_cell_formula_units_Z 52
_cell_length_a 27.263386
_cell_length_b 6.544941
_cell_length_c 17.410457
_cell_angle_alpha 90.000000
_cell_angle_beta 117.567184
_cell_angle_gamma 90.000000
_cell_volume 2753.969632
_symmetry_space_group_name_H-M "C 2/C"
_symmetry_group_IT_number 15
_symmetry_cell_setting 'monoclinic'
loop_
_space_group_symop_operation_xyz
x,y,z
-x,y,1/2-z
-x,-y,-z
x,-y,1/2+z
1/2+x,1/2+y,z
1/2-x,1/2+y,1/2-z
1/2-x,1/2-y,-z
1/2+x,1/2-y,1/2+z
loop_
_atom_site_type_symbol
_atom_site_label
_atom_site_fract_x
_atom_site_fract_y
_atom_site_fract_z
Si Si1 0.242368 0.952165 0.148578
Si Si2 0.102046 0.310775 0.759829
Si Si3 0.328886 0.891492 0.831821
Si Si4 0.891107 0.986407 0.110336
Si Si5 0.000000 0.130012 0.750000
Si Si6 0.667838 0.802063 0.037260
Si Si7 0.331891 0.892608 0.095826
O O1 0.193297 0.801721 0.136837
O O2 0.278127 0.840959 0.108075
O O3 0.279904 0.004367 0.248698
O O4 0.219813 0.165563 0.099740
O O5 0.121389 0.310104 0.685788
O O6 0.132042 0.126299 0.829138
O O7 0.035712 0.277153 0.718736
O O8 0.119959 0.520990 0.813722
O O9 0.353696 0.062614 0.906875
O O10 0.957972 0.011210 0.169172
O O11 0.857591 0.193595 0.074147
O O12 0.881495 0.843529 0.028802
O O13 0.687454 0.952463 0.983938
#
# Coordination Sequence:
#
# PCOD8141664 Si02
#       7
#     8   8   8   8   4   8   8
#     4  11  23  36  58  84 126 161 192 232 292 355
#     4   8  20  37  60  88 114 146 204 243 293 348
#     4  11  22  35  57  87 121 161 191 239 293 350
#     4   9  20  38  62  86 116 149 202 249 288 345
#     4   8  18  42  64  84 116 148 198 260 294 346
#     4  11  22  38  55  87 127 154 199 237 284 353
#     4  10  21  37  61  89 114 160 195 240 291 352
#
# _framework density 18.881834000000001
#
# number of rings (size 3 to 8) (size 9 to 14) (size 15 to 20)
#    0.923    1.231    1.538    1.385    2.154    4.308 
#    0.000    0.769    0.000    1.846    0.000    0.000 
#    0.000    0.000    0.000    0.000    0.000    0.000 
#
# Total GULP energy -322209.394850 kJ/mol
# GULP energy per Si atom -12392.669033 kJ/mol
# Density = 1.883886 g / cm^3
# Si number density = 18.881834 Si / 1000 Ang^3
#
#
#
# Elastic Constant Matrix: (Units=GPa)
#
#
# Indices 1 2 3 4 5 6 
#
# 1 120.2038 52.8610 45.4527 0.0000 -4.5052 0.0000
# 2 52.8610 106.4262 44.0042 0.0000 -7.8956 0.0000
# 3 45.4527 44.0042 93.9827 0.0000 -12.3771 0.0000
# 4 0.0000 0.0000 0.0000 24.9054 0.0000 -1.0429
# 5 -4.5052 -7.8956 -12.3771 0.0000 16.3685 0.0000
# 6 0.0000 0.0000 0.0000 -1.0429 0.0000 25.9957
#
#
#
# Elastic Compliance Matrix: (Units=1/GPa)
#
#
# Indices 1 2 3 4 5 6 
#
# 1 0.011593 -0.004309 -0.003823 0.000000 -0.001779 0.000000
# 2 -0.004309 0.013295 -0.003834 0.000000 0.002328 0.000000
# 3 -0.003823 -0.003834 0.015440 0.000000 0.008773 0.000000
# 4 0.000000 0.000000 0.000000 0.040220 0.000000 0.001614
# 5 -0.001779 0.002328 0.008773 0.000000 0.068360 0.000000
# 6 0.000000 0.000000 0.000000 0.001614 0.000000 0.038533
#
#
# Mechanical properties :
#
#
# Convention : Reuss Voigt Hill
#
# Bulk Modulus (GPa) = 60.99746 67.24983 64.12364
# Shear Modulus (GPa) = 23.05863 25.34025 24.19944
#
# Velocity S-wave (km/s) = 3.49837 3.66737 3.58386
# Velocity P-wave (km/s) = 6.97804 7.32299 7.15260
#
# Compressibility (1/GPa) = 0.01639413
#
# Stress axis : x y z
#
# Youngs Moduli (GPa) = 86.25583 75.21862 64.76716
#
# Poissons Ratio (x) = 0.32415 0.24763
# Poissons Ratio (y) = 0.37171 0.24832
# Poissons Ratio (z) = 0.32979 0.28839
#
# Static dielectric constant tensor:
#      x y z
#    x 3.172820 0.000000 -0.099450 
#    y 0.000000 3.388440 0.000000 
#    z -0.099450 0.000000 3.507310 
# 
# 
# High freq. dielectric constant tensor:
#      x y z
#    x 1.702800 0.000000 -0.008390 
#    y 0.000000 1.732940 0.000000 
#    z -0.008390 0.000000 1.735800 
# 
# From -- ./inp_files/221359.got.cif
#   From: 2010.06.25/outbox.cif.g09.slc.cpg/sg15_111_cif.got.tgz:221359.got - 2010.06.28 07:06:18.
