data_PCOD8141128
_publ_section_title
;
Structure prediction by ZEFSAII (Michael W. Deem and Ramdas Pophale) SiO2 
 PCOD8141128
Probable space group: C 2/C
;
_chemical_formula_sum "Si O2"
_cell_formula_units_Z 56
_cell_length_a 14.704930
_cell_length_b 23.974143
_cell_length_c 9.245132
_cell_angle_alpha 90.000000
_cell_angle_beta 114.536790
_cell_angle_gamma 90.000000
_cell_volume 2964.933003
_symmetry_space_group_name_H-M "C 2/C"
_symmetry_group_IT_number 15
_symmetry_cell_setting 'monoclinic'
loop_
_space_group_symop_operation_xyz
x,y,z
-x,y,1/2-z
-x,-y,-z
x,-y,1/2+z
1/2+x,1/2+y,z
1/2-x,1/2+y,1/2-z
1/2-x,1/2-y,-z
1/2+x,1/2-y,1/2+z
loop_
_atom_site_type_symbol
_atom_site_label
_atom_site_fract_x
_atom_site_fract_y
_atom_site_fract_z
Si Si1 0.902090 0.790372 0.086021
Si Si2 0.202191 0.680741 0.599218
Si Si3 0.070522 0.522312 0.917374
Si Si4 0.839729 0.716540 0.621571
Si Si5 0.408220 0.328318 0.772357
Si Si6 0.886293 0.595353 0.147129
Si Si7 0.190805 0.375002 0.604999
O O1 0.816935 0.819498 0.125180
O O2 0.000000 0.785229 0.250000
O O3 0.862717 0.729749 0.015406
O O4 0.922255 0.827615 0.955539
O O5 0.199709 0.681089 0.769605
O O6 0.151181 0.622362 0.525487
O O7 0.127881 0.471007 0.877590
O O8 0.000000 0.551361 0.750000
O O9 0.155821 0.564635 0.025519
O O10 0.000000 0.500000 0.000000
O O11 0.750000 0.750000 0.500000
O O12 0.916733 0.763891 0.722351
O O13 0.876099 0.672735 0.521129
O O14 0.500000 0.359111 0.750000
O O15 0.307744 0.361110 0.657614
O O16 0.824239 0.625042 0.233605
O O17 0.000000 0.610549 0.250000
#
# Coordination Sequence:
#
# PCOD8141128 Si02
#       7
#     8   8   8   8   8   8   8
#     4  10  21  35  59  84 121 159 203 248 294 357
#     4  10  21  37  55  88 120 159 202 244 306 359
#     4  11  23  41  61  91 122 155 199 252 319 375
#     4   9  22  36  56  83 121 164 205 245 294 359
#     4  10  22  40  58  88 125 167 206 246 300 361
#     4  11  22  38  61  88 120 155 194 248 314 371
#     4  11  22  40  62  87 126 159 200 256 305 368
#
# _framework density 18.887442
#
# number of rings (size 3 to 8) (size 9 to 14) (size 15 to 20)
#    0.000    1.714    4.286    0.429    8.000    2.857 
#    0.000    0.000    0.000    1.714    0.000    0.000 
#    0.000    0.000    0.000    0.000    0.000    0.000 
#
# Total GULP energy -346965.943242 kJ/mol
# GULP energy per Si atom -12391.640830 kJ/mol
# Density = 1.884445 g / cm^3
# Si number density = 18.887442 Si / 1000 Ang^3
#
#
#
# Elastic Constant Matrix: (Units=GPa)
#
#
# Indices 1 2 3 4 5 6 
#
# 1 103.5486 38.8782 37.7110 0.0000 5.6785 0.0000
# 2 38.8782 77.3665 38.1462 0.0000 -1.6347 0.0000
# 3 37.7110 38.1462 120.2639 0.0000 0.9576 0.0000
# 4 0.0000 0.0000 0.0000 33.6007 0.0000 -1.3646
# 5 5.6785 -1.6347 0.9576 0.0000 29.4117 0.0000
# 6 0.0000 0.0000 0.0000 -1.3646 0.0000 21.9009
#
#
#
# Elastic Compliance Matrix: (Units=1/GPa)
#
#
# Indices 1 2 3 4 5 6 
#
# 1 0.012607 -0.005278 -0.002258 0.000000 -0.002654 0.000000
# 2 -0.005278 0.017561 -0.003932 0.000000 0.002123 0.000000
# 3 -0.002258 -0.003932 0.010271 0.000000 -0.000117 0.000000
# 4 0.000000 0.000000 0.000000 0.029837 0.000000 0.001859
# 5 -0.002654 0.002123 -0.000117 0.000000 0.034634 0.000000
# 6 0.000000 0.000000 0.000000 0.001859 0.000000 0.045776
#
#
# Mechanical properties :
#
#
# Convention : Reuss Voigt Hill
#
# Bulk Modulus (GPa) = 57.13166 58.96107 58.04636
# Shear Modulus (GPa) = 27.86183 29.41223 28.63703
#
# Velocity S-wave (km/s) = 3.84494 3.95047 3.89806
# Velocity P-wave (km/s) = 7.07287 7.21755 7.14558
#
# Compressibility (1/GPa) = 0.01750343
#
# Stress axis : x y z
#
# Youngs Moduli (GPa) = 79.32246 56.94298 97.35957
#
# Poissons Ratio (x) = 0.30054 0.21982
# Poissons Ratio (y) = 0.41866 0.38283
# Poissons Ratio (z) = 0.17910 0.22391
#
# Static dielectric constant tensor:
#      x y z
#    x 3.365670 0.000000 -0.170110 
#    y 0.000000 3.721420 0.000000 
#    z -0.170110 0.000000 3.916900 
# 
# 
# High freq. dielectric constant tensor:
#      x y z
#    x 1.723140 0.000000 -0.008030 
#    y 0.000000 1.707110 0.000000 
#    z -0.008030 0.000000 1.755990 
# 
# From -- ./inp_files/42290.got.cif
#   From: 2010.06.25/outbox.cif.g09.slc.cpg/sg15_22_cif.got.tgz:42290.got - 2010.06.28 07:06:18.
