data_PCOD8141481
_publ_section_title
;
Structure prediction by ZEFSAII (Michael W. Deem and Ramdas Pophale) SiO2 
 PCOD8141481
Probable space group: C 2/C
;
_chemical_formula_sum "Si O2"
_cell_formula_units_Z 64
_cell_length_a 23.112740
_cell_length_b 8.476302
_cell_length_c 23.164671
_cell_angle_alpha 90.000000
_cell_angle_beta 52.971520
_cell_angle_gamma 90.000000
_cell_volume 3623.012656
_symmetry_space_group_name_H-M "C 2/C"
_symmetry_group_IT_number 15
_symmetry_cell_setting 'monoclinic'
loop_
_space_group_symop_operation_xyz
x,y,z
-x,y,1/2-z
-x,-y,-z
x,-y,1/2+z
1/2+x,1/2+y,z
1/2-x,1/2+y,1/2-z
1/2-x,1/2-y,-z
1/2+x,1/2-y,1/2+z
loop_
_atom_site_type_symbol
_atom_site_label
_atom_site_fract_x
_atom_site_fract_y
_atom_site_fract_z
Si Si1 0.434221 0.700320 0.747364
Si Si2 0.712456 0.288531 0.859366
Si Si3 0.752997 0.793281 0.064343
Si Si4 0.341101 0.000196 0.303010
Si Si5 0.202451 0.999032 0.162284
Si Si6 0.142282 0.212375 0.286825
Si Si7 0.889590 0.960181 0.034778
Si Si8 0.962838 0.039200 0.611478
O O1 0.500000 0.670179 0.750000
O O2 0.375307 0.576070 0.805459
O O3 0.454814 0.669857 0.667264
O O4 0.406939 0.879612 0.774107
O O5 0.778736 0.407187 0.805356
O O6 0.737936 0.136800 0.879017
O O7 0.681572 0.218854 0.818842
O O8 0.651153 0.374337 0.933040
O O9 0.696364 0.933010 0.115614
O O10 0.724746 0.629664 0.104686
O O11 0.833897 0.833328 0.040084
O O12 0.750000 0.750000 0.000000
O O13 0.373000 0.854450 0.247748
O O14 0.196401 0.079381 0.228799
O O15 0.067160 0.128943 0.348754
O O16 0.919804 0.901223 0.079437
O O17 0.953843 0.001410 0.952317
#
# Coordination Sequence:
#
# PCOD8141481 Si02
#       8
#     8   8   8   8   8   8   8   8
#     4  10  21  37  55  78 107 145 182 225 269 324
#     4   9  16  30  54  78 105 133 167 218 265 318
#     4  10  21  37  55  79 107 142 179 228 272 320
#     4   9  19  35  49  79 107 132 182 221 272 319
#     4   9  19  33  51  81 100 132 183 211 268 320
#     4   9  16  30  54  78 105 133 167 217 267 317
#     4   9  19  36  55  80 111 144 178 220 271 328
#     4   9  19  36  56  79 108 147 182 215 270 331
#
# _framework density 17.664857000000001
#
# number of rings (size 3 to 8) (size 9 to 14) (size 15 to 20)
#    0.000    2.750    0.000    0.750    1.750    7.000 
#    4.500    3.125    0.000    4.500    0.000    0.000 
#    0.000    0.000    0.000    0.000    0.000    0.000 
#
# Total GULP energy -396507.190721 kJ/mol
# GULP energy per Si atom -12390.849710 kJ/mol
# Density = 1.762465 g / cm^3
# Si number density = 17.664857 Si / 1000 Ang^3
#
#
#
# Elastic Constant Matrix: (Units=GPa)
#
#
# Indices 1 2 3 4 5 6 
#
# 1 104.3758 49.2304 59.3295 -0.0003 4.0815 -0.0042
# 2 49.2304 105.6870 53.3025 -0.0017 -2.4359 -0.0048
# 3 59.3295 53.3025 113.3360 0.0004 -2.7635 0.0003
# 4 -0.0003 -0.0017 0.0004 20.9332 0.0000 -2.0141
# 5 4.0815 -2.4359 -2.7635 0.0000 20.8598 0.0007
# 6 -0.0042 -0.0048 0.0003 -2.0141 0.0007 12.2166
#
#
#
# Elastic Compliance Matrix: (Units=1/GPa)
#
#
# Indices 1 2 3 4 5 6 
#
# 1 0.015142 -0.004066 -0.006118 0.000000 -0.004248 0.000004
# 2 -0.004066 0.013505 -0.004179 0.000001 0.001819 0.000004
# 3 -0.006118 -0.004179 0.014054 -0.000001 0.002571 -0.000004
# 4 0.000000 0.000001 -0.000001 0.048541 0.000000 0.008003
# 5 -0.004248 0.001819 0.002571 0.000000 0.049323 -0.000004
# 6 0.000004 0.000004 -0.000004 0.008003 -0.000004 0.083175
#
#
# Mechanical properties :
#
#
# Convention : Reuss Voigt Hill
#
# Bulk Modulus (GPa) = 71.55086 71.90261 71.72673
# Shear Modulus (GPa) = 19.44577 21.57102 20.50839
#
# Velocity S-wave (km/s) = 3.32145 3.49825 3.41100
# Velocity P-wave (km/s) = 7.43653 7.55706 7.49704
#
# Compressibility (1/GPa) = 0.01397607
#
# Stress axis : x y z
#
# Youngs Moduli (GPa) = 66.04043 74.04504 71.15336
#
# Poissons Ratio (x) = 0.30105 0.43533
# Poissons Ratio (y) = 0.26850 0.29734
# Poissons Ratio (z) = 0.40405 0.30943
#
# Static dielectric constant tensor:
#      x y z
#    x 3.206300 -0.000040 0.088270 
#    y -0.000040 3.470130 -0.000100 
#    z 0.088270 -0.000100 3.913700 
# 
# 
# High freq. dielectric constant tensor:
#      x y z
#    x 1.671210 0.000000 -0.004980 
#    y 0.000000 1.680810 0.000000 
#    z -0.004980 0.000000 1.684680 
# 
# From -- ./inp_files/279571.got.cif
#   From: 2010.06.25/outbox.cif.g09.slc.cpg/sg15_140_cif.got.tgz:279571.got - 2010.06.28 07:06:18.
