data_PCOD8141347
_publ_section_title
;
Structure prediction by ZEFSAII (Michael W. Deem and Ramdas Pophale) SiO2 
 PCOD8141347
Probable space group: C 2/C
;
_chemical_formula_sum "Si O2"
_cell_formula_units_Z 56
_cell_length_a 8.519706
_cell_length_b 28.987566
_cell_length_c 12.304249
_cell_angle_alpha 90.000000
_cell_angle_beta 61.577930
_cell_angle_gamma 90.000000
_cell_volume 2672.453632
_symmetry_space_group_name_H-M "C 2/C"
_symmetry_group_IT_number 15
_symmetry_cell_setting 'monoclinic'
loop_
_space_group_symop_operation_xyz
x,y,z
-x,y,1/2-z
-x,-y,-z
x,-y,1/2+z
1/2+x,1/2+y,z
1/2-x,1/2+y,1/2-z
1/2-x,1/2-y,-z
1/2+x,1/2-y,1/2+z
loop_
_atom_site_type_symbol
_atom_site_label
_atom_site_fract_x
_atom_site_fract_y
_atom_site_fract_z
Si Si1 0.187107 0.833970 0.729013
Si Si2 0.259956 0.908566 0.535145
Si Si3 0.656875 0.508930 0.618116
Si Si4 0.002094 0.267775 0.878562
Si Si5 0.539744 0.594880 0.904677
Si Si6 0.605653 0.932278 0.321309
Si Si7 0.153884 0.820168 0.989857
O O1 0.229484 0.884188 0.661174
O O2 0.323426 0.795272 0.643128
O O3 0.189125 0.838910 0.857166
O O4 0.000000 0.814947 0.750000
O O5 0.113230 0.889837 0.498807
O O6 0.465127 0.899255 0.430905
O O7 0.226388 0.963399 0.536724
O O8 0.500000 0.493706 0.750000
O O9 0.574410 0.547232 0.562294
O O10 0.833760 0.525928 0.622410
O O11 0.837994 0.299377 0.973082
O O12 0.000000 0.257966 0.750000
O O13 0.995991 0.219876 0.947858
O O14 0.709164 0.593960 0.767902
O O15 0.405510 0.636265 0.916660
O O16 0.500000 0.951261 0.250000
#
# Coordination Sequence:
#
# PCOD8141347 Si02
#       7
#     8   8   8   8   8   8   8
#     4  11  22  40  62  95 127 163 208 254 320 385
#     4  11  21  39  59  86 131 166 200 268 315 372
#     4  10  21  36  60  89 118 167 214 255 319 373
#     4   9  22  42  65  92 126 161 204 267 318 381
#     4  10  21  38  62  89 120 165 214 262 308 382
#     4   9  21  39  54  87 124 157 216 260 306 371
#     4  10  21  43  65  93 124 162 213 261 315 378
#
# _framework density 20.954526999999999
#
# number of rings (size 3 to 8) (size 9 to 14) (size 15 to 20)
#    0.000    2.000    1.429    1.286    2.000    2.286 
#    5.143    1.429    0.000    0.000    0.000    0.000 
#    0.000    0.000    0.000    0.000    0.000    0.000 
#
# Total GULP energy -347001.129187 kJ/mol
# GULP energy per Si atom -12392.897471 kJ/mol
# Density = 2.090683 g / cm^3
# Si number density = 20.954527 Si / 1000 Ang^3
#
#
#
# Elastic Constant Matrix: (Units=GPa)
#
#
# Indices 1 2 3 4 5 6 
#
# 1 81.8187 37.7106 33.5826 0.0000 -18.8861 0.0000
# 2 37.7106 132.5706 56.3235 0.0000 -18.0157 0.0000
# 3 33.5826 56.3235 74.9510 0.0000 -12.2216 0.0000
# 4 0.0000 0.0000 0.0000 29.9649 0.0000 -1.2044
# 5 -18.8861 -18.0157 -12.2216 0.0000 30.8712 0.0000
# 6 0.0000 0.0000 0.0000 -1.2044 0.0000 27.6950
#
#
#
# Elastic Compliance Matrix: (Units=1/GPa)
#
#
# Indices 1 2 3 4 5 6 
#
# 1 0.016738 -0.001601 -0.005109 0.000000 0.007283 0.000000
# 2 -0.001601 0.011576 -0.007526 0.000000 0.002797 0.000000
# 3 -0.005109 -0.007526 0.021445 0.000000 0.000973 0.000000
# 4 0.000000 0.000000 0.000000 0.033431 0.000000 0.001454
# 5 0.007283 0.002797 0.000973 0.000000 0.038865 0.000000
# 6 0.000000 0.000000 0.000000 0.001454 0.000000 0.036171
#
#
# Mechanical properties :
#
#
# Convention : Reuss Voigt Hill
#
# Bulk Modulus (GPa) = 46.97498 60.50819 53.74159
# Shear Modulus (GPa) = 25.80069 28.48781 27.14425
#
# Velocity S-wave (km/s) = 3.51275 3.69115 3.60305
# Velocity P-wave (km/s) = 6.23850 6.86329 6.55834
#
# Compressibility (1/GPa) = 0.02128793
#
# Stress axis : x y z
#
# Youngs Moduli (GPa) = 59.74368 86.38633 46.63071
#
# Poissons Ratio (x) = 0.13830 0.23824
# Poissons Ratio (y) = 0.09565 0.35092
# Poissons Ratio (z) = 0.30523 0.65011
#
# Static dielectric constant tensor:
#      x y z
#    x 3.989890 0.000000 -0.233890 
#    y 0.000000 3.606600 0.000000 
#    z -0.233890 0.000000 3.836340 
# 
# 
# High freq. dielectric constant tensor:
#      x y z
#    x 1.824700 0.000000 -0.019120 
#    y 0.000000 1.804180 0.000000 
#    z -0.019120 0.000000 1.823720 
# 
# From -- ./inp_files/82472.got.cif
#   From: 2010.06.25/outbox.cif.g09.slc.cpg/sg15_42_cif.got.tgz:82472.got - 2010.06.28 07:06:18.
