data_PCOD8141544
_publ_section_title
;
Structure prediction by ZEFSAII (Michael W. Deem and Ramdas Pophale) SiO2 
 PCOD8141544
Probable space group: C 2/C
;
_chemical_formula_sum "Si O2"
_cell_formula_units_Z 56
_cell_length_a 18.335585
_cell_length_b 23.993745
_cell_length_c 9.067857
_cell_angle_alpha 90.000000
_cell_angle_beta 137.212739
_cell_angle_gamma 90.000000
_cell_volume 2709.849169
_symmetry_space_group_name_H-M "C 2/C"
_symmetry_group_IT_number 15
_symmetry_cell_setting 'monoclinic'
loop_
_space_group_symop_operation_xyz
x,y,z
-x,y,1/2-z
-x,-y,-z
x,-y,1/2+z
1/2+x,1/2+y,z
1/2-x,1/2+y,1/2-z
1/2-x,1/2-y,-z
1/2+x,1/2-y,1/2+z
loop_
_atom_site_type_symbol
_atom_site_label
_atom_site_fract_x
_atom_site_fract_y
_atom_site_fract_z
Si Si1 0.194052 0.317042 0.772772
Si Si2 0.640113 0.966481 0.080809
Si Si3 0.883323 0.303958 0.148955
Si Si4 0.136659 0.806117 0.246821
Si Si5 0.092952 0.566918 0.189834
Si Si6 0.241416 0.869244 0.131724
Si Si7 0.929795 0.185832 0.288224
O O1 0.205251 0.312710 0.612958
O O2 0.135228 0.261060 0.740799
O O3 0.120916 0.368603 0.714516
O O4 0.312770 0.324153 0.020862
O O5 0.743252 0.933391 0.298559
O O6 0.643467 0.031757 0.128509
O O7 0.534761 0.938401 0.995178
O O8 0.643416 0.960551 0.910642
O O9 0.854884 0.347957 0.234199
O O10 0.867097 0.244542 0.206771
O O11 0.000000 0.315935 0.250000
O O12 0.209620 0.831463 0.224841
O O13 0.012100 0.826653 0.046166
O O14 0.150493 0.865178 0.867810
O O15 0.000000 0.198145 0.250000
#
# Coordination Sequence:
#
# PCOD8141544 Si02
#       7
#     8   8   8   8   8   8   8
#     4  11  20  36  57  83 121 154 186 244 299 342
#     4  10  22  38  57  84 110 157 197 242 293 349
#     4  11  20  33  53  83 118 154 191 235 287 358
#     4  10  21  37  58  87 119 155 195 239 300 350
#     4  10  22  39  55  83 120 148 200 244 289 352
#     4  11  20  36  60  82 114 155 201 233 294 359
#     4   9  18  35  53  82 117 149 195 233 283 356
#
# _framework density 20.665357
#
# number of rings (size 3 to 8) (size 9 to 14) (size 15 to 20)
#    0.000    1.714    5.714    1.286    2.000    0.000 
#    0.000    0.714    0.000    0.857    0.000    0.000 
#    0.000    0.000    0.000    0.000    0.000    0.000 
#
# Total GULP energy -346964.523156 kJ/mol
# GULP energy per Si atom -12391.590113 kJ/mol
# Density = 2.061832 g / cm^3
# Si number density = 20.665357 Si / 1000 Ang^3
#
#
#
# Elastic Constant Matrix: (Units=GPa)
#
#
# Indices 1 2 3 4 5 6 
#
# 1 43.7485 17.0142 15.8338 0.0000 -3.6854 0.0000
# 2 17.0142 82.9070 26.2475 0.0000 6.3898 0.0000
# 3 15.8338 26.2475 149.5224 0.0000 9.7453 0.0000
# 4 0.0000 0.0000 0.0000 28.9921 0.0000 1.3878
# 5 -3.6854 6.3898 9.7453 0.0000 18.8575 0.0000
# 6 0.0000 0.0000 0.0000 1.3878 0.0000 20.3516
#
#
#
# Elastic Compliance Matrix: (Units=1/GPa)
#
#
# Indices 1 2 3 4 5 6 
#
# 1 0.026486 -0.005306 -0.002409 0.000000 0.008219 0.000000
# 2 -0.005306 0.014034 -0.001577 0.000000 -0.004977 0.000000
# 3 -0.002409 -0.001577 0.007467 0.000000 -0.003795 0.000000
# 4 0.000000 0.000000 0.000000 0.034605 0.000000 -0.002360
# 5 0.008219 -0.004977 -0.003795 0.000000 0.058284 0.000000
# 6 0.000000 0.000000 0.000000 -0.002360 0.000000 0.049297
#
#
# Mechanical properties :
#
#
# Convention : Reuss Voigt Hill
#
# Bulk Modulus (GPa) = 34.01136 43.81875 38.91506
# Shear Modulus (GPa) = 22.87722 28.11238 25.49480
#
# Velocity S-wave (km/s) = 3.33082 3.69231 3.51621
# Velocity P-wave (km/s) = 5.59342 6.27914 5.94617
#
# Compressibility (1/GPa) = 0.02940194
#
# Stress axis : x y z
#
# Youngs Moduli (GPa) = 37.75599 71.25762 133.91731
#
# Poissons Ratio (x) = 0.37811 0.32260
# Poissons Ratio (y) = 0.20034 0.21121
# Poissons Ratio (z) = 0.09095 0.11239
#
# Static dielectric constant tensor:
#      x y z
#    x 3.465810 0.000000 0.050480 
#    y 0.000000 3.482850 0.000000 
#    z 0.050480 0.000000 4.463290 
# 
# 
# High freq. dielectric constant tensor:
#      x y z
#    x 1.780770 0.000000 -0.005560 
#    y 0.000000 1.781020 0.000000 
#    z -0.005560 0.000000 1.820490 
# 
# From -- ./inp_files/51593.got.cif
#   From: 2010.06.25/outbox.cif.g09.slc.cpg/sg15_26_cif.got.tgz:51593.got - 2010.06.28 07:06:18.
