data_PCOD8141489
_publ_section_title
;
Structure prediction by ZEFSAII (Michael W. Deem and Ramdas Pophale) SiO2 
 PCOD8141489
Probable space group: C 2/C
;
_chemical_formula_sum "Si O2"
_cell_formula_units_Z 48
_cell_length_a 13.527161
_cell_length_b 30.636723
_cell_length_c 5.881188
_cell_angle_alpha 90.000000
_cell_angle_beta 75.197301
_cell_angle_gamma 90.000000
_cell_volume 2356.436676
_symmetry_space_group_name_H-M "C 2/C"
_symmetry_group_IT_number 15
_symmetry_cell_setting 'monoclinic'
loop_
_space_group_symop_operation_xyz
x,y,z
-x,y,1/2-z
-x,-y,-z
x,-y,1/2+z
1/2+x,1/2+y,z
1/2-x,1/2+y,1/2-z
1/2-x,1/2-y,-z
1/2+x,1/2-y,1/2+z
loop_
_atom_site_type_symbol
_atom_site_label
_atom_site_fract_x
_atom_site_fract_y
_atom_site_fract_z
Si Si1 0.687401 0.615982 0.126132
Si Si2 0.773016 0.328639 0.955781
Si Si3 0.119348 0.982219 0.683436
Si Si4 0.853300 0.730045 0.031148
Si Si5 0.610788 0.141505 0.726599
Si Si6 0.910846 0.183108 0.633720
O O1 0.698445 0.639715 0.359512
O O2 0.642479 0.568586 0.184279
O O3 0.801380 0.614335 0.953211
O O4 0.604365 0.643622 0.032736
O O5 0.830441 0.290931 0.788921
O O6 0.861162 0.357961 0.023369
O O7 0.698611 0.307352 0.185295
O O8 0.000000 0.992549 0.750000
O O9 0.162888 0.998660 0.405301
O O10 0.935773 0.769845 0.002416
O O11 0.750000 0.750000 0.000000
O O12 0.896240 0.692015 0.846784
O O13 0.500000 0.119243 0.750000
O O14 0.000000 0.168728 0.750000
#
# Coordination Sequence:
#
# PCOD8141489 Si02
#       6
#     8   8   8   8   8   8
#     4  10  23  41  60  91 122 156 208 256 314 386
#     4  10  21  37  56  75 118 162 200 270 295 365
#     4  10  24  43  71 102 132 166 201 250 325 407
#     4  11  20  37  49  79 117 160 219 255 307 354
#     4  10  23  38  59  84 117 166 216 260 312 366
#     4  11  24  33  54  85 118 165 210 255 313 363
#
# _framework density 20.369738999999999
#
# number of rings (size 3 to 8) (size 9 to 14) (size 15 to 20)
#    0.000    1.667    5.000    0.500    9.333    2.667 
#    0.000    0.000    0.000    1.000    0.000    0.000 
#    0.000    0.000    0.000    0.000    0.000    0.000 
#
# Total GULP energy -297329.210395 kJ/mol
# GULP energy per Si atom -12388.717100 kJ/mol
# Density = 2.032338 g / cm^3
# Si number density = 20.369739 Si / 1000 Ang^3
#
#
#
# Elastic Constant Matrix: (Units=GPa)
#
#
# Indices 1 2 3 4 5 6 
#
# 1 69.3451 -7.0920 15.8402 0.0000 26.4684 0.0000
# 2 -7.0920 94.5202 24.4129 0.0000 11.7660 0.0000
# 3 15.8402 24.4129 94.3043 0.0000 25.8028 0.0000
# 4 0.0000 0.0000 0.0000 13.9805 0.0000 -7.1074
# 5 26.4684 11.7660 25.8028 0.0000 28.5178 0.0000
# 6 0.0000 0.0000 0.0000 -7.1074 0.0000 18.9561
#
#
#
# Elastic Compliance Matrix: (Units=1/GPa)
#
#
# Indices 1 2 3 4 5 6 
#
# 1 0.024542 0.004638 0.001905 0.000000 -0.026416 0.000000
# 2 0.004638 0.012371 -0.001870 0.000000 -0.007716 0.000000
# 3 0.001905 -0.001870 0.014673 0.000000 -0.014273 0.000000
# 4 0.000000 0.000000 0.000000 0.088373 0.000000 0.033134
# 5 -0.026416 -0.007716 -0.014273 0.000000 0.075681 0.000000
# 6 0.000000 0.000000 0.000000 0.033134 0.000000 0.065177
#
#
# Mechanical properties :
#
#
# Convention : Reuss Voigt Hill
#
# Bulk Modulus (GPa) = 16.41189 36.05465 26.23327
# Shear Modulus (GPa) = 17.13596 27.29144 22.21370
#
# Velocity S-wave (km/s) = 2.90357 3.66430 3.30589
# Velocity P-wave (km/s) = 4.39493 5.97004 5.24198
#
# Compressibility (1/GPa) = 0.06093143
#
# Stress axis : x y z
#
# Youngs Moduli (GPa) = 40.74569 80.83197 68.15063
#
# Poissons Ratio (x) = -0.37488 -0.12980
# Poissons Ratio (y) = -0.18897 0.12746
# Poissons Ratio (z) = -0.07761 0.15118
#
# Static dielectric constant tensor:
#      x y z
#    x 3.608900 0.000000 0.371230 
#    y 0.000000 2.696850 0.000000 
#    z 0.371230 0.000000 4.094670 
# 
# 
# High freq. dielectric constant tensor:
#      x y z
#    x 1.785350 0.000000 0.018970 
#    y 0.000000 1.760670 0.000000 
#    z 0.018970 0.000000 1.811690 
# 
# From -- ./inp_files/8717.got.cif
#   From: 2010.06.25/outbox.cif.g09.slc.cpg/sg15_5_cif.got.tgz:8717.got - 2010.06.28 07:06:18.
