data_PCOD8141624
_publ_section_title
;
Structure prediction by ZEFSAII (Michael W. Deem and Ramdas Pophale) SiO2 
 PCOD8141624
Probable space group: C 2/C
;
_chemical_formula_sum "Si O2"
_cell_formula_units_Z 48
_cell_length_a 13.962647
_cell_length_b 20.007474
_cell_length_c 8.992111
_cell_angle_alpha 90.000000
_cell_angle_beta 111.248921
_cell_angle_gamma 90.000000
_cell_volume 2341.231931
_symmetry_space_group_name_H-M "C 2/C"
_symmetry_group_IT_number 15
_symmetry_cell_setting 'monoclinic'
loop_
_space_group_symop_operation_xyz
x,y,z
-x,y,1/2-z
-x,-y,-z
x,-y,1/2+z
1/2+x,1/2+y,z
1/2-x,1/2+y,1/2-z
1/2-x,1/2-y,-z
1/2+x,1/2-y,1/2+z
loop_
_atom_site_type_symbol
_atom_site_label
_atom_site_fract_x
_atom_site_fract_y
_atom_site_fract_z
Si Si1 0.226189 0.604705 0.850426
Si Si2 0.837244 0.643519 0.381873
Si Si3 0.207970 0.452351 0.900332
Si Si4 0.855684 0.745661 0.143007
Si Si5 0.886735 0.896221 0.199783
Si Si6 0.430986 0.866551 0.485805
O O1 0.190094 0.529978 0.865047
O O2 0.338889 0.601052 0.838938
O O3 0.144444 0.641674 0.697145
O O4 0.230279 0.647309 0.005409
O O5 0.786819 0.585792 0.253132
O O6 0.836338 0.714593 0.296483
O O7 0.952137 0.621356 0.496150
O O8 0.312909 0.436080 0.046598
O O9 0.109344 0.428015 0.937711
O O10 0.902624 0.818832 0.169894
O O11 0.750000 0.750000 0.000000
O O12 0.931790 0.699513 0.089682
O O13 0.000000 0.929608 0.250000
#
# Coordination Sequence:
#
# PCOD8141624 Si02
#       6
#     8   8   8   8   8   8
#     4  11  23  37  57  91 122 150 195 250 291 340
#     4  11  21  35  62  92 122 149 192 248 295 351
#     4  10  21  38  59  85 121 161 199 229 293 361
#     4  11  19  41  64  83 114 160 199 233 296 364
#     4  11  23  42  63  80 113 164 206 242 292 350
#     4  10  21  37  60  91 119 157 190 232 301 367
#
# _framework density 20.502026999999998
#
# number of rings (size 3 to 8) (size 9 to 14) (size 15 to 20)
#    0.000    1.333    5.000    5.500    0.000    5.333 
#    0.000    0.833    0.000    0.000    0.000    0.000 
#    0.000    0.000    0.000    0.000    0.000    0.000 
#
# Total GULP energy -297579.996522 kJ/mol
# GULP energy per Si atom -12399.166522 kJ/mol
# Density = 2.045536 g / cm^3
# Si number density = 20.502027 Si / 1000 Ang^3
#
#
#
# Elastic Constant Matrix: (Units=GPa)
#
#
# Indices 1 2 3 4 5 6 
#
# 1 126.9759 -11.6571 44.4100 0.0000 -2.5538 0.0000
# 2 -11.6571 55.4606 -1.5936 0.0000 -1.9412 0.0000
# 3 44.4100 -1.5936 112.3296 0.0000 -20.2047 0.0000
# 4 0.0000 0.0000 0.0000 16.4787 0.0000 -0.1838
# 5 -2.5538 -1.9412 -20.2047 0.0000 30.4495 0.0000
# 6 0.0000 0.0000 0.0000 -0.1838 0.0000 8.8882
#
#
#
# Elastic Compliance Matrix: (Units=1/GPa)
#
#
# Indices 1 2 3 4 5 6 
#
# 1 0.009408 0.001801 -0.004010 0.000000 -0.001757 0.000000
# 2 0.001801 0.018443 -0.000240 0.000000 0.001167 0.000000
# 3 -0.004010 -0.000240 0.011833 0.000000 0.007500 0.000000
# 4 0.000000 0.000000 0.000000 0.060698 0.000000 0.001255
# 5 -0.001757 0.001167 0.007500 0.000000 0.037745 0.000000
# 6 0.000000 0.000000 0.000000 0.001255 0.000000 0.112535
#
#
# Mechanical properties :
#
#
# Convention : Reuss Voigt Hill
#
# Bulk Modulus (GPa) = 28.74756 39.67607 34.21181
# Shear Modulus (GPa) = 18.71558 28.73707 23.72632
#
# Velocity S-wave (km/s) = 3.02464 3.74795 3.40555
# Velocity P-wave (km/s) = 5.12350 6.17445 5.67336
#
# Compressibility (1/GPa) = 0.03478557
#
# Stress axis : x y z
#
# Youngs Moduli (GPa) = 106.29279 54.22039 84.50653
#
# Poissons Ratio (x) = -0.09764 0.33887
# Poissons Ratio (y) = -0.19140 0.02031
# Poissons Ratio (z) = 0.42623 0.01303
#
# Static dielectric constant tensor:
#      x y z
#    x 3.626930 0.000000 -0.071250 
#    y 0.000000 5.193720 0.000000 
#    z -0.071250 0.000000 3.873890 
# 
# 
# High freq. dielectric constant tensor:
#      x y z
#    x 1.793080 0.000000 0.001400 
#    y 0.000000 1.791470 0.000000 
#    z 0.001400 0.000000 1.807390 
# 
# From -- ./inp_files/40921.got.cif
#   From: 2010.06.25/outbox.cif.g09.slc.cpg/sg15_21_cif.got.tgz:40921.got - 2010.06.28 07:06:18.
