data_PCOD8141062
_publ_section_title
;
Structure prediction by ZEFSAII (Michael W. Deem and Ramdas Pophale) SiO2 
 PCOD8141062
Probable space group: C 2/C
;
_chemical_formula_sum "Si O2"
_cell_formula_units_Z 56
_cell_length_a 4.941053
_cell_length_b 29.139459
_cell_length_c 19.929272
_cell_angle_alpha 90.000000
_cell_angle_beta 119.655902
_cell_angle_gamma 90.000000
_cell_volume 2493.552403
_symmetry_space_group_name_H-M "C 2/C"
_symmetry_group_IT_number 15
_symmetry_cell_setting 'monoclinic'
loop_
_space_group_symop_operation_xyz
x,y,z
-x,y,1/2-z
-x,-y,-z
x,-y,1/2+z
1/2+x,1/2+y,z
1/2-x,1/2+y,1/2-z
1/2-x,1/2-y,-z
1/2+x,1/2-y,1/2+z
loop_
_atom_site_type_symbol
_atom_site_label
_atom_site_fract_x
_atom_site_fract_y
_atom_site_fract_z
Si Si1 0.650216 0.832833 0.195954
Si Si2 0.849205 0.768436 0.802296
Si Si3 0.645721 0.548500 0.196750
Si Si4 0.063783 0.501012 0.085298
Si Si5 0.897577 0.859001 0.661047
Si Si6 0.407030 0.096566 0.559477
Si Si7 0.297521 0.095483 0.047120
O O1 0.500000 0.836918 0.250000
O O2 0.639014 0.781674 0.160843
O O3 0.480598 0.865040 0.122160
O O4 0.000000 0.849594 0.250000
O O5 0.500000 0.785889 0.750000
O O6 0.000000 0.757825 0.750000
O O7 0.024089 0.809780 0.864627
O O8 0.500000 0.561747 0.250000
O O9 0.436601 0.507369 0.141135
O O10 0.595934 0.597849 0.151992
O O11 0.000000 0.531952 0.250000
O O12 0.937572 0.453274 0.100717
O O13 0.875478 0.545370 0.091666
O O14 0.000000 0.500000 0.000000
O O15 0.527050 0.867563 0.609533
O O16 0.000000 0.850135 0.750000
O O17 0.642518 0.095801 0.525714
O O18 0.064636 0.106373 0.487237
#
# Coordination Sequence:
#
# PCOD8141062 Si02
#       7
#     8   8   8   8   8   8   8
#     4  10  21  39  61  84 111 148 193 238 280 334
#     4   9  18  33  56  83 111 145 186 228 280 344
#     4  10  21  35  54  82 112 138 178 236 280 317
#     4   9  21  38  57  77 108 150 187 220 273 341
#     4   9  19  35  58  85 113 148 186 229 284 345
#     4  11  22  39  57  80 112 150 189 234 282 332
#     4  10  22  37  57  83 113 147 187 231 282 339
#
# _framework density 22.457920000000001
#
# number of rings (size 3 to 8) (size 9 to 14) (size 15 to 20)
#    0.000    2.286    0.000    1.714    0.000   15.429 
#    0.000    2.857    0.000    0.000    0.000    0.000 
#    0.000    0.000    0.000    0.000    0.000    0.000 
#
# Total GULP energy -346995.378131 kJ/mol
# GULP energy per Si atom -12392.692076 kJ/mol
# Density = 2.240680 g / cm^3
# Si number density = 22.457920 Si / 1000 Ang^3
#
#
#
# Elastic Constant Matrix: (Units=GPa)
#
#
# Indices 1 2 3 4 5 6 
#
# 1 52.2225 9.2511 19.8678 0.0000 34.7420 0.0000
# 2 9.2511 167.1123 74.6041 0.0000 20.7555 0.0000
# 3 19.8678 74.6041 133.2024 0.0000 37.0563 0.0000
# 4 0.0000 0.0000 0.0000 25.4214 0.0000 9.5894
# 5 34.7420 20.7555 37.0563 0.0000 40.3035 0.0000
# 6 0.0000 0.0000 0.0000 9.5894 0.0000 21.9652
#
#
#
# Elastic Compliance Matrix: (Units=1/GPa)
#
#
# Indices 1 2 3 4 5 6 
#
# 1 0.048133 0.000721 0.005459 0.000000 -0.046882 0.000000
# 2 0.000721 0.007990 -0.004387 0.000000 -0.000703 0.000000
# 3 0.005459 -0.004387 0.013210 0.000000 -0.014592 0.000000
# 4 0.000000 0.000000 0.000000 0.047092 0.000000 -0.020559
# 5 -0.046882 -0.000703 -0.014592 0.000000 0.079003 0.000000
# 6 0.000000 0.000000 0.000000 -0.020559 0.000000 0.054502
#
#
# Mechanical properties :
#
#
# Convention : Reuss Voigt Hill
#
# Bulk Modulus (GPa) = 13.71385 62.22035 37.96710
# Shear Modulus (GPa) = 18.47406 34.12562 26.29984
#
# Velocity S-wave (km/s) = 2.87123 3.90235 3.42581
# Velocity P-wave (km/s) = 4.13662 6.93325 5.70883
#
# Compressibility (1/GPa) = 0.07291900
#
# Stress axis : x y z
#
# Youngs Moduli (GPa) = 20.77570 125.15859 75.70216
#
# Poissons Ratio (x) = -0.09024 -0.41327
# Poissons Ratio (y) = -0.01498 0.33211
# Poissons Ratio (z) = -0.11342 0.54908
#
# Static dielectric constant tensor:
#      x y z
#    x 3.935320 0.000000 0.005990 
#    y 0.000000 5.148070 0.000000 
#    z 0.005990 0.000000 4.038680 
# 
# 
# High freq. dielectric constant tensor:
#      x y z
#    x 1.887550 0.000000 0.012140 
#    y 0.000000 1.885770 0.000000 
#    z 0.012140 0.000000 1.870100 
# 
# From -- ./inp_files/286783.got.cif
#   From: 2010.06.25/outbox.cif.g09.slc.cpg/sg15_144_cif.got.tgz:286783.got - 2010.06.28 07:06:18.
