data_PCOD8141962
_publ_section_title
;
Structure prediction by ZEFSAII (Michael W. Deem and Ramdas Pophale) SiO2 
 PCOD8141962
Probable space group: C 2/C
;
_chemical_formula_sum "Si O2"
_cell_formula_units_Z 48
_cell_length_a 10.722906
_cell_length_b 8.412814
_cell_length_c 24.632584
_cell_angle_alpha 90.000000
_cell_angle_beta 103.870186
_cell_angle_gamma 90.000000
_cell_volume 2157.307362
_symmetry_space_group_name_H-M "C 2/C"
_symmetry_group_IT_number 15
_symmetry_cell_setting 'monoclinic'
loop_
_space_group_symop_operation_xyz
x,y,z
-x,y,1/2-z
-x,-y,-z
x,-y,1/2+z
1/2+x,1/2+y,z
1/2-x,1/2+y,1/2-z
1/2-x,1/2-y,-z
1/2+x,1/2-y,1/2+z
loop_
_atom_site_type_symbol
_atom_site_label
_atom_site_fract_x
_atom_site_fract_y
_atom_site_fract_z
Si Si1 0.877901 0.804533 0.771439
Si Si2 0.898760 0.823059 0.283230
Si Si3 0.033869 0.762528 0.602896
Si Si4 0.465871 0.378822 0.407930
Si Si5 0.222900 0.386660 0.454173
Si Si6 0.899409 0.359444 0.498461
O O1 0.741064 0.756106 0.732996
O O2 0.887933 0.737468 0.833603
O O3 0.000000 0.737636 0.750000
O O4 0.880180 0.992708 0.770176
O O5 0.958770 0.792960 0.348923
O O6 0.000000 0.750703 0.250000
O O7 0.130161 0.718840 0.563208
O O8 0.913077 0.644289 0.589046
O O9 0.979368 0.942414 0.591885
O O10 0.323478 0.393101 0.416722
O O11 0.552450 0.277902 0.456918
O O12 0.250000 0.250000 0.500000
O O13 0.223868 0.557042 0.486465
O O14 0.000000 0.500000 0.500000
#
# Coordination Sequence:
#
# PCOD8141962 Si02
#       6
#     8   8   8   8   8   8
#     4  10  22  43  65  94 128 169 216 266 319 375
#     4  10  24  43  65  95 128 168 218 264 316 381
#     4  10  22  40  60  92 128 160 213 261 318 382
#     4  11  22  41  63  88 129 164 208 265 315 380
#     4  11  22  39  60  90 125 163 207 256 318 383
#     4  10  21  38  59  92 122 160 207 251 319 379
#
# _framework density 22.249960000000002
#
# number of rings (size 3 to 8) (size 9 to 14) (size 15 to 20)
#    0.000    1.667    3.333    1.500    0.000    6.667 
#    9.000    0.000    0.000    0.000    0.000    0.000 
#    0.000    0.000    0.000    0.000    0.000    0.000 
#
# Total GULP energy -297562.130402 kJ/mol
# GULP energy per Si atom -12398.422100 kJ/mol
# Density = 2.219932 g / cm^3
# Si number density = 22.249960 Si / 1000 Ang^3
#
#
#
# Elastic Constant Matrix: (Units=GPa)
#
#
# Indices 1 2 3 4 5 6 
#
# 1 102.3937 9.0813 23.0559 0.0000 -21.7412 0.0000
# 2 9.0813 48.6145 35.4479 0.0000 -3.0192 0.0000
# 3 23.0559 35.4479 126.7491 0.0000 -26.4570 0.0000
# 4 0.0000 0.0000 0.0000 28.1775 0.0000 1.8550
# 5 -21.7412 -3.0192 -26.4570 0.0000 35.7936 0.0000
# 6 0.0000 0.0000 0.0000 1.8550 0.0000 28.1169
#
#
#
# Elastic Compliance Matrix: (Units=1/GPa)
#
#
# Indices 1 2 3 4 5 6 
#
# 1 0.011357 -0.001516 -0.000270 0.000000 0.006570 0.000000
# 2 -0.001516 0.026472 -0.008104 0.000000 -0.004678 0.000000
# 3 -0.000270 -0.008104 0.011858 0.000000 0.007917 0.000000
# 4 0.000000 0.000000 0.000000 0.035644 0.000000 -0.002352
# 5 0.006570 -0.004678 0.007917 0.000000 0.037386 0.000000
# 6 0.000000 0.000000 0.000000 -0.002352 0.000000 0.035721
#
#
# Mechanical properties :
#
#
# Convention : Reuss Voigt Hill
#
# Bulk Modulus (GPa) = 33.43920 45.88082 39.66001
# Shear Modulus (GPa) = 26.56928 32.42909 29.49919
#
# Velocity S-wave (km/s) = 3.45936 3.82185 3.64512
# Velocity P-wave (km/s) = 5.56936 6.33568 5.96484
#
# Compressibility (1/GPa) = 0.02990502
#
# Stress axis : x y z
#
# Youngs Moduli (GPa) = 88.05408 37.77586 84.33278
#
# Poissons Ratio (x) = 0.05728 0.02279
# Poissons Ratio (y) = 0.13352 0.68344
# Poissons Ratio (z) = 0.02380 0.30614
#
# Static dielectric constant tensor:
#      x y z
#    x 4.234430 0.000000 -0.310570 
#    y 0.000000 4.303070 0.000000 
#    z -0.310570 0.000000 4.174230 
# 
# 
# High freq. dielectric constant tensor:
#      x y z
#    x 1.875240 0.000000 -0.015310 
#    y 0.000000 1.879140 0.000000 
#    z -0.015310 0.000000 1.880460 
# 
# From -- ./inp_files/267662.got.cif
#   From: 2010.06.25/outbox.cif.g09.slc.cpg/sg15_134_cif.got.tgz:267662.got - 2010.06.28 07:06:18.
