data_PCOD8141865
_publ_section_title
;
Structure prediction by ZEFSAII (Michael W. Deem and Ramdas Pophale) SiO2 
 PCOD8141865
Probable space group: C 2/C
;
_chemical_formula_sum "Si O2"
_cell_formula_units_Z 60
_cell_length_a 20.211504
_cell_length_b 17.321885
_cell_length_c 9.299136
_cell_angle_alpha 90.000000
_cell_angle_beta 67.438164
_cell_angle_gamma 90.000000
_cell_volume 3006.472849
_symmetry_space_group_name_H-M "C 2/C"
_symmetry_group_IT_number 15
_symmetry_cell_setting 'monoclinic'
loop_
_space_group_symop_operation_xyz
x,y,z
-x,y,1/2-z
-x,-y,-z
x,-y,1/2+z
1/2+x,1/2+y,z
1/2-x,1/2+y,1/2-z
1/2-x,1/2-y,-z
1/2+x,1/2-y,1/2+z
loop_
_atom_site_type_symbol
_atom_site_label
_atom_site_fract_x
_atom_site_fract_y
_atom_site_fract_z
Si Si1 0.199843 0.151740 0.233379
Si Si2 0.421536 0.925431 0.661677
Si Si3 0.600366 0.529832 0.419771
Si Si4 0.355586 0.800574 0.558577
Si Si5 0.678203 0.371837 0.423550
Si Si6 0.164896 0.676375 0.752750
Si Si7 0.088111 0.562790 0.015203
Si Si8 0.500000 0.497989 0.250000
O O1 0.166602 0.089159 0.370051
O O2 0.283512 0.164688 0.189192
O O3 0.163303 0.233759 0.293636
O O4 0.185654 0.118085 0.087112
O O5 0.418376 0.839626 0.597758
O O6 0.380737 0.930086 0.849501
O O7 0.503870 0.946045 0.605591
O O8 0.381935 0.986342 0.588870
O O9 0.631866 0.442181 0.396296
O O10 0.551549 0.545705 0.317430
O O11 0.552486 0.549855 0.600554
O O12 0.362875 0.708812 0.571055
O O13 0.360014 0.828946 0.391055
O O14 0.757535 0.364173 0.288743
O O15 0.107756 0.636787 0.903958
#
# Coordination Sequence:
#
# PCOD8141865 Si02
#       8
#     8   8   8   8   8   8   8   4
#     4   9  19  38  61  83 116 149 193 232 286 338
#     4  10  21  38  56  81 115 150 188 231 282 339
#     4  11  20  42  58  86 113 158 190 240 287 340
#     4   9  19  38  60  86 112 149 191 240 279 341
#     4   9  19  38  61  83 116 149 193 232 286 338
#     4   9  19  38  60  86 112 149 191 240 279 341
#     4  10  21  38  56  81 115 150 188 231 282 339
#     4  10  24  38  60  82 120 146 200 238 280 342
#
# _framework density 19.956941
#
# number of rings (size 3 to 8) (size 9 to 14) (size 15 to 20)
#    0.000    2.400    1.333    2.400    1.867    1.600 
#    9.600    1.333    0.000    0.000    0.000    0.000 
#    0.000    0.000    0.000    0.000    0.000    0.000 
#
# Total GULP energy -371744.728131 kJ/mol
# GULP energy per Si atom -12391.490938 kJ/mol
# Density = 1.991152 g / cm^3
# Si number density = 19.956941 Si / 1000 Ang^3
#
#
#
# Elastic Constant Matrix: (Units=GPa)
#
#
# Indices 1 2 3 4 5 6 
#
# 1 36.6160 31.1768 23.2724 0.0000 6.3213 0.0000
# 2 31.1768 110.4916 56.5598 0.0000 1.5256 0.0000
# 3 23.2724 56.5598 123.7677 0.0000 -4.6817 0.0000
# 4 0.0000 0.0000 0.0000 27.0561 0.0000 -3.2786
# 5 6.3213 1.5256 -4.6817 0.0000 25.8452 0.0000
# 6 0.0000 0.0000 0.0000 -3.2786 0.0000 29.3177
#
#
#
# Elastic Compliance Matrix: (Units=1/GPa)
#
#
# Indices 1 2 3 4 5 6 
#
# 1 0.038921 -0.009028 -0.003557 0.000000 -0.009631 0.000000
# 2 -0.009028 0.013982 -0.004672 0.000000 0.000537 0.000000
# 3 -0.003557 -0.004672 0.011002 0.000000 0.003139 0.000000
# 4 0.000000 0.000000 0.000000 0.037468 0.000000 0.004190
# 5 -0.009631 0.000537 0.003139 0.000000 0.041584 0.000000
# 6 0.000000 0.000000 0.000000 0.004190 0.000000 0.034578
#
#
# Mechanical properties :
#
#
# Convention : Reuss Voigt Hill
#
# Bulk Modulus (GPa) = 34.02379 54.76593 44.39486
# Shear Modulus (GPa) = 22.53819 27.10154 24.81987
#
# Velocity S-wave (km/s) = 3.36421 3.68910 3.53040
# Velocity P-wave (km/s) = 5.67240 6.75630 6.23794
#
# Compressibility (1/GPa) = 0.02939120
#
# Stress axis : x y z
#
# Youngs Moduli (GPa) = 25.69307 71.52122 90.89244
#
# Poissons Ratio (x) = 0.64572 0.32330
# Poissons Ratio (y) = 0.23197 0.42461
# Poissons Ratio (z) = 0.09139 0.33412
#
# Static dielectric constant tensor:
#      x y z
#    x 3.477510 0.000000 0.003210 
#    y 0.000000 3.508500 0.000000 
#    z 0.003210 0.000000 3.786080 
# 
# 
# High freq. dielectric constant tensor:
#      x y z
#    x 1.761560 0.000000 -0.005890 
#    y 0.000000 1.769410 0.000000 
#    z -0.005890 0.000000 1.781110 
# 
# From -- ./inp_files/61872.got.cif
#   From: 2010.06.25/outbox.cif.g09.slc.cpg/sg15_31_cif.got.tgz:61872.got - 2010.06.28 07:06:18.
