data_PCOD8141279
_publ_section_title
;
Structure prediction by ZEFSAII (Michael W. Deem and Ramdas Pophale) SiO2 
 PCOD8141279
Probable space group: C 2/C
;
_chemical_formula_sum "Si O2"
_cell_formula_units_Z 56
_cell_length_a 23.743800
_cell_length_b 16.004581
_cell_length_c 14.501069
_cell_angle_alpha 90.000000
_cell_angle_beta 27.349104
_cell_angle_gamma 90.000000
_cell_volume 2531.604738
_symmetry_space_group_name_H-M "C 2/C"
_symmetry_group_IT_number 15
_symmetry_cell_setting 'monoclinic'
loop_
_space_group_symop_operation_xyz
x,y,z
-x,y,1/2-z
-x,-y,-z
x,-y,1/2+z
1/2+x,1/2+y,z
1/2-x,1/2+y,1/2-z
1/2-x,1/2-y,-z
1/2+x,1/2-y,1/2+z
loop_
_atom_site_type_symbol
_atom_site_label
_atom_site_fract_x
_atom_site_fract_y
_atom_site_fract_z
Si Si1 0.723642 0.783521 0.138094
Si Si2 0.022735 0.826415 0.319419
Si Si3 0.166717 0.109928 0.270513
Si Si4 0.269277 0.905986 0.952106
Si Si5 0.621280 0.019310 0.030787
Si Si6 0.123741 0.067822 0.122215
Si Si7 0.483865 0.850237 0.953880
O O1 0.730945 0.700991 0.190738
O O2 0.588511 0.826046 0.346794
O O3 0.750000 0.750000 0.000000
O O4 0.823281 0.854868 0.015256
O O5 0.983227 0.730903 0.389095
O O6 0.000000 0.857407 0.250000
O O7 0.949926 0.891635 0.491592
O O8 0.167862 0.836735 0.123356
O O9 0.112738 0.094065 0.246197
O O10 0.269642 0.044300 0.151871
O O11 0.335428 0.917926 0.953209
O O12 0.375242 0.873947 0.727300
O O13 0.214285 0.989261 0.986795
O O14 0.500000 0.973100 0.250000
O O15 0.588153 0.073099 0.988968
O O16 0.000000 0.042661 0.250000
#
# Coordination Sequence:
#
# PCOD8141279 Si02
#       7
#     8   8   8   8   8   8   8
#     4   9  20  40  61  86 121 158 203 254 310 373
#     4  11  22  38  58  86 122 158 208 258 311 374
#     4   9  21  40  62  88 122 164 203 256 315 371
#     4  10  21  36  57  86 121 159 201 255 307 364
#     4   9  19  37  61  89 121 159 207 256 310 371
#     4  10  21  38  61  91 126 161 203 250 308 381
#     4  10  21  38  62  88 119 162 207 256 311 370
#
# _framework density 22.120356000000001
#
# number of rings (size 3 to 8) (size 9 to 14) (size 15 to 20)
#    0.000    2.286    0.000    2.143    0.000    6.857 
#    0.000   12.857    0.000    0.000    0.000    0.000 
#    0.000    0.000    0.000    0.286    0.000    0.000 
#
# Total GULP energy -346926.903186 kJ/mol
# GULP energy per Si atom -12390.246542 kJ/mol
# Density = 2.207001 g / cm^3
# Si number density = 22.120356 Si / 1000 Ang^3
#
#
#
# Elastic Constant Matrix: (Units=GPa)
#
#
# Indices 1 2 3 4 5 6 
#
# 1 73.5478 29.6750 65.8827 0.0000 -6.6480 0.0000
# 2 29.6750 100.0167 63.8213 0.0001 -0.5917 0.0000
# 3 65.8827 63.8213 188.1740 0.0001 -4.6766 -0.0001
# 4 0.0000 0.0001 0.0001 45.6812 0.0000 -6.2092
# 5 -6.6480 -0.5917 -4.6766 0.0000 28.6635 0.0000
# 6 0.0000 0.0000 -0.0001 -6.2092 0.0000 15.4271
#
#
#
# Elastic Compliance Matrix: (Units=1/GPa)
#
#
# Indices 1 2 3 4 5 6 
#
# 1 0.020457 -0.001960 -0.006407 0.000000 0.003659 0.000000
# 2 -0.001960 0.012953 -0.003727 0.000000 -0.000795 0.000000
# 3 -0.006407 -0.003727 0.008818 0.000000 -0.000124 0.000000
# 4 0.000000 0.000000 0.000000 0.023158 0.000000 0.009321
# 5 0.003659 -0.000795 -0.000124 0.000000 0.035699 0.000000
# 6 0.000000 0.000000 0.000000 0.009321 0.000000 0.068572
#
#
# Mechanical properties :
#
#
# Convention : Reuss Voigt Hill
#
# Bulk Modulus (GPa) = 55.42683 75.61073 65.51878
# Shear Modulus (GPa) = 25.01767 31.44501 28.23134
#
# Velocity S-wave (km/s) = 3.36665 3.77442 3.57635
# Velocity P-wave (km/s) = 6.34222 7.29731 6.83647
#
# Compressibility (1/GPa) = 0.01804181
#
# Stress axis : x y z
#
# Youngs Moduli (GPa) = 48.88282 77.20094 113.40135
#
# Poissons Ratio (x) = 0.15130 0.72653
# Poissons Ratio (y) = 0.09580 0.42263
# Poissons Ratio (z) = 0.31318 0.28771
#
# Static dielectric constant tensor:
#      x y z
#    x 3.618520 0.000000 -0.037870 
#    y 0.000000 4.349220 0.000000 
#    z -0.037870 0.000000 4.771880 
# 
# 
# High freq. dielectric constant tensor:
#      x y z
#    x 1.831520 0.000000 0.001000 
#    y 0.000000 1.882890 0.000000 
#    z 0.001000 0.000000 1.890050 
# 
# From -- ./inp_files/173809.got.cif
#   From: 2010.06.25/outbox.cif.g09.slc.cpg/sg15_87_cif.got.tgz:173809.got - 2010.06.28 07:06:18.
