data_PCOD8141014
_publ_section_title
;
Structure prediction by ZEFSAII (Michael W. Deem and Ramdas Pophale) SiO2 
 PCOD8141014
Probable space group: C 2/C
;
_chemical_formula_sum "Si O2"
_cell_formula_units_Z 52
_cell_length_a 14.207154
_cell_length_b 15.316703
_cell_length_c 28.147779
_cell_angle_alpha 90.000000
_cell_angle_beta 155.807760
_cell_angle_gamma 90.000000
_cell_volume 2510.082122
_symmetry_space_group_name_H-M "C 2/C"
_symmetry_group_IT_number 15
_symmetry_cell_setting 'monoclinic'
loop_
_space_group_symop_operation_xyz
x,y,z
-x,y,1/2-z
-x,-y,-z
x,-y,1/2+z
1/2+x,1/2+y,z
1/2-x,1/2+y,1/2-z
1/2-x,1/2-y,-z
1/2+x,1/2-y,1/2+z
loop_
_atom_site_type_symbol
_atom_site_label
_atom_site_fract_x
_atom_site_fract_y
_atom_site_fract_z
Si Si1 0.500000 0.331595 0.750000
Si Si2 0.061635 0.446907 0.574134
Si Si3 0.676776 0.791115 0.416277
Si Si4 0.890486 0.691449 0.128439
Si Si5 0.847049 0.867084 0.063648
Si Si6 0.332034 0.278000 0.876904
Si Si7 0.667234 0.105266 0.685935
O O1 0.290947 0.391365 0.671291
O O2 0.427992 0.274778 0.670950
O O3 0.076907 0.514619 0.624315
O O4 0.000000 0.500000 0.500000
O O5 0.847225 0.385323 0.486806
O O6 0.750000 0.750000 0.500000
O O7 0.491870 0.866621 0.342327
O O8 0.921112 0.826209 0.509133
O O9 0.932575 0.767445 0.109159
O O10 0.742588 0.730312 0.103165
O O11 0.144615 0.661714 0.262831
O O12 0.753801 0.616608 0.036299
O O13 0.078959 0.921461 0.178703
O O14 0.335680 0.180376 0.856205
#
# Coordination Sequence:
#
# PCOD8141014 Si02
#       7
#     4   8   8   8   8   8   8
#     4  12  26  38  70  98 126 172 228 258 332 388
#     4  12  24  40  60  93 129 166 203 266 328 393
#     4  10  22  38  60  95 129 167 215 269 313 385
#     4   9  18  33  58  89 112 156 202 262 295 367
#     4  10  21  34  58  84 121 155 206 242 315 374
#     4   9  18  35  58  85 119 153 205 253 309 361
#     4  10  22  38  57  89 131 163 196 262 328 368
#
# _framework density 20.716453999999999
#
# number of rings (size 3 to 8) (size 9 to 14) (size 15 to 20)
#    0.000    1.846    0.000    4.615   10.769    2.462 
#    0.000    0.000    0.000    2.769    0.000    0.000 
#    0.000    0.000    0.000    0.000    0.000    0.000 
#
# Total GULP energy -322104.988704 kJ/mol
# GULP energy per Si atom -12388.653412 kJ/mol
# Density = 2.066930 g / cm^3
# Si number density = 20.716454 Si / 1000 Ang^3
#
#
#
# Elastic Constant Matrix: (Units=GPa)
#
#
# Indices 1 2 3 4 5 6 
#
# 1 100.9456 39.4629 72.4028 -0.0025 3.2886 0.0012
# 2 39.4629 53.0225 42.8583 0.0003 1.4653 -0.0009
# 3 72.4028 42.8583 171.8546 -0.0037 17.2428 -0.0032
# 4 -0.0025 0.0003 -0.0037 23.8927 0.0028 -3.8495
# 5 3.2886 1.4653 17.2428 0.0028 51.0777 0.0005
# 6 0.0012 -0.0009 -0.0032 -3.8495 0.0005 34.1734
#
#
#
# Elastic Compliance Matrix: (Units=1/GPa)
#
#
# Indices 1 2 3 4 5 6 
#
# 1 0.016811 -0.008442 -0.005064 0.000001 0.000869 -0.000001
# 2 -0.008442 0.027952 -0.003507 -0.000002 0.000926 0.000000
# 3 -0.005064 -0.003507 0.009092 0.000001 -0.002643 0.000001
# 4 0.000001 -0.000002 0.000001 0.042627 -0.000003 0.004802
# 5 0.000869 0.000926 -0.002643 -0.000003 0.020388 -0.000001
# 6 -0.000001 0.000000 0.000001 0.004802 -0.000001 0.029803
#
#
# Mechanical properties :
#
#
# Convention : Reuss Voigt Hill
#
# Bulk Modulus (GPa) = 50.43327 70.58563 60.50945
# Shear Modulus (GPa) = 26.69372 33.23535 29.96454
#
# Velocity S-wave (km/s) = 3.59350 4.00971 3.80730
# Velocity P-wave (km/s) = 6.45097 7.45542 6.97131
#
# Compressibility (1/GPa) = 0.01982818
#
# Stress axis : x y z
#
# Youngs Moduli (GPa) = 59.48630 35.77516 109.98416
#
# Poissons Ratio (x) = 0.30202 0.55698
# Poissons Ratio (y) = 0.50219 0.38573
# Poissons Ratio (z) = 0.30125 0.12547
#
# Static dielectric constant tensor:
#      x y z
#    x 3.955390 0.000030 -0.025430 
#    y 0.000030 3.291070 -0.000010 
#    z -0.025430 -0.000010 4.512670 
# 
# 
# High freq. dielectric constant tensor:
#      x y z
#    x 1.814260 0.000000 0.001290 
#    y 0.000000 1.753710 0.000000 
#    z 0.001290 0.000000 1.843200 
# 
# From -- ./inp_files/314353.got.cif
#   From: 2010.06.25/outbox.cif.g09.slc.cpg/sg15_158_cif.got.tgz:314353.got - 2010.06.28 07:06:18.
