data_PCOD8141109
_publ_section_title
;
Structure prediction by ZEFSAII (Michael W. Deem and Ramdas Pophale) SiO2 
 PCOD8141109
Probable space group: C 2/C
;
_chemical_formula_sum "Si O2"
_cell_formula_units_Z 64
_cell_length_a 11.994292
_cell_length_b 22.697068
_cell_length_c 13.413698
_cell_angle_alpha 90.000000
_cell_angle_beta 74.485165
_cell_angle_gamma 90.000000
_cell_volume 3518.618784
_symmetry_space_group_name_H-M "C 2/C"
_symmetry_group_IT_number 15
_symmetry_cell_setting 'monoclinic'
loop_
_space_group_symop_operation_xyz
x,y,z
-x,y,1/2-z
-x,-y,-z
x,-y,1/2+z
1/2+x,1/2+y,z
1/2-x,1/2+y,1/2-z
1/2-x,1/2-y,-z
1/2+x,1/2-y,1/2+z
loop_
_atom_site_type_symbol
_atom_site_label
_atom_site_fract_x
_atom_site_fract_y
_atom_site_fract_z
Si Si1 0.828593 0.146995 0.636972
Si Si2 0.986273 0.250888 0.520595
Si Si3 0.930471 0.341775 0.367535
Si Si4 0.799899 0.897724 0.362194
Si Si5 0.425798 0.850914 0.861366
Si Si6 0.057662 0.437262 0.464784
Si Si7 0.478308 0.563632 0.963912
Si Si8 0.677204 0.660368 0.447254
O O1 0.893371 0.206893 0.591175
O O2 0.701874 0.146331 0.623404
O O3 0.825981 0.137649 0.755838
O O4 0.895645 0.091871 0.574795
O O5 0.935399 0.285345 0.438395
O O6 0.020161 0.293776 0.601281
O O7 0.100678 0.218412 0.451983
O O8 0.000000 0.327847 0.250000
O O9 0.977963 0.400113 0.409230
O O10 0.686075 0.939938 0.383612
O O11 0.779517 0.845150 0.447497
O O12 0.910897 0.936533 0.372709
O O13 0.500000 0.869825 0.750000
O O14 0.428648 0.907060 0.931947
O O15 0.294368 0.837318 0.854430
O O16 0.000000 0.500000 0.500000
O O17 0.400438 0.602319 0.059945
O O18 0.500000 0.500000 0.000000
#
# Coordination Sequence:
#
# PCOD8141109 Si02
#       8
#     8   8   8   8   8   8   8   8
#     4  11  21  37  62  88 121 156 208 243 302 362
#     4  10  22  36  59  88 121 159 196 255 295 354
#     4  11  23  39  59  89 122 164 202 242 311 366
#     4   9  19  37  61  88 111 152 207 242 296 369
#     4  10  21  35  57  88 117 149 202 246 300 358
#     4  10  22  41  58  84 122 156 197 251 302 362
#     4   9  20  35  59  86 116 151 196 258 298 351
#     4   8  19  36  58  82 121 151 197 245 302 342
#
# _framework density 18.188953999999999
#
# number of rings (size 3 to 8) (size 9 to 14) (size 15 to 20)
#    0.750    1.500    1.250    1.125    3.500    1.500 
#    2.250    0.000    0.000    6.000    0.000    0.000 
#    0.000    0.000    0.000    0.000    0.000    0.000 
#
# Total GULP energy -396564.311758 kJ/mol
# GULP energy per Si atom -12392.634742 kJ/mol
# Density = 1.814756 g / cm^3
# Si number density = 18.188954 Si / 1000 Ang^3
#
#
#
# Elastic Constant Matrix: (Units=GPa)
#
#
# Indices 1 2 3 4 5 6 
#
# 1 154.2081 56.5178 54.2275 0.0000 -15.8793 0.0000
# 2 56.5178 120.2601 49.9162 0.0000 -0.5254 0.0000
# 3 54.2275 49.9162 98.1308 0.0000 -14.9731 0.0000
# 4 0.0000 0.0000 0.0000 20.7314 0.0000 -1.0931
# 5 -15.8793 -0.5254 -14.9731 0.0000 29.2464 0.0000
# 6 0.0000 0.0000 0.0000 -1.0931 0.0000 22.3525
#
#
#
# Elastic Compliance Matrix: (Units=1/GPa)
#
#
# Indices 1 2 3 4 5 6 
#
# 1 0.008944 -0.002975 -0.002925 0.000000 0.003305 0.000000
# 2 -0.002975 0.011742 -0.004928 0.000000 -0.003927 0.000000
# 3 -0.002925 -0.004928 0.015249 0.000000 0.006130 0.000000
# 4 0.000000 0.000000 0.000000 0.048361 0.000000 0.002365
# 5 0.003305 -0.003927 0.006130 0.000000 0.039055 0.000000
# 6 0.000000 0.000000 0.000000 0.002365 0.000000 0.044853
#
#
# Mechanical properties :
#
#
# Convention : Reuss Voigt Hill
#
# Bulk Modulus (GPa) = 70.03264 77.10244 73.56754
# Shear Modulus (GPa) = 25.69130 28.59522 27.14326
#
# Velocity S-wave (km/s) = 3.76236 3.96930 3.86721
# Velocity P-wave (km/s) = 7.58025 7.96799 7.77654
#
# Compressibility (1/GPa) = 0.01427906
#
# Stress axis : x y z
#
# Youngs Moduli (GPa) = 111.80759 85.16695 65.57856
#
# Poissons Ratio (x) = 0.25336 0.19181
# Poissons Ratio (y) = 0.33261 0.32317
# Poissons Ratio (z) = 0.32703 0.41970
#
# Static dielectric constant tensor:
#      x y z
#    x 3.730090 0.000000 -0.202180 
#    y 0.000000 3.201330 0.000000 
#    z -0.202180 0.000000 3.226360 
# 
# 
# High freq. dielectric constant tensor:
#      x y z
#    x 1.722150 0.000000 -0.014950 
#    y 0.000000 1.694470 0.000000 
#    z -0.014950 0.000000 1.688130 
# 
# From -- ./inp_files/147127.got.cif
#   From: 2010.06.25/outbox.cif.g09.slc.cpg/sg15_74_cif.got.tgz:147127.got - 2010.06.28 07:06:18.
