data_PCOD8141487
_publ_section_title
;
Structure prediction by ZEFSAII (Michael W. Deem and Ramdas Pophale) SiO2 
 PCOD8141487
Probable space group: C 2/C
;
_chemical_formula_sum "Si O2"
_cell_formula_units_Z 36
_cell_length_a 12.939455
_cell_length_b 26.759098
_cell_length_c 12.707218
_cell_angle_alpha 90.000000
_cell_angle_beta 157.443968
_cell_angle_gamma 90.000000
_cell_volume 1687.724415
_symmetry_space_group_name_H-M "C 2/C"
_symmetry_group_IT_number 15
_symmetry_cell_setting 'monoclinic'
loop_
_space_group_symop_operation_xyz
x,y,z
-x,y,1/2-z
-x,-y,-z
x,-y,1/2+z
1/2+x,1/2+y,z
1/2-x,1/2+y,1/2-z
1/2-x,1/2-y,-z
1/2+x,1/2-y,1/2+z
loop_
_atom_site_type_symbol
_atom_site_label
_atom_site_fract_x
_atom_site_fract_y
_atom_site_fract_z
Si Si1 0.158026 0.607666 0.662002
Si Si2 0.621906 0.577049 0.253593
Si Si3 0.392319 0.784869 0.374508
Si Si4 0.234408 0.532476 0.553413
Si Si5 0.500000 0.784207 0.250000
O O1 0.173724 0.663983 0.625216
O O2 0.110347 0.570523 0.520181
O O3 0.906571 0.603544 0.504540
O O4 0.429318 0.592925 0.977271
O O5 0.500000 0.596158 0.250000
O O6 0.664186 0.517584 0.293523
O O7 0.656196 0.755831 0.661271
O O8 0.439345 0.811542 0.303158
O O9 0.500000 0.556978 0.750000
O O10 0.000000 0.518994 0.250000
O O11 0.750000 0.750000 0.500000
#
# Coordination Sequence:
#
# PCOD8141487 Si02
#       5
#     8   8   8   8   4
#     4  12  23  39  65  88 121 165 205 243 300 365
#     4  11  23  38  59  94 128 154 195 246 301 370
#     4  10  21  37  55  83 119 157 196 245 293 348
#     4  11  23  42  64  88 122 158 204 255 304 353
#     4   8  16  30  48  70 106 146 180 218 278 338
#
# _framework density 21.330497000000001
#
# number of rings (size 3 to 8) (size 9 to 14) (size 15 to 20)
#    0.000    1.333    0.000    7.333    3.111    0.000 
#    4.000    0.000    0.000    4.000    0.000    0.000 
#    0.000    0.000    0.000    0.000    0.000    0.000 
#
# Total GULP energy -223057.692582 kJ/mol
# GULP energy per Si atom -12392.094032 kJ/mol
# Density = 2.128195 g / cm^3
# Si number density = 21.330497 Si / 1000 Ang^3
#
#
#
# Elastic Constant Matrix: (Units=GPa)
#
#
# Indices 1 2 3 4 5 6 
#
# 1 46.4942 34.7279 18.0135 0.0034 10.6148 0.0015
# 2 34.7279 124.3165 19.2958 0.0052 6.4997 0.0024
# 3 18.0135 19.2958 97.7484 0.0151 23.5761 0.0064
# 4 0.0034 0.0052 0.0151 7.7390 -0.0028 -7.7898
# 5 10.6148 6.4997 23.5761 -0.0028 25.1555 -0.0021
# 6 0.0015 0.0024 0.0064 -7.7898 -0.0021 11.3483
#
#
#
# Elastic Compliance Matrix: (Units=1/GPa)
#
#
# Indices 1 2 3 4 5 6 
#
# 1 0.029953 -0.007611 -0.001865 -0.000034 -0.008925 -0.000026
# 2 -0.007611 0.010244 -0.000977 -0.000005 0.001480 -0.000004
# 3 -0.001865 -0.000977 0.013588 -0.000125 -0.011695 -0.000095
# 4 -0.000034 -0.000005 -0.000125 0.418094 0.000203 0.286992
# 5 -0.008925 0.001480 -0.011695 0.000203 0.054097 0.000156
# 6 -0.000026 -0.000004 -0.000095 0.286992 0.000156 0.285119
#
#
# Mechanical properties :
#
#
# Convention : Reuss Voigt Hill
#
# Bulk Modulus (GPa) = 30.41378 45.84818 38.13098
# Shear Modulus (GPa) = 5.93147 21.95000 13.94073
#
# Velocity S-wave (km/s) = 1.66937 3.21135 2.55925
# Velocity P-wave (km/s) = 4.24323 5.94064 5.16218
#
# Compressibility (1/GPa) = 0.03287983
#
# Stress axis : x y z
#
# Youngs Moduli (GPa) = 33.38521 97.61393 73.59635
#
# Poissons Ratio (x) = 0.74298 0.13724
# Poissons Ratio (y) = 0.25411 0.07187
# Poissons Ratio (z) = 0.06226 0.09533
#
# Static dielectric constant tensor:
#      x y z
#    x 4.094290 -0.000010 0.181830 
#    y -0.000010 3.769130 0.000010 
#    z 0.181830 0.000010 3.929640 
# 
# 
# High freq. dielectric constant tensor:
#      x y z
#    x 1.803420 0.000000 0.017950 
#    y 0.000000 1.839730 0.000000 
#    z 0.017950 0.000000 1.856270 
# 
# From -- ./inp_files/4396.got.cif
#   From: 2010.06.25/outbox.cif.g09.slc.cpg/sg15_3_cif.got.tgz:4396.got - 2010.06.28 07:06:18.
