data_PCOD8141598
_publ_section_title
;
Structure prediction by ZEFSAII (Michael W. Deem and Ramdas Pophale) SiO2 
 PCOD8141598
Probable space group: C 2/C
;
_chemical_formula_sum "Si O2"
_cell_formula_units_Z 60
_cell_length_a 16.324195
_cell_length_b 11.012460
_cell_length_c 26.963156
_cell_angle_alpha 90.000000
_cell_angle_beta 138.551420
_cell_angle_gamma 90.000000
_cell_volume 3208.562294
_symmetry_space_group_name_H-M "C 2/C"
_symmetry_group_IT_number 15
_symmetry_cell_setting 'monoclinic'
loop_
_space_group_symop_operation_xyz
x,y,z
-x,y,1/2-z
-x,-y,-z
x,-y,1/2+z
1/2+x,1/2+y,z
1/2-x,1/2+y,1/2-z
1/2-x,1/2-y,-z
1/2+x,1/2-y,1/2+z
loop_
_atom_site_type_symbol
_atom_site_label
_atom_site_fract_x
_atom_site_fract_y
_atom_site_fract_z
Si Si1 0.746781 0.743087 0.294634
Si Si2 0.044683 0.563695 0.715413
Si Si3 0.080488 0.910448 0.596035
Si Si4 0.000000 0.120874 0.750000
Si Si5 0.514415 0.580028 0.177240
Si Si6 0.165012 0.709428 0.915384
Si Si7 0.157222 0.693296 0.265794
Si Si8 0.126862 0.158442 0.562219
O O1 0.675985 0.872281 0.264228
O O2 0.648966 0.632539 0.254652
O O3 0.831224 0.745757 0.284166
O O4 0.846290 0.736623 0.384926
O O5 0.062334 0.419355 0.720385
O O6 0.000000 0.602226 0.750000
O O7 0.945543 0.609002 0.627998
O O8 0.021023 0.946333 0.621822
O O9 0.207355 0.840632 0.655642
O O10 0.989004 0.815206 0.526454
O O11 0.099378 0.032029 0.575148
O O12 0.113635 0.207107 0.786007
O O13 0.974681 0.038264 0.690210
O O14 0.404094 0.673538 0.138339
O O15 0.250051 0.645174 0.913880
O O16 0.250000 0.750000 0.000000
#
# Coordination Sequence:
#
# PCOD8141598 Si02
#       8
#     8   8   8   4   8   8   8   8
#     4  10  21  37  63  85 117 157 207 248 293 354
#     4  11  20  39  64  89 115 157 209 243 288 357
#     4  10  21  37  60  83 119 154 197 242 297 359
#     4  12  24  36  60  88 126 154 196 250 308 350
#     4  10  22  39  58  89 118 158 196 251 300 353
#     4  11  21  37  62  91 116 150 201 252 291 348
#     4  11  23  39  59  90 122 159 199 250 301 361
#     4  11  19  35  61  86 113 154 199 244 292 356
#
# _framework density 18.699963
#
# number of rings (size 3 to 8) (size 9 to 14) (size 15 to 20)
#    0.000    1.333    4.667    1.600    3.733    0.000 
#    0.000    1.333    0.000    5.600    0.000    0.000 
#    0.000    0.000    0.000    0.000    0.000    0.000 
#
# Total GULP energy -371748.584751 kJ/mol
# GULP energy per Si atom -12391.619492 kJ/mol
# Density = 1.865740 g / cm^3
# Si number density = 18.699963 Si / 1000 Ang^3
#
#
#
# Elastic Constant Matrix: (Units=GPa)
#
#
# Indices 1 2 3 4 5 6 
#
# 1 83.7739 49.1264 62.4102 0.0000 -5.6615 0.0000
# 2 49.1264 96.4673 43.2309 0.0000 -3.6684 0.0000
# 3 62.4102 43.2309 134.5458 0.0000 -4.5900 0.0000
# 4 0.0000 0.0000 0.0000 22.7459 0.0000 -5.9237
# 5 -5.6615 -3.6684 -4.5900 0.0000 25.3615 0.0000
# 6 0.0000 0.0000 0.0000 -5.9237 0.0000 37.5500
#
#
#
# Elastic Compliance Matrix: (Units=1/GPa)
#
#
# Indices 1 2 3 4 5 6 
#
# 1 0.022581 -0.007884 -0.007856 0.000000 0.002478 0.000000
# 2 -0.007884 0.014891 -0.001121 0.000000 0.000191 0.000000
# 3 -0.007856 -0.001121 0.011442 0.000000 0.000155 0.000000
# 4 0.000000 0.000000 0.000000 0.045848 0.000000 0.007233
# 5 0.002478 0.000191 0.000155 0.000000 0.040039 0.000000
# 6 0.000000 0.000000 0.000000 0.007233 0.000000 0.027772
#
#
# Mechanical properties :
#
#
# Convention : Reuss Voigt Hill
#
# Bulk Modulus (GPa) = 65.83035 69.36911 67.59973
# Shear Modulus (GPa) = 24.83125 27.79944 26.31534
#
# Velocity S-wave (km/s) = 3.64796 3.85983 3.75539
# Velocity P-wave (km/s) = 7.28171 7.55254 7.41836
#
# Compressibility (1/GPa) = 0.01519056
#
# Stress axis : x y z
#
# Youngs Moduli (GPa) = 44.28539 67.15499 87.39650
#
# Poissons Ratio (x) = 0.52947 0.68662
# Poissons Ratio (y) = 0.34916 0.09796
# Poissons Ratio (z) = 0.34792 0.07527
#
# Static dielectric constant tensor:
#      x y z
#    x 3.588150 0.000000 0.147020 
#    y 0.000000 3.395280 0.000000 
#    z 0.147020 0.000000 3.452770 
# 
# 
# High freq. dielectric constant tensor:
#      x y z
#    x 1.738940 0.000000 -0.001040 
#    y 0.000000 1.708040 0.000000 
#    z -0.001040 0.000000 1.723790 
# 
# From -- ./inp_files/273875.got.cif
#   From: 2010.06.25/outbox.cif.g09.slc.cpg/sg15_137_cif.got.tgz:273875.got - 2010.06.28 07:06:18.
