data_PCOD8141684
_publ_section_title
;
Structure prediction by ZEFSAII (Michael W. Deem and Ramdas Pophale) SiO2 
 PCOD8141684
Probable space group: C 2/C
;
_chemical_formula_sum "Si O2"
_cell_formula_units_Z 56
_cell_length_a 13.488018
_cell_length_b 25.973607
_cell_length_c 7.836790
_cell_angle_alpha 90.000000
_cell_angle_beta 72.205609
_cell_angle_gamma 90.000000
_cell_volume 2614.136322
_symmetry_space_group_name_H-M "C 2/C"
_symmetry_group_IT_number 15
_symmetry_cell_setting 'monoclinic'
loop_
_space_group_symop_operation_xyz
x,y,z
-x,y,1/2-z
-x,-y,-z
x,-y,1/2+z
1/2+x,1/2+y,z
1/2-x,1/2+y,1/2-z
1/2-x,1/2-y,-z
1/2+x,1/2-y,1/2+z
loop_
_atom_site_type_symbol
_atom_site_label
_atom_site_fract_x
_atom_site_fract_y
_atom_site_fract_z
Si Si1 0.420471 0.184428 0.086155
Si Si2 0.863418 0.645152 0.460280
Si Si3 0.047862 0.793218 0.538730
Si Si4 0.973969 0.897622 0.574598
Si Si5 0.325967 0.553310 0.628795
Si Si6 0.221381 0.944807 0.967920
Si Si7 0.266222 0.839044 0.368525
O O1 0.348051 0.178058 0.293335
O O2 0.515565 0.143760 0.049688
O O3 0.470136 0.241593 0.061323
O O4 0.362261 0.174083 0.939968
O O5 0.828839 0.586350 0.433159
O O6 0.795793 0.668759 0.652495
O O7 0.172570 0.802312 0.476297
O O8 0.000000 0.782506 0.750000
O O9 0.995476 0.842721 0.467647
O O10 0.855316 0.915311 0.622145
O O11 0.000000 0.879717 0.750000
O O12 0.052819 0.944232 0.489540
O O13 0.262081 0.502947 0.604044
O O14 0.338401 0.553795 0.823663
O O15 0.263163 0.601367 0.585963
#
# Coordination Sequence:
#
# PCOD8141684 Si02
#       7
#     8   8   8   8   8   8   8
#     4  11  23  44  67  86 135 172 223 277 317 377
#     4  10  25  42  62  99 119 178 223 268 324 376
#     4  10  22  39  66 101 127 173 216 256 332 391
#     4  10  21  37  61  93 130 165 202 257 322 394
#     4  10  22  37  62  95 119 170 201 258 333 378
#     4  11  22  40  62  88 131 156 215 262 316 403
#     4  10  22  43  68  94 132 167 216 270 322 391
#
# _framework density 21.421990999999998
#
# number of rings (size 3 to 8) (size 9 to 14) (size 15 to 20)
#    0.000    1.714    0.000    3.429    8.000    0.571 
#   15.429    0.714    3.143    0.000    0.000    0.000 
#    0.000    0.000    0.000    0.000    0.000    0.000 
#
# Total GULP energy -347032.012041 kJ/mol
# GULP energy per Si atom -12394.000430 kJ/mol
# Density = 2.137323 g / cm^3
# Si number density = 21.421991 Si / 1000 Ang^3
#
#
#
# Elastic Constant Matrix: (Units=GPa)
#
#
# Indices 1 2 3 4 5 6 
#
# 1 93.9680 51.4885 25.2033 0.0000 -5.9421 0.0000
# 2 51.4885 132.9324 38.3383 0.0000 -3.9619 0.0000
# 3 25.2033 38.3383 117.7978 0.0000 -8.9586 0.0000
# 4 0.0000 0.0000 0.0000 27.0159 0.0000 -4.0031
# 5 -5.9421 -3.9619 -8.9586 0.0000 29.9750 0.0000
# 6 0.0000 0.0000 0.0000 -4.0031 0.0000 1.4452
#
#
#
# Elastic Compliance Matrix: (Units=1/GPa)
#
#
# Indices 1 2 3 4 5 6 
#
# 1 0.013781 -0.004937 -0.001211 0.000000 0.001717 0.000000
# 2 -0.004937 0.010073 -0.002246 0.000000 -0.000319 0.000000
# 3 -0.001211 -0.002246 0.009658 0.000000 0.002350 0.000000
# 4 0.000000 0.000000 0.000000 0.062785 0.000000 0.173914
# 5 0.001717 -0.000319 0.002350 0.000000 0.034362 0.000000
# 6 0.000000 0.000000 0.000000 0.173914 0.000000 1.173688
#
#
# Mechanical properties :
#
#
# Convention : Reuss Voigt Hill
#
# Bulk Modulus (GPa) = 59.79830 63.86204 61.83017
# Shear Modulus (GPa) = 3.76872 26.99843 15.38357
#
# Velocity S-wave (km/s) = 1.32782 3.55394 2.68268
# Velocity P-wave (km/s) = 5.50689 6.83497 6.20656
#
# Compressibility (1/GPa) = 0.01672288
#
# Stress axis : x y z
#
# Youngs Moduli (GPa) = 72.56598 99.27244 103.54130
#
# Poissons Ratio (x) = 0.49013 0.12538
# Poissons Ratio (y) = 0.35827 0.23259
# Poissons Ratio (z) = 0.08787 0.22300
#
# Static dielectric constant tensor:
#      x y z
#    x 3.606160 0.000000 -0.060100 
#    y 0.000000 4.218710 0.000000 
#    z -0.060100 0.000000 4.075030 
# 
# 
# High freq. dielectric constant tensor:
#      x y z
#    x 1.819210 0.000000 0.000670 
#    y 0.000000 1.841920 0.000000 
#    z 0.000670 0.000000 1.851630 
# 
# From -- ./inp_files/42107.got.cif
#   From: 2010.06.25/outbox.cif.g09.slc.cpg/sg15_22_cif.got.tgz:42107.got - 2010.06.28 07:06:18.
