data_PCOD8141222
_publ_section_title
;
Structure prediction by ZEFSAII (Michael W. Deem and Ramdas Pophale) SiO2 
 PCOD8141222
Probable space group: C 2/C
;
_chemical_formula_sum "Si O2"
_cell_formula_units_Z 48
_cell_length_a 21.336267
_cell_length_b 17.792788
_cell_length_c 9.169251
_cell_angle_alpha 90.000000
_cell_angle_beta 133.294761
_cell_angle_gamma 90.000000
_cell_volume 2533.550213
_symmetry_space_group_name_H-M "C 2/C"
_symmetry_group_IT_number 15
_symmetry_cell_setting 'monoclinic'
loop_
_space_group_symop_operation_xyz
x,y,z
-x,y,1/2-z
-x,-y,-z
x,-y,1/2+z
1/2+x,1/2+y,z
1/2-x,1/2+y,1/2-z
1/2-x,1/2-y,-z
1/2+x,1/2-y,1/2+z
loop_
_atom_site_type_symbol
_atom_site_label
_atom_site_fract_x
_atom_site_fract_y
_atom_site_fract_z
Si Si1 0.231820 0.096732 0.287224
Si Si2 0.908685 0.852796 0.365840
Si Si3 0.670165 0.760497 0.544566
Si Si4 0.325765 0.518525 0.579452
Si Si5 0.640103 0.259606 0.681819
Si Si6 0.500000 0.444530 0.750000
Si Si7 0.500000 0.724019 0.750000
O O1 0.317908 0.149132 0.418606
O O2 0.148554 0.152006 0.152177
O O3 0.226236 0.048755 0.426676
O O4 0.232945 0.043145 0.149415
O O5 0.872162 0.777588 0.383127
O O6 0.834517 0.913135 0.208969
O O7 0.978277 0.892027 0.579138
O O8 0.950699 0.828907 0.282730
O O9 0.611979 0.746516 0.306970
O O10 0.765249 0.720820 0.679523
O O11 0.419710 0.495378 0.669986
O O12 0.568274 0.225837 0.455110
#
# Coordination Sequence:
#
# PCOD8141222 Si02
#       7
#     8   8   8   8   8   4   4
#     4  10  21  36  54  76 116 157 197 231 279 340
#     4  12  22  35  55  78 122 160 199 227 285 346
#     4   9  21  40  56  73 114 173 196 240 279 338
#     4  12  22  32  51  83 117 157 191 226 283 356
#     4   9  20  36  56  74 115 155 196 239 280 340
#     4  12  25  34  52  84 126 169 180 224 291 364
#     4  12  21  32  54  90 110 147 198 242 279 346
#
# _framework density 18.945747000000001
#
# number of rings (size 3 to 8) (size 9 to 14) (size 15 to 20)
#    1.000    0.333    3.333    4.000    0.000    2.667 
#    0.000    0.000    0.000    0.000    0.000    0.000 
#    0.000   50.667    0.000    0.000    0.000    0.000 
#
# Total GULP energy -297366.783029 kJ/mol
# GULP energy per Si atom -12390.282626 kJ/mol
# Density = 1.890263 g / cm^3
# Si number density = 18.945747 Si / 1000 Ang^3
#
#
#
# Elastic Constant Matrix: (Units=GPa)
#
#
# Indices 1 2 3 4 5 6 
#
# 1 65.6858 44.6679 34.6786 0.0000 -24.0963 0.0000
# 2 44.6679 78.2381 39.9341 0.0000 -17.3314 0.0000
# 3 34.6786 39.9341 143.9287 0.0000 -14.0056 0.0000
# 4 0.0000 0.0000 0.0000 27.9978 0.0000 1.3321
# 5 -24.0963 -17.3314 -14.0056 0.0000 27.1353 0.0000
# 6 0.0000 0.0000 0.0000 1.3321 0.0000 3.7520
#
#
#
# Elastic Compliance Matrix: (Units=1/GPa)
#
#
# Indices 1 2 3 4 5 6 
#
# 1 0.032359 -0.013039 -0.002309 0.000000 0.019215 0.000000
# 2 -0.013039 0.021881 -0.002839 0.000000 0.000931 0.000000
# 3 -0.002309 -0.002839 0.008334 0.000000 0.000438 0.000000
# 4 0.000000 0.000000 0.000000 0.036331 0.000000 -0.012898
# 5 0.019215 0.000931 0.000438 0.000000 0.054736 0.000000
# 6 0.000000 0.000000 0.000000 -0.012898 0.000000 0.271101
#
#
# Mechanical properties :
#
#
# Convention : Reuss Voigt Hill
#
# Bulk Modulus (GPa) = 38.16727 58.49041 48.32884
# Shear Modulus (GPa) = 10.64168 23.01516 16.82842
#
# Velocity S-wave (km/s) = 2.37258 3.48917 2.98357
# Velocity P-wave (km/s) = 5.26258 6.86819 6.11828
#
# Compressibility (1/GPa) = 0.02620046
#
# Stress axis : x y z
#
# Youngs Moduli (GPa) = 30.90337 45.70129 119.98335
#
# Poissons Ratio (x) = 0.59592 0.27704
# Poissons Ratio (y) = 0.40296 0.34060
# Poissons Ratio (z) = 0.07136 0.12973
#
# Static dielectric constant tensor:
#      x y z
#    x 3.189900 0.000000 -0.196750 
#    y 0.000000 3.246740 0.000000 
#    z -0.196750 0.000000 3.611240 
# 
# 
# High freq. dielectric constant tensor:
#      x y z
#    x 1.707250 0.000000 -0.030450 
#    y 0.000000 1.705950 0.000000 
#    z -0.030450 0.000000 1.746720 
# 
# From -- ./inp_files/66780.got.cif
#   From: 2010.06.25/outbox.cif.g09.slc.cpg/sg15_34_cif.got.tgz:66780.got - 2010.06.28 07:06:18.
