data_PCOD8141761
_publ_section_title
;
Structure prediction by ZEFSAII (Michael W. Deem and Ramdas Pophale) SiO2 
 PCOD8141761
Probable space group: C 2/C
;
_chemical_formula_sum "Si O2"
_cell_formula_units_Z 56
_cell_length_a 9.312818
_cell_length_b 19.441709
_cell_length_c 17.028317
_cell_angle_alpha 90.000000
_cell_angle_beta 113.104065
_cell_angle_gamma 90.000000
_cell_volume 2835.813672
_symmetry_space_group_name_H-M "C 2/C"
_symmetry_group_IT_number 15
_symmetry_cell_setting 'monoclinic'
loop_
_space_group_symop_operation_xyz
x,y,z
-x,y,1/2-z
-x,-y,-z
x,-y,1/2+z
1/2+x,1/2+y,z
1/2-x,1/2+y,1/2-z
1/2-x,1/2-y,-z
1/2+x,1/2-y,1/2+z
loop_
_atom_site_type_symbol
_atom_site_label
_atom_site_fract_x
_atom_site_fract_y
_atom_site_fract_z
Si Si1 0.176292 0.421115 0.503748
Si Si2 0.679142 0.932809 0.065169
Si Si3 0.704900 0.675129 0.021494
Si Si4 0.649334 0.653263 0.593143
Si Si5 0.288529 0.699192 0.132105
Si Si6 0.675224 0.348112 0.274910
Si Si7 0.150043 0.788418 0.678765
O O1 0.240543 0.492524 0.552335
O O2 0.274493 0.401836 0.448287
O O3 0.194084 0.362408 0.572978
O O4 0.997270 0.432882 0.440772
O O5 0.794163 0.911534 0.160563
O O6 0.680604 0.880996 0.991352
O O7 0.717919 0.669864 0.118968
O O8 0.750000 0.750000 0.000000
O O9 0.534852 0.654233 0.955384
O O10 0.710567 0.729770 0.589267
O O11 0.696885 0.628265 0.690066
O O12 0.277629 0.686165 0.223475
O O13 0.464691 0.702510 0.138896
O O14 0.500000 0.318775 0.250000
O O15 0.804267 0.290968 0.323941
#
# Coordination Sequence:
#
# PCOD8141761 Si02
#       7
#     8   8   8   8   8   8   8
#     4  11  24  44  62  90 126 168 211 253 315 383
#     4  11  25  42  62  88 130 168 206 258 316 373
#     4  12  21  38  64  94 120 163 205 261 310 366
#     4  11  22  37  69  91 121 164 213 256 309 380
#     4  10  21  39  63  96 120 160 203 265 311 362
#     4  11  21  41  60  96 126 161 203 263 318 365
#     4  10  21  37  63  95 124 152 209 257 314 365
#
# _framework density 19.747419000000001
#
# number of rings (size 3 to 8) (size 9 to 14) (size 15 to 20)
#    0.000    1.143    4.286    2.143    0.000    3.429 
#    5.143    0.000    0.000    0.000    0.000    0.000 
#    0.000    0.000    0.000    0.000    0.000    0.000 
#
# Total GULP energy -347276.375508 kJ/mol
# GULP energy per Si atom -12402.727697 kJ/mol
# Density = 1.970247 g / cm^3
# Si number density = 19.747419 Si / 1000 Ang^3
#
#
#
# Elastic Constant Matrix: (Units=GPa)
#
#
# Indices 1 2 3 4 5 6 
#
# 1 78.2090 36.2014 29.4544 0.0000 -11.2475 0.0000
# 2 36.2014 114.0111 48.7896 0.0000 -15.0218 0.0000
# 3 29.4544 48.7896 108.9999 0.0000 -21.7659 0.0000
# 4 0.0000 0.0000 0.0000 25.7095 0.0000 0.5453
# 5 -11.2475 -15.0218 -21.7659 0.0000 35.2877 0.0000
# 6 0.0000 0.0000 0.0000 0.5453 0.0000 29.1615
#
#
#
# Elastic Compliance Matrix: (Units=1/GPa)
#
#
# Indices 1 2 3 4 5 6 
#
# 1 0.015633 -0.003786 -0.002118 0.000000 0.002065 0.000000
# 2 -0.003786 0.011873 -0.004018 0.000000 0.001369 0.000000
# 3 -0.002118 -0.004018 0.012624 0.000000 0.005401 0.000000
# 4 0.000000 0.000000 0.000000 0.038912 0.000000 -0.000728
# 5 0.002065 0.001369 0.005401 0.000000 0.032911 0.000000
# 6 0.000000 0.000000 0.000000 -0.000728 0.000000 0.034305
#
#
# Mechanical properties :
#
#
# Convention : Reuss Voigt Hill
#
# Bulk Modulus (GPa) = 49.29239 58.90121 54.09680
# Shear Modulus (GPa) = 28.92471 30.48337 29.70404
#
# Velocity S-wave (km/s) = 3.83134 3.93321 3.88261
# Velocity P-wave (km/s) = 6.67741 7.10767 6.89589
#
# Compressibility (1/GPa) = 0.02028711
#
# Stress axis : x y z
#
# Youngs Moduli (GPa) = 63.96715 84.22469 79.21672
#
# Poissons Ratio (x) = 0.31884 0.16775
# Poissons Ratio (y) = 0.24215 0.31830
# Poissons Ratio (z) = 0.13545 0.33842
#
# Static dielectric constant tensor:
#      x y z
#    x 3.713720 0.000000 -0.164780 
#    y 0.000000 3.437040 0.000000 
#    z -0.164780 0.000000 3.783770 
# 
# 
# High freq. dielectric constant tensor:
#      x y z
#    x 1.782220 0.000000 -0.008560 
#    y 0.000000 1.745300 0.000000 
#    z -0.008560 0.000000 1.782760 
# 
# From -- ./inp_files/191031.got.cif
#   From: 2010.06.25/outbox.cif.g09.slc.cpg/sg15_96_cif.got.tgz:191031.got - 2010.06.28 07:06:18.
