data_PCOD8141722
_publ_section_title
;
Structure prediction by ZEFSAII (Michael W. Deem and Ramdas Pophale) SiO2 
 PCOD8141722
Probable space group: C 2/C
;
_chemical_formula_sum "Si O2"
_cell_formula_units_Z 60
_cell_length_a 30.868357
_cell_length_b 8.145394
_cell_length_c 26.527020
_cell_angle_alpha 90.000000
_cell_angle_beta 154.904310
_cell_angle_gamma 90.000000
_cell_volume 2828.879188
_symmetry_space_group_name_H-M "C 2/C"
_symmetry_group_IT_number 15
_symmetry_cell_setting 'monoclinic'
loop_
_space_group_symop_operation_xyz
x,y,z
-x,y,1/2-z
-x,-y,-z
x,-y,1/2+z
1/2+x,1/2+y,z
1/2-x,1/2+y,1/2-z
1/2-x,1/2-y,-z
1/2+x,1/2-y,1/2+z
loop_
_atom_site_type_symbol
_atom_site_label
_atom_site_fract_x
_atom_site_fract_y
_atom_site_fract_z
Si Si1 0.000000 0.688711 0.250000
Si Si2 0.724952 0.024022 0.627939
Si Si3 0.439920 0.510672 0.036399
Si Si4 0.912103 0.244003 0.846131
Si Si5 0.887525 0.768802 0.769848
Si Si6 0.376071 0.057683 0.208064
Si Si7 0.066257 0.329897 0.521524
Si Si8 0.167203 0.202365 0.995797
O O1 0.955009 0.573890 0.245939
O O2 0.083870 0.805613 0.364015
O O3 0.782482 0.854954 0.675265
O O4 0.629669 0.979225 0.563422
O O5 0.803548 0.150647 0.736867
O O6 0.678884 0.112451 0.529720
O O7 0.492871 0.380915 0.054659
O O8 0.532795 0.593098 0.167253
O O9 0.385605 0.652328 0.945257
O O10 0.358031 0.424164 0.985668
O O11 0.918159 0.354154 0.802578
O O12 0.926860 0.355234 0.911202
O O13 0.859868 0.636150 0.698457
O O14 0.946996 0.673055 0.878253
O O15 0.271424 0.141947 0.080457
#
# Coordination Sequence:
#
# PCOD8141722 Si02
#       8
#     4   8   8   8   8   8   8   8
#     4  12  24  44  70  90 120 156 218 264 318 374
#     4  10  22  39  61  94 129 166 207 256 303 378
#     4   9  20  38  63  89 127 169 200 252 304 366
#     4  10  21  39  61  91 131 167 213 253 303 364
#     4   9  22  41  64  89 136 163 203 252 317 363
#     4  11  23  43  64  96 120 167 207 267 311 371
#     4  10  21  37  62  93 131 175 202 249 303 366
#     4  11  23  43  71  90 125 161 215 255 317 376
#
# _framework density 21.209813
#
# number of rings (size 3 to 8) (size 9 to 14) (size 15 to 20)
#    0.800    1.067    1.333    2.400    0.000    3.733 
#    0.000    1.333    0.000    0.000    0.000    0.000 
#    0.000    0.000    0.000    0.000    0.000    0.000 
#
# Total GULP energy -371857.245782 kJ/mol
# GULP energy per Si atom -12395.241526 kJ/mol
# Density = 2.116154 g / cm^3
# Si number density = 21.209813 Si / 1000 Ang^3
#
#
#
# Elastic Constant Matrix: (Units=GPa)
#
#
# Indices 1 2 3 4 5 6 
#
# 1 106.5568 44.8336 44.8346 0.0000 -3.8746 0.0000
# 2 44.8336 70.1985 17.4933 0.0000 -2.1809 0.0000
# 3 44.8346 17.4933 88.3589 0.0000 -8.2289 0.0000
# 4 0.0000 0.0000 0.0000 27.6059 0.0000 7.7854
# 5 -3.8746 -2.1809 -8.2289 0.0000 24.5393 0.0000
# 6 0.0000 0.0000 0.0000 7.7854 0.0000 16.2992
#
#
#
# Elastic Compliance Matrix: (Units=1/GPa)
#
#
# Indices 1 2 3 4 5 6 
#
# 1 0.015524 -0.008367 -0.006257 0.000000 -0.000391 0.000000
# 2 -0.008367 0.019498 0.000438 0.000000 0.000558 0.000000
# 3 -0.006257 0.000438 0.014779 0.000000 0.004007 0.000000
# 4 0.000000 0.000000 0.000000 0.041863 0.000000 -0.019996
# 5 -0.000391 0.000558 0.004007 0.000000 0.042082 0.000000
# 6 0.000000 0.000000 0.000000 -0.019996 0.000000 0.070904
#
#
# Mechanical properties :
#
#
# Convention : Reuss Voigt Hill
#
# Bulk Modulus (GPa) = 46.67021 53.27081 49.97051
# Shear Modulus (GPa) = 20.81900 24.21907 22.51903
#
# Velocity S-wave (km/s) = 3.13641 3.38284 3.26195
# Velocity P-wave (km/s) = 5.93025 6.35836 6.14803
#
# Compressibility (1/GPa) = 0.02142695
#
# Stress axis : x y z
#
# Youngs Moduli (GPa) = 64.41807 51.28824 67.66482
#
# Poissons Ratio (x) = 0.42915 0.42336
# Poissons Ratio (y) = 0.53901 -0.02961
# Poissons Ratio (z) = 0.40304 -0.02244
#
# Static dielectric constant tensor:
#      x y z
#    x 3.484850 0.000000 0.156780 
#    y 0.000000 3.844430 0.000000 
#    z 0.156780 0.000000 3.775730 
# 
# 
# High freq. dielectric constant tensor:
#      x y z
#    x 1.806950 0.000000 0.019390 
#    y 0.000000 1.835980 0.000000 
#    z 0.019390 0.000000 1.827810 
# 
# From -- ./inp_files/283411.got.cif
#   From: 2010.06.25/outbox.cif.g09.slc.cpg/sg15_142_cif.got.tgz:283411.got - 2010.06.28 07:06:18.
