data_PCOD8141812
_publ_section_title
;
Structure prediction by ZEFSAII (Michael W. Deem and Ramdas Pophale) SiO2 
 PCOD8141812
Probable space group: C 2/C
;
_chemical_formula_sum "Si O2"
_cell_formula_units_Z 52
_cell_length_a 10.996566
_cell_length_b 11.738246
_cell_length_c 23.956369
_cell_angle_alpha 90.000000
_cell_angle_beta 131.631358
_cell_angle_gamma 90.000000
_cell_volume 2311.290269
_symmetry_space_group_name_H-M "C 2/C"
_symmetry_group_IT_number 15
_symmetry_cell_setting 'monoclinic'
loop_
_space_group_symop_operation_xyz
x,y,z
-x,y,1/2-z
-x,-y,-z
x,-y,1/2+z
1/2+x,1/2+y,z
1/2-x,1/2+y,1/2-z
1/2-x,1/2-y,-z
1/2+x,1/2-y,1/2+z
loop_
_atom_site_type_symbol
_atom_site_label
_atom_site_fract_x
_atom_site_fract_y
_atom_site_fract_z
Si Si1 0.000000 0.905998 0.750000
Si Si2 0.262474 0.584531 0.439439
Si Si3 0.920655 0.599517 0.553475
Si Si4 0.090729 0.892251 0.089039
Si Si5 0.701303 0.713596 0.404662
Si Si6 0.107524 0.895893 0.218744
Si Si7 0.764566 0.815835 0.136018
O O1 0.901653 0.826777 0.678482
O O2 0.866887 0.980002 0.744870
O O3 0.107726 0.520140 0.421488
O O4 0.343626 0.507667 0.417114
O O5 0.394141 0.609813 0.528275
O O6 0.218596 0.698817 0.393086
O O7 0.775174 0.610238 0.463867
O O8 0.914553 0.707095 0.593213
O O9 0.097018 0.611709 0.577489
O O10 0.144410 0.784940 0.069220
O O11 0.169538 0.885907 0.174692
O O12 0.197800 0.801266 0.285343
O O13 0.911520 0.890100 0.156999
#
# Coordination Sequence:
#
# PCOD8141812 Si02
#       7
#     4   8   8   8   8   8   8
#     4  10  22  40  58  90 122 172 210 264 326 398
#     4  10  21  40  69  92 124 172 218 269 333 382
#     4  10  21  40  64  98 124 168 220 270 320 405
#     4  10  21  40  64  95 126 166 214 272 324 396
#     4  10  21  37  65  97 125 160 222 265 328 382
#     4  10  25  44  57  89 133 169 214 260 340 394
#     4  10  22  45  60  90 132 169 213 272 320 396
#
# _framework density 22.498255
#
# number of rings (size 3 to 8) (size 9 to 14) (size 15 to 20)
#    0.000    2.154    1.538    0.923    6.462    0.615 
#   11.077    3.846    0.000    0.000    0.000    0.000 
#    0.000    0.000    0.000    0.000    0.000    0.000 
#
# Total GULP energy -322168.624895 kJ/mol
# GULP energy per Si atom -12391.100957 kJ/mol
# Density = 2.244705 g / cm^3
# Si number density = 22.498255 Si / 1000 Ang^3
#
#
#
# Elastic Constant Matrix: (Units=GPa)
#
#
# Indices 1 2 3 4 5 6 
#
# 1 46.3849 9.6156 12.3648 0.0000 8.3964 0.0000
# 2 9.6156 63.7209 33.2641 0.0000 7.2259 0.0000
# 3 12.3648 33.2641 126.3259 0.0000 -12.9924 0.0000
# 4 0.0000 0.0000 0.0000 33.6179 0.0000 -14.0939
# 5 8.3964 7.2259 -12.9924 0.0000 39.6872 0.0000
# 6 0.0000 0.0000 0.0000 -14.0939 0.0000 25.3150
#
#
#
# Elastic Compliance Matrix: (Units=1/GPa)
#
#
# Indices 1 2 3 4 5 6 
#
# 1 0.023542 -0.001664 -0.002429 0.000000 -0.005473 0.000000
# 2 -0.001664 0.019346 -0.005441 0.000000 -0.004951 0.000000
# 3 -0.002429 -0.005441 0.010081 0.000000 0.004805 0.000000
# 4 0.000000 0.000000 0.000000 0.038803 0.000000 0.021603
# 5 -0.005473 -0.004951 0.004805 0.000000 0.028829 0.000000
# 6 0.000000 0.000000 0.000000 0.021603 0.000000 0.051530
#
#
# Mechanical properties :
#
#
# Convention : Reuss Voigt Hill
#
# Bulk Modulus (GPa) = 29.49717 38.54675 34.02196
# Shear Modulus (GPa) = 24.69159 31.80317 28.24738
#
# Velocity S-wave (km/s) = 3.31643 3.76384 3.54720
# Velocity P-wave (km/s) = 5.27298 6.00492 5.65081
#
# Compressibility (1/GPa) = 0.03390155
#
# Stress axis : x y z
#
# Youngs Moduli (GPa) = 42.47753 51.68981 99.20099
#
# Poissons Ratio (x) = 0.08600 0.24096
# Poissons Ratio (y) = 0.07068 0.53971
# Poissons Ratio (z) = 0.10318 0.28122
#
# Static dielectric constant tensor:
#      x y z
#    x 3.950040 0.000000 -0.136050 
#    y 0.000000 4.003840 0.000000 
#    z -0.136050 0.000000 4.212950 
# 
# 
# High freq. dielectric constant tensor:
#      x y z
#    x 1.874820 0.000000 -0.013260 
#    y 0.000000 1.875310 0.000000 
#    z -0.013260 0.000000 1.895680 
# 
# From -- ./inp_files/269315.got.cif
#   From: 2010.06.25/outbox.cif.g09.slc.cpg/sg15_135_cif.got.tgz:269315.got - 2010.06.28 07:06:18.
