data_PCOD8141478
_publ_section_title
;
Structure prediction by ZEFSAII (Michael W. Deem and Ramdas Pophale) SiO2 
 PCOD8141478
Probable space group: C 2/C
;
_chemical_formula_sum "Si O2"
_cell_formula_units_Z 56
_cell_length_a 14.491328
_cell_length_b 23.604555
_cell_length_c 9.646009
_cell_angle_alpha 90.000000
_cell_angle_beta 60.499224
_cell_angle_gamma 90.000000
_cell_volume 2871.739981
_symmetry_space_group_name_H-M "C 2/C"
_symmetry_group_IT_number 15
_symmetry_cell_setting 'monoclinic'
loop_
_space_group_symop_operation_xyz
x,y,z
-x,y,1/2-z
-x,-y,-z
x,-y,1/2+z
1/2+x,1/2+y,z
1/2-x,1/2+y,1/2-z
1/2-x,1/2-y,-z
1/2+x,1/2-y,1/2+z
loop_
_atom_site_type_symbol
_atom_site_label
_atom_site_fract_x
_atom_site_fract_y
_atom_site_fract_z
Si Si1 0.441176 0.957102 0.646273
Si Si2 0.385078 0.217419 0.292000
Si Si3 0.156118 0.358602 0.223400
Si Si4 0.924293 0.340920 0.500568
Si Si5 0.375752 0.457227 0.322642
Si Si6 0.286684 0.665459 0.889448
Si Si7 0.255838 0.478521 0.142666
O O1 0.500000 0.955853 0.750000
O O2 0.433746 0.896643 0.584149
O O3 0.500000 0.000000 0.500000
O O4 0.317872 0.970452 0.756194
O O5 0.500000 0.196995 0.250000
O O6 0.380734 0.209615 0.129354
O O7 0.368985 0.283125 0.341817
O O8 0.305674 0.175694 0.431097
O O9 0.243907 0.333729 0.262611
O O10 0.173013 0.426179 0.199372
O O11 0.043382 0.334832 0.356760
O O12 0.163042 0.339772 0.057853
O O13 0.500000 0.465564 0.250000
O O14 0.342483 0.393357 0.389336
O O15 0.349872 0.467358 0.181343
O O16 0.311906 0.504570 0.457195
#
# Coordination Sequence:
#
# PCOD8141478 Si02
#       7
#     8   8   8   8   8   8   8
#     4  12  22  33  55  90 129 158 193 243 308 369
#     4  11  21  38  62  87 114 153 202 251 304 355
#     4  10  21  37  54  87 120 151 192 240 301 358
#     4  11  21  34  57  84 121 159 189 241 302 364
#     4  11  23  41  59  83 116 160 202 248 294 349
#     4  10  23  39  60  86 115 152 204 253 294 355
#     4  11  22  36  58  85 119 158 197 238 295 363
#
# _framework density 19.500371999999999
#
# number of rings (size 3 to 8) (size 9 to 14) (size 15 to 20)
#    0.000    1.143    2.857    4.714    2.000    0.571 
#    0.000    0.000    0.000    0.000    3.714    0.000 
#    0.000    0.000    0.000    0.000    0.000    0.000 
#
# Total GULP energy -347012.763789 kJ/mol
# GULP energy per Si atom -12393.312992 kJ/mol
# Density = 1.945599 g / cm^3
# Si number density = 19.500372 Si / 1000 Ang^3
#
#
#
# Elastic Constant Matrix: (Units=GPa)
#
#
# Indices 1 2 3 4 5 6 
#
# 1 78.0738 -3.3948 33.7129 0.0000 0.3819 0.0000
# 2 -3.3948 47.9110 25.7749 0.0000 -5.4168 0.0000
# 3 33.7129 25.7749 110.4310 0.0000 9.6359 0.0000
# 4 0.0000 0.0000 0.0000 21.9309 0.0000 8.9425
# 5 0.3819 -5.4168 9.6359 0.0000 35.9007 0.0000
# 6 0.0000 0.0000 0.0000 8.9425 0.0000 11.4611
#
#
#
# Elastic Compliance Matrix: (Units=1/GPa)
#
#
# Indices 1 2 3 4 5 6 
#
# 1 0.015596 0.004585 -0.006018 0.000000 0.002141 0.000000
# 2 0.004585 0.026212 -0.008047 0.000000 0.006066 0.000000
# 3 -0.006018 -0.008047 0.013180 0.000000 -0.004688 0.000000
# 4 0.000000 0.000000 0.000000 0.066874 0.000000 -0.052179
# 5 0.002141 0.006066 -0.004688 0.000000 0.030005 0.000000
# 6 0.000000 0.000000 0.000000 -0.052179 0.000000 0.127964
#
#
# Mechanical properties :
#
#
# Convention : Reuss Voigt Hill
#
# Bulk Modulus (GPa) = 27.75689 38.73352 33.24521
# Shear Modulus (GPa) = 16.08749 25.88005 20.98377
#
# Velocity S-wave (km/s) = 2.87537 3.64697 3.28391
# Velocity P-wave (km/s) = 5.02878 6.13514 5.60930
#
# Compressibility (1/GPa) = 0.03602709
#
# Stress axis : x y z
#
# Youngs Moduli (GPa) = 64.11922 38.15090 75.87336
#
# Poissons Ratio (x) = -0.17491 0.45662
# Poissons Ratio (y) = -0.29397 0.61054
# Poissons Ratio (z) = 0.38588 0.30699
#
# Static dielectric constant tensor:
#      x y z
#    x 3.442930 0.000000 0.459370 
#    y 0.000000 1.954560 0.000000 
#    z 0.459370 0.000000 2.944780 
# 
# 
# High freq. dielectric constant tensor:
#      x y z
#    x 1.758730 0.000000 0.010810 
#    y 0.000000 1.750250 0.000000 
#    z 0.010810 0.000000 1.768260 
# 
# From -- ./inp_files/42510.got.cif
#   From: 2010.06.25/outbox.cif.g09.slc.cpg/sg15_22_cif.got.tgz:42510.got - 2010.06.28 07:06:18.
