data_PCOD8141730
_publ_section_title
;
Structure prediction by ZEFSAII (Michael W. Deem and Ramdas Pophale) SiO2 
 PCOD8141730
Probable space group: C 2/C
;
_chemical_formula_sum "Si O2"
_cell_formula_units_Z 48
_cell_length_a 14.334284
_cell_length_b 19.377278
_cell_length_c 11.736838
_cell_angle_alpha 90.000000
_cell_angle_beta 140.632947
_cell_angle_gamma 90.000000
_cell_volume 2067.783436
_symmetry_space_group_name_H-M "C 2/C"
_symmetry_group_IT_number 15
_symmetry_cell_setting 'monoclinic'
loop_
_space_group_symop_operation_xyz
x,y,z
-x,y,1/2-z
-x,-y,-z
x,-y,1/2+z
1/2+x,1/2+y,z
1/2-x,1/2+y,1/2-z
1/2-x,1/2-y,-z
1/2+x,1/2-y,1/2+z
loop_
_atom_site_type_symbol
_atom_site_label
_atom_site_fract_x
_atom_site_fract_y
_atom_site_fract_z
Si Si1 0.760188 0.740552 0.824675
Si Si2 0.394729 0.313742 0.749023
Si Si3 0.340478 0.151534 0.104756
Si Si4 0.625056 0.388837 0.094409
Si Si5 0.652025 0.469896 0.339012
Si Si6 0.673641 0.096330 0.921112
O O1 0.865742 0.755976 0.816811
O O2 0.685694 0.811661 0.797886
O O3 0.639814 0.684803 0.671907
O O4 0.851718 0.709349 0.016227
O O5 0.500000 0.281655 0.750000
O O6 0.239593 0.337047 0.548467
O O7 0.476696 0.381767 0.879069
O O8 0.500000 0.114233 0.250000
O O9 0.210665 0.097180 0.962052
O O10 0.616027 0.451302 0.174602
O O11 0.765636 0.405975 0.149817
O O12 0.500000 0.496142 0.250000
O O13 0.776458 0.528211 0.463316
O O14 0.500000 0.101639 0.750000
#
# Coordination Sequence:
#
# PCOD8141730 Si02
#       6
#     8   8   8   8   8   8
#     4  10  21  37  63  93 126 160 201 248 299 357
#     4  10  22  40  63  89 121 162 202 244 298 361
#     4  10  21  37  62  95 126 159 200 250 303 355
#     4  10  23  41  62  91 122 158 202 246 297 358
#     4  11  23  41  65  89 120 159 201 250 301 360
#     4  11  26  43  61  89 121 158 204 251 303 358
#
# _framework density 23.213262
#
# number of rings (size 3 to 8) (size 9 to 14) (size 15 to 20)
#    0.000    1.667    0.000    4.000    0.000   16.667 
#    0.000    0.000    0.000    0.000    0.000    0.000 
#    0.000    0.000    0.000    0.000    0.000    0.000 
#
# Total GULP energy -297653.492619 kJ/mol
# GULP energy per Si atom -12402.228859 kJ/mol
# Density = 2.316043 g / cm^3
# Si number density = 23.213262 Si / 1000 Ang^3
#
#
#
# Elastic Constant Matrix: (Units=GPa)
#
#
# Indices 1 2 3 4 5 6 
#
# 1 113.6864 15.5647 52.4925 0.0000 -2.7955 0.0000
# 2 15.5647 50.1130 7.9738 0.0000 -0.0527 0.0000
# 3 52.4925 7.9738 109.0719 0.0000 18.5666 0.0000
# 4 0.0000 0.0000 0.0000 21.6673 0.0000 -0.0181
# 5 -2.7955 -0.0527 18.5666 0.0000 48.5210 0.0000
# 6 0.0000 0.0000 0.0000 -0.0181 0.0000 31.3000
#
#
#
# Elastic Compliance Matrix: (Units=1/GPa)
#
#
# Indices 1 2 3 4 5 6 
#
# 1 0.012080 -0.002774 -0.006128 0.000000 0.003038 0.000000
# 2 -0.002774 0.020844 -0.000177 0.000000 -0.000069 0.000000
# 3 -0.006128 -0.000177 0.013040 0.000000 -0.005343 0.000000
# 4 0.000000 0.000000 0.000000 0.046153 0.000000 0.000027
# 5 0.003038 -0.000069 -0.005343 0.000000 0.022829 0.000000
# 6 0.000000 0.000000 0.000000 0.000027 0.000000 0.031949
#
#
# Mechanical properties :
#
#
# Convention : Reuss Voigt Hill
#
# Bulk Modulus (GPa) = 35.96259 47.21480 41.58870
# Shear Modulus (GPa) = 28.68258 33.42035 31.05147
#
# Velocity S-wave (km/s) = 3.51894 3.79847 3.66137
# Velocity P-wave (km/s) = 5.66008 6.29456 5.98573
#
# Compressibility (1/GPa) = 0.02780667
#
# Stress axis : x y z
#
# Youngs Moduli (GPa) = 82.78082 47.97430 76.68737
#
# Poissons Ratio (x) = 0.13307 0.46995
# Poissons Ratio (y) = 0.22961 0.01359
# Poissons Ratio (z) = 0.50729 0.00850
#
# Static dielectric constant tensor:
#      x y z
#    x 4.065890 0.000000 -0.234620 
#    y 0.000000 3.923660 0.000000 
#    z -0.234620 0.000000 4.257570 
# 
# 
# High freq. dielectric constant tensor:
#      x y z
#    x 1.913530 0.000000 -0.010090 
#    y 0.000000 1.906170 0.000000 
#    z -0.010090 0.000000 1.927160 
# 
# From -- ./inp_files/100082.got.cif
#   From: 2010.06.25/outbox.cif.g09.slc.cpg/sg15_51_cif.got.tgz:100082.got - 2010.06.28 07:06:18.
