data_PCOD8141190
_publ_section_title
;
Structure prediction by ZEFSAII (Michael W. Deem and Ramdas Pophale) SiO2 
 PCOD8141190
Probable space group: C 2/C
;
_chemical_formula_sum "Si O2"
_cell_formula_units_Z 48
_cell_length_a 11.149182
_cell_length_b 17.707526
_cell_length_c 12.151654
_cell_angle_alpha 90.000000
_cell_angle_beta 71.444977
_cell_angle_gamma 90.000000
_cell_volume 2274.328013
_symmetry_space_group_name_H-M "C 2/C"
_symmetry_group_IT_number 15
_symmetry_cell_setting 'monoclinic'
loop_
_space_group_symop_operation_xyz
x,y,z
-x,y,1/2-z
-x,-y,-z
x,-y,1/2+z
1/2+x,1/2+y,z
1/2-x,1/2+y,1/2-z
1/2-x,1/2-y,-z
1/2+x,1/2-y,1/2+z
loop_
_atom_site_type_symbol
_atom_site_label
_atom_site_fract_x
_atom_site_fract_y
_atom_site_fract_z
Si Si1 0.304120 0.684729 0.809848
Si Si2 0.550369 0.437797 0.621954
Si Si3 0.496361 0.389377 0.097230
Si Si4 0.829181 0.564716 0.103762
Si Si5 0.645422 0.145393 0.187482
Si Si6 0.907894 0.599703 0.534516
O O1 0.383158 0.655442 0.892375
O O2 0.369843 0.651558 0.680511
O O3 0.288016 0.774110 0.819025
O O4 0.159391 0.656650 0.861272
O O5 0.500000 0.401239 0.750000
O O6 0.498729 0.386977 0.536640
O O7 0.498442 0.523320 0.633496
O O8 0.702535 0.434079 0.568910
O O9 0.796625 0.589445 0.237953
O O10 0.887027 0.481865 0.092866
O O11 0.941060 0.617233 0.018686
O O12 0.500000 0.161807 0.250000
O O13 0.661600 0.106635 0.063952
#
# Coordination Sequence:
#
# PCOD8141190 Si02
#       6
#     8   8   8   8   8   8
#     4  11  19  41  63  95 119 164 217 257 305 361
#     4  11  21  38  60  92 125 160 207 262 315 365
#     4  10  21  35  64  89 119 160 208 266 304 362
#     4  10  22  38  56  93 127 158 209 252 314 371
#     4  10  21  37  64  91 121 164 213 261 299 370
#     4  10  21  37  60  90 126 164 202 251 310 377
#
# _framework density 21.105136000000002
#
# number of rings (size 3 to 8) (size 9 to 14) (size 15 to 20)
#    0.000    1.667    5.000    0.500    2.333    1.333 
#    0.000    3.333    0.000    0.000    0.000    0.000 
#    0.000    0.000    0.000    0.000    0.000    0.000 
#
# Total GULP energy -297525.956965 kJ/mol
# GULP energy per Si atom -12396.914874 kJ/mol
# Density = 2.105710 g / cm^3
# Si number density = 21.105136 Si / 1000 Ang^3
#
#
#
# Elastic Constant Matrix: (Units=GPa)
#
#
# Indices 1 2 3 4 5 6 
#
# 1 44.8271 14.0673 26.9982 0.0000 -6.4499 0.0000
# 2 14.0673 101.1801 45.1542 0.0000 6.0782 0.0000
# 3 26.9982 45.1542 125.2043 0.0000 7.0003 0.0000
# 4 0.0000 0.0000 0.0000 26.9719 0.0000 2.4491
# 5 -6.4499 6.0782 7.0003 0.0000 31.5216 0.0000
# 6 0.0000 0.0000 0.0000 2.4491 0.0000 21.6031
#
#
#
# Elastic Compliance Matrix: (Units=1/GPa)
#
#
# Indices 1 2 3 4 5 6 
#
# 1 0.027288 -0.001692 -0.005675 0.000000 0.007170 0.000000
# 2 -0.001692 0.011941 -0.003841 0.000000 -0.001796 0.000000
# 3 -0.005675 -0.003841 0.010753 0.000000 -0.002809 0.000000
# 4 0.000000 0.000000 0.000000 0.037461 0.000000 -0.004247
# 5 0.007170 -0.001796 -0.002809 0.000000 0.034161 0.000000
# 6 0.000000 0.000000 0.000000 -0.004247 0.000000 0.046771
#
#
# Mechanical properties :
#
#
# Convention : Reuss Voigt Hill
#
# Bulk Modulus (GPa) = 36.27681 49.29456 42.78568
# Shear Modulus (GPa) = 25.00241 28.35211 26.67726
#
# Velocity S-wave (km/s) = 3.44562 3.66918 3.55916
# Velocity P-wave (km/s) = 5.74941 6.43101 6.09974
#
# Compressibility (1/GPa) = 0.02756582
#
# Stress axis : x y z
#
# Youngs Moduli (GPa) = 36.64548 83.74742 92.99788
#
# Poissons Ratio (x) = 0.14171 0.52776
# Poissons Ratio (y) = 0.06201 0.35721
# Poissons Ratio (z) = 0.20796 0.32168
#
# Static dielectric constant tensor:
#      x y z
#    x 3.805250 0.000000 -0.172540 
#    y 0.000000 3.609160 0.000000 
#    z -0.172540 0.000000 4.069470 
# 
# 
# High freq. dielectric constant tensor:
#      x y z
#    x 1.813300 0.000000 -0.022560 
#    y 0.000000 1.806380 0.000000 
#    z -0.022560 0.000000 1.833440 
# 
# From -- ./inp_files/87769.got.cif
#   From: 2010.06.25/outbox.cif.g09.slc.cpg/sg15_44_cif.got.tgz:87769.got - 2010.06.28 07:06:18.
