data_PCOD8141400
_publ_section_title
;
Structure prediction by ZEFSAII (Michael W. Deem and Ramdas Pophale) SiO2 
 PCOD8141400
Probable space group: C 2/C
;
_chemical_formula_sum "Si O2"
_cell_formula_units_Z 64
_cell_length_a 19.194817
_cell_length_b 10.834966
_cell_length_c 15.801383
_cell_angle_alpha 90.000000
_cell_angle_beta 104.290102
_cell_angle_gamma 90.000000
_cell_volume 3184.612336
_symmetry_space_group_name_H-M "C 2/C"
_symmetry_group_IT_number 15
_symmetry_cell_setting 'monoclinic'
loop_
_space_group_symop_operation_xyz
x,y,z
-x,y,1/2-z
-x,-y,-z
x,-y,1/2+z
1/2+x,1/2+y,z
1/2-x,1/2+y,1/2-z
1/2-x,1/2-y,-z
1/2+x,1/2-y,1/2+z
loop_
_atom_site_type_symbol
_atom_site_label
_atom_site_fract_x
_atom_site_fract_y
_atom_site_fract_z
Si Si1 0.796297 0.711143 0.802043
Si Si2 0.415822 0.303306 0.068955
Si Si3 0.432560 0.139358 0.546002
Si Si4 0.074594 0.168165 0.589449
Si Si5 0.363832 0.781812 0.728730
Si Si6 0.585661 0.906623 0.060222
Si Si7 0.325936 0.445366 0.911381
Si Si8 0.673669 0.952050 0.342519
O O1 0.712080 0.711479 0.794294
O O2 0.837934 0.612160 0.872228
O O3 0.825706 0.847075 0.833929
O O4 0.810267 0.667009 0.710777
O O5 0.491501 0.370454 0.074987
O O6 0.405650 0.284689 0.165337
O O7 0.416167 0.167585 0.028501
O O8 0.353096 0.385189 0.007119
O O9 0.412137 0.271515 0.499382
O O10 0.517391 0.136583 0.598094
O O11 0.381752 0.102118 0.606993
O O12 0.422200 0.049205 0.463154
O O13 0.095198 0.260928 0.671419
O O14 0.121108 0.046428 0.609381
O O15 0.359355 0.930317 0.716562
O O16 0.247530 0.501776 0.908161
#
# Coordination Sequence:
#
# PCOD8141400 Si02
#       8
#     8   8   8   8   8   8   8   8
#     4  10  22  39  61  83 126 159 199 255 306 363
#     4  10  21  39  67  89 119 162 211 254 303 371
#     4  10  21  36  62  90 125 152 204 252 312 364
#     4  11  22  42  60  92 126 163 205 260 308 363
#     4  11  22  39  64  91 119 160 212 254 307 366
#     4   9  19  38  59  92 119 158 193 253 315 362
#     4  10  23  41  62  88 127 166 210 250 307 374
#     4  11  22  40  62  94 122 163 206 256 311 367
#
# _framework density 20.096636
#
# number of rings (size 3 to 8) (size 9 to 14) (size 15 to 20)
#    0.000    1.750    2.500    1.500    1.750    2.500 
#    4.500    0.000    5.500    0.000    0.000    0.000 
#    0.000    0.000    0.000    0.000    0.000    0.000 
#
# Total GULP energy -396705.652166 kJ/mol
# GULP energy per Si atom -12397.051630 kJ/mol
# Density = 2.005089 g / cm^3
# Si number density = 20.096636 Si / 1000 Ang^3
#
#
#
# Elastic Constant Matrix: (Units=GPa)
#
#
# Indices 1 2 3 4 5 6 
#
# 1 81.8996 16.2886 26.0731 0.0000 -12.1723 0.0000
# 2 16.2886 58.9282 13.1213 0.0000 -11.5150 0.0000
# 3 26.0731 13.1213 56.7706 0.0000 -7.9014 0.0000
# 4 0.0000 0.0000 0.0000 26.9762 0.0000 2.2340
# 5 -12.1723 -11.5150 -7.9014 0.0000 33.8187 0.0000
# 6 0.0000 0.0000 0.0000 2.2340 0.0000 29.4301
#
#
#
# Elastic Compliance Matrix: (Units=1/GPa)
#
#
# Indices 1 2 3 4 5 6 
#
# 1 0.015023 -0.002191 -0.005937 0.000000 0.003274 0.000000
# 2 -0.002191 0.019178 -0.002716 0.000000 0.005107 0.000000
# 3 -0.005937 -0.002716 0.021234 0.000000 0.001899 0.000000
# 4 0.000000 0.000000 0.000000 0.037304 0.000000 -0.002832
# 5 0.003274 0.005107 0.001899 0.000000 0.032930 0.000000
# 6 0.000000 0.000000 0.000000 -0.002832 0.000000 0.034194
#
#
# Mechanical properties :
#
#
# Convention : Reuss Voigt Hill
#
# Bulk Modulus (GPa) = 29.63256 34.28494 31.95875
# Shear Modulus (GPa) = 25.93374 27.51936 26.72655
#
# Velocity S-wave (km/s) = 3.59618 3.70449 3.65074
# Velocity P-wave (km/s) = 5.65866 5.94935 5.80582
#
# Compressibility (1/GPa) = 0.03374666
#
# Stress axis : x y z
#
# Youngs Moduli (GPa) = 66.56660 52.14323 47.09498
#
# Poissons Ratio (x) = 0.11423 0.27962
# Poissons Ratio (y) = 0.14582 0.12790
# Poissons Ratio (z) = 0.39523 0.14160
#
# Static dielectric constant tensor:
#      x y z
#    x 3.818520 0.000000 0.252860 
#    y 0.000000 3.641770 0.000000 
#    z 0.252860 0.000000 3.534360 
# 
# 
# High freq. dielectric constant tensor:
#      x y z
#    x 1.793820 0.000000 0.015110 
#    y 0.000000 1.780860 0.000000 
#    z 0.015110 0.000000 1.772900 
# 
# From -- ./inp_files/167666.got.cif
#   From: 2010.06.25/outbox.cif.g09.slc.cpg/sg15_84_cif.got.tgz:167666.got - 2010.06.28 07:06:18.
