data_PCOD8141806
_publ_section_title
;
Structure prediction by ZEFSAII (Michael W. Deem and Ramdas Pophale) SiO2 
 PCOD8141806
Probable space group: C 2/C
;
_chemical_formula_sum "Si O2"
_cell_formula_units_Z 44
_cell_length_a 17.941430
_cell_length_b 11.025618
_cell_length_c 30.650449
_cell_angle_alpha 90.000000
_cell_angle_beta 21.362655
_cell_angle_gamma 90.000000
_cell_volume 2208.615245
_symmetry_space_group_name_H-M "C 2/C"
_symmetry_group_IT_number 15
_symmetry_cell_setting 'monoclinic'
loop_
_space_group_symop_operation_xyz
x,y,z
-x,y,1/2-z
-x,-y,-z
x,-y,1/2+z
1/2+x,1/2+y,z
1/2-x,1/2+y,1/2-z
1/2-x,1/2-y,-z
1/2+x,1/2-y,1/2+z
loop_
_atom_site_type_symbol
_atom_site_label
_atom_site_fract_x
_atom_site_fract_y
_atom_site_fract_z
Si Si1 0.563577 0.135969 0.475753
Si Si2 0.357903 0.142132 0.915390
Si Si3 0.372609 0.053267 0.661525
Si Si4 0.500000 0.740557 0.250000
Si Si5 0.898207 0.686063 0.479717
Si Si6 0.911729 0.916965 0.412742
O O1 0.489695 0.150247 0.565862
O O2 0.808322 0.159017 0.338120
O O3 0.429225 0.215758 0.514512
O O4 0.500000 0.000000 0.500000
O O5 0.573894 0.104791 0.819881
O O6 0.411723 0.175018 0.836492
O O7 0.250000 0.250000 0.000000
O O8 0.209519 0.025982 0.998247
O O9 0.137520 0.044338 0.777902
O O10 0.431966 0.912521 0.625543
O O11 0.926672 0.809453 0.438899
O O12 0.683707 0.625265 0.581692
#
# Coordination Sequence:
#
# PCOD8141806 Si02
#       6
#     8   8   8   4   8   8
#     4  10  22  35  61  94 122 162 212 262 315 361
#     4  11  24  42  65  95 124 171 213 258 324 378
#     4  10  21  37  65  93 122 169 213 266 316 369
#     4  12  24  42  66  90 134 160 218 262 306 398
#     4   9  21  39  56  90 125 166 209 261 320 367
#     4  10  22  40  62  87 132 163 212 262 317 386
#
# _framework density 19.921984999999999
#
# number of rings (size 3 to 8) (size 9 to 14) (size 15 to 20)
#    0.000    1.818    1.818    1.091    7.636    0.727 
#    0.000    9.091    0.000    0.000    0.000    0.000 
#    0.000    0.000    0.000    0.000    0.000    0.000 
#
# Total GULP energy -272566.011128 kJ/mol
# GULP energy per Si atom -12389.364142 kJ/mol
# Density = 1.987664 g / cm^3
# Si number density = 19.921985 Si / 1000 Ang^3
#
#
#
# Elastic Constant Matrix: (Units=GPa)
#
#
# Indices 1 2 3 4 5 6 
#
# 1 133.6151 57.0074 61.2458 0.0114 -12.2508 0.0014
# 2 57.0074 98.9979 41.3642 0.0024 -4.1629 0.0009
# 3 61.2458 41.3642 118.8086 -0.0185 -20.3373 0.0046
# 4 0.0114 0.0024 -0.0185 17.7986 0.0129 -2.6507
# 5 -12.2508 -4.1629 -20.3373 0.0129 41.8115 -0.0064
# 6 0.0014 0.0009 0.0046 -2.6507 -0.0064 33.0081
#
#
#
# Elastic Compliance Matrix: (Units=1/GPa)
#
#
# Indices 1 2 3 4 5 6 
#
# 1 0.011527 -0.004893 -0.004084 -0.000012 0.000904 -0.000001
# 2 -0.004893 0.013929 -0.002547 -0.000001 -0.001286 0.000000
# 3 -0.004084 -0.002547 0.012174 0.000012 0.004471 0.000000
# 4 -0.000012 -0.000001 0.000012 0.056864 -0.000014 0.004566
# 5 0.000904 -0.001286 0.004471 -0.000014 0.026229 0.000003
# 6 -0.000001 0.000000 0.000000 0.004566 0.000003 0.030662
#
#
# Mechanical properties :
#
#
# Convention : Reuss Voigt Hill
#
# Bulk Modulus (GPa) = 68.57821 74.51736 71.54778
# Shear Modulus (GPa) = 27.88715 31.31060 29.59887
#
# Velocity S-wave (km/s) = 3.74547 3.96872 3.85871
# Velocity P-wave (km/s) = 7.29403 7.64766 7.47294
#
# Compressibility (1/GPa) = 0.01458189
#
# Stress axis : x y z
#
# Youngs Moduli (GPa) = 86.75570 71.79157 82.14062
#
# Poissons Ratio (x) = 0.35130 0.33543
# Poissons Ratio (y) = 0.42452 0.20923
# Poissons Ratio (z) = 0.35428 0.18287
#
# Static dielectric constant tensor:
#      x y z
#    x 5.066550 0.000040 0.180790 
#    y 0.000040 3.561440 0.000200 
#    z 0.180790 0.000200 3.780140 
# 
# 
# High freq. dielectric constant tensor:
#      x y z
#    x 1.802300 0.000000 -0.019420 
#    y 0.000000 1.770200 0.000010 
#    z -0.019420 0.000010 1.761260 
# 
# From -- ./inp_files/104099.got.cif
#   From: 2010.06.25/outbox.cif.g09.slc.cpg/sg15_53_cif.got.tgz:104099.got - 2010.06.28 07:06:18.
