data_PCOD8141048
_publ_section_title
;
Structure prediction by ZEFSAII (Michael W. Deem and Ramdas Pophale) SiO2 
 PCOD8141048
Probable space group: C 2/C
;
_chemical_formula_sum "Si O2"
_cell_formula_units_Z 56
_cell_length_a 14.733842
_cell_length_b 28.299595
_cell_length_c 8.678277
_cell_angle_alpha 90.000000
_cell_angle_beta 46.515713
_cell_angle_gamma 90.000000
_cell_volume 2625.457163
_symmetry_space_group_name_H-M "C 2/C"
_symmetry_group_IT_number 15
_symmetry_cell_setting 'monoclinic'
loop_
_space_group_symop_operation_xyz
x,y,z
-x,y,1/2-z
-x,-y,-z
x,-y,1/2+z
1/2+x,1/2+y,z
1/2-x,1/2+y,1/2-z
1/2-x,1/2-y,-z
1/2+x,1/2-y,1/2+z
loop_
_atom_site_type_symbol
_atom_site_label
_atom_site_fract_x
_atom_site_fract_y
_atom_site_fract_z
Si Si1 0.874677 0.558283 0.685125
Si Si2 0.654299 0.962452 0.934466
Si Si3 0.759378 0.122024 0.182967
Si Si4 0.507440 0.684761 0.564894
Si Si5 0.317593 0.764652 0.222512
Si Si6 0.362763 0.195071 0.976883
Si Si7 0.236597 0.646799 0.860684
O O1 0.834334 0.517995 0.611018
O O2 0.816993 0.607647 0.694118
O O3 0.024272 0.559517 0.523218
O O4 0.820829 0.545169 0.914590
O O5 0.760577 0.933860 0.716488
O O6 0.656461 0.144186 0.422588
O O7 0.894918 0.141945 0.062202
O O8 0.719615 0.129426 0.053531
O O9 0.500000 0.701462 0.750000
O O10 0.559865 0.730435 0.409340
O O11 0.378789 0.662581 0.651823
O O12 0.281699 0.794817 0.418267
O O13 0.192662 0.733003 0.332646
O O14 0.341989 0.804356 0.063644
O O15 0.500000 0.202129 0.750000
#
# Coordination Sequence:
#
# PCOD8141048 Si02
#       7
#     8   8   8   8   8   8   8
#     4  10  22  39  66  92 125 158 191 253 300 366
#     4  10  21  41  62  94 127 151 196 245 309 359
#     4  10  22  37  60  86 123 161 200 252 305 360
#     4   9  21  40  58  84 124 162 205 261 297 356
#     4  10  21  36  56  83 115 160 207 253 299 349
#     4  10  21  35  52  79 115 157 197 248 299 348
#     4  11  22  39  61  90 117 163 212 245 306 361
#
# _framework density 21.329618
#
# number of rings (size 3 to 8) (size 9 to 14) (size 15 to 20)
#    0.000    2.000    0.000    2.571    4.000    8.000 
#    0.000    5.714    0.000    0.000    0.000    0.000 
#    0.000    0.000    0.000    0.000    0.000    0.000 
#
# Total GULP energy -346920.248043 kJ/mol
# GULP energy per Si atom -12390.008859 kJ/mol
# Density = 2.128107 g / cm^3
# Si number density = 21.329618 Si / 1000 Ang^3
#
#
#
# Elastic Constant Matrix: (Units=GPa)
#
#
# Indices 1 2 3 4 5 6 
#
# 1 73.4667 35.1486 21.6047 0.0000 -2.3236 0.0000
# 2 35.1486 105.1569 31.6632 0.0000 -12.6110 0.0000
# 3 21.6047 31.6632 88.8733 0.0000 -5.1779 0.0000
# 4 0.0000 0.0000 0.0000 35.8342 0.0000 4.8652
# 5 -2.3236 -12.6110 -5.1779 0.0000 26.4687 0.0000
# 6 0.0000 0.0000 0.0000 4.8652 0.0000 26.6565
#
#
#
# Elastic Compliance Matrix: (Units=1/GPa)
#
#
# Indices 1 2 3 4 5 6 
#
# 1 0.016663 -0.005032 -0.002339 0.000000 -0.001392 0.000000
# 2 -0.005032 0.012700 -0.003009 0.000000 0.005020 0.000000
# 3 -0.002339 -0.003009 0.012945 0.000000 0.000893 0.000000
# 4 0.000000 0.000000 0.000000 0.028615 0.000000 -0.005223
# 5 -0.001392 0.005020 0.000893 0.000000 0.040225 0.000000
# 6 0.000000 0.000000 0.000000 -0.005223 0.000000 0.038467
#
#
# Mechanical properties :
#
#
# Convention : Reuss Voigt Hill
#
# Bulk Modulus (GPa) = 46.40967 49.37001 47.88984
# Shear Modulus (GPa) = 28.15991 29.73059 28.94525
#
# Velocity S-wave (km/s) = 3.63743 3.73750 3.68781
# Velocity P-wave (km/s) = 6.28067 6.46697 6.37450
#
# Compressibility (1/GPa) = 0.02154723
#
# Stress axis : x y z
#
# Youngs Moduli (GPa) = 60.01321 78.74226 77.25259
#
# Poissons Ratio (x) = 0.39626 0.18069
# Poissons Ratio (y) = 0.30201 0.23243
# Poissons Ratio (z) = 0.14037 0.23691
#
# Static dielectric constant tensor:
#      x y z
#    x 3.823390 0.000000 0.125850 
#    y 0.000000 3.927010 0.000000 
#    z 0.125850 0.000000 3.914460 
# 
# 
# High freq. dielectric constant tensor:
#      x y z
#    x 1.819810 0.000000 0.011980 
#    y 0.000000 1.843470 0.000000 
#    z 0.011980 0.000000 1.834780 
# 
# From -- ./inp_files/44498.got.cif
#   From: 2010.06.25/outbox.cif.g09.slc.cpg/sg15_23_cif.got.tgz:44498.got - 2010.06.28 07:06:18.
