data_PCOD8141375
_publ_section_title
;
Structure prediction by ZEFSAII (Michael W. Deem and Ramdas Pophale) SiO2 
 PCOD8141375
Probable space group: C 2/C
;
_chemical_formula_sum "Si O2"
_cell_formula_units_Z 64
_cell_length_a 17.205532
_cell_length_b 21.087766
_cell_length_c 17.559676
_cell_angle_alpha 90.000000
_cell_angle_beta 28.214385
_cell_angle_gamma 90.000000
_cell_volume 3012.083028
_symmetry_space_group_name_H-M "C 2/C"
_symmetry_group_IT_number 15
_symmetry_cell_setting 'monoclinic'
loop_
_space_group_symop_operation_xyz
x,y,z
-x,y,1/2-z
-x,-y,-z
x,-y,1/2+z
1/2+x,1/2+y,z
1/2-x,1/2+y,1/2-z
1/2-x,1/2-y,-z
1/2+x,1/2-y,1/2+z
loop_
_atom_site_type_symbol
_atom_site_label
_atom_site_fract_x
_atom_site_fract_y
_atom_site_fract_z
Si Si1 0.276346 0.635982 0.303968
Si Si2 0.879694 0.922345 0.986950
Si Si3 0.135131 0.105355 0.830864
Si Si4 0.189336 0.819145 0.567506
Si Si5 0.973027 0.636451 0.477685
Si Si6 0.394193 0.443915 0.417437
Si Si7 0.097166 0.217424 0.441004
Si Si8 0.360993 0.842891 0.816080
O O1 0.422190 0.585042 0.185357
O O2 0.216505 0.657634 0.438723
O O3 0.334740 0.694799 0.199821
O O4 0.114146 0.604447 0.407979
O O5 0.784205 0.864196 0.028473
O O6 0.830054 0.984169 0.980872
O O7 0.824335 0.925887 0.122470
O O8 0.300330 0.102727 0.639128
O O9 0.999940 0.065350 0.902725
O O10 0.066492 0.176918 0.898646
O O11 0.250000 0.750000 0.500000
O O12 0.000000 0.817756 0.750000
O O13 0.958435 0.710473 0.512565
O O14 0.030590 0.623693 0.342448
O O15 0.500000 0.432903 0.250000
O O16 0.240749 0.395690 0.549193
O O17 0.236764 0.208315 0.386254
O O18 0.500000 0.809811 0.750000
#
# Coordination Sequence:
#
# PCOD8141375 Si02
#       8
#     8   8   8   8   8   8   8   8
#     4   9  20  35  56  84 119 157 198 240 294 365
#     4  10  22  42  60  85 121 163 207 249 308 371
#     4  10  21  36  61  91 117 163 212 247 304 371
#     4  10  22  35  56  87 121 153 193 244 296 361
#     4  11  21  36  59  89 124 157 194 252 310 358
#     4  11  22  42  67  83 115 165 212 257 308 364
#     4   9  20  36  59  84 122 164 197 238 311 374
#     4  10  22  40  59  89 119 151 207 259 305 361
#
# _framework density 21.247752999999999
#
# number of rings (size 3 to 8) (size 9 to 14) (size 15 to 20)
#    0.000    2.000    0.000    4.500    7.000    0.500 
#    0.000    8.750    0.000    0.000    0.000    0.000 
#    0.000    0.000    0.000    0.000    0.000    0.000 
#
# Total GULP energy -396716.328854 kJ/mol
# GULP energy per Si atom -12397.385277 kJ/mol
# Density = 2.119939 g / cm^3
# Si number density = 21.247753 Si / 1000 Ang^3
#
#
#
# Elastic Constant Matrix: (Units=GPa)
#
#
# Indices 1 2 3 4 5 6 
#
# 1 106.7314 -4.9579 16.8620 0.0190 10.0540 0.0272
# 2 -4.9579 57.7458 -0.6760 -0.0930 3.4802 0.0510
# 3 16.8620 -0.6760 94.1668 -0.1017 11.3428 0.0410
# 4 0.0190 -0.0930 -0.1017 24.5697 -0.0145 2.0882
# 5 10.0540 3.4802 11.3428 -0.0145 37.7350 0.0015
# 6 0.0272 0.0510 0.0410 2.0882 0.0015 18.8969
#
#
#
# Elastic Compliance Matrix: (Units=1/GPa)
#
#
# Indices 1 2 3 4 5 6 
#
# 1 0.009863 0.000966 -0.001486 -0.000010 -0.002270 -0.000012
# 2 0.000966 0.017519 0.000185 0.000070 -0.001929 -0.000057
# 3 -0.001486 0.000185 0.011249 0.000049 -0.003002 -0.000028
# 4 -0.000010 0.000070 0.000049 0.041087 -0.000002 -0.004541
# 5 -0.002270 -0.001929 -0.003002 -0.000002 0.028186 0.000013
# 6 -0.000012 -0.000057 -0.000028 -0.004541 0.000013 0.053421
#
#
# Mechanical properties :
#
#
# Convention : Reuss Voigt Hill
#
# Bulk Modulus (GPa) = 26.34243 31.23336 28.78789
# Shear Modulus (GPa) = 28.62930 32.73470 30.68200
#
# Velocity S-wave (km/s) = 3.67468 3.92933 3.80414
# Velocity P-wave (km/s) = 5.51625 5.94287 5.73353
#
# Compressibility (1/GPa) = 0.03796157
#
# Stress axis : x y z
#
# Youngs Moduli (GPa) = 101.39124 57.08152 88.90047
#
# Poissons Ratio (x) = -0.05515 0.13208
# Poissons Ratio (y) = -0.09797 -0.01646
# Poissons Ratio (z) = 0.15064 -0.01057
#
# Static dielectric constant tensor:
#      x y z
#    x 5.169790 -0.000180 -0.130200 
#    y -0.000180 3.448240 0.000490 
#    z -0.130200 0.000490 4.038410 
# 
# 
# High freq. dielectric constant tensor:
#      x y z
#    x 1.846630 -0.000010 0.006110 
#    y -0.000010 1.800940 0.000020 
#    z 0.006110 0.000020 1.832730 
# 
# From -- ./inp_files/211967.got.cif
#   From: 2010.06.25/outbox.cif.g09.slc.cpg/sg15_106_cif.got.tgz:211967.got - 2010.06.28 07:06:18.
