data_PCOD8141002
_publ_section_title
;
Structure prediction by ZEFSAII (Michael W. Deem and Ramdas Pophale) SiO2 
 PCOD8141002
Probable space group: C 2/C
;
_chemical_formula_sum "Si O2"
_cell_formula_units_Z 44
_cell_length_a 13.468416
_cell_length_b 19.448553
_cell_length_c 12.421774
_cell_angle_alpha 90.000000
_cell_angle_beta 43.927584
_cell_angle_gamma 90.000000
_cell_volume 2257.301590
_symmetry_space_group_name_H-M "C 2/C"
_symmetry_group_IT_number 15
_symmetry_cell_setting 'monoclinic'
loop_
_space_group_symop_operation_xyz
x,y,z
-x,y,1/2-z
-x,-y,-z
x,-y,1/2+z
1/2+x,1/2+y,z
1/2-x,1/2+y,1/2-z
1/2-x,1/2-y,-z
1/2+x,1/2-y,1/2+z
loop_
_atom_site_type_symbol
_atom_site_label
_atom_site_fract_x
_atom_site_fract_y
_atom_site_fract_z
Si Si1 0.413573 0.545086 0.411663
Si Si2 0.651625 0.078119 0.476659
Si Si3 0.000000 0.485790 0.750000
Si Si4 0.804137 0.270181 0.574656
Si Si5 0.943005 0.174030 0.098012
Si Si6 0.234867 0.065013 0.346285
O O1 0.500000 0.504407 0.250000
O O2 0.267794 0.576401 0.480566
O O3 0.517500 0.607445 0.362340
O O4 0.379221 0.494749 0.537452
O O5 0.608808 0.157969 0.495359
O O6 0.706610 0.049758 0.319433
O O7 0.521533 0.032362 0.625324
O O8 0.864311 0.436672 0.831690
O O9 0.750000 0.250000 0.500000
O O10 0.912372 0.214775 0.545279
O O11 0.659971 0.274421 0.757063
O O12 0.846920 0.139282 0.077743
#
# Coordination Sequence:
#
# PCOD8141002 Si02
#       6
#     8   8   4   8   8   8
#     4  11  18  35  56  88 117 149 190 239 293 355
#     4  10  21  34  57  87 117 154 188 241 300 353
#     4  10  22  38  58  84 120 152 204 246 294 346
#     4  11  20  33  54  85 126 151 189 229 298 363
#     4  11  22  35  56  87 123 157 185 238 295 365
#     4  10  22  36  57  83 121 154 198 245 295 347
#
# _framework density 19.4923
#
# number of rings (size 3 to 8) (size 9 to 14) (size 15 to 20)
#    0.000    1.455    5.455    1.636    2.545    0.000 
#    0.000    0.000    0.000    4.364    2.364    0.000 
#    0.000    0.000    0.000    0.000    0.000    0.000 
#
# Total GULP energy -272579.213961 kJ/mol
# GULP energy per Si atom -12389.964271 kJ/mol
# Density = 1.944793 g / cm^3
# Si number density = 19.492300 Si / 1000 Ang^3
#
#
#
# Elastic Constant Matrix: (Units=GPa)
#
#
# Indices 1 2 3 4 5 6 
#
# 1 77.1773 40.1240 23.0686 -0.0012 -17.6394 0.0000
# 2 40.1240 94.5236 60.2355 -0.0012 -3.3854 0.0003
# 3 23.0686 60.2355 111.2429 -0.0026 -1.9775 0.0003
# 4 -0.0012 -0.0012 -0.0026 28.7365 0.0013 -11.1823
# 5 -17.6394 -3.3854 -1.9775 0.0013 29.5988 -0.0001
# 6 0.0000 0.0003 0.0003 -11.1823 -0.0001 39.4279
#
#
#
# Elastic Compliance Matrix: (Units=1/GPa)
#
#
# Indices 1 2 3 4 5 6 
#
# 1 0.019546 -0.008323 0.000644 0.000000 0.010740 0.000000
# 2 -0.008323 0.019745 -0.009024 0.000000 -0.003305 0.000000
# 3 0.000644 -0.009024 0.013747 0.000001 0.000270 0.000000
# 4 0.000000 0.000000 0.000001 0.039116 -0.000002 0.011094
# 5 0.010740 -0.003305 0.000270 -0.000002 0.039826 0.000000
# 6 0.000000 0.000000 0.000000 0.011094 0.000000 0.028509
#
#
# Mechanical properties :
#
#
# Convention : Reuss Voigt Hill
#
# Bulk Modulus (GPa) = 50.93674 58.86667 54.90170
# Shear Modulus (GPa) = 24.94533 30.18701 27.56617
#
# Velocity S-wave (km/s) = 3.58124 3.93958 3.76468
# Velocity P-wave (km/s) = 6.57943 7.13857 6.86469
#
# Compressibility (1/GPa) = 0.01963220
#
# Stress axis : x y z
#
# Youngs Moduli (GPa) = 51.16038 50.64656 72.74397
#
# Poissons Ratio (x) = 0.42154 -0.04687
# Poissons Ratio (y) = 0.42582 0.65645
# Poissons Ratio (z) = -0.03297 0.45704
#
# Static dielectric constant tensor:
#      x y z
#    x 3.662550 0.000000 -0.297160 
#    y 0.000000 3.562930 0.000000 
#    z -0.297160 0.000000 3.633270 
# 
# 
# High freq. dielectric constant tensor:
#      x y z
#    x 1.752570 0.000000 -0.025350 
#    y 0.000000 1.739410 0.000000 
#    z -0.025350 0.000000 1.753840 
# 
# From -- ./inp_files/99674.got.cif
#   From: 2010.06.25/outbox.cif.g09.slc.cpg/sg15_50_cif.got.tgz:99674.got - 2010.06.28 07:06:18.
