data_PCOD8141924
_publ_section_title
;
Structure prediction by ZEFSAII (Michael W. Deem and Ramdas Pophale) SiO2 
 PCOD8141924
Probable space group: C 2/C
;
_chemical_formula_sum "Si O2"
_cell_formula_units_Z 60
_cell_length_a 26.522684
_cell_length_b 5.575242
_cell_length_c 19.024860
_cell_angle_alpha 90.000000
_cell_angle_beta 97.631214
_cell_angle_gamma 90.000000
_cell_volume 2788.297642
_symmetry_space_group_name_H-M "C 2/C"
_symmetry_group_IT_number 15
_symmetry_cell_setting 'monoclinic'
loop_
_space_group_symop_operation_xyz
x,y,z
-x,y,1/2-z
-x,-y,-z
x,-y,1/2+z
1/2+x,1/2+y,z
1/2-x,1/2+y,1/2-z
1/2-x,1/2-y,-z
1/2+x,1/2-y,1/2+z
loop_
_atom_site_type_symbol
_atom_site_label
_atom_site_fract_x
_atom_site_fract_y
_atom_site_fract_z
Si Si1 0.338151 0.264637 0.224820
Si Si2 0.000000 0.296716 0.750000
Si Si3 0.243204 0.738123 0.616848
Si Si4 0.074607 0.007817 0.345285
Si Si5 0.362870 0.484882 0.513196
Si Si6 0.860281 0.059517 0.356635
Si Si7 0.587894 0.878514 0.241488
Si Si8 0.698814 0.989600 0.984505
O O1 0.281359 0.313929 0.187661
O O2 0.373710 0.421951 0.181990
O O3 0.342834 0.333936 0.307322
O O4 0.357436 0.990506 0.226294
O O5 0.974533 0.149703 0.681519
O O6 0.955631 0.430289 0.785471
O O7 0.189032 0.778345 0.641912
O O8 0.264454 0.969078 0.576960
O O9 0.234885 0.515824 0.560710
O O10 0.085805 0.021956 0.430414
O O11 0.064453 0.264264 0.308059
O O12 0.381122 0.470523 0.435718
O O13 0.334684 0.740614 0.522002
O O14 0.331016 0.241272 0.524688
O O15 0.904621 0.202883 0.323483
#
# Coordination Sequence:
#
# PCOD8141924 Si02
#       8
#     8   4   8   8   8   8   8   8
#     4  10  21  39  58  91 130 180 224 270 324 392
#     4  10  22  42  76  96 120 158 228 284 346 406
#     4  10  21  38  58  93 133 191 227 274 312 386
#     4  10  21  41  68  96 121 168 222 277 333 403
#     4  11  23  43  65  95 136 182 225 278 329 392
#     4  10  25  36  58  96 137 177 217 274 332 394
#     4  10  22  43  66  95 132 165 218 288 338 403
#     4  10  23  40  61  93 135 183 239 271 312 385
#
# _framework density 21.518505000000001
#
# number of rings (size 3 to 8) (size 9 to 14) (size 15 to 20)
#    0.000    1.867    1.333    1.200    7.467    4.800 
#    7.200    0.667    0.000   11.200    0.000    0.000 
#    0.000    0.000    0.000    0.000    0.000    0.000 
#
# Total GULP energy -371671.550426 kJ/mol
# GULP energy per Si atom -12389.051681 kJ/mol
# Density = 2.146953 g / cm^3
# Si number density = 21.518505 Si / 1000 Ang^3
#
#
#
# Elastic Constant Matrix: (Units=GPa)
#
#
# Indices 1 2 3 4 5 6 
#
# 1 87.1495 30.8306 59.3139 0.0000 28.6317 0.0000
# 2 30.8306 104.1187 36.1245 0.0000 17.0111 0.0000
# 3 59.3139 36.1245 154.1996 0.0000 29.4817 0.0000
# 4 0.0000 0.0000 0.0000 16.1275 0.0000 -1.1338
# 5 28.6317 17.0111 29.4817 0.0000 32.2581 0.0000
# 6 0.0000 0.0000 0.0000 -1.1338 0.0000 30.1462
#
#
#
# Elastic Compliance Matrix: (Units=1/GPa)
#
#
# Indices 1 2 3 4 5 6 
#
# 1 0.019256 -0.002175 -0.004664 0.000000 -0.011682 0.000000
# 2 -0.002175 0.011137 -0.001234 0.000000 -0.002814 0.000000
# 3 -0.004664 -0.001234 0.009273 0.000000 -0.003684 0.000000
# 4 0.000000 0.000000 0.000000 0.062170 0.000000 0.002338
# 5 -0.011682 -0.002814 -0.003684 0.000000 0.046220 0.000000
# 6 0.000000 0.000000 0.000000 0.002338 0.000000 0.033260
#
#
# Mechanical properties :
#
#
# Convention : Reuss Voigt Hill
#
# Bulk Modulus (GPa) = 42.51946 66.44508 54.48227
# Shear Modulus (GPa) = 24.35445 30.31960 27.33703
#
# Velocity S-wave (km/s) = 3.36786 3.75774 3.56813
# Velocity P-wave (km/s) = 5.90980 7.05497 6.50762
#
# Compressibility (1/GPa) = 0.02351864
#
# Stress axis : x y z
#
# Youngs Moduli (GPa) = 51.93106 89.79475 107.84417
#
# Poissons Ratio (x) = 0.19532 0.50299
# Poissons Ratio (y) = 0.11296 0.13310
# Poissons Ratio (z) = 0.24221 0.11083
#
# Static dielectric constant tensor:
#      x y z
#    x 3.698020 0.000000 0.136860 
#    y 0.000000 4.051740 0.000000 
#    z 0.136860 0.000000 4.194030 
# 
# 
# High freq. dielectric constant tensor:
#      x y z
#    x 1.824110 0.000000 0.010220 
#    y 0.000000 1.845050 0.000000 
#    z 0.010220 0.000000 1.843140 
# 
# From -- ./inp_files/221263.got.cif
#   From: 2010.06.25/outbox.cif.g09.slc.cpg/sg15_111_cif.got.tgz:221263.got - 2010.06.28 07:06:18.
