data_PCOD8141758
_publ_section_title
;
Structure prediction by ZEFSAII (Michael W. Deem and Ramdas Pophale) SiO2 
 PCOD8141758
Probable space group: C 2/C
;
_chemical_formula_sum "Si O2"
_cell_formula_units_Z 56
_cell_length_a 16.107057
_cell_length_b 8.720739
_cell_length_c 22.910092
_cell_angle_alpha 90.000000
_cell_angle_beta 124.897013
_cell_angle_gamma 90.000000
_cell_volume 2639.407181
_symmetry_space_group_name_H-M "C 2/C"
_symmetry_group_IT_number 15
_symmetry_cell_setting 'monoclinic'
loop_
_space_group_symop_operation_xyz
x,y,z
-x,y,1/2-z
-x,-y,-z
x,-y,1/2+z
1/2+x,1/2+y,z
1/2-x,1/2+y,1/2-z
1/2-x,1/2-y,-z
1/2+x,1/2-y,1/2+z
loop_
_atom_site_type_symbol
_atom_site_label
_atom_site_fract_x
_atom_site_fract_y
_atom_site_fract_z
Si Si1 0.903300 0.155566 0.170334
Si Si2 0.838213 0.615058 0.264481
Si Si3 0.543752 0.339781 0.038486
Si Si4 0.752215 0.819864 0.320916
Si Si5 0.111506 0.810038 0.320425
Si Si6 0.132878 0.298959 0.458904
Si Si7 0.443294 0.136333 0.092323
O O1 0.813926 0.273416 0.150069
O O2 0.930783 0.201751 0.115004
O O3 0.000000 0.180423 0.250000
O O4 0.856884 0.985974 0.157478
O O5 0.762808 0.672548 0.283972
O O6 0.807374 0.444690 0.238791
O O7 0.821331 0.723383 0.200883
O O8 0.951698 0.602197 0.333465
O O9 0.637495 0.382415 0.117851
O O10 0.461280 0.238845 0.041216
O O11 0.500000 0.500000 0.000000
O O12 0.585018 0.240353 0.001750
O O13 0.124425 0.729922 0.388461
O O14 0.000000 0.805170 0.250000
O O15 0.250000 0.250000 0.500000
O O16 0.117874 0.481640 0.446361
#
# Coordination Sequence:
#
# PCOD8141758 Si02
#       7
#     8   8   8   8   8   8   8
#     4  11  22  40  68  94 130 168 218 271 332 387
#     4  10  21  37  63  94 131 163 219 274 330 377
#     4  11  25  45  64  92 134 177 219 270 328 398
#     4  11  22  39  61  97 129 168 219 274 322 395
#     4   9  19  37  61  95 125 166 211 267 323 392
#     4  12  24  43  66  97 135 172 222 270 323 397
#     4  10  22  42  67  90 131 176 217 266 333 388
#
# _framework density 21.216884
#
# number of rings (size 3 to 8) (size 9 to 14) (size 15 to 20)
#    0.000    1.429    1.429    3.857    0.000    5.714 
#    2.571    1.429    0.000    0.000    0.000    0.000 
#    0.000    0.000    0.000    0.000    0.000    0.000 
#
# Total GULP energy -347195.100230 kJ/mol
# GULP energy per Si atom -12399.825008 kJ/mol
# Density = 2.116859 g / cm^3
# Si number density = 21.216884 Si / 1000 Ang^3
#
#
#
# Elastic Constant Matrix: (Units=GPa)
#
#
# Indices 1 2 3 4 5 6 
#
# 1 76.6482 31.8152 37.4841 0.0000 -14.2613 0.0000
# 2 31.8152 139.5166 53.7711 0.0000 6.2789 0.0000
# 3 37.4841 53.7711 83.7629 0.0000 -21.5230 0.0000
# 4 0.0000 0.0000 0.0000 42.9389 0.0000 -4.7922
# 5 -14.2613 6.2789 -21.5230 0.0000 28.7348 0.0000
# 6 0.0000 0.0000 0.0000 -4.7922 0.0000 34.9785
#
#
#
# Elastic Compliance Matrix: (Units=1/GPa)
#
#
# Indices 1 2 3 4 5 6 
#
# 1 0.017430 -0.002340 -0.004883 0.000000 0.005505 0.000000
# 2 -0.002340 0.011730 -0.009213 0.000000 -0.010626 0.000000
# 3 -0.004883 -0.009213 0.024683 0.000000 0.018078 0.000000
# 4 0.000000 0.000000 0.000000 0.023651 0.000000 0.003240
# 5 0.005505 -0.010626 0.018078 0.000000 0.053396 0.000000
# 6 0.000000 0.000000 0.000000 0.003240 0.000000 0.029033
#
#
# Mechanical properties :
#
#
# Convention : Reuss Voigt Hill
#
# Bulk Modulus (GPa) = 47.68684 60.67425 54.18055
# Shear Modulus (GPa) = 25.02666 33.12091 29.07379
#
# Velocity S-wave (km/s) = 3.43820 3.95532 3.70579
# Velocity P-wave (km/s) = 6.18760 7.03695 6.62589
#
# Compressibility (1/GPa) = 0.02097014
#
# Stress axis : x y z
#
# Youngs Moduli (GPa) = 57.37093 85.24885 40.51338
#
# Poissons Ratio (x) = 0.19952 0.19784
# Poissons Ratio (y) = 0.13427 0.37326
# Poissons Ratio (z) = 0.28016 0.78541
#
# Static dielectric constant tensor:
#      x y z
#    x 3.950490 0.000000 -0.334210 
#    y 0.000000 3.854580 0.000000 
#    z -0.334210 0.000000 3.917110 
# 
# 
# High freq. dielectric constant tensor:
#      x y z
#    x 1.830630 0.000000 -0.021080 
#    y 0.000000 1.840270 0.000000 
#    z -0.021080 0.000000 1.832580 
# 
# From -- ./inp_files/273273.got.cif
#   From: 2010.06.25/outbox.cif.g09.slc.cpg/sg15_137_cif.got.tgz:273273.got - 2010.06.28 07:06:18.
