data_PCOD8141234
_publ_section_title
;
Structure prediction by ZEFSAII (Michael W. Deem and Ramdas Pophale) SiO2 
 PCOD8141234
Probable space group: C 2/C
;
_chemical_formula_sum "Si O2"
_cell_formula_units_Z 44
_cell_length_a 14.428256
_cell_length_b 15.948528
_cell_length_c 12.159535
_cell_angle_alpha 90.000000
_cell_angle_beta 54.676077
_cell_angle_gamma 90.000000
_cell_volume 2282.897146
_symmetry_space_group_name_H-M "C 2/C"
_symmetry_group_IT_number 15
_symmetry_cell_setting 'monoclinic'
loop_
_space_group_symop_operation_xyz
x,y,z
-x,y,1/2-z
-x,-y,-z
x,-y,1/2+z
1/2+x,1/2+y,z
1/2-x,1/2+y,1/2-z
1/2-x,1/2-y,-z
1/2+x,1/2-y,1/2+z
loop_
_atom_site_type_symbol
_atom_site_label
_atom_site_fract_x
_atom_site_fract_y
_atom_site_fract_z
Si Si1 0.782003 0.341441 0.527473
Si Si2 0.243244 0.592764 0.678954
Si Si3 0.525088 0.200082 0.860451
Si Si4 0.000000 0.077487 0.750000
Si Si5 0.150213 0.953772 0.769730
Si Si6 0.504692 0.356027 0.475503
O O1 0.750000 0.250000 0.500000
O O2 0.770274 0.413210 0.442987
O O3 0.699060 0.367937 0.683598
O O4 0.910962 0.344976 0.481979
O O5 0.133576 0.640921 0.801324
O O6 0.251344 0.500608 0.727217
O O7 0.358578 0.645359 0.621216
O O8 0.500000 0.227580 0.750000
O O9 0.547087 0.276292 0.927814
O O10 0.037345 0.136455 0.621897
O O11 0.893374 0.018705 0.792101
O O12 0.043702 0.934564 0.921747
#
# Coordination Sequence:
#
# PCOD8141234 Si02
#       6
#     8   8   8   4   8   8
#     4  11  20  36  61  87 115 149 197 241 286 345
#     4  10  21  36  54  88 114 145 193 239 292 338
#     4  10  22  36  60  86 112 148 195 242 281 341
#     4  10  22  36  54  88 114 148 188 238 290 348
#     4  11  21  35  60  83 116 148 187 245 292 341
#     4  11  21  36  59  82 116 146 191 239 289 342
#
# _framework density 19.273754
#
# number of rings (size 3 to 8) (size 9 to 14) (size 15 to 20)
#    0.000    1.455    1.818    6.545    1.273    0.727 
#    0.000    3.636    4.000    0.000    0.000    0.000 
#    0.000    0.000    0.000    0.000    0.000    0.000 
#
# Total GULP energy -272630.664085 kJ/mol
# GULP energy per Si atom -12392.302913 kJ/mol
# Density = 1.922989 g / cm^3
# Si number density = 19.273754 Si / 1000 Ang^3
#
#
#
# Elastic Constant Matrix: (Units=GPa)
#
#
# Indices 1 2 3 4 5 6 
#
# 1 100.9575 49.2586 54.4294 0.0000 -8.9678 0.0000
# 2 49.2586 89.3426 49.2126 0.0000 4.2767 0.0000
# 3 54.4294 49.2126 107.1584 0.0000 -4.7421 0.0000
# 4 0.0000 0.0000 0.0000 39.9040 0.0000 0.4770
# 5 -8.9678 4.2767 -4.7421 0.0000 38.5576 0.0000
# 6 0.0000 0.0000 0.0000 0.4770 0.0000 23.0846
#
#
#
# Elastic Compliance Matrix: (Units=1/GPa)
#
#
# Indices 1 2 3 4 5 6 
#
# 1 0.016028 -0.006193 -0.005130 0.000000 0.003784 0.000000
# 2 -0.006193 0.017624 -0.005126 0.000000 -0.004026 0.000000
# 3 -0.005130 -0.005126 0.014342 0.000000 0.001139 0.000000
# 4 0.000000 0.000000 0.000000 0.025066 0.000000 -0.000518
# 5 0.003784 -0.004026 0.001139 0.000000 0.027402 0.000000
# 6 0.000000 0.000000 0.000000 -0.000518 0.000000 0.043330
#
#
# Mechanical properties :
#
#
# Convention : Reuss Voigt Hill
#
# Bulk Modulus (GPa) = 66.24040 67.02887 66.63463
# Shear Modulus (GPa) = 27.51448 29.94642 28.73045
#
# Velocity S-wave (km/s) = 3.78241 3.94603 3.86508
# Velocity P-wave (km/s) = 7.31562 7.45750 7.38690
#
# Compressibility (1/GPa) = 0.01509653
#
# Stress axis : x y z
#
# Youngs Moduli (GPa) = 62.38895 56.74218 69.72339
#
# Poissons Ratio (x) = 0.35138 0.35768
# Poissons Ratio (y) = 0.38635 0.35743
# Poissons Ratio (z) = 0.32006 0.29088
#
# Static dielectric constant tensor:
#      x y z
#    x 3.618630 0.000000 0.001700 
#    y 0.000000 3.400530 0.000000 
#    z 0.001700 0.000000 3.743520 
# 
# 
# High freq. dielectric constant tensor:
#      x y z
#    x 1.737720 0.000000 -0.007890 
#    y 0.000000 1.728390 0.000000 
#    z -0.007890 0.000000 1.760370 
# 
# From -- ./inp_files/96581.got.cif
#   From: 2010.06.25/outbox.cif.g09.slc.cpg/sg15_49_cif.got.tgz:96581.got - 2010.06.28 07:06:18.
