data_PCOD8141161
_publ_section_title
;
Structure prediction by ZEFSAII (Michael W. Deem and Ramdas Pophale) SiO2 
 PCOD8141161
Probable space group: C 2/C
;
_chemical_formula_sum "Si O2"
_cell_formula_units_Z 60
_cell_length_a 12.874549
_cell_length_b 11.627591
_cell_length_c 22.308923
_cell_angle_alpha 90.000000
_cell_angle_beta 108.791784
_cell_angle_gamma 90.000000
_cell_volume 3161.627289
_symmetry_space_group_name_H-M "C 2/C"
_symmetry_group_IT_number 15
_symmetry_cell_setting 'monoclinic'
loop_
_space_group_symop_operation_xyz
x,y,z
-x,y,1/2-z
-x,-y,-z
x,-y,1/2+z
1/2+x,1/2+y,z
1/2-x,1/2+y,1/2-z
1/2-x,1/2-y,-z
1/2+x,1/2-y,1/2+z
loop_
_atom_site_type_symbol
_atom_site_label
_atom_site_fract_x
_atom_site_fract_y
_atom_site_fract_z
Si Si1 0.265719 0.675449 0.672617
Si Si2 0.206841 0.441183 0.601953
Si Si3 0.233785 0.666268 0.440411
Si Si4 0.999870 0.416679 0.861053
Si Si5 0.000000 0.255866 0.750000
Si Si6 0.763935 0.069970 0.984342
Si Si7 0.365537 0.728868 0.089650
Si Si8 0.044551 0.668745 0.692487
O O1 0.256223 0.550174 0.644002
O O2 0.238853 0.770549 0.616744
O O3 0.389572 0.681742 0.720220
O O4 0.175808 0.686604 0.709570
O O5 0.091607 0.400591 0.605808
O O6 0.191440 0.469019 0.528584
O O7 0.293894 0.337490 0.626576
O O8 0.250000 0.750000 0.500000
O O9 0.307189 0.548711 0.461355
O O10 0.111350 0.615582 0.415311
O O11 0.974424 0.330929 0.802786
O O12 0.997260 0.542919 0.832687
O O13 0.686924 0.144266 0.926713
O O14 0.862848 0.154021 0.026786
O O15 0.489340 0.741920 0.135502
O O16 0.000000 0.697809 0.750000
#
# Coordination Sequence:
#
# PCOD8141161 Si02
#       8
#     8   8   8   8   4   8   8   8
#     4  10  23  38  62  86 118 155 197 243 295 361
#     4   9  19  37  58  88 112 155 192 237 300 348
#     4  11  19  36  59  87 122 153 193 243 297 356
#     4  10  21  35  61  85 113 154 206 244 284 348
#     4  10  22  42  54  84 122 152 196 246 298 344
#     4   9  18  34  59  83 123 150 186 246 292 349
#     4   9  19  37  58  85 119 146 194 238 289 347
#     4  11  22  39  61  88 113 157 207 246 284 343
#
# _framework density 18.977568999999999
#
# number of rings (size 3 to 8) (size 9 to 14) (size 15 to 20)
#    0.800    1.333    3.333    0.000    1.867    1.600 
#    1.200    0.667    5.867    0.000    0.000    0.000 
#    0.000    0.000    0.000    0.000    0.000    0.000 
#
# Total GULP energy -371662.216246 kJ/mol
# GULP energy per Si atom -12388.740542 kJ/mol
# Density = 1.893438 g / cm^3
# Si number density = 18.977569 Si / 1000 Ang^3
#
#
#
# Elastic Constant Matrix: (Units=GPa)
#
#
# Indices 1 2 3 4 5 6 
#
# 1 107.5703 40.2625 52.6316 0.0000 5.0431 0.0000
# 2 40.2625 99.6925 40.1352 0.0000 7.4488 0.0000
# 3 52.6316 40.1352 77.2269 0.0000 5.0620 0.0000
# 4 0.0000 0.0000 0.0000 90.7506 0.0000 82.0706
# 5 5.0431 7.4488 5.0620 0.0000 27.5521 0.0000
# 6 0.0000 0.0000 0.0000 82.0706 0.0000 115.7201
#
#
#
# Elastic Compliance Matrix: (Units=1/GPa)
#
#
# Indices 1 2 3 4 5 6 
#
# 1 0.014376 -0.002328 -0.008559 0.000000 -0.000429 0.000000
# 2 -0.002328 0.013201 -0.005130 0.000000 -0.002200 0.000000
# 3 -0.008559 -0.005130 0.021514 0.000000 -0.000999 0.000000
# 4 0.000000 0.000000 0.000000 0.030727 0.000000 -0.021792
# 5 -0.000429 -0.002200 -0.000999 0.000000 0.037152 0.000000
# 6 0.000000 0.000000 0.000000 -0.021792 0.000000 0.024097
#
#
# Mechanical properties :
#
#
# Convention : Reuss Voigt Hill
#
# Bulk Modulus (GPa) = 58.63024 61.17204 59.90114
# Shear Modulus (GPa) = 27.96665 56.90189 42.43427
#
# Velocity S-wave (km/s) = 3.84300 5.48168 4.73379
# Velocity P-wave (km/s) = 7.11710 8.50700 7.84290
#
# Compressibility (1/GPa) = 0.01705604
#
# Stress axis : x y z
#
# Youngs Moduli (GPa) = 69.56271 75.75445 46.48222
#
# Poissons Ratio (x) = 0.17634 0.39785
# Poissons Ratio (y) = 0.16193 0.23844
# Poissons Ratio (z) = 0.59541 0.38860
#
# Static dielectric constant tensor:
#      x y z
#    x 3.309430 0.000000 0.024090 
#    y 0.000000 3.597490 0.000000 
#    z 0.024090 0.000000 3.437260 
# 
# 
# High freq. dielectric constant tensor:
#      x y z
#    x 1.710990 0.000000 0.003730 
#    y 0.000000 1.747650 0.000000 
#    z 0.003730 0.000000 1.738320 
# 
# From -- ./inp_files/268944.got.cif
#   From: 2010.06.25/outbox.cif.g09.slc.cpg/sg15_135_cif.got.tgz:268944.got - 2010.06.28 07:06:18.
