data_PCOD8141878
_publ_section_title
;
Structure prediction by ZEFSAII (Michael W. Deem and Ramdas Pophale) SiO2 
 PCOD8141878
Probable space group: C 2/C
;
_chemical_formula_sum "Si O2"
_cell_formula_units_Z 56
_cell_length_a 22.308040
_cell_length_b 24.089357
_cell_length_c 5.356860
_cell_angle_alpha 90.000000
_cell_angle_beta 78.596403
_cell_angle_gamma 90.000000
_cell_volume 2821.874223
_symmetry_space_group_name_H-M "C 2/C"
_symmetry_group_IT_number 15
_symmetry_cell_setting 'monoclinic'
loop_
_space_group_symop_operation_xyz
x,y,z
-x,y,1/2-z
-x,-y,-z
x,-y,1/2+z
1/2+x,1/2+y,z
1/2-x,1/2+y,1/2-z
1/2-x,1/2-y,-z
1/2+x,1/2-y,1/2+z
loop_
_atom_site_type_symbol
_atom_site_label
_atom_site_fract_x
_atom_site_fract_y
_atom_site_fract_z
Si Si1 0.436925 0.190971 0.182048
Si Si2 0.201588 0.680461 0.671186
Si Si3 0.771133 0.844140 0.625262
Si Si4 0.000000 0.763724 0.750000
Si Si5 0.117762 0.225894 0.397660
Si Si6 0.268118 0.033051 0.249438
Si Si7 0.000000 0.535133 0.750000
Si Si8 0.378879 0.092532 0.983052
O O1 0.500000 0.170597 0.250000
O O2 0.396715 0.234332 0.362815
O O3 0.395290 0.137389 0.179731
O O4 0.453381 0.222264 0.918579
O O5 0.243537 0.686264 0.390708
O O6 0.157686 0.734177 0.684089
O O7 0.163692 0.622413 0.688613
O O8 0.239290 0.677496 0.898154
O O9 0.842673 0.827200 0.551045
O O10 0.768080 0.910057 0.670230
O O11 0.050704 0.798707 0.862527
O O12 0.341299 0.044840 0.163074
O O13 0.250322 0.993400 0.495371
O O14 0.060759 0.572036 0.706452
O O15 0.000000 0.500000 0.500000
#
# Coordination Sequence:
#
# PCOD8141878 Si02
#       8
#     8   8   8   4   8   8   4   8
#     4  10  22  38  59  88 127 165 203 242 305 376
#     4  11  23  38  62  92 122 164 201 253 308 371
#     4  11  25  40  64  91 120 162 206 256 310 366
#     4  10  21  38  56  92 126 168 192 243 298 368
#     4  11  22  37  62  90 130 157 202 245 308 383
#     4  11  23  43  61  84 117 156 208 262 310 347
#     4  12  29  42  58  86 116 168 232 281 296 332
#     4  11  23  41  62  83 120 168 213 259 312 351
#
# _framework density 19.844965999999999
#
# number of rings (size 3 to 8) (size 9 to 14) (size 15 to 20)
#    0.000    1.143    1.429    5.571    5.000    2.286 
#    0.000    0.000    0.000    0.000    0.000    1.000 
#    0.000    0.000    0.000    0.000    0.000    0.000 
#
# Total GULP energy -346924.499474 kJ/mol
# GULP energy per Si atom -12390.160696 kJ/mol
# Density = 1.979980 g / cm^3
# Si number density = 19.844966 Si / 1000 Ang^3
#
#
#
# Elastic Constant Matrix: (Units=GPa)
#
#
# Indices 1 2 3 4 5 6 
#
# 1 130.5378 54.7469 46.7783 0.0000 5.2982 0.0000
# 2 54.7469 68.0736 32.2175 0.0000 -3.3440 0.0000
# 3 46.7783 32.2175 113.5894 0.0000 13.9174 0.0000
# 4 0.0000 0.0000 0.0000 10.3465 0.0000 -2.3808
# 5 5.2982 -3.3440 13.9174 0.0000 19.5760 0.0000
# 6 0.0000 0.0000 0.0000 -2.3808 0.0000 35.5088
#
#
#
# Elastic Compliance Matrix: (Units=1/GPa)
#
#
# Indices 1 2 3 4 5 6 
#
# 1 0.012379 -0.009137 -0.002087 0.000000 -0.003428 0.000000
# 2 -0.009137 0.024613 -0.004422 0.000000 0.009821 0.000000
# 3 -0.002087 -0.004422 0.011984 0.000000 -0.008711 0.000000
# 4 0.000000 0.000000 0.000000 0.098165 0.000000 0.006582
# 5 -0.003428 0.009821 -0.008711 0.000000 0.059881 0.000000
# 6 0.000000 0.000000 0.000000 0.006582 0.000000 0.028603
#
#
# Mechanical properties :
#
#
# Convention : Reuss Voigt Hill
#
# Bulk Modulus (GPa) = 56.53924 64.40958 60.47441
# Shear Modulus (GPa) = 18.32763 24.98348 21.65555
#
# Velocity S-wave (km/s) = 3.04228 3.55199 3.30697
# Velocity P-wave (km/s) = 6.39476 7.02489 6.71722
#
# Compressibility (1/GPa) = 0.01768683
#
# Stress axis : x y z
#
# Youngs Moduli (GPa) = 80.77952 40.62879 83.44225
#
# Poissons Ratio (x) = 0.37121 0.17411
# Poissons Ratio (y) = 0.73806 0.36895
# Poissons Ratio (z) = 0.16856 0.17965
#
# Static dielectric constant tensor:
#      x y z
#    x 3.642630 0.000000 0.091550 
#    y 0.000000 3.497120 0.000000 
#    z 0.091550 0.000000 3.737370 
# 
# 
# High freq. dielectric constant tensor:
#      x y z
#    x 1.770590 0.000000 0.004270 
#    y 0.000000 1.745900 0.000000 
#    z 0.004270 0.000000 1.787580 
# 
# From -- ./inp_files/13901.got.cif
#   From: 2010.06.25/outbox.cif.g09.slc.cpg/sg15_7_cif.got.tgz:13901.got - 2010.06.28 07:06:18.
