data_PCOD8141653
_publ_section_title
;
Structure prediction by ZEFSAII (Michael W. Deem and Ramdas Pophale) SiO2 
 PCOD8141653
Probable space group: C 2/C
;
_chemical_formula_sum "Si O2"
_cell_formula_units_Z 44
_cell_length_a 17.838422
_cell_length_b 22.315934
_cell_length_c 5.145540
_cell_angle_alpha 90.000000
_cell_angle_beta 106.198793
_cell_angle_gamma 90.000000
_cell_volume 1967.021884
_symmetry_space_group_name_H-M "C 2/C"
_symmetry_group_IT_number 15
_symmetry_cell_setting 'monoclinic'
loop_
_space_group_symop_operation_xyz
x,y,z
-x,y,1/2-z
-x,-y,-z
x,-y,1/2+z
1/2+x,1/2+y,z
1/2-x,1/2+y,1/2-z
1/2-x,1/2-y,-z
1/2+x,1/2-y,1/2+z
loop_
_atom_site_type_symbol
_atom_site_label
_atom_site_fract_x
_atom_site_fract_y
_atom_site_fract_z
Si Si1 0.351824 0.133717 0.109206
Si Si2 0.592291 0.401402 0.331226
Si Si3 0.736379 0.533111 0.025299
Si Si4 0.832337 0.285670 0.090909
Si Si5 0.410521 0.665994 0.170677
Si Si6 0.000000 0.456116 0.750000
O O1 0.273007 0.096801 0.993401
O O2 0.344947 0.166195 0.378778
O O3 0.425187 0.088075 0.173854
O O4 0.351418 0.182993 0.882650
O O5 0.500000 0.415735 0.250000
O O6 0.641680 0.462235 0.418631
O O7 0.621282 0.355712 0.583097
O O8 0.625207 0.372748 0.097748
O O9 0.765345 0.513945 0.337594
O O10 0.898274 0.235959 0.116234
O O11 0.750000 0.250000 0.000000
O O12 0.500000 0.651281 0.250000
O O13 0.000000 0.500000 0.500000
#
# Coordination Sequence:
#
# PCOD8141653 Si02
#       6
#     8   8   8   8   8   4
#     4  12  26  42  68  94 131 170 224 269 339 391
#     4  10  21  39  60  90 123 163 201 251 309 379
#     4  12  24  41  63  87 120 161 212 262 315 370
#     4  12  24  41  66  97 132 167 212 267 327 406
#     4  10  21  37  61  86 126 159 195 239 309 373
#     4  12  26  48  70  96 136 180 238 298 338 390
#
# _framework density 22.368842000000001
#
# number of rings (size 3 to 8) (size 9 to 14) (size 15 to 20)
#    0.000    0.727    0.000    8.182    2.545    0.727 
#    0.000    0.000    0.000    0.000    0.000    0.000 
#    0.000    0.000    0.000    0.000    0.000    0.000 
#
# Total GULP energy -272715.442742 kJ/mol
# GULP energy per Si atom -12396.156488 kJ/mol
# Density = 2.231793 g / cm^3
# Si number density = 22.368842 Si / 1000 Ang^3
#
#
#
# Elastic Constant Matrix: (Units=GPa)
#
#
# Indices 1 2 3 4 5 6 
#
# 1 75.8825 28.7135 41.6846 0.0000 -2.5168 0.0000
# 2 28.7135 70.9871 32.1681 0.0000 -0.6756 0.0000
# 3 41.6846 32.1681 127.8719 0.0000 -9.4231 0.0000
# 4 0.0000 0.0000 0.0000 55.1624 0.0000 10.3648
# 5 -2.5168 -0.6756 -9.4231 0.0000 20.7991 0.0000
# 6 0.0000 0.0000 0.0000 10.3648 0.0000 32.6232
#
#
#
# Elastic Compliance Matrix: (Units=1/GPa)
#
#
# Indices 1 2 3 4 5 6 
#
# 1 0.017540 -0.005082 -0.004444 0.000000 -0.000056 0.000000
# 2 -0.005082 0.017408 -0.002820 0.000000 -0.001327 0.000000
# 3 -0.004444 -0.002820 0.010275 0.000000 0.004026 0.000000
# 4 0.000000 0.000000 0.000000 0.019279 0.000000 -0.006125
# 5 -0.000056 -0.001327 0.004026 0.000000 0.049853 0.000000
# 6 0.000000 0.000000 0.000000 -0.006125 0.000000 0.032599
#
#
# Mechanical properties :
#
#
# Convention : Reuss Voigt Hill
#
# Bulk Modulus (GPa) = 48.70505 53.31933 51.01219
# Shear Modulus (GPa) = 28.01266 33.19529 30.60398
#
# Velocity S-wave (km/s) = 3.54263 3.85645 3.70287
# Velocity P-wave (km/s) = 6.20923 6.61194 6.41375
#
# Compressibility (1/GPa) = 0.02053175
#
# Stress axis : x y z
#
# Youngs Moduli (GPa) = 57.01136 57.44467 97.32250
#
# Poissons Ratio (x) = 0.29192 0.43247
# Poissons Ratio (y) = 0.28972 0.27450
# Poissons Ratio (z) = 0.25334 0.16202
#
# Static dielectric constant tensor:
#      x y z
#    x 4.687100 0.000000 -0.999930 
#    y 0.000000 4.071000 0.000000 
#    z -0.999930 0.000000 5.614770 
# 
# 
# High freq. dielectric constant tensor:
#      x y z
#    x 1.885570 0.000000 -0.004290 
#    y 0.000000 1.887260 0.000000 
#    z -0.004290 0.000000 1.904280 
# 
# From -- ./inp_files/10419.got.cif
#   From: 2010.06.25/outbox.cif.g09.slc.cpg/sg15_6_cif.got.tgz:10419.got - 2010.06.28 07:06:18.
