data_PCOD8141889
_publ_section_title
;
Structure prediction by ZEFSAII (Michael W. Deem and Ramdas Pophale) SiO2 
 PCOD8141889
Probable space group: C 2/C
;
_chemical_formula_sum "Si O2"
_cell_formula_units_Z 32
_cell_length_a 6.810610
_cell_length_b 20.642203
_cell_length_c 11.321628
_cell_angle_alpha 90.000000
_cell_angle_beta 113.476338
_cell_angle_gamma 90.000000
_cell_volume 1459.911956
_symmetry_space_group_name_H-M "C 2/C"
_symmetry_group_IT_number 15
_symmetry_cell_setting 'monoclinic'
loop_
_space_group_symop_operation_xyz
x,y,z
-x,y,1/2-z
-x,-y,-z
x,-y,1/2+z
1/2+x,1/2+y,z
1/2-x,1/2+y,1/2-z
1/2-x,1/2-y,-z
1/2+x,1/2-y,1/2+z
loop_
_atom_site_type_symbol
_atom_site_label
_atom_site_fract_x
_atom_site_fract_y
_atom_site_fract_z
Si Si1 0.000000 0.987694 0.750000
Si Si2 0.553474 0.394014 0.106788
Si Si3 0.000000 0.769957 0.750000
Si Si4 0.658926 0.842082 0.138706
Si Si5 0.250401 0.618783 0.088093
O O1 0.789548 0.941466 0.686802
O O2 0.994908 0.032517 0.865118
O O3 0.371640 0.343425 0.108212
O O4 0.781607 0.374470 0.220661
O O5 0.569790 0.389229 0.970838
O O6 0.069952 0.728905 0.650785
O O7 0.204224 0.813631 0.834607
O O8 0.485343 0.882994 0.022849
#
# Coordination Sequence:
#
# PCOD8141889 Si02
#       5
#     4   8   4   8   8
#     4   9  22  38  60  88 112 149 196 236 278 343
#     4  10  22  39  59  87 114 149 194 233 286 338
#     4  11  22  38  58  88 116 153 192 230 282 345
#     4  10  21  38  57  88 113 151 189 231 287 335
#     4  11  21  40  60  82 120 152 187 237 286 332
#
# _framework density 21.919132000000001
#
# number of rings (size 3 to 8) (size 9 to 14) (size 15 to 20)
#    0.000    2.000    2.500    1.500    0.000    5.000 
#    4.500    8.750    0.000    0.000    0.000    0.000 
#    0.000    0.000    0.000    0.000    0.000    0.000 
#
# Total GULP energy -198310.686826 kJ/mol
# GULP energy per Si atom -12394.417927 kJ/mol
# Density = 2.186924 g / cm^3
# Si number density = 21.919132 Si / 1000 Ang^3
#
#
#
# Elastic Constant Matrix: (Units=GPa)
#
#
# Indices 1 2 3 4 5 6 
#
# 1 72.9551 31.3717 27.2742 0.0000 11.8316 0.0000
# 2 31.3717 112.3278 15.6124 0.0000 14.4351 0.0000
# 3 27.2742 15.6124 73.5492 0.0000 18.6640 0.0000
# 4 0.0000 0.0000 0.0000 30.4747 0.0000 3.9959
# 5 11.8316 14.4351 18.6640 0.0000 43.1322 0.0000
# 6 0.0000 0.0000 0.0000 3.9959 0.0000 8.6791
#
#
#
# Elastic Compliance Matrix: (Units=1/GPa)
#
#
# Indices 1 2 3 4 5 6 
#
# 1 0.017644 -0.004029 -0.005394 0.000000 -0.001157 0.000000
# 2 -0.004029 0.010340 -0.000116 0.000000 -0.002305 0.000000
# 3 -0.005394 -0.000116 0.017115 0.000000 -0.005888 0.000000
# 4 0.000000 0.000000 0.000000 0.034922 0.000000 -0.016079
# 5 -0.001157 -0.002305 -0.005888 0.000000 0.026821 0.000000
# 6 0.000000 0.000000 0.000000 -0.016079 0.000000 0.122623
#
#
# Mechanical properties :
#
#
# Convention : Reuss Voigt Hill
#
# Bulk Modulus (GPa) = 38.42991 45.26097 41.84544
# Shear Modulus (GPa) = 19.43882 28.76211 24.10047
#
# Velocity S-wave (km/s) = 2.98122 3.62635 3.31949
# Velocity P-wave (km/s) = 5.42410 6.18286 5.81587
#
# Compressibility (1/GPa) = 0.02602140
#
# Stress axis : x y z
#
# Youngs Moduli (GPa) = 56.67680 96.71020 58.42756
#
# Poissons Ratio (x) = 0.38967 0.31515
# Poissons Ratio (y) = 0.22837 0.00676
# Poissons Ratio (z) = 0.30571 0.01120
#
# Static dielectric constant tensor:
#      x y z
#    x 3.678940 0.000000 0.085910 
#    y 0.000000 3.881280 0.000000 
#    z 0.085910 0.000000 3.952760 
# 
# 
# High freq. dielectric constant tensor:
#      x y z
#    x 1.833420 0.000000 0.012240 
#    y 0.000000 1.857890 0.000000 
#    z 0.012240 0.000000 1.874850 
# 
# From -- ./inp_files/76546.got.cif
#   From: 2010.06.25/outbox.cif.g09.slc.cpg/sg15_39_cif.got.tgz:76546.got - 2010.06.28 07:06:18.
