data_PCOD8141360
_publ_section_title
;
Structure prediction by ZEFSAII (Michael W. Deem and Ramdas Pophale) SiO2 
 PCOD8141360
Probable space group: C 2/C
;
_chemical_formula_sum "Si O2"
_cell_formula_units_Z 64
_cell_length_a 30.405532
_cell_length_b 18.733585
_cell_length_c 8.671886
_cell_angle_alpha 90.000000
_cell_angle_beta 136.483593
_cell_angle_gamma 90.000000
_cell_volume 3401.185188
_symmetry_space_group_name_H-M "C 2/C"
_symmetry_group_IT_number 15
_symmetry_cell_setting 'monoclinic'
loop_
_space_group_symop_operation_xyz
x,y,z
-x,y,1/2-z
-x,-y,-z
x,-y,1/2+z
1/2+x,1/2+y,z
1/2-x,1/2+y,1/2-z
1/2-x,1/2-y,-z
1/2+x,1/2-y,1/2+z
loop_
_atom_site_type_symbol
_atom_site_label
_atom_site_fract_x
_atom_site_fract_y
_atom_site_fract_z
Si Si1 0.571222 0.803024 0.389318
Si Si2 0.253640 0.443777 0.818947
Si Si3 0.927918 0.425951 0.602171
Si Si4 0.323872 0.281849 0.505267
Si Si5 0.801324 0.809904 0.797009
Si Si6 0.867232 0.313762 0.627138
Si Si7 0.885264 0.563310 0.656489
Si Si8 0.757501 0.093867 0.682887
O O1 0.500000 0.775695 0.250000
O O2 0.606667 0.750170 0.359806
O O3 0.615357 0.807011 0.651284
O O4 0.565413 0.880843 0.295352
O O5 0.303731 0.391363 0.861788
O O6 0.184457 0.419712 0.584200
O O7 0.267723 0.526200 0.819694
O O8 0.261107 0.433244 0.018973
O O9 0.924648 0.347805 0.672652
O O10 0.904237 0.483027 0.666375
O O11 0.884522 0.428941 0.339089
O O12 0.000000 0.444856 0.750000
O O13 0.269639 0.221225 0.355062
O O14 0.324066 0.310605 0.679240
O O15 0.311580 0.347500 0.357212
O O16 0.851272 0.764358 0.023935
O O17 0.809892 0.369291 0.453714
#
# Coordination Sequence:
#
# PCOD8141360 Si02
#       8
#     8   8   8   8   8   8   8   8
#     4  12  23  39  58  82 117 156 195 233 279 337
#     4  12  21  36  57  86 111 152 178 237 290 345
#     4  12  24  37  51  74 111 157 200 235 272 325
#     4  10  21  38  57  86 110 150 187 241 285 339
#     4  10  21  36  61  81 115 143 191 239 294 334
#     4  11  22  37  55  83 109 154 191 240 281 330
#     4  12  22  36  53  77 112 152 200 230 276 333
#     4  11  22  35  58  82 118 144 191 232 291 341
#
# _framework density 18.816969
#
# number of rings (size 3 to 8) (size 9 to 14) (size 15 to 20)
#    0.000    0.750    3.750    5.250    3.500    2.000 
#    0.000    0.000    0.000    0.000    0.000    8.750 
#    0.000    0.000    0.000    0.000    0.000    0.000 
#
# Total GULP energy -396926.493220 kJ/mol
# GULP energy per Si atom -12403.952913 kJ/mol
# Density = 1.877414 g / cm^3
# Si number density = 18.816969 Si / 1000 Ang^3
#
#
#
# Elastic Constant Matrix: (Units=GPa)
#
#
# Indices 1 2 3 4 5 6 
#
# 1 80.5048 31.2282 27.8135 0.0000 -5.9620 0.0000
# 2 31.2282 96.9185 30.5719 0.0000 5.5937 0.0000
# 3 27.8135 30.5719 41.1851 0.0000 -6.1114 0.0000
# 4 0.0000 0.0000 0.0000 22.1061 0.0000 -4.3965
# 5 -5.9620 5.5937 -6.1114 0.0000 28.5157 0.0000
# 6 0.0000 0.0000 0.0000 -4.3965 0.0000 37.1929
#
#
#
# Elastic Compliance Matrix: (Units=1/GPa)
#
#
# Indices 1 2 3 4 5 6 
#
# 1 0.016722 -0.002669 -0.009001 0.000000 0.002091 0.000000
# 2 -0.002669 0.014609 -0.009863 0.000000 -0.005538 0.000000
# 3 -0.009001 -0.009863 0.038927 0.000000 0.008396 0.000000
# 4 0.000000 0.000000 0.000000 0.046326 0.000000 0.005476
# 5 0.002091 -0.005538 0.008396 0.000000 0.038391 0.000000
# 6 0.000000 0.000000 0.000000 0.005476 0.000000 0.027534
#
#
# Mechanical properties :
#
#
# Convention : Reuss Voigt Hill
#
# Bulk Modulus (GPa) = 36.77819 44.20396 40.49107
# Shear Modulus (GPa) = 21.30935 26.16256 23.73595
#
# Velocity S-wave (km/s) = 3.36885 3.73281 3.55549
# Velocity P-wave (km/s) = 5.89235 6.49007 6.19842
#
# Compressibility (1/GPa) = 0.02719003
#
# Stress axis : x y z
#
# Youngs Moduli (GPa) = 59.80284 68.45124 25.68930
#
# Poissons Ratio (x) = 0.18272 0.23123
# Poissons Ratio (y) = 0.15963 0.25338
# Poissons Ratio (z) = 0.53828 0.67516
#
# Static dielectric constant tensor:
#      x y z
#    x 3.455040 0.000000 -0.177760 
#    y 0.000000 3.523330 0.000000 
#    z -0.177760 0.000000 3.363380 
# 
# 
# High freq. dielectric constant tensor:
#      x y z
#    x 1.729800 0.000000 -0.030840 
#    y 0.000000 1.729620 0.000000 
#    z -0.030840 0.000000 1.713170 
# 
# From -- ./inp_files/62461.got.cif
#   From: 2010.06.25/outbox.cif.g09.slc.cpg/sg15_32_cif.got.tgz:62461.got - 2010.06.28 07:06:18.
