data_PCOD8141250
_publ_section_title
;
Structure prediction by ZEFSAII (Michael W. Deem and Ramdas Pophale) SiO2 
 PCOD8141250
Probable space group: C 2/C
;
_chemical_formula_sum "Si O2"
_cell_formula_units_Z 48
_cell_length_a 9.984640
_cell_length_b 33.388186
_cell_length_c 8.050606
_cell_angle_alpha 90.000000
_cell_angle_beta 117.416619
_cell_angle_gamma 90.000000
_cell_volume 2382.380659
_symmetry_space_group_name_H-M "C 2/C"
_symmetry_group_IT_number 15
_symmetry_cell_setting 'monoclinic'
loop_
_space_group_symop_operation_xyz
x,y,z
-x,y,1/2-z
-x,-y,-z
x,-y,1/2+z
1/2+x,1/2+y,z
1/2-x,1/2+y,1/2-z
1/2-x,1/2-y,-z
1/2+x,1/2-y,1/2+z
loop_
_atom_site_type_symbol
_atom_site_label
_atom_site_fract_x
_atom_site_fract_y
_atom_site_fract_z
Si Si1 0.000000 0.500823 0.250000
Si Si2 0.500000 0.576003 0.250000
Si Si3 0.029669 0.213482 0.080808
Si Si4 0.679295 0.949597 0.583652
Si Si5 0.864360 0.630243 0.291017
Si Si6 0.040434 0.128964 0.959945
Si Si7 0.371505 0.220024 0.312503
O O1 0.913991 0.529269 0.325740
O O2 0.129692 0.471143 0.388342
O O3 0.640449 0.546565 0.294287
O O4 0.536201 0.602706 0.436043
O O5 0.202304 0.228239 0.149404
O O6 0.000000 0.198802 0.250000
O O7 0.988683 0.175365 0.942757
O O8 0.912182 0.249522 0.982921
O O9 0.641897 0.902007 0.563881
O O10 0.879806 0.674177 0.381392
O O11 0.000000 0.619459 0.250000
O O12 0.719241 0.626915 0.089527
O O13 0.000000 0.113344 0.750000
O O14 0.500000 0.228316 0.250000
#
# Coordination Sequence:
#
# PCOD8141250 Si02
#       7
#     4   4   8   8   8   8   8
#     4  10  22  40  66  89 118 164 188 241 308 368
#     4  10  22  42  62  95 126 156 200 257 288 358
#     4  11  21  37  55  83 121 157 206 257 298 347
#     4  10  21  41  63  90 125 153 200 242 301 368
#     4   9  19  37  59  84 120 156 198 252 295 351
#     4  10  21  38  62  88 121 166 205 247 303 352
#     4  10  21  36  56  80 114 163 205 247 305 349
#
# _framework density 20.147914
#
# number of rings (size 3 to 8) (size 9 to 14) (size 15 to 20)
#    0.000    2.000    1.667    1.500    0.000    4.667 
#    4.500    0.000    0.000    0.000    0.000    0.000 
#    0.000    0.000    0.000    0.000    0.000    0.000 
#
# Total GULP energy -297455.199461 kJ/mol
# GULP energy per Si atom -12393.966644 kJ/mol
# Density = 2.010206 g / cm^3
# Si number density = 20.147914 Si / 1000 Ang^3
#
#
#
# Elastic Constant Matrix: (Units=GPa)
#
#
# Indices 1 2 3 4 5 6 
#
# 1 77.3700 8.1712 3.8492 0.0000 16.3296 0.0000
# 2 8.1712 89.7885 35.4862 0.0000 14.3768 0.0000
# 3 3.8492 35.4862 71.2756 0.0000 -5.8700 0.0000
# 4 0.0000 0.0000 0.0000 18.9684 0.0000 17.2196
# 5 16.3296 14.3768 -5.8700 0.0000 29.6138 0.0000
# 6 0.0000 0.0000 0.0000 17.2196 0.0000 15.0945
#
#
#
# Elastic Compliance Matrix: (Units=1/GPa)
#
#
# Indices 1 2 3 4 5 6 
#
# 1 0.014829 0.000871 -0.001975 0.000000 -0.008991 0.000000
# 2 0.000871 0.016220 -0.008957 0.000000 -0.010130 0.000000
# 3 -0.001975 -0.008957 0.019360 0.000000 0.009275 0.000000
# 4 0.000000 0.000000 0.000000 -1.480196 0.000000 1.688593
# 5 -0.008991 -0.010130 0.009275 0.000000 0.045482 0.000000
# 6 0.000000 0.000000 0.000000 1.688593 0.000000 -1.860082
#
#
# Mechanical properties :
#
#
# Convention : Reuss Voigt Hill
#
# Bulk Modulus (GPa) = 33.01764 37.04969 35.03367
# Shear Modulus (GPa) = -1.55561 25.46385 11.95412
#
# Velocity S-wave (km/s) = -0.87964 3.55892 2.43845
# Velocity P-wave (km/s) = 3.92320 5.94278 5.03528
#
# Compressibility (1/GPa) = 0.03028684
#
# Stress axis : x y z
#
# Youngs Moduli (GPa) = 67.43613 61.65268 51.65342
#
# Poissons Ratio (x) = -0.05367 0.10200
# Poissons Ratio (y) = -0.05871 0.46264
# Poissons Ratio (z) = 0.13317 0.55220
#
# Static dielectric constant tensor:
#      x y z
#    x 3.824260 0.000000 0.089700 
#    y 0.000000 3.784440 0.000000 
#    z 0.089700 0.000000 3.426540 
# 
# 
# High freq. dielectric constant tensor:
#      x y z
#    x 1.803640 0.000000 0.003290 
#    y 0.000000 1.789660 0.000000 
#    z 0.003290 0.000000 1.756260 
# 
# From -- ./inp_files/33840.got.cif
#   From: 2010.06.25/outbox.cif.g09.slc.cpg/sg15_17_cif.got.tgz:33840.got - 2010.06.28 07:06:18.
