data_PCOD8141860
_publ_section_title
;
Structure prediction by ZEFSAII (Michael W. Deem and Ramdas Pophale) SiO2 
 PCOD8141860
Probable space group: C 2/C
;
_chemical_formula_sum "Si O2"
_cell_formula_units_Z 32
_cell_length_a 7.798278
_cell_length_b 36.025839
_cell_length_c 5.194587
_cell_angle_alpha 90.000000
_cell_angle_beta 78.975154
_cell_angle_gamma 90.000000
_cell_volume 1432.431187
_symmetry_space_group_name_H-M "C 2/C"
_symmetry_group_IT_number 15
_symmetry_cell_setting 'monoclinic'
loop_
_space_group_symop_operation_xyz
x,y,z
-x,y,1/2-z
-x,-y,-z
x,-y,1/2+z
1/2+x,1/2+y,z
1/2-x,1/2+y,1/2-z
1/2-x,1/2-y,-z
1/2+x,1/2-y,1/2+z
loop_
_atom_site_type_symbol
_atom_site_label
_atom_site_fract_x
_atom_site_fract_y
_atom_site_fract_z
Si Si1 0.305545 0.484013 0.083505
Si Si2 0.795032 0.356871 0.806481
Si Si3 0.110000 0.219525 0.464202
Si Si4 0.294519 0.902275 0.307396
O O1 0.206932 0.505094 0.347015
O O2 0.310919 0.440262 0.130771
O O3 0.500000 0.500000 0.000000
O O4 0.701262 0.317823 0.846365
O O5 0.738226 0.375554 0.555738
O O6 0.000000 0.349142 0.750000
O O7 0.737570 0.383277 0.057501
O O8 0.250000 0.250000 0.500000
O O9 0.000000 0.234546 0.250000
O O10 0.000000 0.210972 0.750000
O O11 0.500000 0.911078 0.250000
#
# Coordination Sequence:
#
# PCOD8141860 Si02
#       4
#     8   8   8   8
#     4  10  21  38  54  85 120 164 214 264 343 383
#     4  10  22  43  66  96 132 173 219 276 341 398
#     4  12  26  46  70 106 140 183 228 276 336 408
#     4  10  21  39  64  89 124 170 220 275 334 403
#
# _framework density 22.339642000000001
#
# number of rings (size 3 to 8) (size 9 to 14) (size 15 to 20)
#    0.000    1.500    0.000    4.500    0.000    4.000 
#   27.000    0.000    0.000    0.000    0.000    0.000 
#    0.000    0.000    0.000    0.000    0.000    0.000 
#
# Total GULP energy -198421.439017 kJ/mol
# GULP energy per Si atom -12401.339939 kJ/mol
# Density = 2.228880 g / cm^3
# Si number density = 22.339642 Si / 1000 Ang^3
#
#
#
# Elastic Constant Matrix: (Units=GPa)
#
#
# Indices 1 2 3 4 5 6 
#
# 1 61.1248 64.4200 49.1549 0.0000 11.3498 0.0000
# 2 64.4200 179.2153 78.6806 0.0000 -13.3877 0.0000
# 3 49.1549 78.6806 215.0631 0.0000 19.5314 0.0000
# 4 0.0000 0.0000 0.0000 36.0987 0.0000 3.9084
# 5 11.3498 -13.3877 19.5314 0.0000 27.1649 0.0000
# 6 0.0000 0.0000 0.0000 3.9084 0.0000 28.9904
#
#
#
# Elastic Compliance Matrix: (Units=1/GPa)
#
#
# Indices 1 2 3 4 5 6 
#
# 1 0.035954 -0.013972 -0.001194 0.000000 -0.021049 0.000000
# 2 -0.013972 0.012902 -0.002818 0.000000 0.014222 0.000000
# 3 -0.001194 -0.002818 0.006456 0.000000 -0.005532 0.000000
# 4 0.000000 0.000000 0.000000 0.028112 0.000000 -0.003790
# 5 -0.021049 0.014222 -0.005532 0.000000 0.056593 0.000000
# 6 0.000000 0.000000 0.000000 -0.003790 0.000000 0.035005
#
#
# Mechanical properties :
#
#
# Convention : Reuss Voigt Hill
#
# Bulk Modulus (GPa) = 51.69872 93.32379 72.51126
# Shear Modulus (GPa) = 22.99484 35.99399 29.49442
#
# Velocity S-wave (km/s) = 3.21180 4.01835 3.63750
# Velocity P-wave (km/s) = 6.07837 7.96211 7.08314
#
# Compressibility (1/GPa) = 0.01934284
#
# Stress axis : x y z
#
# Youngs Moduli (GPa) = 27.81327 77.50764 154.88729
#
# Poissons Ratio (x) = 1.08293 0.18501
# Poissons Ratio (y) = 0.38860 0.43653
# Poissons Ratio (z) = 0.03322 0.21845
#
# Static dielectric constant tensor:
#      x y z
#    x 5.269670 0.000000 6.183100 
#    y 0.000000 4.020980 0.000000 
#    z 6.183100 0.000000 32.609390 
# 
# 
# High freq. dielectric constant tensor:
#      x y z
#    x 1.866670 0.000000 0.007660 
#    y 0.000000 1.886560 0.000000 
#    z 0.007660 0.000000 1.914460 
# 
# From -- ./inp_files/2563.got.cif
#   From: 2010.06.25/outbox.cif.g09.slc.cpg/sg15_2_cif.got.tgz:2563.got - 2010.06.28 07:06:18.
