data_PCOD8141120
_publ_section_title
;
Structure prediction by ZEFSAII (Michael W. Deem and Ramdas Pophale) SiO2 
 PCOD8141120
Probable space group: C 2/C
;
_chemical_formula_sum "Si O2"
_cell_formula_units_Z 60
_cell_length_a 27.212323
_cell_length_b 6.211212
_cell_length_c 17.977660
_cell_angle_alpha 90.000000
_cell_angle_beta 101.851455
_cell_angle_gamma 90.000000
_cell_volume 2973.838161
_symmetry_space_group_name_H-M "C 2/C"
_symmetry_group_IT_number 15
_symmetry_cell_setting 'monoclinic'
loop_
_space_group_symop_operation_xyz
x,y,z
-x,y,1/2-z
-x,-y,-z
x,-y,1/2+z
1/2+x,1/2+y,z
1/2-x,1/2+y,1/2-z
1/2-x,1/2-y,-z
1/2+x,1/2-y,1/2+z
loop_
_atom_site_type_symbol
_atom_site_label
_atom_site_fract_x
_atom_site_fract_y
_atom_site_fract_z
Si Si1 0.937984 0.100643 0.821515
Si Si2 0.409590 0.021047 0.211536
Si Si3 0.287504 0.435967 0.532311
Si Si4 0.500000 0.710790 0.250000
Si Si5 0.366396 0.103802 0.550154
Si Si6 0.874811 0.717312 0.838245
Si Si7 0.946318 0.573458 0.454671
Si Si8 0.705499 0.817161 0.071554
O O1 0.927790 0.246627 0.745569
O O2 0.955221 0.239077 0.897273
O O3 0.887779 0.967035 0.826677
O O4 0.982123 0.934044 0.813988
O O5 0.455601 0.862475 0.207817
O O6 0.380310 0.044523 0.125081
O O7 0.373283 0.918729 0.262208
O O8 0.250000 0.250000 0.500000
O O9 0.341034 0.328656 0.570800
O O10 0.294502 0.577862 0.460715
O O11 0.262289 0.582741 0.590362
O O12 0.414579 0.161702 0.514713
O O13 0.327180 0.969113 0.490957
O O14 0.917260 0.624828 0.907229
O O15 0.818903 0.695848 0.854422
O O16 0.000000 0.500000 0.500000
#
# Coordination Sequence:
#
# PCOD8141120 Si02
#       8
#     8   8   8   4   8   8   8   8
#     4  10  21  37  55  75 115 160 196 235 289 336
#     4  10  22  37  56  81 118 153 199 234 282 343
#     4   9  18  35  61  87 110 145 181 233 294 348
#     4  10  22  36  56  78 112 164 200 226 278 348
#     4  10  21  35  58  87 117 148 191 246 285 344
#     4   9  20  38  55  84 109 155 193 230 293 348
#     4  10  22  35  54  83 122 150 194 247 282 334
#     4   9  18  36  62  86 114 143 188 234 296 354
#
# _framework density 20.175944999999999
#
# number of rings (size 3 to 8) (size 9 to 14) (size 15 to 20)
#    0.000    2.400    0.000    1.200    7.467    3.733 
#    2.400    0.000    8.800    0.000    0.000    0.000 
#    0.000    0.000    0.000    0.000    0.000    0.000 
#
# Total GULP energy -371905.454080 kJ/mol
# GULP energy per Si atom -12396.848469 kJ/mol
# Density = 2.013002 g / cm^3
# Si number density = 20.175945 Si / 1000 Ang^3
#
#
#
# Elastic Constant Matrix: (Units=GPa)
#
#
# Indices 1 2 3 4 5 6 
#
# 1 117.5507 39.3172 37.6211 0.0000 -30.5698 0.0000
# 2 39.3172 97.8910 17.6548 0.0000 -14.6263 0.0000
# 3 37.6211 17.6548 79.9171 0.0000 -18.8114 0.0000
# 4 0.0000 0.0000 0.0000 17.1004 0.0000 -7.4123
# 5 -30.5698 -14.6263 -18.8114 0.0000 27.8546 0.0000
# 6 0.0000 0.0000 0.0000 -7.4123 0.0000 21.8602
#
#
#
# Elastic Compliance Matrix: (Units=1/GPa)
#
#
# Indices 1 2 3 4 5 6 
#
# 1 0.013399 -0.003196 -0.003014 0.000000 0.010991 0.000000
# 2 -0.003196 0.011959 -0.000577 0.000000 0.002383 0.000000
# 3 -0.003014 -0.000577 0.015706 0.000000 0.006996 0.000000
# 4 0.000000 0.000000 0.000000 0.068554 0.000000 0.023245
# 5 0.010991 0.002383 0.006996 0.000000 0.053939 0.000000
# 6 0.000000 0.000000 0.000000 0.023245 0.000000 0.053627
#
#
# Mechanical properties :
#
#
# Convention : Reuss Voigt Hill
#
# Bulk Modulus (GPa) = 36.37601 53.83832 45.10717
# Shear Modulus (GPa) = 20.84016 26.74743 23.79380
#
# Velocity S-wave (km/s) = 3.21740 3.64498 3.43784
# Velocity P-wave (km/s) = 5.64542 6.66760 6.17768
#
# Compressibility (1/GPa) = 0.02749065
#
# Stress axis : x y z
#
# Youngs Moduli (GPa) = 74.63314 83.61896 63.66941
#
# Poissons Ratio (x) = 0.26722 0.19192
# Poissons Ratio (y) = 0.23850 0.03671
# Poissons Ratio (z) = 0.22497 0.04822
#
# Static dielectric constant tensor:
#      x y z
#    x 4.058590 0.000000 -0.400330 
#    y 0.000000 4.011150 0.000000 
#    z -0.400330 0.000000 3.430740 
# 
# 
# High freq. dielectric constant tensor:
#      x y z
#    x 1.790940 0.000000 -0.030890 
#    y 0.000000 1.797300 0.000000 
#    z -0.030890 0.000000 1.759840 
# 
# From -- ./inp_files/223668.got.cif
#   From: 2010.06.25/outbox.cif.g09.slc.cpg/sg15_112_cif.got.tgz:223668.got - 2010.06.28 07:06:18.
