data_PCOD8141902
_publ_section_title
;
Structure prediction by ZEFSAII (Michael W. Deem and Ramdas Pophale) SiO2 
 PCOD8141902
Probable space group: C 2/C
;
_chemical_formula_sum "Si O2"
_cell_formula_units_Z 48
_cell_length_a 9.405508
_cell_length_b 9.790135
_cell_length_c 27.302506
_cell_angle_alpha 90.000000
_cell_angle_beta 98.830458
_cell_angle_gamma 90.000000
_cell_volume 2484.248111
_symmetry_space_group_name_H-M "C 2/C"
_symmetry_group_IT_number 15
_symmetry_cell_setting 'monoclinic'
loop_
_space_group_symop_operation_xyz
x,y,z
-x,y,1/2-z
-x,-y,-z
x,-y,1/2+z
1/2+x,1/2+y,z
1/2-x,1/2+y,1/2-z
1/2-x,1/2-y,-z
1/2+x,1/2-y,1/2+z
loop_
_atom_site_type_symbol
_atom_site_label
_atom_site_fract_x
_atom_site_fract_y
_atom_site_fract_z
Si Si1 0.397050 0.516242 0.631248
Si Si2 0.437211 0.748669 0.195823
Si Si3 0.346936 0.848806 0.061365
Si Si4 0.630352 0.562273 0.478259
Si Si5 0.916044 0.535069 0.858495
Si Si6 0.147794 0.225383 0.643058
O O1 0.446130 0.367649 0.653954
O O2 0.353333 0.514011 0.572207
O O3 0.252856 0.573388 0.648908
O O4 0.528648 0.614695 0.648504
O O5 0.500000 0.691767 0.250000
O O6 0.523889 0.885731 0.185851
O O7 0.268233 0.785638 0.192274
O O8 0.400881 0.721298 0.032574
O O9 0.488784 0.918361 0.090425
O O10 0.228785 0.801068 0.095668
O O11 0.271940 0.954973 0.019800
O O12 0.500000 0.500000 0.500000
O O13 0.930474 0.371589 0.857839
#
# Coordination Sequence:
#
# PCOD8141902 Si02
#       6
#     8   8   8   8   8   8
#     4  11  22  40  62  92 121 157 201 248 296 358
#     4  10  23  44  65  83 116 158 196 249 312 360
#     4  10  21  38  58  83 124 164 198 239 288 350
#     4  11  20  36  62  87 123 167 203 236 295 351
#     4  10  21  40  60  88 120 154 200 247 297 353
#     4  10  21  39  61  88 121 152 196 251 293 354
#
# _framework density 19.321739999999998
#
# number of rings (size 3 to 8) (size 9 to 14) (size 15 to 20)
#    0.000    1.667    6.667    0.000    0.000    7.333 
#    0.000    2.500    0.000    0.000    0.000    0.000 
#    0.000    0.000    0.000    0.000    0.000    0.000 
#
# Total GULP energy -297454.028488 kJ/mol
# GULP energy per Si atom -12393.917854 kJ/mol
# Density = 1.927776 g / cm^3
# Si number density = 19.321740 Si / 1000 Ang^3
#
#
#
# Elastic Constant Matrix: (Units=GPa)
#
#
# Indices 1 2 3 4 5 6 
#
# 1 120.8026 70.9605 28.6053 0.0000 17.7397 0.0000
# 2 70.9605 98.1368 18.6524 0.0000 -0.3287 0.0000
# 3 28.6053 18.6524 88.4110 0.0000 25.4337 0.0000
# 4 0.0000 0.0000 0.0000 15.9952 0.0000 0.8663
# 5 17.7397 -0.3287 25.4337 0.0000 29.5301 0.0000
# 6 0.0000 0.0000 0.0000 0.8663 0.0000 45.1472
#
#
#
# Elastic Compliance Matrix: (Units=1/GPa)
#
#
# Indices 1 2 3 4 5 6 
#
# 1 0.017081 -0.012407 0.000110 0.000000 -0.010494 0.000000
# 2 -0.012407 0.019794 -0.003150 0.000000 0.010386 0.000000
# 3 0.000110 -0.003150 0.015911 0.000000 -0.013805 0.000000
# 4 0.000000 0.000000 0.000000 0.062584 0.000000 -0.001201
# 5 -0.010494 0.010386 -0.013805 0.000000 0.052173 0.000000
# 6 0.000000 0.000000 0.000000 -0.001201 0.000000 0.022173
#
#
# Mechanical properties :
#
#
# Convention : Reuss Voigt Hill
#
# Bulk Modulus (GPa) = 45.67709 60.42077 53.04893
# Shear Modulus (GPa) = 21.93876 30.74331 26.34104
#
# Velocity S-wave (km/s) = 3.37329 3.99322 3.69627
# Velocity P-wave (km/s) = 6.23408 7.25257 6.76253
#
# Compressibility (1/GPa) = 0.02189281
#
# Stress axis : x y z
#
# Youngs Moduli (GPa) = 58.54540 50.51950 62.84896
#
# Poissons Ratio (x) = 0.62678 -0.00690
# Poissons Ratio (y) = 0.72636 0.19796
# Poissons Ratio (z) = -0.00643 0.15913
#
# Static dielectric constant tensor:
#      x y z
#    x 3.624520 0.000000 0.302140 
#    y 0.000000 3.421290 0.000000 
#    z 0.302140 0.000000 3.425850 
# 
# 
# High freq. dielectric constant tensor:
#      x y z
#    x 1.757080 0.000000 0.018420 
#    y 0.000000 1.745670 0.000000 
#    z 0.018420 0.000000 1.745480 
# 
# From -- ./inp_files/306696.got.cif
#   From: 2010.06.25/outbox.cif.g09.slc.cpg/sg15_154_cif.got.tgz:306696.got - 2010.06.28 07:06:18.
