data_PCOD8141578
_publ_section_title
;
Structure prediction by ZEFSAII (Michael W. Deem and Ramdas Pophale) SiO2 
 PCOD8141578
Probable space group: C 2/C
;
_chemical_formula_sum "Si O2"
_cell_formula_units_Z 40
_cell_length_a 21.935864
_cell_length_b 8.949960
_cell_length_c 9.651543
_cell_angle_alpha 90.000000
_cell_angle_beta 89.677989
_cell_angle_gamma 90.000000
_cell_volume 1894.810271
_symmetry_space_group_name_H-M "C 2/C"
_symmetry_group_IT_number 15
_symmetry_cell_setting 'monoclinic'
loop_
_space_group_symop_operation_xyz
x,y,z
-x,y,1/2-z
-x,-y,-z
x,-y,1/2+z
1/2+x,1/2+y,z
1/2-x,1/2+y,1/2-z
1/2-x,1/2-y,-z
1/2+x,1/2-y,1/2+z
loop_
_atom_site_type_symbol
_atom_site_label
_atom_site_fract_x
_atom_site_fract_y
_atom_site_fract_z
Si Si1 0.430335 0.146259 0.908534
Si Si2 0.752076 0.499484 0.002519
Si Si3 0.832849 0.759615 0.100639
Si Si4 0.835028 0.248793 0.900879
Si Si5 0.067418 0.651558 0.911372
O O1 0.498510 0.213691 0.919073
O O2 0.413618 0.117838 0.747652
O O3 0.382427 0.261751 0.975893
O O4 0.425960 0.995388 0.995874
O O5 0.706135 0.589071 0.904430
O O6 0.801378 0.408396 0.913162
O O7 0.787908 0.617227 0.097308
O O8 0.714003 0.383739 0.095280
O O9 0.866547 0.756165 0.249125
O O10 0.886174 0.228985 0.020700
#
# Coordination Sequence:
#
# PCOD8141578 Si02
#       5
#     8   8   8   8   8
#     4  10  21  37  59  87 118 153 197 247 296 349
#     4  10  24  38  58  90 124 156 196 242 294 350
#     4  11  22  39  62  89 120 158 198 243 295 353
#     4  11  22  39  62  89 120 158 198 243 295 353
#     4  10  21  37  59  87 118 153 197 247 296 349
#
# _framework density 21.110292999999999
#
# number of rings (size 3 to 8) (size 9 to 14) (size 15 to 20)
#    0.000    1.600    2.000    2.400    0.000   10.400 
#    0.000    1.000    0.000    0.000    0.000    0.000 
#    0.000    0.000    0.000    0.000    0.000    0.000 
#
# Total GULP energy -247938.440113 kJ/mol
# GULP energy per Si atom -12396.922006 kJ/mol
# Density = 2.106224 g / cm^3
# Si number density = 21.110293 Si / 1000 Ang^3
#
#
#
# Elastic Constant Matrix: (Units=GPa)
#
#
# Indices 1 2 3 4 5 6 
#
# 1 113.0059 18.1812 58.0323 0.0000 5.2919 0.0000
# 2 18.1812 64.1122 14.0702 0.0000 5.8941 0.0000
# 3 58.0323 14.0702 181.1158 0.0000 7.8679 0.0000
# 4 0.0000 0.0000 0.0000 11.7602 0.0000 3.3222
# 5 5.2919 5.8941 7.8679 0.0000 27.9211 0.0000
# 6 0.0000 0.0000 0.0000 3.3222 0.0000 18.6811
#
#
#
# Elastic Compliance Matrix: (Units=1/GPa)
#
#
# Indices 1 2 3 4 5 6 
#
# 1 0.010947 -0.002320 -0.003299 0.000000 -0.000655 0.000000
# 2 -0.002320 0.016619 -0.000419 0.000000 -0.002950 0.000000
# 3 -0.003299 -0.000419 0.006661 0.000000 -0.001163 0.000000
# 4 0.000000 0.000000 0.000000 0.089531 0.000000 -0.015922
# 5 -0.000655 -0.002950 -0.001163 0.000000 0.036890 0.000000
# 6 0.000000 0.000000 0.000000 -0.015922 0.000000 0.056361
#
#
# Mechanical properties :
#
#
# Convention : Reuss Voigt Hill
#
# Bulk Modulus (GPa) = 45.14594 59.86681 52.50637
# Shear Modulus (GPa) = 21.14430 29.53584 25.34007
#
# Velocity S-wave (km/s) = 3.16826 3.74454 3.46839
# Velocity P-wave (km/s) = 5.90051 6.86411 6.40047
#
# Compressibility (1/GPa) = 0.02215039
#
# Stress axis : x y z
#
# Youngs Moduli (GPa) = 91.34773 60.17241 150.11678
#
# Poissons Ratio (x) = 0.13961 0.49522
# Poissons Ratio (y) = 0.21194 0.06297
# Poissons Ratio (z) = 0.30135 0.02524
#
# Static dielectric constant tensor:
#      x y z
#    x 4.113490 0.000000 0.031120 
#    y 0.000000 3.630760 0.000000 
#    z 0.031120 0.000000 3.790660 
# 
# 
# High freq. dielectric constant tensor:
#      x y z
#    x 1.832290 0.000000 0.001630 
#    y 0.000000 1.797250 0.000000 
#    z 0.001630 0.000000 1.834620 
# 
# From -- ./inp_files/60011.got.cif
#   From: 2010.06.25/outbox.cif.g09.slc.cpg/sg15_31_cif.got.tgz:60011.got - 2010.06.28 07:06:18.
