data_PCOD8141919
_publ_section_title
;
Structure prediction by ZEFSAII (Michael W. Deem and Ramdas Pophale) SiO2 
 PCOD8141919
Probable space group: C 2/C
;
_chemical_formula_sum "Si O2"
_cell_formula_units_Z 32
_cell_length_a 18.574151
_cell_length_b 6.974056
_cell_length_c 11.393419
_cell_angle_alpha 90.000000
_cell_angle_beta 109.812774
_cell_angle_gamma 90.000000
_cell_volume 1388.507378
_symmetry_space_group_name_H-M "C 2/C"
_symmetry_group_IT_number 15
_symmetry_cell_setting 'monoclinic'
loop_
_space_group_symop_operation_xyz
x,y,z
-x,y,1/2-z
-x,-y,-z
x,-y,1/2+z
1/2+x,1/2+y,z
1/2-x,1/2+y,1/2-z
1/2-x,1/2-y,-z
1/2+x,1/2-y,1/2+z
loop_
_atom_site_type_symbol
_atom_site_label
_atom_site_fract_x
_atom_site_fract_y
_atom_site_fract_z
Si Si1 0.098507 0.176704 0.411835
Si Si2 0.835604 0.440629 0.869360
Si Si3 0.833825 0.092210 0.720627
Si Si4 0.930710 0.778855 0.859994
O O1 0.161221 0.294201 0.519594
O O2 0.130866 0.965848 0.388299
O O3 0.081475 0.290274 0.281490
O O4 0.018178 0.163230 0.438232
O O5 0.755409 0.546941 0.824411
O O6 0.902346 0.599039 0.921585
O O7 0.845570 0.316395 0.754929
O O8 0.877724 0.969620 0.848268
#
# Coordination Sequence:
#
# PCOD8141919 Si02
#       4
#     8   8   8   8
#     4   9  21  42  56  87 125 147 197 250 284 353
#     4  12  20  39  65  81 122 163 184 249 303 329
#     4  10  21  38  58  91 118 148 205 239 283 365
#     4   9  21  42  55  88 119 146 206 238 281 368
#
# _framework density 23.046330999999999
#
# number of rings (size 3 to 8) (size 9 to 14) (size 15 to 20)
#    1.500    0.500    2.500    1.500    0.000    1.000 
#   13.500    2.500    0.000    0.000    0.000    0.000 
#    0.000    0.000    0.000    0.000    0.000    0.000 
#
# Total GULP energy -198212.207470 kJ/mol
# GULP energy per Si atom -12388.262967 kJ/mol
# Density = 2.299388 g / cm^3
# Si number density = 23.046331 Si / 1000 Ang^3
#
#
#
# Elastic Constant Matrix: (Units=GPa)
#
#
# Indices 1 2 3 4 5 6 
#
# 1 125.8741 50.8430 -6.1293 0.0000 6.8065 0.0000
# 2 50.8430 86.6418 -12.9168 0.0000 -4.6757 0.0000
# 3 -6.1293 -12.9168 16.1661 0.0000 6.7138 0.0000
# 4 0.0000 0.0000 0.0000 20.4405 0.0000 -4.4691
# 5 6.8065 -4.6757 6.7138 0.0000 17.9614 0.0000
# 6 0.0000 0.0000 0.0000 -4.4691 0.0000 13.8802
#
#
#
# Elastic Compliance Matrix: (Units=1/GPa)
#
#
# Indices 1 2 3 4 5 6 
#
# 1 0.011035 -0.006584 0.001623 0.000000 -0.006502 0.000000
# 2 -0.006584 0.017037 0.009752 0.000000 0.003285 0.000000
# 3 0.001623 0.009752 0.082231 0.000000 -0.028814 0.000000
# 4 0.000000 0.000000 0.000000 0.052627 0.000000 0.016945
# 5 -0.006502 0.003285 -0.028814 0.000000 0.069765 0.000000
# 6 0.000000 0.000000 0.000000 0.016945 0.000000 0.077501
#
#
# Mechanical properties :
#
#
# Convention : Reuss Voigt Hill
#
# Bulk Modulus (GPa) = 8.34137 32.47508 20.40822
# Shear Modulus (GPa) = 14.68105 23.58210 19.13158
#
# Velocity S-wave (km/s) = 2.52667 3.20229 2.88433
# Velocity P-wave (km/s) = 3.48415 5.27207 4.46845
#
# Compressibility (1/GPa) = 0.11988445
#
# Stress axis : x y z
#
# Youngs Moduli (GPa) = 90.62415 58.69719 12.16079
#
# Poissons Ratio (x) = 0.38647 -0.01974
# Poissons Ratio (y) = 0.59669 -0.11859
# Poissons Ratio (z) = -0.14712 -0.57240
#
# Static dielectric constant tensor:
#      x y z
#    x 4.023310 0.000000 0.076170 
#    y 0.000000 3.848490 0.000000 
#    z 0.076170 0.000000 3.813900 
# 
# 
# High freq. dielectric constant tensor:
#      x y z
#    x 1.909070 0.000000 0.015730 
#    y 0.000000 1.894030 0.000000 
#    z 0.015730 0.000000 1.892880 
# 
# From -- ./inp_files/102282.got.cif
#   From: 2010.06.25/outbox.cif.g09.slc.cpg/sg15_52_cif.got.tgz:102282.got - 2010.06.28 07:06:18.
