data_PCOD8141125
_publ_section_title
;
Structure prediction by ZEFSAII (Michael W. Deem and Ramdas Pophale) SiO2 
 PCOD8141125
Probable space group: C 2/C
;
_chemical_formula_sum "Si O2"
_cell_formula_units_Z 56
_cell_length_a 14.945871
_cell_length_b 22.651075
_cell_length_c 23.326144
_cell_angle_alpha 90.000000
_cell_angle_beta 158.458240
_cell_angle_gamma 90.000000
_cell_volume 2899.553634
_symmetry_space_group_name_H-M "C 2/C"
_symmetry_group_IT_number 15
_symmetry_cell_setting 'monoclinic'
loop_
_space_group_symop_operation_xyz
x,y,z
-x,y,1/2-z
-x,-y,-z
x,-y,1/2+z
1/2+x,1/2+y,z
1/2-x,1/2+y,1/2-z
1/2-x,1/2-y,-z
1/2+x,1/2-y,1/2+z
loop_
_atom_site_type_symbol
_atom_site_label
_atom_site_fract_x
_atom_site_fract_y
_atom_site_fract_z
Si Si1 0.752896 0.667748 0.287737
Si Si2 0.244026 0.569746 0.126210
Si Si3 0.181997 0.484621 0.190851
Si Si4 0.432429 0.090984 0.298503
Si Si5 0.718813 0.299130 0.151518
Si Si6 0.246895 0.806271 0.037511
Si Si7 0.093900 0.903894 0.491373
O O1 0.854029 0.628040 0.399524
O O2 0.876076 0.649998 0.301113
O O3 0.790025 0.736997 0.320592
O O4 0.463777 0.650428 0.111031
O O5 0.500000 0.583422 0.250000
O O6 0.280828 0.514390 0.191232
O O7 0.036760 0.559538 0.955114
O O8 0.059464 0.533875 0.157153
O O9 0.398321 0.451823 0.353546
O O10 0.698860 0.103401 0.432554
O O11 0.224142 0.076619 0.127661
O O12 0.663261 0.287411 0.051726
O O13 0.530275 0.340781 0.071675
O O14 0.982041 0.332867 0.307092
O O15 0.250000 0.750000 0.000000
#
# Coordination Sequence:
#
# PCOD8141125 Si02
#       7
#     8   8   8   8   8   8   8
#     4  10  21  37  60  86 126 157 196 248 303 355
#     4  10  22  36  61  89 116 156 200 248 306 355
#     4  10  22  41  59  87 119 156 207 250 299 364
#     4  10  22  42  61  86 121 160 199 258 300 354
#     4  10  21  35  58  92 120 159 201 239 301 369
#     4   9  19  35  55  84 126 156 192 245 289 355
#     4  11  22  39  64  88 120 160 202 248 306 358
#
# _framework density 19.313317999999999
#
# number of rings (size 3 to 8) (size 9 to 14) (size 15 to 20)
#    0.000    2.000    1.429    1.286    6.000    1.714 
#    0.000    1.429    0.000    0.000    0.000    0.000 
#    0.000    0.000    0.000    0.000    0.000    0.000 
#
# Total GULP energy -347033.427973 kJ/mol
# GULP energy per Si atom -12394.050999 kJ/mol
# Density = 1.926936 g / cm^3
# Si number density = 19.313318 Si / 1000 Ang^3
#
#
#
# Elastic Constant Matrix: (Units=GPa)
#
#
# Indices 1 2 3 4 5 6 
#
# 1 115.7021 43.9900 53.9070 0.0083 9.1272 -0.0005
# 2 43.9900 82.7048 44.3902 -0.0184 5.8953 -0.0140
# 3 53.9070 44.3902 107.2674 -0.0129 4.8674 -0.0668
# 4 0.0083 -0.0184 -0.0129 29.8785 -0.0284 1.2073
# 5 9.1272 5.8953 4.8674 -0.0284 29.3082 -0.0038
# 6 -0.0005 -0.0140 -0.0668 1.2073 -0.0038 27.8954
#
#
#
# Elastic Compliance Matrix: (Units=1/GPa)
#
#
# Indices 1 2 3 4 5 6 
#
# 1 0.012453 -0.004057 -0.004474 -0.000010 -0.002319 -0.000012
# 2 -0.004057 0.016991 -0.004932 0.000008 -0.001335 -0.000004
# 3 -0.004474 -0.004932 0.013606 0.000003 0.000126 0.000030
# 4 -0.000010 0.000008 0.000003 0.033528 0.000033 -0.001451
# 5 -0.002319 -0.001335 0.000126 0.000033 0.035090 0.000003
# 6 -0.000012 -0.000004 0.000030 -0.001451 0.000003 0.035911
#
#
# Mechanical properties :
#
#
# Convention : Reuss Voigt Hill
#
# Bulk Modulus (GPa) = 62.01804 65.58318 63.80061
# Shear Modulus (GPa) = 27.79630 28.30890 28.05260
#
# Velocity S-wave (km/s) = 3.79783 3.83269 3.81530
# Velocity P-wave (km/s) = 7.17026 7.32238 7.24672
#
# Compressibility (1/GPa) = 0.01612434
#
# Stress axis : x y z
#
# Youngs Moduli (GPa) = 80.30358 58.85314 73.49543
#
# Poissons Ratio (x) = 0.23876 0.32882
# Poissons Ratio (y) = 0.32578 0.36249
# Poissons Ratio (z) = 0.35928 0.29027
#
# Static dielectric constant tensor:
#      x y z
#    x 3.670180 -0.000390 0.009690 
#    y -0.000390 3.274970 -0.002570 
#    z 0.009690 -0.002570 4.573630 
# 
# 
# High freq. dielectric constant tensor:
#      x y z
#    x 1.763240 0.000000 -0.008690 
#    y 0.000000 1.734460 -0.000020 
#    z -0.008690 -0.000020 1.759530 
# 
# From -- ./inp_files/275246.got.cif
#   From: 2010.06.25/outbox.cif.g09.slc.cpg/sg15_138_cif.got.tgz:275246.got - 2010.06.28 07:06:18.
