data_PCOD8141098
_publ_section_title
;
Structure prediction by ZEFSAII (Michael W. Deem and Ramdas Pophale) SiO2 
 PCOD8141098
Probable space group: C 2/C
;
_chemical_formula_sum "Si O2"
_cell_formula_units_Z 40
_cell_length_a 19.297560
_cell_length_b 20.920947
_cell_length_c 14.403320
_cell_angle_alpha 90.000000
_cell_angle_beta 20.232350
_cell_angle_gamma 90.000000
_cell_volume 2010.974390
_symmetry_space_group_name_H-M "C 2/C"
_symmetry_group_IT_number 15
_symmetry_cell_setting 'monoclinic'
loop_
_space_group_symop_operation_xyz
x,y,z
-x,y,1/2-z
-x,-y,-z
x,-y,1/2+z
1/2+x,1/2+y,z
1/2-x,1/2+y,1/2-z
1/2-x,1/2-y,-z
1/2+x,1/2-y,1/2+z
loop_
_atom_site_type_symbol
_atom_site_label
_atom_site_fract_x
_atom_site_fract_y
_atom_site_fract_z
Si Si1 0.036693 0.310680 0.842789
Si Si2 0.168364 0.413382 0.299422
Si Si3 0.662989 0.327814 0.182394
Si Si4 0.449651 0.972400 0.417175
Si Si5 0.034857 0.925352 0.947239
O O1 0.259617 0.329119 0.522365
O O2 0.031948 0.235195 0.869600
O O3 0.980903 0.352230 0.003852
O O4 0.864069 0.327920 0.988261
O O5 0.108305 0.464388 0.454047
O O6 0.139268 0.440514 0.232081
O O7 0.403332 0.397515 0.025372
O O8 0.528369 0.389034 0.378113
O O9 0.500000 0.994168 0.250000
O O10 0.273124 0.918747 0.633228
O O11 0.000000 0.000000 0.000000
#
# Coordination Sequence:
#
# PCOD8141098 Si02
#       5
#     8   8   8   8   8
#     4   9  18  31  53  78 115 141 174 221 281 334
#     4   9  20  36  53  82 108 144 180 225 280 321
#     4   9  18  31  51  83 111 144 173 222 281 336
#     4  10  21  35  57  78 108 144 187 228 273 328
#     4   9  19  34  54  79 112 142 183 222 272 328
#
# _framework density 19.890854999999998
#
# number of rings (size 3 to 8) (size 9 to 14) (size 15 to 20)
#    0.000    2.800    0.000    0.000   11.200    0.800 
#    0.000    0.000    0.000    1.200    0.000    0.000 
#    0.000    0.000    0.000    0.000    0.000    0.000 
#
# Total GULP energy -247766.850551 kJ/mol
# GULP energy per Si atom -12388.342528 kJ/mol
# Density = 1.984558 g / cm^3
# Si number density = 19.890855 Si / 1000 Ang^3
#
#
#
# Elastic Constant Matrix: (Units=GPa)
#
#
# Indices 1 2 3 4 5 6 
#
# 1 75.8789 11.1071 16.2492 -0.0700 6.9254 0.0231
# 2 11.1071 98.4388 26.5190 -0.2696 7.2381 -0.0408
# 3 16.2492 26.5190 57.3223 -0.4134 -9.3161 -0.0316
# 4 -0.0700 -0.2696 -0.4134 24.6893 0.0333 -6.1423
# 5 6.9254 7.2381 -9.3161 0.0333 25.0141 -0.0034
# 6 0.0231 -0.0408 -0.0316 -6.1423 -0.0034 17.3181
#
#
#
# Elastic Compliance Matrix: (Units=1/GPa)
#
#
# Indices 1 2 3 4 5 6 
#
# 1 0.014845 0.000205 -0.005302 -0.000048 -0.006144 -0.000047
# 2 0.000205 0.012426 -0.006812 0.000038 -0.006189 0.000029
# 3 -0.005302 -0.006812 0.024121 0.000337 0.012422 0.000157
# 4 -0.000048 0.000038 0.000337 0.044430 0.000071 0.015759
# 5 -0.006144 -0.006189 0.012422 0.000071 0.048096 0.000051
# 6 -0.000047 0.000029 0.000157 0.015759 0.000051 0.063333
#
#
# Mechanical properties :
#
#
# Convention : Reuss Voigt Hill
#
# Bulk Modulus (GPa) = 36.26663 37.71007 36.98835
# Shear Modulus (GPa) = 20.81081 25.25528 23.03305
#
# Velocity S-wave (km/s) = 3.23809 3.56714 3.40659
# Velocity P-wave (km/s) = 5.67914 5.99714 5.84031
#
# Compressibility (1/GPa) = 0.02757356
#
# Stress axis : x y z
#
# Youngs Moduli (GPa) = 67.36298 80.47705 41.45756
#
# Poissons Ratio (x) = -0.01649 0.21980
# Poissons Ratio (y) = -0.01380 0.28242
# Poissons Ratio (z) = 0.35714 0.54823
#
# Static dielectric constant tensor:
#      x y z
#    x 3.874570 -0.000080 -0.434450 
#    y -0.000080 3.668720 0.000170 
#    z -0.434450 0.000170 4.028270 
# 
# 
# High freq. dielectric constant tensor:
#      x y z
#    x 1.760960 -0.000010 -0.032350 
#    y -0.000010 1.761540 0.000020 
#    z -0.032350 0.000020 1.753430 
# 
# From -- ./inp_files/58557.got.cif
#   From: 2010.06.25/outbox.cif.g09.slc.cpg/sg15_30_cif.got.tgz:58557.got - 2010.06.28 07:06:18.
