data_PCOD8141786
_publ_section_title
;
Structure prediction by ZEFSAII (Michael W. Deem and Ramdas Pophale) SiO2 
 PCOD8141786
Probable space group: C 2/C
;
_chemical_formula_sum "Si O2"
_cell_formula_units_Z 40
_cell_length_a 16.621075
_cell_length_b 20.382861
_cell_length_c 10.525102
_cell_angle_alpha 90.000000
_cell_angle_beta 147.748889
_cell_angle_gamma 90.000000
_cell_volume 1902.793009
_symmetry_space_group_name_H-M "C 2/C"
_symmetry_group_IT_number 15
_symmetry_cell_setting 'monoclinic'
loop_
_space_group_symop_operation_xyz
x,y,z
-x,y,1/2-z
-x,-y,-z
x,-y,1/2+z
1/2+x,1/2+y,z
1/2-x,1/2+y,1/2-z
1/2-x,1/2-y,-z
1/2+x,1/2-y,1/2+z
loop_
_atom_site_type_symbol
_atom_site_label
_atom_site_fract_x
_atom_site_fract_y
_atom_site_fract_z
Si Si1 0.636146 0.228093 0.685951
Si Si2 0.181115 0.060459 0.991796
Si Si3 0.195299 0.704540 0.316044
Si Si4 0.331702 0.523667 0.256542
Si Si5 0.141014 0.848870 0.861123
O O1 0.746598 0.265708 0.737884
O O2 0.485543 0.200964 0.420367
O O3 0.589197 0.280283 0.730697
O O4 0.718956 0.165115 0.857959
O O5 0.000000 0.061522 0.750000
O O6 0.245470 0.023608 0.951898
O O7 0.240019 0.133580 0.069093
O O8 0.242263 0.022938 0.200940
O O9 0.250000 0.750000 0.500000
O O10 0.500000 0.500000 0.500000
O O11 0.316302 0.598455 0.188411
O O12 0.000000 0.878667 0.750000
#
# Coordination Sequence:
#
# PCOD8141786 Si02
#       5
#     8   8   8   8   8
#     4  11  24  40  64  95 128 169 211 267 328 384
#     4  10  21  39  62  94 128 170 220 267 320 387
#     4  12  24  41  64  96 136 169 211 270 332 392
#     4  10  21  37  64  94 127 171 220 269 320 386
#     4  11  21  39  65  92 125 166 221 268 312 389
#
# _framework density 21.021730000000002
#
# number of rings (size 3 to 8) (size 9 to 14) (size 15 to 20)
#    0.000    1.200    4.000    3.600    2.800    1.600 
#    0.000    1.000    0.000    2.400    0.000    0.000 
#    0.000    0.000    0.000    0.000    0.000    0.000 
#
# Total GULP energy -247967.420915 kJ/mol
# GULP energy per Si atom -12398.371046 kJ/mol
# Density = 2.097388 g / cm^3
# Si number density = 21.021730 Si / 1000 Ang^3
#
#
#
# Elastic Constant Matrix: (Units=GPa)
#
#
# Indices 1 2 3 4 5 6 
#
# 1 91.0118 44.6398 42.0781 0.0000 -31.6751 0.0000
# 2 44.6398 116.1660 50.2994 0.0000 -25.1909 0.0000
# 3 42.0781 50.2994 117.0095 0.0000 -19.5605 0.0000
# 4 0.0000 0.0000 0.0000 40.8453 0.0000 -13.5669
# 5 -31.6751 -25.1909 -19.5605 0.0000 37.3010 0.0000
# 6 0.0000 0.0000 0.0000 -13.5669 0.0000 39.2759
#
#
#
# Elastic Compliance Matrix: (Units=1/GPa)
#
#
# Indices 1 2 3 4 5 6 
#
# 1 0.017974 -0.003000 -0.003246 0.000000 0.011535 0.000000
# 2 -0.003000 0.012093 -0.003486 0.000000 0.003791 0.000000
# 3 -0.003246 -0.003486 0.011353 0.000000 0.000843 0.000000
# 4 0.000000 0.000000 0.000000 0.027656 0.000000 0.009553
# 5 0.011535 0.003791 0.000843 0.000000 0.039607 0.000000
# 6 0.000000 0.000000 0.000000 0.009553 0.000000 0.028761
#
#
# Mechanical properties :
#
#
# Convention : Reuss Voigt Hill
#
# Bulk Modulus (GPa) = 45.54441 66.46912 56.00677
# Shear Modulus (GPa) = 30.44596 35.96243 33.20419
#
# Velocity S-wave (km/s) = 3.80979 4.14058 3.97863
# Velocity P-wave (km/s) = 6.40821 7.38560 6.91420
#
# Compressibility (1/GPa) = 0.02195659
#
# Stress axis : x y z
#
# Youngs Moduli (GPa) = 55.63462 82.69465 88.08351
#
# Poissons Ratio (x) = 0.24811 0.28590
# Poissons Ratio (y) = 0.16692 0.30703
# Poissons Ratio (z) = 0.18057 0.28824
#
# Static dielectric constant tensor:
#      x y z
#    x 4.157620 0.000000 -0.496030 
#    y 0.000000 3.761050 0.000000 
#    z -0.496030 0.000000 3.844460 
# 
# 
# High freq. dielectric constant tensor:
#      x y z
#    x 1.824840 0.000000 -0.033530 
#    y 0.000000 1.825250 0.000000 
#    z -0.033530 0.000000 1.810710 
# 
# From -- ./inp_files/30510.got.cif
#   From: 2010.06.25/outbox.cif.g09.slc.cpg/sg15_16_cif.got.tgz:30510.got - 2010.06.28 07:06:18.
