data_PCOD8141857
_publ_section_title
;
Structure prediction by ZEFSAII (Michael W. Deem and Ramdas Pophale) SiO2 
 PCOD8141857
Probable space group: C 2/C
;
_chemical_formula_sum "Si O2"
_cell_formula_units_Z 56
_cell_length_a 28.247041
_cell_length_b 18.455554
_cell_length_c 8.721822
_cell_angle_alpha 90.000000
_cell_angle_beta 143.212400
_cell_angle_gamma 90.000000
_cell_volume 2722.861365
_symmetry_space_group_name_H-M "C 2/C"
_symmetry_group_IT_number 15
_symmetry_cell_setting 'monoclinic'
loop_
_space_group_symop_operation_xyz
x,y,z
-x,y,1/2-z
-x,-y,-z
x,-y,1/2+z
1/2+x,1/2+y,z
1/2-x,1/2+y,1/2-z
1/2-x,1/2-y,-z
1/2+x,1/2-y,1/2+z
loop_
_atom_site_type_symbol
_atom_site_label
_atom_site_fract_x
_atom_site_fract_y
_atom_site_fract_z
Si Si1 0.201538 0.480348 0.466941
Si Si2 0.791876 0.605197 0.218517
Si Si3 0.384697 0.402008 0.219441
Si Si4 0.563047 0.803677 0.288173
Si Si5 0.125853 0.955035 0.641862
Si Si6 0.535131 0.931086 0.005214
Si Si7 0.028001 0.175845 0.993472
O O1 0.192889 0.567110 0.407958
O O2 0.202781 0.464122 0.652134
O O3 0.279862 0.447649 0.590352
O O4 0.127307 0.438311 0.206001
O O5 0.854240 0.668477 0.421380
O O6 0.702035 0.635857 0.992162
O O7 0.399510 0.462759 0.386324
O O8 0.450503 0.339262 0.397974
O O9 0.398314 0.443452 0.095300
O O10 0.500000 0.778165 0.250000
O O11 0.519257 0.866069 0.080045
O O12 0.578987 0.738008 0.210732
O O13 0.082960 0.895305 0.634752
O O14 0.500000 0.914693 0.750000
O O15 0.500000 0.000000 0.000000
O O16 0.000000 0.199896 0.750000
#
# Coordination Sequence:
#
# PCOD8141857 Si02
#       7
#     8   8   8   8   8   8   8
#     4   9  17  31  52  79 104 131 170 216 264 312
#     4   9  18  34  54  79 106 133 170 220 267 314
#     4   9  18  34  58  83 106 134 173 218 266 319
#     4  11  23  37  52  74 107 146 183 221 266 317
#     4   9  18  33  56  82 107 134 170 219 271 319
#     4  11  20  33  54  79 105 141 183 225 266 310
#     4  10  21  38  54  76 109 143 177 217 265 323
#
# _framework density 20.566600999999999
#
# number of rings (size 3 to 8) (size 9 to 14) (size 15 to 20)
#    0.000    2.286    0.000    3.857    0.000    1.143 
#    0.000   13.571    0.000    0.000    0.000    0.000 
#    0.000    0.000    0.000    0.000    0.000    0.000 
#
# Total GULP energy -347014.676938 kJ/mol
# GULP energy per Si atom -12393.381319 kJ/mol
# Density = 2.051979 g / cm^3
# Si number density = 20.566601 Si / 1000 Ang^3
#
#
#
# Elastic Constant Matrix: (Units=GPa)
#
#
# Indices 1 2 3 4 5 6 
#
# 1 65.5557 17.8482 16.1247 0.0000 13.2824 0.0000
# 2 17.8482 71.7617 25.5721 0.0000 7.2124 0.0000
# 3 16.1247 25.5721 66.0463 0.0000 16.4852 0.0000
# 4 0.0000 0.0000 0.0000 37.8951 0.0000 -2.6152
# 5 13.2824 7.2124 16.4852 0.0000 22.9368 0.0000
# 6 0.0000 0.0000 0.0000 -2.6152 0.0000 24.2553
#
#
#
# Elastic Compliance Matrix: (Units=1/GPa)
#
#
# Indices 1 2 3 4 5 6 
#
# 1 0.018169 -0.003291 -0.000967 0.000000 -0.008792 0.000000
# 2 -0.003291 0.016771 -0.005910 0.000000 0.000879 0.000000
# 3 -0.000967 -0.005910 0.020791 0.000000 -0.012525 0.000000
# 4 0.000000 0.000000 0.000000 0.026586 0.000000 0.002867
# 5 -0.008792 0.000879 -0.012525 0.000000 0.057414 0.000000
# 6 0.000000 0.000000 0.000000 0.002867 0.000000 0.041537
#
#
# Mechanical properties :
#
#
# Convention : Reuss Voigt Hill
#
# Bulk Modulus (GPa) = 28.25148 35.82818 32.03983
# Shear Modulus (GPa) = 23.42980 26.60536 25.01758
#
# Velocity S-wave (km/s) = 3.37889 3.60059 3.49150
# Velocity P-wave (km/s) = 5.38414 5.89441 5.64504
#
# Compressibility (1/GPa) = 0.03539637
#
# Stress axis : x y z
#
# Youngs Moduli (GPa) = 55.03775 59.62711 48.09697
#
# Poissons Ratio (x) = 0.19621 0.04653
# Poissons Ratio (y) = 0.18111 0.28423
# Poissons Ratio (z) = 0.05325 0.35237
#
# Static dielectric constant tensor:
#      x y z
#    x 3.889330 0.000000 0.128210 
#    y 0.000000 3.417150 0.000000 
#    z 0.128210 0.000000 3.928660 
# 
# 
# High freq. dielectric constant tensor:
#      x y z
#    x 1.810540 0.000000 0.007590 
#    y 0.000000 1.771350 0.000000 
#    z 0.007590 0.000000 1.809400 
# 
# From -- ./inp_files/49037.got.cif
#   From: 2010.06.25/outbox.cif.g09.slc.cpg/sg15_25_cif.got.tgz:49037.got - 2010.06.28 07:06:18.
