data_PCOD8141313
_publ_section_title
;
Structure prediction by ZEFSAII (Michael W. Deem and Ramdas Pophale) SiO2 
 PCOD8141313
Probable space group: C 2/C
;
_chemical_formula_sum "Si O2"
_cell_formula_units_Z 48
_cell_length_a 15.640684
_cell_length_b 11.032851
_cell_length_c 14.105195
_cell_angle_alpha 90.000000
_cell_angle_beta 100.416202
_cell_angle_gamma 90.000000
_cell_volume 2393.899725
_symmetry_space_group_name_H-M "C 2/C"
_symmetry_group_IT_number 15
_symmetry_cell_setting 'monoclinic'
loop_
_space_group_symop_operation_xyz
x,y,z
-x,y,1/2-z
-x,-y,-z
x,-y,1/2+z
1/2+x,1/2+y,z
1/2-x,1/2+y,1/2-z
1/2-x,1/2-y,-z
1/2+x,1/2-y,1/2+z
loop_
_atom_site_type_symbol
_atom_site_label
_atom_site_fract_x
_atom_site_fract_y
_atom_site_fract_z
Si Si1 0.157504 0.331596 0.634148
Si Si2 0.472326 0.755836 0.029027
Si Si3 0.817604 0.444318 0.663883
Si Si4 0.340257 0.222282 0.672884
Si Si5 0.855448 0.183202 0.377384
Si Si6 0.379408 0.918446 0.471134
O O1 0.079359 0.244362 0.581307
O O2 0.151178 0.355212 0.745252
O O3 0.246195 0.267624 0.622348
O O4 0.154691 0.455008 0.573816
O O5 0.406172 0.751401 0.101998
O O6 0.549399 0.654221 0.055302
O O7 0.520523 0.888408 0.039162
O O8 0.833827 0.581272 0.699244
O O9 0.714742 0.422940 0.621022
O O10 0.874015 0.413928 0.583687
O O11 0.373542 0.296885 0.769747
O O12 0.819325 0.309480 0.415884
#
# Coordination Sequence:
#
# PCOD8141313 Si02
#       6
#     8   8   8   8   8   8
#     4  11  22  36  57  91 114 145 196 237 278 336
#     4  10  21  37  56  90 109 144 191 239 278 324
#     4  11  21  37  58  83 118 154 184 234 285 342
#     4  11  21  36  62  85 114 151 187 236 282 337
#     4   9  22  37  56  86 114 148 190 229 287 333
#     4  10  21  36  59  84 112 147 191 231 284 327
#
# _framework density 20.050967
#
# number of rings (size 3 to 8) (size 9 to 14) (size 15 to 20)
#    1.000    0.667    3.333    2.000    0.000    0.667 
#    0.000    0.833    0.000    0.000    8.667    0.000 
#    0.000    0.000    0.000    0.000    0.000    0.000 
#
# Total GULP energy -297376.369453 kJ/mol
# GULP energy per Si atom -12390.682061 kJ/mol
# Density = 2.000533 g / cm^3
# Si number density = 20.050967 Si / 1000 Ang^3
#
#
#
# Elastic Constant Matrix: (Units=GPa)
#
#
# Indices 1 2 3 4 5 6 
#
# 1 65.0459 -1.1535 37.3356 0.0000 8.9638 0.0000
# 2 -1.1535 3.8597 -0.7310 0.0000 -3.6083 0.0000
# 3 37.3356 -0.7310 102.0046 0.0000 -0.1076 0.0000
# 4 0.0000 0.0000 0.0000 19.6632 0.0000 8.0845
# 5 8.9638 -3.6083 -0.1076 0.0000 43.8142 0.0000
# 6 0.0000 0.0000 0.0000 8.0845 0.0000 16.8806
#
#
#
# Elastic Compliance Matrix: (Units=1/GPa)
#
#
# Indices 1 2 3 4 5 6 
#
# 1 0.020192 0.000819 -0.007389 0.000000 -0.004082 0.000000
# 2 0.000819 0.281156 0.001739 0.000000 0.022991 0.000000
# 3 -0.007389 0.001739 0.012522 0.000000 0.001686 0.000000
# 4 0.000000 0.000000 0.000000 0.063326 0.000000 -0.030328
# 5 -0.004082 0.022991 0.001686 0.000000 0.025556 0.000000
# 6 0.000000 0.000000 0.000000 -0.030328 0.000000 0.073764
#
#
# Mechanical properties :
#
#
# Convention : Reuss Voigt Hill
#
# Bulk Modulus (GPa) = 3.28722 26.86805 15.07764
# Shear Modulus (GPa) = 8.50947 25.10221 16.80584
#
# Velocity S-wave (km/s) = 2.06231 3.54209 2.89823
# Velocity P-wave (km/s) = 2.70441 5.49158 4.32847
#
# Compressibility (1/GPa) = 0.30420873
#
# Stress axis : x y z
#
# Youngs Moduli (GPa) = 49.52453 3.55675 79.85779
#
# Poissons Ratio (x) = -0.00291 0.59008
# Poissons Ratio (y) = -0.04058 -0.13888
# Poissons Ratio (z) = 0.36594 -0.00619
#
# Static dielectric constant tensor:
#      x y z
#    x 3.576170 0.000000 0.205600 
#    y 0.000000 3.330630 0.000000 
#    z 0.205600 0.000000 3.894190 
# 
# 
# High freq. dielectric constant tensor:
#      x y z
#    x 1.779350 0.000000 0.005590 
#    y 0.000000 1.745830 0.000000 
#    z 0.005590 0.000000 1.797950 
# 
# From -- ./inp_files/152189.got.cif
#   From: 2010.06.25/outbox.cif.g09.slc.cpg/sg15_77_cif.got.tgz:152189.got - 2010.06.28 07:06:18.
