data_PCOD8141236
_publ_section_title
;
Structure prediction by ZEFSAII (Michael W. Deem and Ramdas Pophale) SiO2 
 PCOD8141236
Probable space group: C 2/C
;
_chemical_formula_sum "Si O2"
_cell_formula_units_Z 40
_cell_length_a 11.359053
_cell_length_b 21.958937
_cell_length_c 8.702565
_cell_angle_alpha 90.000000
_cell_angle_beta 88.074126
_cell_angle_gamma 90.000000
_cell_volume 2169.478398
_symmetry_space_group_name_H-M "C 2/C"
_symmetry_group_IT_number 15
_symmetry_cell_setting 'monoclinic'
loop_
_space_group_symop_operation_xyz
x,y,z
-x,y,1/2-z
-x,-y,-z
x,-y,1/2+z
1/2+x,1/2+y,z
1/2-x,1/2+y,1/2-z
1/2-x,1/2-y,-z
1/2+x,1/2-y,1/2+z
loop_
_atom_site_type_symbol
_atom_site_label
_atom_site_fract_x
_atom_site_fract_y
_atom_site_fract_z
Si Si1 0.841189 0.295723 0.420453
Si Si2 0.248667 0.670709 0.908524
Si Si3 0.111610 0.429541 0.037736
Si Si4 0.354636 0.048745 0.612184
Si Si5 0.439195 0.760908 0.913605
O O1 0.750000 0.250000 0.500000
O O2 0.817185 0.303698 0.241344
O O3 0.834573 0.362968 0.498642
O O4 0.970074 0.267518 0.448683
O O5 0.248990 0.597317 0.918959
O O6 0.384859 0.692342 0.908509
O O7 0.174257 0.695943 0.056383
O O8 0.125280 0.451251 0.209525
O O9 0.970825 0.429357 0.011972
O O10 0.179438 0.479674 0.931569
O O11 0.500000 0.778081 0.750000
#
# Coordination Sequence:
#
# PCOD8141236 Si02
#       5
#     8   8   8   8   8
#     4  11  20  36  55  81 117 142 177 224 277 324
#     4  10  21  36  55  78 116 147 173 232 271 322
#     4   9  18  31  52  75 105 140 173 222 271 318
#     4   9  17  33  50  74 104 138 175 219 275 315
#     4  11  21  34  53  84 108 146 186 216 274 327
#
# _framework density 18.437611
#
# number of rings (size 3 to 8) (size 9 to 14) (size 15 to 20)
#    0.000    2.000    4.000    0.600    0.000    1.600 
#    0.000    0.000    0.000    1.200    0.000    0.000 
#    0.000    0.000    0.000    0.000    0.000    0.000 
#
# Total GULP energy -247847.995008 kJ/mol
# GULP energy per Si atom -12392.399750 kJ/mol
# Density = 1.839565 g / cm^3
# Si number density = 18.437611 Si / 1000 Ang^3
#
#
#
# Elastic Constant Matrix: (Units=GPa)
#
#
# Indices 1 2 3 4 5 6 
#
# 1 68.1407 53.7510 26.0369 0.0000 4.8781 0.0000
# 2 53.7510 162.6934 45.1368 0.0000 4.6219 0.0000
# 3 26.0369 45.1368 52.4918 0.0000 -10.7457 0.0000
# 4 0.0000 0.0000 0.0000 28.0264 0.0000 -1.2226
# 5 4.8781 4.6219 -10.7457 0.0000 22.7022 0.0000
# 6 0.0000 0.0000 0.0000 -1.2226 0.0000 31.6545
#
#
#
# Elastic Compliance Matrix: (Units=1/GPa)
#
#
# Indices 1 2 3 4 5 6 
#
# 1 0.022263 -0.004756 -0.008564 0.000000 -0.007869 0.000000
# 2 -0.004756 0.009749 -0.006889 0.000000 -0.004223 0.000000
# 3 -0.008564 -0.006889 0.033092 0.000000 0.018906 0.000000
# 4 0.000000 0.000000 0.000000 0.035741 0.000000 0.001380
# 5 -0.007869 -0.004223 0.018906 0.000000 0.055548 0.000000
# 6 0.000000 0.000000 0.000000 0.001380 0.000000 0.031644
#
#
# Mechanical properties :
#
#
# Convention : Reuss Voigt Hill
#
# Bulk Modulus (GPa) = 40.50748 59.24172 49.87460
# Shear Modulus (GPa) = 21.12526 27.03669 24.08097
#
# Velocity S-wave (km/s) = 3.38859 3.83350 3.61789
# Velocity P-wave (km/s) = 6.10965 7.19687 6.67543
#
# Compressibility (1/GPa) = 0.02468680
#
# Stress axis : x y z
#
# Youngs Moduli (GPa) = 44.91818 102.57668 30.21844
#
# Poissons Ratio (x) = 0.48781 0.25880
# Poissons Ratio (y) = 0.21361 0.20816
# Poissons Ratio (z) = 0.38470 0.70661
#
# Static dielectric constant tensor:
#      x y z
#    x 3.328740 0.000000 0.077170 
#    y 0.000000 3.594760 0.000000 
#    z 0.077170 0.000000 3.351090 
# 
# 
# High freq. dielectric constant tensor:
#      x y z
#    x 1.676270 0.000000 0.004680 
#    y 0.000000 1.716160 0.000000 
#    z 0.004680 0.000000 1.712310 
# 
# From -- ./inp_files/30272.got.cif
#   From: 2010.06.25/outbox.cif.g09.slc.cpg/sg15_16_cif.got.tgz:30272.got - 2010.06.28 07:06:18.
