data_PCOD8141957
_publ_section_title
;
Structure prediction by ZEFSAII (Michael W. Deem and Ramdas Pophale) SiO2 
 PCOD8141957
Probable space group: C 2/C
;
_chemical_formula_sum "Si O2"
_cell_formula_units_Z 56
_cell_length_a 21.600465
_cell_length_b 11.201914
_cell_length_c 12.805273
_cell_angle_alpha 90.000000
_cell_angle_beta 114.556895
_cell_angle_gamma 90.000000
_cell_volume 2818.190141
_symmetry_space_group_name_H-M "C 2/C"
_symmetry_group_IT_number 15
_symmetry_cell_setting 'monoclinic'
loop_
_space_group_symop_operation_xyz
x,y,z
-x,y,1/2-z
-x,-y,-z
x,-y,1/2+z
1/2+x,1/2+y,z
1/2-x,1/2+y,1/2-z
1/2-x,1/2-y,-z
1/2+x,1/2-y,1/2+z
loop_
_atom_site_type_symbol
_atom_site_label
_atom_site_fract_x
_atom_site_fract_y
_atom_site_fract_z
Si Si1 0.416858 0.240191 0.984313
Si Si2 0.538399 0.626215 0.670047
Si Si3 0.364020 0.960710 0.321961
Si Si4 0.758195 0.877839 0.387869
Si Si5 0.729781 0.103208 0.097384
Si Si6 0.351721 0.454926 0.832879
Si Si7 0.419657 0.151753 0.206445
O O1 0.422974 0.128310 0.907095
O O2 0.361682 0.330562 0.899386
O O3 0.486429 0.314656 0.049545
O O4 0.388040 0.179228 0.070426
O O5 0.500000 0.589860 0.750000
O O6 0.575956 0.508389 0.655055
O O7 0.593853 0.729781 0.733220
O O8 0.302572 0.880123 0.237717
O O9 0.335895 0.044594 0.394557
O O10 0.389746 0.036759 0.241710
O O11 0.734402 0.936425 0.480402
O O12 0.783915 0.743699 0.413947
O O13 0.822186 0.953805 0.395554
O O14 0.800436 0.066564 0.201566
O O15 0.500000 0.132755 0.250000
#
# Coordination Sequence:
#
# PCOD8141957 Si02
#       7
#     8   8   8   8   8   8   8
#     4  10  21  38  59  89 119 149 205 246 290 368
#     4   9  21  38  60  87 120 154 197 246 298 357
#     4  11  20  39  60  85 117 156 193 246 301 348
#     4  10  22  38  57  87 119 155 196 247 290 350
#     4  10  22  38  57  85 120 155 197 244 290 355
#     4  11  21  38  62  86 118 162 194 246 303 349
#     4   9  21  38  59  85 114 152 198 246 295 360
#
# _framework density 19.870908
#
# number of rings (size 3 to 8) (size 9 to 14) (size 15 to 20)
#    0.000    2.286    1.429    2.143    4.000    2.286 
#    0.000    5.714    0.000    0.000    0.000    0.000 
#    0.000    0.000    0.000    0.000    0.000    0.000 
#
# Total GULP energy -347045.333615 kJ/mol
# GULP energy per Si atom -12394.476201 kJ/mol
# Density = 1.982568 g / cm^3
# Si number density = 19.870908 Si / 1000 Ang^3
#
#
#
# Elastic Constant Matrix: (Units=GPa)
#
#
# Indices 1 2 3 4 5 6 
#
# 1 69.1169 44.1678 26.4347 0.0000 -12.5593 0.0000
# 2 44.1678 103.1848 50.0416 0.0000 -9.8771 0.0000
# 3 26.4347 50.0416 91.3231 0.0000 -10.3249 0.0000
# 4 0.0000 0.0000 0.0000 23.3807 0.0000 1.6621
# 5 -12.5593 -9.8771 -10.3249 0.0000 23.4331 0.0000
# 6 0.0000 0.0000 0.0000 1.6621 0.0000 23.2385
#
#
#
# Elastic Compliance Matrix: (Units=1/GPa)
#
#
# Indices 1 2 3 4 5 6 
#
# 1 0.021281 -0.007911 -0.000960 0.000000 0.007648 0.000000
# 2 -0.007911 0.016281 -0.006667 0.000000 -0.000315 0.000000
# 3 -0.000960 -0.006667 0.015266 0.000000 0.003402 0.000000
# 4 0.000000 0.000000 0.000000 0.042989 0.000000 -0.003075
# 5 0.007648 -0.000315 0.003402 0.000000 0.048140 0.000000
# 6 0.000000 0.000000 0.000000 -0.003075 0.000000 0.043252
#
#
# Mechanical properties :
#
#
# Convention : Reuss Voigt Hill
#
# Bulk Modulus (GPa) = 45.97582 56.10143 51.03862
# Shear Modulus (GPa) = 22.16948 23.54249 22.85599
#
# Velocity S-wave (km/s) = 3.34380 3.44579 3.39517
# Velocity P-wave (km/s) = 6.17215 6.64270 6.41174
#
# Compressibility (1/GPa) = 0.02175057
#
# Stress axis : x y z
#
# Youngs Moduli (GPa) = 46.99061 61.42184 65.50576
#
# Poissons Ratio (x) = 0.48593 0.06290
# Poissons Ratio (y) = 0.37176 0.43672
# Poissons Ratio (z) = 0.04512 0.40949
#
# Static dielectric constant tensor:
#      x y z
#    x 3.282160 0.000000 -0.088370 
#    y 0.000000 3.656560 0.000000 
#    z -0.088370 0.000000 3.776600 
# 
# 
# High freq. dielectric constant tensor:
#      x y z
#    x 1.745360 0.000000 -0.002560 
#    y 0.000000 1.784230 0.000000 
#    z -0.002560 0.000000 1.788030 
# 
# From -- ./inp_files/111681.got.cif
#   From: 2010.06.25/outbox.cif.g09.slc.cpg/sg15_56_cif.got.tgz:111681.got - 2010.06.28 07:06:18.
