data_PCOD8141295
_publ_section_title
;
Structure prediction by ZEFSAII (Michael W. Deem and Ramdas Pophale) SiO2 
 PCOD8141295
Probable space group: C 2/C
;
_chemical_formula_sum "Si O2"
_cell_formula_units_Z 64
_cell_length_a 14.493813
_cell_length_b 26.710130
_cell_length_c 9.513911
_cell_angle_alpha 90.000000
_cell_angle_beta 108.628968
_cell_angle_gamma 90.000000
_cell_volume 3490.165430
_symmetry_space_group_name_H-M "C 2/C"
_symmetry_group_IT_number 15
_symmetry_cell_setting 'monoclinic'
loop_
_space_group_symop_operation_xyz
x,y,z
-x,y,1/2-z
-x,-y,-z
x,-y,1/2+z
1/2+x,1/2+y,z
1/2-x,1/2+y,1/2-z
1/2-x,1/2-y,-z
1/2+x,1/2-y,1/2+z
loop_
_atom_site_type_symbol
_atom_site_label
_atom_site_fract_x
_atom_site_fract_y
_atom_site_fract_z
Si Si1 0.200738 0.659196 0.590579
Si Si2 0.104385 0.554646 0.623734
Si Si3 0.881314 0.540301 0.548781
Si Si4 0.111651 0.703790 0.796290
Si Si5 0.403522 0.313709 0.615754
Si Si6 0.791628 0.361333 0.936553
Si Si7 0.096662 0.190342 0.713519
Si Si8 0.889326 0.693148 0.232327
O O1 0.154057 0.606061 0.604463
O O2 0.146133 0.703412 0.651261
O O3 0.315307 0.657376 0.681682
O O4 0.184864 0.673528 0.421515
O O5 0.136468 0.536288 0.793430
O O6 0.138681 0.513689 0.527304
O O7 0.988231 0.560959 0.563129
O O8 0.805266 0.579117 0.443372
O O9 0.131819 0.756988 0.876678
O O10 0.000000 0.687859 0.750000
O O11 0.177403 0.660966 0.897845
O O12 0.500000 0.325280 0.750000
O O13 0.322242 0.350319 0.640386
O O14 0.420870 0.321697 0.458993
O O15 0.861850 0.335546 0.859327
O O16 0.123346 0.248098 0.749693
O O17 0.000000 0.174907 0.750000
O O18 0.000000 0.679049 0.250000
#
# Coordination Sequence:
#
# PCOD8141295 Si02
#       8
#     8   8   8   8   8   8   8   8
#     4  12  23  38  59  82 117 158 193 231 288 345
#     4  10  21  37  57  85 114 146 185 230 292 346
#     4  10  21  36  58  84 115 146 182 236 286 350
#     4  11  20  34  59  83 113 149 189 231 277 345
#     4  11  24  38  59  83 113 154 202 241 278 334
#     4  12  21  39  59  82 114 155 197 232 282 341
#     4  11  24  40  55  83 119 153 195 243 285 331
#     4  11  24  35  54  89 122 152 188 235 285 343
#
# _framework density 18.337240000000001
#
# number of rings (size 3 to 8) (size 9 to 14) (size 15 to 20)
#    0.000    1.000    3.750    3.750    8.750    0.000 
#    0.000    0.000    0.000    0.750    0.000    3.500 
#    0.000    0.000    0.000    0.000    0.000    0.000 
#
# Total GULP energy -396943.930288 kJ/mol
# GULP energy per Si atom -12404.497821 kJ/mol
# Density = 1.829550 g / cm^3
# Si number density = 18.337240 Si / 1000 Ang^3
#
#
#
# Elastic Constant Matrix: (Units=GPa)
#
#
# Indices 1 2 3 4 5 6 
#
# 1 98.7388 35.4103 40.3952 0.0000 8.0498 0.0000
# 2 35.4103 54.4697 46.4703 0.0000 4.4811 0.0000
# 3 40.3952 46.4703 85.7351 0.0000 7.2919 0.0000
# 4 0.0000 0.0000 0.0000 7.4172 0.0000 1.7857
# 5 8.0498 4.4811 7.2919 0.0000 30.9163 0.0000
# 6 0.0000 0.0000 0.0000 1.7857 0.0000 20.6808
#
#
#
# Elastic Compliance Matrix: (Units=1/GPa)
#
#
# Indices 1 2 3 4 5 6 
#
# 1 0.013729 -0.006301 -0.002885 0.000000 -0.001981 0.000000
# 2 -0.006301 0.037054 -0.017142 0.000000 0.000313 0.000000
# 3 -0.002885 -0.017142 0.022490 0.000000 -0.002069 0.000000
# 4 0.000000 0.000000 0.000000 0.137684 0.000000 -0.011889
# 5 -0.001981 0.000313 -0.002069 0.000000 0.033304 0.000000
# 6 0.000000 0.000000 0.000000 -0.011889 0.000000 0.049381
#
#
# Mechanical properties :
#
#
# Convention : Reuss Voigt Hill
#
# Bulk Modulus (GPa) = 48.50178 53.72167 51.11172
# Shear Modulus (GPa) = 14.15752 19.58071 16.86912
#
# Velocity S-wave (km/s) = 2.78162 3.27128 3.03634
# Velocity P-wave (km/s) = 6.06826 6.60519 6.34241
#
# Compressibility (1/GPa) = 0.02061780
#
# Stress axis : x y z
#
# Youngs Moduli (GPa) = 72.83748 26.98791 44.46381
#
# Poissons Ratio (x) = 0.17005 0.12827
# Poissons Ratio (y) = 0.45895 0.76218
# Poissons Ratio (z) = 0.21013 0.46262
#
# Static dielectric constant tensor:
#      x y z
#    x 3.464730 0.000000 -0.080900 
#    y 0.000000 3.187230 0.000000 
#    z -0.080900 0.000000 3.519410 
# 
# 
# High freq. dielectric constant tensor:
#      x y z
#    x 1.706300 0.000000 -0.008430 
#    y 0.000000 1.685870 0.000000 
#    z -0.008430 0.000000 1.726270 
# 
# From -- ./inp_files/43584.got.cif
#   From: 2010.06.25/outbox.cif.g09.slc.cpg/sg15_22_cif.got.tgz:43584.got - 2010.06.28 07:06:18.
