data_PCOD8141985
_publ_section_title
;
Structure prediction by ZEFSAII (Michael W. Deem and Ramdas Pophale) SiO2 
 PCOD8141985
Probable space group: C 2/C
;
_chemical_formula_sum "Si O2"
_cell_formula_units_Z 48
_cell_length_a 11.661259
_cell_length_b 8.379642
_cell_length_c 25.056303
_cell_angle_alpha 90.000000
_cell_angle_beta 70.007601
_cell_angle_gamma 90.000000
_cell_volume 2300.883769
_symmetry_space_group_name_H-M "C 2/C"
_symmetry_group_IT_number 15
_symmetry_cell_setting 'monoclinic'
loop_
_space_group_symop_operation_xyz
x,y,z
-x,y,1/2-z
-x,-y,-z
x,-y,1/2+z
1/2+x,1/2+y,z
1/2-x,1/2+y,1/2-z
1/2-x,1/2-y,-z
1/2+x,1/2-y,1/2+z
loop_
_atom_site_type_symbol
_atom_site_label
_atom_site_fract_x
_atom_site_fract_y
_atom_site_fract_z
Si Si1 0.909025 0.166058 0.217377
Si Si2 0.736997 0.980811 0.604724
Si Si3 0.072227 0.838586 0.483564
Si Si4 0.193986 0.150905 0.800368
Si Si5 0.473285 0.876614 0.607299
Si Si6 0.064940 0.724169 0.901432
O O1 0.786115 0.266600 0.244891
O O2 0.971179 0.217142 0.151872
O O3 0.000000 0.207614 0.250000
O O4 0.881224 0.978197 0.221566
O O5 0.789303 0.112120 0.554028
O O6 0.734266 0.063834 0.663026
O O7 0.603879 0.927489 0.609195
O O8 0.821443 0.823127 0.593241
O O9 0.010805 0.731654 0.447260
O O10 0.056540 0.747404 0.542423
O O11 0.000000 0.000000 0.500000
O O12 0.099754 0.283375 0.835735
O O13 0.399262 0.037524 0.604295
#
# Coordination Sequence:
#
# PCOD8141985 Si02
#       6
#     8   8   8   8   8   8
#     4  11  23  41  62  84 117 158 194 242 296 339
#     4   9  21  40  61  86 119 154 189 241 297 345
#     4   9  20  39  58  88 124 149 193 245 284 350
#     4  10  23  39  57  87 117 146 200 246 280 351
#     4  11  21  38  63  87 117 157 191 236 300 347
#     4  10  21  38  60  88 118 151 198 242 284 351
#
# _framework density 20.861549
#
# number of rings (size 3 to 8) (size 9 to 14) (size 15 to 20)
#    0.000    2.000    0.000    3.500    0.000    7.333 
#    0.000   12.500    0.000    0.000    0.000    0.000 
#    0.000    0.000    0.000    0.000    0.000    0.000 
#
# Total GULP energy -297582.429103 kJ/mol
# GULP energy per Si atom -12399.267879 kJ/mol
# Density = 2.081407 g / cm^3
# Si number density = 20.861549 Si / 1000 Ang^3
#
#
#
# Elastic Constant Matrix: (Units=GPa)
#
#
# Indices 1 2 3 4 5 6 
#
# 1 92.0113 23.4242 28.7126 0.0000 2.5919 0.0000
# 2 23.4242 120.9863 11.8236 0.0000 0.5746 0.0000
# 3 28.7126 11.8236 92.6787 0.0000 6.7372 0.0000
# 4 0.0000 0.0000 0.0000 42.9688 0.0000 -3.5967
# 5 2.5919 0.5746 6.7372 0.0000 10.6379 0.0000
# 6 0.0000 0.0000 0.0000 -3.5967 0.0000 29.2933
#
#
#
# Elastic Compliance Matrix: (Units=1/GPa)
#
#
# Indices 1 2 3 4 5 6 
#
# 1 0.012529 -0.002074 -0.003567 0.000000 -0.000681 0.000000
# 2 -0.002074 0.008714 -0.000494 0.000000 0.000348 0.000000
# 3 -0.003567 -0.000494 0.012467 0.000000 -0.007000 0.000000
# 4 0.000000 0.000000 0.000000 0.023514 0.000000 0.002887
# 5 -0.000681 0.000348 -0.007000 0.000000 0.098583 0.000000
# 6 0.000000 0.000000 0.000000 0.002887 0.000000 0.034492
#
#
# Mechanical properties :
#
#
# Convention : Reuss Voigt Hill
#
# Bulk Modulus (GPa) = 46.64609 48.17745 47.41177
# Shear Modulus (GPa) = 23.84174 32.69439 28.26807
#
# Velocity S-wave (km/s) = 3.38428 3.96309 3.68507
# Velocity P-wave (km/s) = 6.13837 6.63969 6.39394
#
# Compressibility (1/GPa) = 0.02143802
#
# Stress axis : x y z
#
# Youngs Moduli (GPa) = 79.81753 114.76343 80.21124
#
# Poissons Ratio (x) = 0.23800 0.28614
# Poissons Ratio (y) = 0.16553 0.03966
# Poissons Ratio (z) = 0.28474 0.05675
#
# Static dielectric constant tensor:
#      x y z
#    x 3.336300 0.000000 -0.178250 
#    y 0.000000 4.144250 0.000000 
#    z -0.178250 0.000000 4.583130 
# 
# 
# High freq. dielectric constant tensor:
#      x y z
#    x 1.786280 0.000000 -0.008590 
#    y 0.000000 1.838150 0.000000 
#    z -0.008590 0.000000 1.833390 
# 
# From -- ./inp_files/267806.got.cif
#   From: 2010.06.25/outbox.cif.g09.slc.cpg/sg15_134_cif.got.tgz:267806.got - 2010.06.28 07:06:18.
