data_PCOD8141945
_publ_section_title
;
Structure prediction by ZEFSAII (Michael W. Deem and Ramdas Pophale) SiO2 
 PCOD8141945
Probable space group: C 2/C
;
_chemical_formula_sum "Si O2"
_cell_formula_units_Z 44
_cell_length_a 7.931897
_cell_length_b 16.765332
_cell_length_c 16.098673
_cell_angle_alpha 90.000000
_cell_angle_beta 73.714554
_cell_angle_gamma 90.000000
_cell_volume 2054.918902
_symmetry_space_group_name_H-M "C 2/C"
_symmetry_group_IT_number 15
_symmetry_cell_setting 'monoclinic'
loop_
_space_group_symop_operation_xyz
x,y,z
-x,y,1/2-z
-x,-y,-z
x,-y,1/2+z
1/2+x,1/2+y,z
1/2-x,1/2+y,1/2-z
1/2-x,1/2-y,-z
1/2+x,1/2-y,1/2+z
loop_
_atom_site_type_symbol
_atom_site_label
_atom_site_fract_x
_atom_site_fract_y
_atom_site_fract_z
Si Si1 0.285995 0.673414 0.685373
Si Si2 0.007287 0.980658 0.401221
Si Si3 0.500000 0.787543 0.750000
Si Si4 0.359712 0.930173 0.022293
Si Si5 0.303829 0.631148 0.125304
Si Si6 0.039930 0.296241 0.374451
O O1 0.356118 0.588018 0.644741
O O2 0.453378 0.731704 0.676542
O O3 0.179794 0.671658 0.787157
O O4 0.156782 0.708268 0.633778
O O5 0.810320 0.957964 0.400091
O O6 0.074289 0.062693 0.350100
O O7 0.000000 0.000000 0.500000
O O8 0.338118 0.845470 0.787045
O O9 0.458130 0.856759 0.050082
O O10 0.294356 0.902443 0.941536
O O11 0.500000 0.000000 0.000000
O O12 0.419019 0.709805 0.091984
#
# Coordination Sequence:
#
# PCOD8141945 Si02
#       6
#     8   8   4   8   8   8
#     4  10  21  40  62  86 119 160 200 248 306 364
#     4  10  21  38  59  86 119 155 200 246 299 361
#     4  10  22  42  64  90 122 160 204 252 306 362
#     4  11  23  40  60  88 122 162 202 249 307 365
#     4  10  22  39  61  91 122 156 202 251 300 363
#     4  10  21  39  62  88 121 159 202 251 306 362
#
# _framework density 21.412037999999999
#
# number of rings (size 3 to 8) (size 9 to 14) (size 15 to 20)
#    0.000    1.818    0.000    4.909    0.000    5.818 
#    0.000   14.545    0.000    0.000    0.000    0.000 
#    0.000    0.000    0.000    0.000    0.000    0.000 
#
# Total GULP energy -272677.652206 kJ/mol
# GULP energy per Si atom -12394.438737 kJ/mol
# Density = 2.136330 g / cm^3
# Si number density = 21.412038 Si / 1000 Ang^3
#
#
#
# Elastic Constant Matrix: (Units=GPa)
#
#
# Indices 1 2 3 4 5 6 
#
# 1 132.4278 76.6460 19.3666 0.0000 4.1311 0.0000
# 2 76.6460 188.7022 46.1914 0.0000 -4.9868 0.0000
# 3 19.3666 46.1914 37.7539 0.0000 3.5008 0.0000
# 4 0.0000 0.0000 0.0000 39.3597 0.0000 -2.9068
# 5 4.1311 -4.9868 3.5008 0.0000 30.5861 0.0000
# 6 0.0000 0.0000 0.0000 -2.9068 0.0000 39.9828
#
#
#
# Elastic Compliance Matrix: (Units=1/GPa)
#
#
# Indices 1 2 3 4 5 6 
#
# 1 0.009995 -0.004147 0.000136 0.000000 -0.002042 0.000000
# 2 -0.004147 0.009452 -0.009735 0.000000 0.003215 0.000000
# 3 0.000136 -0.009735 0.038890 0.000000 -0.006057 0.000000
# 4 0.000000 0.000000 0.000000 0.025544 0.000000 0.001857
# 5 -0.002042 0.003215 -0.006057 0.000000 0.034188 0.000000
# 6 0.000000 0.000000 0.000000 0.001857 0.000000 0.025146
#
#
# Mechanical properties :
#
#
# Convention : Reuss Voigt Hill
#
# Bulk Modulus (GPa) = 32.42053 71.47690 51.94872
# Shear Modulus (GPa) = 27.62617 36.43102 32.02859
#
# Velocity S-wave (km/s) = 3.59586 4.12931 3.87178
# Velocity P-wave (km/s) = 5.69336 7.49594 6.65595
#
# Compressibility (1/GPa) = 0.03084465
#
# Stress axis : x y z
#
# Youngs Moduli (GPa) = 100.04671 105.80093 25.71376
#
# Poissons Ratio (x) = 0.43876 -0.00349
# Poissons Ratio (y) = 0.41490 0.25032
# Poissons Ratio (z) = -0.01360 1.02996
#
# Static dielectric constant tensor:
#      x y z
#    x 4.432770 0.000000 -0.150850 
#    y 0.000000 4.420110 0.000000 
#    z -0.150850 0.000000 3.621520 
# 
# 
# High freq. dielectric constant tensor:
#      x y z
#    x 1.857570 0.000000 -0.005310 
#    y 0.000000 1.852880 0.000000 
#    z -0.005310 0.000000 1.815170 
# 
# From -- ./inp_files/188751.got.cif
#   From: 2010.06.25/outbox.cif.g09.slc.cpg/sg15_95_cif.got.tgz:188751.got - 2010.06.28 07:06:18.
