data_PCOD8141317
_publ_section_title
;
Structure prediction by ZEFSAII (Michael W. Deem and Ramdas Pophale) SiO2 
 PCOD8141317
Probable space group: C 2/C
;
_chemical_formula_sum "Si O2"
_cell_formula_units_Z 48
_cell_length_a 5.068984
_cell_length_b 32.375405
_cell_length_c 15.265523
_cell_angle_alpha 90.000000
_cell_angle_beta 73.282187
_cell_angle_gamma 90.000000
_cell_volume 2399.342903
_symmetry_space_group_name_H-M "C 2/C"
_symmetry_group_IT_number 15
_symmetry_cell_setting 'monoclinic'
loop_
_space_group_symop_operation_xyz
x,y,z
-x,y,1/2-z
-x,-y,-z
x,-y,1/2+z
1/2+x,1/2+y,z
1/2-x,1/2+y,1/2-z
1/2-x,1/2-y,-z
1/2+x,1/2-y,1/2+z
loop_
_atom_site_type_symbol
_atom_site_label
_atom_site_fract_x
_atom_site_fract_y
_atom_site_fract_z
Si Si1 0.768206 0.201520 0.987911
Si Si2 0.193554 0.656489 0.573690
Si Si3 0.500000 0.104037 0.750000
Si Si4 0.333007 0.854353 0.846339
Si Si5 0.805781 0.007252 0.435772
Si Si6 0.000000 0.953735 0.250000
Si Si7 0.800563 0.101921 0.403631
O O1 0.509898 0.187102 0.956681
O O2 0.050648 0.184589 0.917022
O O3 0.750000 0.250000 0.000000
O O4 0.759173 0.184111 0.087023
O O5 0.031781 0.634835 0.666494
O O6 0.300819 0.619368 0.502386
O O7 0.237632 0.075105 0.764583
O O8 0.500000 0.835165 0.750000
O O9 0.518362 0.886792 0.882355
O O10 0.070144 0.878548 0.832065
O O11 0.835742 0.053382 0.399289
O O12 0.500000 0.000000 0.500000
O O13 0.883685 0.979721 0.343591
O O14 0.000000 0.000000 0.500000
#
# Coordination Sequence:
#
# PCOD8141317 Si02
#       7
#     8   8   4   8   8   4   8
#     4  10  21  40  62  89 126 151 199 247 309 365
#     4  10  21  39  64  88 116 171 195 250 306 361
#     4  12  24  44  64  90 129 160 231 252 304 390
#     4  10  21  36  59  87 114 159 192 240 296 356
#     4  12  25  42  62  92 127 166 213 267 328 366
#     4  12  26  40  66  94 129 172 213 282 318 368
#     4  10  21  38  60  82 121 154 205 241 298 370
#
# _framework density 20.005476999999999
#
# number of rings (size 3 to 8) (size 9 to 14) (size 15 to 20)
#    0.000    1.333    0.000    6.000    2.333    2.667 
#    3.000    0.000    0.000    0.000    0.000    0.000 
#    0.000    0.000    0.000    0.000    0.000    0.000 
#
# Total GULP energy -297616.970791 kJ/mol
# GULP energy per Si atom -12400.707116 kJ/mol
# Density = 1.995994 g / cm^3
# Si number density = 20.005477 Si / 1000 Ang^3
#
#
#
# Elastic Constant Matrix: (Units=GPa)
#
#
# Indices 1 2 3 4 5 6 
#
# 1 105.7950 30.1629 17.3658 0.0000 -17.8811 0.0000
# 2 30.1629 140.3602 39.7043 0.0000 -10.5409 0.0000
# 3 17.3658 39.7043 109.6334 0.0000 -16.4403 0.0000
# 4 0.0000 0.0000 0.0000 20.4532 0.0000 -5.1874
# 5 -17.8811 -10.5409 -16.4403 0.0000 33.5209 0.0000
# 6 0.0000 0.0000 0.0000 -5.1874 0.0000 29.4889
#
#
#
# Elastic Compliance Matrix: (Units=1/GPa)
#
#
# Indices 1 2 3 4 5 6 
#
# 1 0.010893 -0.001879 -0.000283 0.000000 0.005081 0.000000
# 2 -0.001879 0.008305 -0.002665 0.000000 0.000302 0.000000
# 3 -0.000283 -0.002665 0.010775 0.000000 0.004296 0.000000
# 4 0.000000 0.000000 0.000000 0.051175 0.000000 0.009002
# 5 0.005081 0.000302 0.004296 0.000000 0.034745 0.000000
# 6 0.000000 0.000000 0.000000 0.009002 0.000000 0.035495
#
#
# Mechanical properties :
#
#
# Convention : Reuss Voigt Hill
#
# Bulk Modulus (GPa) = 49.21339 58.91716 54.06528
# Shear Modulus (GPa) = 29.79474 34.59631 32.19552
#
# Velocity S-wave (km/s) = 3.86337 4.16305 4.01600
# Velocity P-wave (km/s) = 6.67489 7.25413 6.97053
#
# Compressibility (1/GPa) = 0.02031967
#
# Stress axis : x y z
#
# Youngs Moduli (GPa) = 91.79976 120.41174 92.80453
#
# Poissons Ratio (x) = 0.22629 0.02626
# Poissons Ratio (y) = 0.17252 0.24729
# Poissons Ratio (z) = 0.02597 0.32085
#
# Static dielectric constant tensor:
#      x y z
#    x 3.933800 0.000000 -0.118680 
#    y 0.000000 3.559090 0.000000 
#    z -0.118680 0.000000 3.759080 
# 
# 
# High freq. dielectric constant tensor:
#      x y z
#    x 1.803050 0.000000 -0.008110 
#    y 0.000000 1.778640 0.000000 
#    z -0.008110 0.000000 1.785240 
# 
# From -- ./inp_files/130494.got.cif
#   From: 2010.06.25/outbox.cif.g09.slc.cpg/sg15_66_cif.got.tgz:130494.got - 2010.06.28 07:06:18.
