data_PCOD8141150
_publ_section_title
;
Structure prediction by ZEFSAII (Michael W. Deem and Ramdas Pophale) SiO2 
 PCOD8141150
Probable space group: C 2/C
;
_chemical_formula_sum "Si O2"
_cell_formula_units_Z 48
_cell_length_a 12.447057
_cell_length_b 10.259220
_cell_length_c 21.414479
_cell_angle_alpha 90.000000
_cell_angle_beta 51.309976
_cell_angle_gamma 90.000000
_cell_volume 2134.436731
_symmetry_space_group_name_H-M "C 2/C"
_symmetry_group_IT_number 15
_symmetry_cell_setting 'monoclinic'
loop_
_space_group_symop_operation_xyz
x,y,z
-x,y,1/2-z
-x,-y,-z
x,-y,1/2+z
1/2+x,1/2+y,z
1/2-x,1/2+y,1/2-z
1/2-x,1/2-y,-z
1/2+x,1/2-y,1/2+z
loop_
_atom_site_type_symbol
_atom_site_label
_atom_site_fract_x
_atom_site_fract_y
_atom_site_fract_z
Si Si1 0.711134 0.347436 0.176770
Si Si2 0.504068 0.281997 0.148386
Si Si3 0.712824 0.134845 0.341876
Si Si4 0.912335 0.991230 0.471031
Si Si5 0.292947 0.818081 0.421509
Si Si6 0.936432 0.797664 0.662236
O O1 0.624659 0.267395 0.155982
O O2 0.619661 0.363814 0.273210
O O3 0.769253 0.489819 0.135346
O O4 0.843259 0.258040 0.140572
O O5 0.427943 0.151335 0.148773
O O6 0.578965 0.348966 0.062209
O O7 0.710679 0.245499 0.395678
O O8 0.848287 0.155374 0.252035
O O9 0.759031 0.032459 0.550244
O O10 0.970722 0.084880 0.395868
O O11 0.000000 0.000000 0.500000
O O12 0.250000 0.750000 0.500000
O O13 0.457503 0.814217 0.351814
#
# Coordination Sequence:
#
# PCOD8141150 Si02
#       6
#     8   8   8   8   8   8
#     4  10  21  39  63  88 126 158 207 264 312 373
#     4  10  21  38  63  91 118 168 204 255 319 382
#     4  11  20  38  64  90 120 165 213 255 321 376
#     4  11  20  40  60  85 124 158 207 256 319 375
#     4  10  21  35  60  87 115 159 210 256 303 375
#     4  10  22  38  60  93 117 159 215 261 308 384
#
# _framework density 22.488368999999999
#
# number of rings (size 3 to 8) (size 9 to 14) (size 15 to 20)
#    0.000    1.667    3.333    2.500    2.333    0.000 
#    3.000    8.333    7.333    0.000    0.000    0.000 
#    0.000    0.000    0.000    0.000    0.000    0.000 
#
# Total GULP energy -297313.150806 kJ/mol
# GULP energy per Si atom -12388.047950 kJ/mol
# Density = 2.243718 g / cm^3
# Si number density = 22.488369 Si / 1000 Ang^3
#
#
#
# Elastic Constant Matrix: (Units=GPa)
#
#
# Indices 1 2 3 4 5 6 
#
# 1 138.7225 15.6237 3.9689 0.0000 -1.7304 0.0000
# 2 15.6237 26.9649 -0.9982 0.0000 -9.0257 0.0000
# 3 3.9689 -0.9982 41.0129 0.0000 12.7328 0.0000
# 4 0.0000 0.0000 0.0000 16.0610 0.0000 2.5614
# 5 -1.7304 -9.0257 12.7328 0.0000 33.9085 0.0000
# 6 0.0000 0.0000 0.0000 2.5614 0.0000 31.2072
#
#
#
# Elastic Compliance Matrix: (Units=1/GPa)
#
#
# Indices 1 2 3 4 5 6 
#
# 1 0.007752 -0.004720 -0.000677 0.000000 -0.000607 0.000000
# 2 -0.004720 0.043849 -0.002292 0.000000 0.012291 0.000000
# 3 -0.000677 -0.002292 0.027838 0.000000 -0.011098 0.000000
# 4 0.000000 0.000000 0.000000 0.063089 0.000000 -0.005178
# 5 -0.000607 0.012291 -0.011098 0.000000 0.036899 0.000000
# 6 0.000000 0.000000 0.000000 -0.005178 0.000000 0.032469
#
#
# Mechanical properties :
#
#
# Convention : Reuss Voigt Hill
#
# Bulk Modulus (GPa) = 15.60985 27.09877 21.35431
# Shear Modulus (GPa) = 20.11050 28.77573 24.44311
#
# Velocity S-wave (km/s) = 2.99367 3.58101 3.30043
# Velocity P-wave (km/s) = 4.34807 5.40134 4.90307
#
# Compressibility (1/GPa) = 0.06406210
#
# Stress axis : x y z
#
# Youngs Moduli (GPa) = 128.99927 22.80541 35.92257
#
# Poissons Ratio (x) = 0.10763 0.02431
# Poissons Ratio (y) = 0.60883 0.08234
# Poissons Ratio (z) = 0.08730 0.05227
#
# Static dielectric constant tensor:
#      x y z
#    x 6.951290 0.000000 -5.317620 
#    y 0.000000 4.095480 0.000000 
#    z -5.317620 0.000000 14.755160 
# 
# 
# High freq. dielectric constant tensor:
#      x y z
#    x 1.898950 0.000000 0.004760 
#    y 0.000000 1.850350 0.000000 
#    z 0.004760 0.000000 1.883670 
# 
# From -- ./inp_files/196046.got.cif
#   From: 2010.06.25/outbox.cif.g09.slc.cpg/sg15_99_cif.got.tgz:196046.got - 2010.06.28 07:06:18.
