data_PCOD8141047
_publ_section_title
;
Structure prediction by ZEFSAII (Michael W. Deem and Ramdas Pophale) SiO2 
 PCOD8141047
Probable space group: C 2/C
;
_chemical_formula_sum "Si O2"
_cell_formula_units_Z 60
_cell_length_a 32.490422
_cell_length_b 18.178101
_cell_length_c 5.121562
_cell_angle_alpha 90.000000
_cell_angle_beta 78.675397
_cell_angle_gamma 90.000000
_cell_volume 2965.974236
_symmetry_space_group_name_H-M "C 2/C"
_symmetry_group_IT_number 15
_symmetry_cell_setting 'monoclinic'
loop_
_space_group_symop_operation_xyz
x,y,z
-x,y,1/2-z
-x,-y,-z
x,-y,1/2+z
1/2+x,1/2+y,z
1/2-x,1/2+y,1/2-z
1/2-x,1/2-y,-z
1/2+x,1/2-y,1/2+z
loop_
_atom_site_type_symbol
_atom_site_label
_atom_site_fract_x
_atom_site_fract_y
_atom_site_fract_z
Si Si1 0.698883 0.547702 0.561464
Si Si2 0.633297 0.840085 0.652099
Si Si3 0.421288 0.156736 0.781929
Si Si4 0.453768 0.468338 0.608286
Si Si5 0.704954 0.953775 0.570152
Si Si6 0.633121 0.327161 0.120056
Si Si7 0.580218 0.675819 0.185810
Si Si8 0.000000 0.448455 0.250000
O O1 0.688012 0.509857 0.301565
O O2 0.747211 0.573083 0.517030
O O3 0.672085 0.620951 0.631312
O O4 0.598417 0.858579 0.476819
O O5 0.674916 0.885974 0.548796
O O6 0.648630 0.756325 0.628225
O O7 0.613738 0.858865 0.957061
O O8 0.437595 0.241374 0.772766
O O9 0.459568 0.103081 0.789097
O O10 0.500000 0.500000 0.500000
O O11 0.429824 0.484065 0.364693
O O12 0.455894 0.382762 0.689323
O O13 0.695601 0.017044 0.371138
O O14 0.595826 0.341152 0.374390
O O15 0.617672 0.338669 0.843815
O O16 0.000000 0.500000 0.500000
#
# Coordination Sequence:
#
# PCOD8141047 Si02
#       8
#     8   8   8   8   8   8   8   4
#     4  10  21  36  54  82 118 153 188 228 279 330
#     4  10  21  39  61  86 111 145 192 231 276 332
#     4  10  23  41  60  83 114 148 182 230 285 340
#     4  10  21  35  52  79 108 137 182 233 272 318
#     4  10  21  36  57  85 115 148 185 228 281 335
#     4  10  21  36  57  82 111 149 190 231 273 331
#     4  10  21  38  57  80 111 149 190 228 280 333
#     4  12  26  42  62  90 116 144 186 230 284 350
#
# _framework density 20.229441999999999
#
# number of rings (size 3 to 8) (size 9 to 14) (size 15 to 20)
#    0.000    1.867    0.000    3.200    0.000    8.000 
#    0.000    4.000    0.000    9.600    0.000    0.000 
#    0.000    0.000    0.000    0.000    0.000    0.000 
#
# Total GULP energy -371967.481432 kJ/mol
# GULP energy per Si atom -12398.916048 kJ/mol
# Density = 2.018340 g / cm^3
# Si number density = 20.229442 Si / 1000 Ang^3
#
#
#
# Elastic Constant Matrix: (Units=GPa)
#
#
# Indices 1 2 3 4 5 6 
#
# 1 78.2373 73.4431 15.5078 0.0000 -4.4609 0.0000
# 2 73.4431 134.9843 36.2458 0.0000 -10.8663 0.0000
# 3 15.5078 36.2458 113.1991 0.0000 9.2158 0.0000
# 4 0.0000 0.0000 0.0000 27.9929 0.0000 -0.7176
# 5 -4.4609 -10.8663 9.2158 0.0000 22.0707 0.0000
# 6 0.0000 0.0000 0.0000 -0.7176 0.0000 35.2636
#
#
#
# Elastic Compliance Matrix: (Units=1/GPa)
#
#
# Indices 1 2 3 4 5 6 
#
# 1 0.026375 -0.014929 0.001378 0.000000 -0.002595 0.000000
# 2 -0.014929 0.017190 -0.004040 0.000000 0.007133 0.000000
# 3 0.001378 -0.004040 0.010433 0.000000 -0.006066 0.000000
# 4 0.000000 0.000000 0.000000 0.035742 0.000000 0.000727
# 5 -0.002595 0.007133 -0.006066 0.000000 0.050829 0.000000
# 6 0.000000 0.000000 0.000000 0.000727 0.000000 0.028373
#
#
# Mechanical properties :
#
#
# Convention : Reuss Voigt Hill
#
# Bulk Modulus (GPa) = 53.14545 64.09047 58.61796
# Shear Modulus (GPa) = 23.76494 30.48038 27.12266
#
# Velocity S-wave (km/s) = 3.43121 3.88588 3.66560
# Velocity P-wave (km/s) = 6.48274 7.20305 6.85237
#
# Compressibility (1/GPa) = 0.01881628
#
# Stress axis : x y z
#
# Youngs Moduli (GPa) = 37.91497 58.17372 95.85427
#
# Poissons Ratio (x) = 0.86848 -0.13211
# Poissons Ratio (y) = 0.56604 0.38721
# Poissons Ratio (z) = -0.05226 0.23500
#
# Static dielectric constant tensor:
#      x y z
#    x 3.262260 0.000000 -0.124980 
#    y 0.000000 3.781760 0.000000 
#    z -0.124980 0.000000 3.517500 
# 
# 
# High freq. dielectric constant tensor:
#      x y z
#    x 1.770810 0.000000 0.011710 
#    y 0.000000 1.794760 0.000000 
#    z 0.011710 0.000000 1.817790 
# 
# From -- ./inp_files/18368.got.cif
#   From: 2010.06.25/outbox.cif.g09.slc.cpg/sg15_10_cif.got.tgz:18368.got - 2010.06.28 07:06:18.
