data_PCOD8141882
_publ_section_title
;
Structure prediction by ZEFSAII (Michael W. Deem and Ramdas Pophale) SiO2 
 PCOD8141882
Probable space group: C 2/C
;
_chemical_formula_sum "Si O2"
_cell_formula_units_Z 64
_cell_length_a 21.475383
_cell_length_b 19.163638
_cell_length_c 12.398474
_cell_angle_alpha 90.000000
_cell_angle_beta 141.698544
_cell_angle_gamma 90.000000
_cell_volume 3162.554113
_symmetry_space_group_name_H-M "C 2/C"
_symmetry_group_IT_number 15
_symmetry_cell_setting 'monoclinic'
loop_
_space_group_symop_operation_xyz
x,y,z
-x,y,1/2-z
-x,-y,-z
x,-y,1/2+z
1/2+x,1/2+y,z
1/2-x,1/2+y,1/2-z
1/2-x,1/2-y,-z
1/2+x,1/2-y,1/2+z
loop_
_atom_site_type_symbol
_atom_site_label
_atom_site_fract_x
_atom_site_fract_y
_atom_site_fract_z
Si Si1 0.110725 0.699758 0.604592
Si Si2 0.893279 0.499433 0.153513
Si Si3 0.274140 0.188754 0.297718
Si Si4 0.102782 0.335326 0.334116
Si Si5 0.112485 0.716107 0.255069
Si Si6 0.243505 0.550215 0.352304
Si Si7 0.735732 0.071344 0.697948
Si Si8 0.194327 0.142639 0.896106
O O1 0.170949 0.767631 0.643619
O O2 0.104311 0.706292 0.724406
O O3 0.161661 0.626446 0.649632
O O4 0.003763 0.695155 0.397962
O O5 0.890001 0.417752 0.174396
O O6 0.861618 0.537320 0.223704
O O7 0.000000 0.523518 0.250000
O O8 0.815567 0.518082 0.954499
O O9 0.308702 0.193313 0.468494
O O10 0.353675 0.222853 0.323422
O O11 0.268803 0.107137 0.258823
O O12 0.000000 0.314713 0.250000
O O13 0.121967 0.792903 0.321019
O O14 0.186488 0.664157 0.422030
O O15 0.282807 0.477238 0.355750
O O16 0.328023 0.580371 0.549425
O O17 0.819724 0.114244 0.744864
#
# Coordination Sequence:
#
# PCOD8141882 Si02
#       8
#     8   8   8   8   8   8   8   8
#     4  12  24  36  64  89 116 167 205 251 310 361
#     4  10  22  32  53  86 121 156 190 236 305 379
#     4  11  22  40  57  88 123 158 201 254 306 360
#     4  11  21  37  57  87 126 159 197 246 307 374
#     4  10  21  41  59  85 127 155 205 254 299 365
#     4  10  21  38  57  82 123 161 196 247 298 363
#     4  11  21  35  56  87 117 160 198 244 309 357
#     4   9  21  39  58  88 119 159 201 252 305 356
#
# _framework density 20.236806000000001
#
# number of rings (size 3 to 8) (size 9 to 14) (size 15 to 20)
#    0.000    1.500    5.000    0.375    5.250    0.500 
#    0.000    0.000    0.000    0.750    3.250    0.000 
#    0.000    0.000    0.000    0.000    0.000    0.000 
#
# Total GULP energy -396490.679704 kJ/mol
# GULP energy per Si atom -12390.333741 kJ/mol
# Density = 2.019075 g / cm^3
# Si number density = 20.236806 Si / 1000 Ang^3
#
#
#
# Elastic Constant Matrix: (Units=GPa)
#
#
# Indices 1 2 3 4 5 6 
#
# 1 60.5105 38.2636 16.6182 0.0000 -16.5769 0.0000
# 2 38.2636 108.9050 28.6065 0.0000 -6.8914 0.0000
# 3 16.6182 28.6065 47.8572 0.0000 -9.5755 0.0000
# 4 0.0000 0.0000 0.0000 24.4935 0.0000 -10.6948
# 5 -16.5769 -6.8914 -9.5755 0.0000 25.7251 0.0000
# 6 0.0000 0.0000 0.0000 -10.6948 0.0000 29.3151
#
#
#
# Elastic Compliance Matrix: (Units=1/GPa)
#
#
# Indices 1 2 3 4 5 6 
#
# 1 0.025632 -0.007733 -0.001500 0.000000 0.013887 0.000000
# 2 -0.007733 0.013232 -0.005956 0.000000 -0.003655 0.000000
# 3 -0.001500 -0.005956 0.026432 0.000000 0.007277 0.000000
# 4 0.000000 0.000000 0.000000 0.048563 0.000000 0.017717
# 5 0.013887 -0.003655 0.007277 0.000000 0.049551 0.000000
# 6 0.000000 0.000000 0.000000 0.017717 0.000000 0.040576
#
#
# Mechanical properties :
#
#
# Convention : Reuss Voigt Hill
#
# Bulk Modulus (GPa) = 28.63675 42.69437 35.66556
# Shear Modulus (GPa) = 20.32490 24.82571 22.57530
#
# Velocity S-wave (km/s) = 3.17259 3.50631 3.34362
# Velocity P-wave (km/s) = 5.25376 6.12662 5.70690
#
# Compressibility (1/GPa) = 0.03492016
#
# Stress axis : x y z
#
# Youngs Moduli (GPa) = 39.01301 75.57152 37.83258
#
# Poissons Ratio (x) = 0.58441 0.05673
# Poissons Ratio (y) = 0.30170 0.22532
# Poissons Ratio (z) = 0.05850 0.45008
#
# Static dielectric constant tensor:
#      x y z
#    x 3.815530 0.000000 -0.427540 
#    y 0.000000 3.800100 0.000000 
#    z -0.427540 0.000000 3.482780 
# 
# 
# High freq. dielectric constant tensor:
#      x y z
#    x 1.783940 0.000000 -0.039150 
#    y 0.000000 1.800710 0.000000 
#    z -0.039150 0.000000 1.752510 
# 
# From -- ./inp_files/107535.got.cif
#   From: 2010.06.25/outbox.cif.g09.slc.cpg/sg15_54_cif.got.tgz:107535.got - 2010.06.28 07:06:18.
