data_PCOD8141704
_publ_section_title
;
Structure prediction by ZEFSAII (Michael W. Deem and Ramdas Pophale) SiO2 
 PCOD8141704
Probable space group: C 2/C
;
_chemical_formula_sum "Si O2"
_cell_formula_units_Z 36
_cell_length_a 16.280076
_cell_length_b 7.845172
_cell_length_c 13.435773
_cell_angle_alpha 90.000000
_cell_angle_beta 73.806822
_cell_angle_gamma 90.000000
_cell_volume 1647.937165
_symmetry_space_group_name_H-M "C 2/C"
_symmetry_group_IT_number 15
_symmetry_cell_setting 'monoclinic'
loop_
_space_group_symop_operation_xyz
x,y,z
-x,y,1/2-z
-x,-y,-z
x,-y,1/2+z
1/2+x,1/2+y,z
1/2-x,1/2+y,1/2-z
1/2-x,1/2-y,-z
1/2+x,1/2-y,1/2+z
loop_
_atom_site_type_symbol
_atom_site_label
_atom_site_fract_x
_atom_site_fract_y
_atom_site_fract_z
Si Si1 0.999571 0.314038 0.360683
Si Si2 0.333122 0.692422 0.529766
Si Si3 0.667542 0.316365 0.249229
Si Si4 0.000000 0.641114 0.250000
Si Si5 0.833642 0.139117 0.135393
O O1 0.082760 0.256913 0.393823
O O2 0.000000 0.230520 0.250000
O O3 0.916236 0.255097 0.445632
O O4 0.999684 0.520322 0.348684
O O5 0.250000 0.750000 0.500000
O O6 0.331350 0.771542 0.641535
O O7 0.334782 0.484850 0.538194
O O8 0.583282 0.259701 0.218384
O O9 0.750320 0.258019 0.159470
O O10 0.668089 0.521459 0.263635
#
# Coordination Sequence:
#
# PCOD8141704 Si02
#       5
#     8   8   8   4   8
#     4  10  21  38  65  86 125 161 203 252 307 352
#     4  10  21  37  64  91 124 159 206 247 309 363
#     4  10  22  37  62  89 126 158 206 244 308 361
#     4  10  22  38  60  90 124 158 208 252 302 358
#     4  10  21  37  62  88 123 160 203 245 307 361
#
# _framework density 21.845493999999999
#
# number of rings (size 3 to 8) (size 9 to 14) (size 15 to 20)
#    2.000    0.000    0.000    4.667    1.556    0.889 
#    0.000    0.000    0.000    6.667    0.000    0.000 
#    0.000    0.000    0.000    0.000    0.000    0.000 
#
# Total GULP energy -223057.910507 kJ/mol
# GULP energy per Si atom -12392.106139 kJ/mol
# Density = 2.179577 g / cm^3
# Si number density = 21.845494 Si / 1000 Ang^3
#
#
#
# Elastic Constant Matrix: (Units=GPa)
#
#
# Indices 1 2 3 4 5 6 
#
# 1 197.4511 25.3867 9.6686 0.0000 -13.5021 0.0000
# 2 25.3867 50.6726 -21.9950 0.0000 4.1137 0.0000
# 3 9.6686 -21.9950 29.7497 0.0000 -11.0082 0.0000
# 4 0.0000 0.0000 0.0000 16.8047 0.0000 2.0276
# 5 -13.5021 4.1137 -11.0082 0.0000 41.3177 0.0000
# 6 0.0000 0.0000 0.0000 2.0276 0.0000 40.7362
#
#
#
# Elastic Compliance Matrix: (Units=1/GPa)
#
#
# Indices 1 2 3 4 5 6 
#
# 1 0.006153 -0.005698 -0.005833 0.000000 0.001024 0.000000
# 2 -0.005698 0.034709 0.028339 0.000000 0.002233 0.000000
# 3 -0.005833 0.028339 0.060696 0.000000 0.011443 0.000000
# 4 0.000000 0.000000 0.000000 0.059867 0.000000 -0.002980
# 5 0.001024 0.002233 0.011443 0.000000 0.027364 0.000000
# 6 0.000000 0.000000 0.000000 -0.002980 0.000000 0.024696
#
#
# Mechanical properties :
#
#
# Convention : Reuss Voigt Hill
#
# Bulk Modulus (GPa) = 7.39786 33.77712 20.58749
# Shear Modulus (GPa) = 22.22954 37.42592 29.82773
#
# Velocity S-wave (km/s) = 3.19341 4.14358 3.69913
# Velocity P-wave (km/s) = 4.12201 6.19579 5.26207
#
# Compressibility (1/GPa) = 0.13517431
#
# Stress axis : x y z
#
# Youngs Moduli (GPa) = 162.52941 28.81130 16.47551
#
# Poissons Ratio (x) = 0.16415 0.09610
# Poissons Ratio (y) = 0.92602 -0.46690
# Poissons Ratio (z) = 0.94807 -0.81649
#
# Static dielectric constant tensor:
#      x y z
#    x 4.110850 0.000000 0.014440 
#    y 0.000000 3.739750 0.000000 
#    z 0.014440 0.000000 3.612830 
# 
# 
# High freq. dielectric constant tensor:
#      x y z
#    x 1.870970 0.000000 -0.007700 
#    y 0.000000 1.847630 0.000000 
#    z -0.007700 0.000000 1.832850 
# 
# From -- ./inp_files/158430.got.cif
#   From: 2010.06.25/outbox.cif.g09.slc.cpg/sg15_80_cif.got.tgz:158430.got - 2010.06.28 07:06:18.
