data_PCOD8141367
_publ_section_title
;
Structure prediction by ZEFSAII (Michael W. Deem and Ramdas Pophale) SiO2 
 PCOD8141367
Probable space group: C 2/C
;
_chemical_formula_sum "Si O2"
_cell_formula_units_Z 40
_cell_length_a 15.176104
_cell_length_b 14.335215
_cell_length_c 19.107434
_cell_angle_alpha 90.000000
_cell_angle_beta 154.253641
_cell_angle_gamma 90.000000
_cell_volume 1805.696316
_symmetry_space_group_name_H-M "C 2/C"
_symmetry_group_IT_number 15
_symmetry_cell_setting 'monoclinic'
loop_
_space_group_symop_operation_xyz
x,y,z
-x,y,1/2-z
-x,-y,-z
x,-y,1/2+z
1/2+x,1/2+y,z
1/2-x,1/2+y,1/2-z
1/2-x,1/2-y,-z
1/2+x,1/2-y,1/2+z
loop_
_atom_site_type_symbol
_atom_site_label
_atom_site_fract_x
_atom_site_fract_y
_atom_site_fract_z
Si Si1 0.964902 0.704191 0.890196
Si Si2 0.700320 0.949367 0.928241
Si Si3 0.618465 0.403258 0.191779
Si Si4 0.278724 0.454248 0.620584
Si Si5 0.689404 0.619039 0.590742
O O1 0.776846 0.683512 0.810083
O O2 0.889293 0.678790 0.757378
O O3 0.155058 0.639520 0.046222
O O4 0.024111 0.811872 0.937965
O O5 0.500000 0.903630 0.750000
O O6 0.754338 0.044366 0.926534
O O7 0.663158 0.977701 0.982291
O O8 0.892897 0.878676 0.060010
O O9 0.707729 0.492050 0.296335
O O10 0.598201 0.430520 0.095118
O O11 0.500000 0.428339 0.750000
#
# Coordination Sequence:
#
# PCOD8141367 Si02
#       5
#     8   8   8   8   8
#     4  10  22  39  57  89 120 162 193 237 295 353
#     4  11  20  39  60  93 117 151 196 246 295 349
#     4   9  22  38  59  85 118 159 200 242 280 352
#     4  10  21  36  61  87 122 153 194 241 300 345
#     4  10  23  37  60  88 122 153 199 235 296 351
#
# _framework density 22.152118999999999
#
# number of rings (size 3 to 8) (size 9 to 14) (size 15 to 20)
#    1.200    0.800    2.000    1.200    5.600    1.600 
#    3.600    0.000    0.000   15.600    0.000    0.000 
#    0.000    0.000    0.000    0.000    0.000    0.000 
#
# Total GULP energy -247792.222536 kJ/mol
# GULP energy per Si atom -12389.611127 kJ/mol
# Density = 2.210170 g / cm^3
# Si number density = 22.152119 Si / 1000 Ang^3
#
#
#
# Elastic Constant Matrix: (Units=GPa)
#
#
# Indices 1 2 3 4 5 6 
#
# 1 36.6732 6.9136 8.6414 -0.0421 1.0585 0.0036
# 2 6.9136 20.7117 8.7650 -0.1266 6.3740 -0.0389
# 3 8.6414 8.7650 97.2544 -0.0526 17.5379 -0.0143
# 4 -0.0421 -0.1266 -0.0526 21.7324 0.0170 -1.4281
# 5 1.0585 6.3740 17.5379 0.0170 37.7073 0.0220
# 6 0.0036 -0.0389 -0.0143 -1.4281 0.0220 14.0847
#
#
#
# Elastic Compliance Matrix: (Units=1/GPa)
#
#
# Indices 1 2 3 4 5 6 
#
# 1 0.029499 -0.009504 -0.002079 -0.000007 0.001746 -0.000039
# 2 -0.009504 0.054995 -0.002711 0.000314 -0.007769 0.000196
# 3 -0.002079 -0.002711 0.011590 0.000013 -0.004874 0.000014
# 4 -0.000007 0.000314 0.000013 0.046325 -0.000083 0.004698
# 5 0.001746 -0.007769 -0.004874 -0.000083 0.030051 -0.000082
# 6 -0.000039 0.000196 0.000014 0.004698 -0.000082 0.071476
#
#
# Mechanical properties :
#
#
# Convention : Reuss Voigt Hill
#
# Bulk Modulus (GPa) = 14.81578 22.58659 18.70119
# Shear Modulus (GPa) = 16.94780 23.39284 20.17032
#
# Velocity S-wave (km/s) = 2.76898 3.25315 3.02078
# Velocity P-wave (km/s) = 4.11409 4.93244 4.54173
#
# Compressibility (1/GPa) = 0.06749559
#
# Stress axis : x y z
#
# Youngs Moduli (GPa) = 33.89930 18.18360 86.27867
#
# Poissons Ratio (x) = 0.17282 0.17940
# Poissons Ratio (y) = 0.32219 0.23388
# Poissons Ratio (z) = 0.07049 0.04929
#
# Static dielectric constant tensor:
#      x y z
#    x 3.922250 0.000040 0.112130 
#    y 0.000040 3.361780 -0.000050 
#    z 0.112130 -0.000050 4.504590 
# 
# 
# High freq. dielectric constant tensor:
#      x y z
#    x 1.857780 0.000000 -0.001540 
#    y 0.000000 1.819620 -0.000010 
#    z -0.001540 -0.000010 1.899120 
# 
# From -- ./inp_files/206175.got.cif
#   From: 2010.06.25/outbox.cif.g09.slc.cpg/sg15_104_cif.got.tgz:206175.got - 2010.06.28 07:06:18.
