data_PCOD8141075
_publ_section_title
;
Structure prediction by ZEFSAII (Michael W. Deem and Ramdas Pophale) SiO2 
 PCOD8141075
Probable space group: C 2/C
;
_chemical_formula_sum "Si O2"
_cell_formula_units_Z 64
_cell_length_a 8.960681
_cell_length_b 25.908182
_cell_length_c 14.275348
_cell_angle_alpha 90.000000
_cell_angle_beta 104.946316
_cell_angle_gamma 90.000000
_cell_volume 3201.970063
_symmetry_space_group_name_H-M "C 2/C"
_symmetry_group_IT_number 15
_symmetry_cell_setting 'monoclinic'
loop_
_space_group_symop_operation_xyz
x,y,z
-x,y,1/2-z
-x,-y,-z
x,-y,1/2+z
1/2+x,1/2+y,z
1/2-x,1/2+y,1/2-z
1/2-x,1/2-y,-z
1/2+x,1/2-y,1/2+z
loop_
_atom_site_type_symbol
_atom_site_label
_atom_site_fract_x
_atom_site_fract_y
_atom_site_fract_z
Si Si1 0.713742 0.801038 0.894082
Si Si2 0.031959 0.622172 0.148231
Si Si3 0.602099 0.692706 0.899636
Si Si4 0.664973 0.590306 0.794102
Si Si5 0.365162 0.880975 0.158199
Si Si6 0.452037 0.943299 0.462098
Si Si7 0.762115 0.227101 0.899605
Si Si8 0.828263 0.827418 0.717403
O O1 0.539434 0.820910 0.881964
O O2 0.712989 0.739342 0.883564
O O3 0.769680 0.828727 0.812036
O O4 0.832911 0.823365 0.989427
O O5 0.212987 0.630891 0.149923
O O6 0.000000 0.602102 0.250000
O O7 0.947728 0.585279 0.060846
O O8 0.623217 0.646629 0.829756
O O9 0.429154 0.713911 0.883142
O O10 0.500000 0.561100 0.750000
O O11 0.728344 0.595145 0.698552
O O12 0.784050 0.559973 0.882268
O O13 0.500000 0.867603 0.250000
O O14 0.417396 0.920644 0.085930
O O15 0.325575 0.826831 0.104859
O O16 0.500000 0.000000 0.500000
O O17 0.675177 0.269156 0.821984
O O18 0.750000 0.250000 0.000000
O O19 0.000000 0.849755 0.750000
#
# Coordination Sequence:
#
# PCOD8141075 Si02
#       8
#     8   8   8   8   8   8   8   8
#     4  10  21  35  55  87 124 175 211 249 303 385
#     4  10  21  40  64  89 123 173 218 262 325 396
#     4  11  21  34  60  89 132 171 214 256 311 380
#     4  11  22  42  69  99 130 171 219 275 339 404
#     4  10  23  38  63  92 129 170 216 267 331 395
#     4  11  25  47  69  95 125 164 221 290 347 407
#     4  12  22  33  56  92 136 181 217 260 315 386
#     4  11  22  36  53  86 132 169 216 256 307 376
#
# _framework density 19.987693
#
# number of rings (size 3 to 8) (size 9 to 14) (size 15 to 20)
#    0.000    1.250    3.750    2.625    0.000    3.500 
#    0.000    1.250    0.000    0.000    0.000    0.000 
#    0.000    0.000    0.000    0.000    0.000    0.000 
#
# Total GULP energy -396479.631513 kJ/mol
# GULP energy per Si atom -12389.988485 kJ/mol
# Density = 1.994220 g / cm^3
# Si number density = 19.987693 Si / 1000 Ang^3
#
#
#
# Elastic Constant Matrix: (Units=GPa)
#
#
# Indices 1 2 3 4 5 6 
#
# 1 107.7057 39.1335 28.9973 0.0000 18.0383 0.0000
# 2 39.1335 87.3037 51.6012 0.0000 -0.8227 0.0000
# 3 28.9973 51.6012 108.8313 0.0000 8.7441 0.0000
# 4 0.0000 0.0000 0.0000 24.8082 0.0000 2.5529
# 5 18.0383 -0.8227 8.7441 0.0000 29.7899 0.0000
# 6 0.0000 0.0000 0.0000 2.5529 0.0000 24.3399
#
#
#
# Elastic Compliance Matrix: (Units=1/GPa)
#
#
# Indices 1 2 3 4 5 6 
#
# 1 0.012692 -0.005747 -0.000027 0.000000 -0.007836 0.000000
# 2 -0.005747 0.018734 -0.007858 0.000000 0.006304 0.000000
# 3 -0.000027 -0.007858 0.013250 0.000000 -0.004090 0.000000
# 4 0.000000 0.000000 0.000000 0.040749 0.000000 -0.004274
# 5 -0.007836 0.006304 -0.004090 0.000000 0.039688 0.000000
# 6 0.000000 0.000000 0.000000 -0.004274 0.000000 0.041533
#
#
# Mechanical properties :
#
#
# Convention : Reuss Voigt Hill
#
# Bulk Modulus (GPa) = 57.43049 60.36718 58.89884
# Shear Modulus (GPa) = 25.03567 28.06152 26.54860
#
# Velocity S-wave (km/s) = 3.54298 3.75098 3.64847
# Velocity P-wave (km/s) = 6.74776 7.00197 6.87604
#
# Compressibility (1/GPa) = 0.01741235
#
# Stress axis : x y z
#
# Youngs Moduli (GPa) = 78.78727 53.37843 75.47101
#
# Poissons Ratio (x) = 0.30677 0.00206
# Poissons Ratio (y) = 0.45279 0.59304
# Poissons Ratio (z) = 0.00215 0.41944
#
# Static dielectric constant tensor:
#      x y z
#    x 1.615390 0.000000 -1.091400 
#    y 0.000000 3.384830 0.000000 
#    z -1.091400 0.000000 3.730400 
# 
# 
# High freq. dielectric constant tensor:
#      x y z
#    x 1.785840 0.000000 0.004670 
#    y 0.000000 1.736760 0.000000 
#    z 0.004670 0.000000 1.802270 
# 
# From -- ./inp_files/138664.got.cif
#   From: 2010.06.25/outbox.cif.g09.slc.cpg/sg15_70_cif.got.tgz:138664.got - 2010.06.28 07:06:18.
