data_PCOD8141823
_publ_section_title
;
Structure prediction by ZEFSAII (Michael W. Deem and Ramdas Pophale) SiO2 
 PCOD8141823
Probable space group: C 2/C
;
_chemical_formula_sum "Si O2"
_cell_formula_units_Z 60
_cell_length_a 6.364254
_cell_length_b 17.138825
_cell_length_c 27.849661
_cell_angle_alpha 90.000000
_cell_angle_beta 84.975861
_cell_angle_gamma 90.000000
_cell_volume 3026.053772
_symmetry_space_group_name_H-M "C 2/C"
_symmetry_group_IT_number 15
_symmetry_cell_setting 'monoclinic'
loop_
_space_group_symop_operation_xyz
x,y,z
-x,y,1/2-z
-x,-y,-z
x,-y,1/2+z
1/2+x,1/2+y,z
1/2-x,1/2+y,1/2-z
1/2-x,1/2-y,-z
1/2+x,1/2-y,1/2+z
loop_
_atom_site_type_symbol
_atom_site_label
_atom_site_fract_x
_atom_site_fract_y
_atom_site_fract_z
Si Si1 0.725394 0.572642 0.342379
Si Si2 0.849254 0.576437 0.899709
Si Si3 0.395221 0.164668 0.203360
Si Si4 0.000000 0.916203 0.750000
Si Si5 0.963075 0.813427 0.915826
Si Si6 0.642329 0.285681 0.369447
Si Si7 0.968466 0.909672 0.008819
Si Si8 0.773253 0.660682 0.572720
O O1 0.767450 0.504513 0.380016
O O2 0.625735 0.541510 0.292585
O O3 0.585361 0.639700 0.370955
O O4 0.960212 0.604884 0.329301
O O5 0.806681 0.643382 0.861117
O O6 0.720047 0.601477 0.949762
O O7 0.096253 0.585994 0.908264
O O8 0.500000 0.185023 0.250000
O O9 0.161766 0.133028 0.215525
O O10 0.384134 0.250026 0.181799
O O11 0.090539 0.739371 0.934315
O O12 0.737506 0.783137 0.901292
O O13 0.905188 0.871068 0.959993
O O14 0.419515 0.320078 0.389165
O O15 0.183350 0.868346 0.023271
O O16 0.000000 0.000000 0.000000
#
# Coordination Sequence:
#
# PCOD8141823 Si02
#       8
#     8   8   8   4   8   8   8   8
#     4  11  21  40  64  93 121 164 204 255 317 372
#     4  10  24  40  60  90 129 161 207 256 311 368
#     4  10  21  37  66  92 115 155 208 249 311 380
#     4  10  22  40  68  94 124 148 212 262 306 390
#     4  11  21  38  65  87 123 165 211 254 306 370
#     4  10  21  40  62  89 118 165 200 256 313 365
#     4  11  23  39  59  93 125 167 211 257 308 365
#     4  10  23  40  58  88 125 162 208 253 304 371
#
# _framework density 19.827804
#
# number of rings (size 3 to 8) (size 9 to 14) (size 15 to 20)
#    0.000    1.600    4.000    0.400    0.000    9.600 
#    1.200    0.000    4.400    0.000    0.000    0.000 
#    0.000    0.000    0.000    0.000    0.000    0.000 
#
# Total GULP energy -371643.911665 kJ/mol
# GULP energy per Si atom -12388.130389 kJ/mol
# Density = 1.978267 g / cm^3
# Si number density = 19.827804 Si / 1000 Ang^3
#
#
#
# Elastic Constant Matrix: (Units=GPa)
#
#
# Indices 1 2 3 4 5 6 
#
# 1 110.4424 27.9098 29.5822 0.0000 -3.7051 0.0000
# 2 27.9098 89.6386 35.6005 0.0000 7.7540 0.0000
# 3 29.5822 35.6005 77.8534 0.0000 -2.9701 0.0000
# 4 0.0000 0.0000 0.0000 37.0521 0.0000 11.8386
# 5 -3.7051 7.7540 -2.9701 0.0000 23.2418 0.0000
# 6 0.0000 0.0000 0.0000 11.8386 0.0000 38.8420
#
#
#
# Elastic Compliance Matrix: (Units=1/GPa)
#
#
# Indices 1 2 3 4 5 6 
#
# 1 0.010469 -0.002311 -0.002842 0.000000 0.002077 0.000000
# 2 -0.002311 0.014843 -0.006142 0.000000 -0.006105 0.000000
# 3 -0.002842 -0.006142 0.016877 0.000000 0.003753 0.000000
# 4 0.000000 0.000000 0.000000 0.029901 0.000000 -0.009113
# 5 0.002077 -0.006105 0.003753 0.000000 0.045873 0.000000
# 6 0.000000 0.000000 0.000000 -0.009113 0.000000 0.028523
#
#
# Mechanical properties :
#
#
# Convention : Reuss Voigt Hill
#
# Bulk Modulus (GPa) = 51.02414 51.56884 51.29649
# Shear Modulus (GPa) = 28.47233 32.14996 30.31114
#
# Velocity S-wave (km/s) = 3.79354 4.03110 3.91413
# Velocity P-wave (km/s) = 6.70652 6.90878 6.80840
#
# Compressibility (1/GPa) = 0.01959857
#
# Stress axis : x y z
#
# Youngs Moduli (GPa) = 95.51676 67.37244 59.25388
#
# Poissons Ratio (x) = 0.15567 0.16842
# Poissons Ratio (y) = 0.22069 0.36395
# Poissons Ratio (z) = 0.27149 0.41382
#
# Static dielectric constant tensor:
#      x y z
#    x 3.539550 0.000000 0.173180 
#    y 0.000000 3.607220 0.000000 
#    z 0.173180 0.000000 3.797690 
# 
# 
# High freq. dielectric constant tensor:
#      x y z
#    x 1.786250 0.000000 0.012130 
#    y 0.000000 1.764150 0.000000 
#    z 0.012130 0.000000 1.773020 
# 
# From -- ./inp_files/305669.got.cif
#   From: 2010.06.25/outbox.cif.g09.slc.cpg/sg15_153_cif.got.tgz:305669.got - 2010.06.28 07:06:18.
