data_PCOD8141116
_publ_section_title
;
Structure prediction by ZEFSAII (Michael W. Deem and Ramdas Pophale) SiO2 
 PCOD8141116
Probable space group: C 2/C
;
_chemical_formula_sum "Si O2"
_cell_formula_units_Z 56
_cell_length_a 9.072620
_cell_length_b 26.830152
_cell_length_c 13.566382
_cell_angle_alpha 90.000000
_cell_angle_beta 124.036765
_cell_angle_gamma 90.000000
_cell_volume 2736.566533
_symmetry_space_group_name_H-M "C 2/C"
_symmetry_group_IT_number 15
_symmetry_cell_setting 'monoclinic'
loop_
_space_group_symop_operation_xyz
x,y,z
-x,y,1/2-z
-x,-y,-z
x,-y,1/2+z
1/2+x,1/2+y,z
1/2-x,1/2+y,1/2-z
1/2-x,1/2-y,-z
1/2+x,1/2-y,1/2+z
loop_
_atom_site_type_symbol
_atom_site_label
_atom_site_fract_x
_atom_site_fract_y
_atom_site_fract_z
Si Si1 0.741600 0.000000 0.566220
Si Si2 0.665152 0.809960 0.882416
Si Si3 0.671921 0.076078 0.382065
Si Si4 0.347839 0.500000 0.317382
Si Si5 0.171921 0.576078 0.882065
Si Si6 0.165152 0.690040 0.882417
Si Si7 0.000000 0.747970 0.000000
O O1 0.654525 0.951334 0.481758
O O2 0.654526 0.048667 0.481758
O O3 0.708786 0.000000 0.672180
O O4 0.951673 1.000000 0.639732
O O5 0.500000 0.804600 0.750000
O O6 0.721138 0.866908 0.921461
O O7 0.595914 0.786835 0.957452
O O8 0.838528 0.782876 0.900378
O O9 0.500000 0.070690 0.250000
O O10 0.824158 0.049053 0.375575
O O11 0.324158 0.450947 0.375575
O O12 0.221140 0.633092 0.921463
O O13 0.000000 0.570691 0.750000
O O14 0.338527 0.717124 0.900377
O O15 0.000000 0.695399 0.750000
O O16 0.095914 0.713166 0.957451
#
# Coordination Sequence:
#
# PCOD8141116 Si02
#       7
#     8   8   8   8   8   8   8
#     4  10  21  36  55  83 116 146 191 233 274 353
#     4  10  22  39  62  88 118 152 197 240 292 349
#     4  10  21  35  58  83 113 151 185 235 286 340
#     4  10  21  36  55  83 114 152 187 230 285 337
#     4  10  21  35  58  83 113 151 185 235 286 340
#     4  10  22  39  62  88 118 152 197 240 292 349
#     4  10  22  40  62  86 116 158 190 246 296 336
#
# _framework density 20.4636
#
# number of rings (size 3 to 8) (size 9 to 14) (size 15 to 20)
#    0.000    2.000    0.000    4.286    4.000    6.857 
#    0.000    0.000    0.000    0.000    0.000    0.000 
#    0.000    0.000    0.000    0.000    0.000    0.000 
#
# Total GULP energy -346956.161418 kJ/mol
# GULP energy per Si atom -12391.291479 kJ/mol
# Density = 2.041702 g / cm^3
# Si number density = 20.463600 Si / 1000 Ang^3
#
#
#
# Elastic Constant Matrix: (Units=GPa)
#
#
# Indices 1 2 3 4 5 6 
#
# 1 85.5940 49.9642 13.2254 0.0000 9.1800 0.0000
# 2 49.9642 177.9194 56.5968 0.0000 2.2649 0.0000
# 3 13.2254 56.5968 91.6693 0.0000 -2.6327 0.0000
# 4 0.0000 0.0000 0.0000 31.4472 0.0000 6.0263
# 5 9.1800 2.2649 -2.6327 0.0000 33.0484 0.0000
# 6 0.0000 0.0000 0.0000 6.0263 0.0000 11.6798
#
#
#
# Elastic Compliance Matrix: (Units=1/GPa)
#
#
# Indices 1 2 3 4 5 6 
#
# 1 0.014428 -0.004117 0.000354 0.000000 -0.003697 0.000000
# 2 -0.004117 0.008192 -0.004457 0.000000 0.000227 0.000000
# 3 0.000354 -0.004457 0.013647 0.000000 0.001294 0.000000
# 4 0.000000 0.000000 0.000000 0.035288 0.000000 -0.018207
# 5 -0.003697 0.000227 0.001294 0.000000 0.031373 0.000000
# 6 0.000000 0.000000 0.000000 -0.018207 0.000000 0.095012
#
#
# Mechanical properties :
#
#
# Convention : Reuss Voigt Hill
#
# Bulk Modulus (GPa) = 50.43793 66.08396 58.26094
# Shear Modulus (GPa) = 22.62551 30.92816 26.77684
#
# Velocity S-wave (km/s) = 3.32873 3.89186 3.62126
# Velocity P-wave (km/s) = 6.28292 7.24975 6.78358
#
# Compressibility (1/GPa) = 0.01982635
#
# Stress axis : x y z
#
# Youngs Moduli (GPa) = 69.30777 122.07452 73.27832
#
# Poissons Ratio (x) = 0.50264 -0.02596
# Poissons Ratio (y) = 0.28537 0.32660
# Poissons Ratio (z) = -0.02456 0.54409
#
# Static dielectric constant tensor:
#      x y z
#    x 3.746930 0.000000 -0.034190 
#    y 0.000000 3.907480 0.000000 
#    z -0.034190 0.000000 4.127650 
# 
# 
# High freq. dielectric constant tensor:
#      x y z
#    x 1.802310 0.000000 0.011470 
#    y 0.000000 1.800130 0.000000 
#    z 0.011470 0.000000 1.811760 
# 
# From -- ./inp_files/138705.got.cif
#   From: 2010.06.25/outbox.cif.g09.slc.cpg/sg15_70_cif.got.tgz:138705.got - 2010.06.28 07:06:18.
