data_PCOD8141694
_publ_section_title
;
Structure prediction by ZEFSAII (Michael W. Deem and Ramdas Pophale) SiO2 
 PCOD8141694
Probable space group: C 2/C
;
_chemical_formula_sum "Si O2"
_cell_formula_units_Z 48
_cell_length_a 4.949335
_cell_length_b 17.513528
_cell_length_c 27.004294
_cell_angle_alpha 90.000000
_cell_angle_beta 86.376596
_cell_angle_gamma 90.000000
_cell_volume 2336.061619
_symmetry_space_group_name_H-M "C 2/C"
_symmetry_group_IT_number 15
_symmetry_cell_setting 'monoclinic'
loop_
_space_group_symop_operation_xyz
x,y,z
-x,y,1/2-z
-x,-y,-z
x,-y,1/2+z
1/2+x,1/2+y,z
1/2-x,1/2+y,1/2-z
1/2-x,1/2-y,-z
1/2+x,1/2-y,1/2+z
loop_
_atom_site_type_symbol
_atom_site_label
_atom_site_fract_x
_atom_site_fract_y
_atom_site_fract_z
Si Si1 0.005923 0.589802 0.066543
Si Si2 0.517451 0.484144 0.890739
Si Si3 0.372165 0.825494 0.472866
Si Si4 0.102167 0.151607 0.592382
Si Si5 0.515163 0.204818 0.349231
Si Si6 0.047704 0.870049 0.805834
O O1 0.699115 0.567191 0.078919
O O2 0.213044 0.520602 0.077482
O O3 0.084026 0.661271 0.100114
O O4 0.013631 0.616064 0.009545
O O5 0.386094 0.567303 0.884216
O O6 0.577177 0.449220 0.835738
O O7 0.250000 0.750000 0.500000
O O8 0.612526 0.813118 0.430102
O O9 0.112796 0.860033 0.449051
O O10 0.995093 0.205809 0.637638
O O11 0.815628 0.183611 0.330304
O O12 0.318472 0.180837 0.306658
O O13 0.000000 0.893524 0.750000
#
# Coordination Sequence:
#
# PCOD8141694 Si02
#       6
#     8   8   8   8   8   8
#     4  10  21  38  57  83 119 164 203 235 280 351
#     4  10  23  39  59  87 120 155 192 249 312 345
#     4  12  24  36  60  87 122 165 214 239 280 341
#     4  12  24  38  59  89 124 159 198 253 297 342
#     4  10  21  37  62  86 116 151 196 240 296 349
#     4  10  21  41  65  87 111 150 196 242 300 380
#
# _framework density 20.547402000000002
#
# number of rings (size 3 to 8) (size 9 to 14) (size 15 to 20)
#    0.000    1.333    1.667    4.000    4.667    4.000 
#    0.000    1.667    0.000    0.000    0.000    0.000 
#    0.000    0.000    0.000    0.000    0.000    0.000 
#
# Total GULP energy -297547.202163 kJ/mol
# GULP energy per Si atom -12397.800090 kJ/mol
# Density = 2.050064 g / cm^3
# Si number density = 20.547402 Si / 1000 Ang^3
#
#
#
# Elastic Constant Matrix: (Units=GPa)
#
#
# Indices 1 2 3 4 5 6 
#
# 1 97.2532 17.4052 18.5571 0.0000 7.7541 0.0000
# 2 17.4052 109.0655 35.3894 0.0000 -2.2850 0.0000
# 3 18.5571 35.3894 84.4471 0.0000 11.9404 0.0000
# 4 0.0000 0.0000 0.0000 17.7302 0.0000 -0.8383
# 5 7.7541 -2.2850 11.9404 0.0000 31.1043 0.0000
# 6 0.0000 0.0000 0.0000 -0.8383 0.0000 26.4422
#
#
#
# Elastic Compliance Matrix: (Units=1/GPa)
#
#
# Indices 1 2 3 4 5 6 
#
# 1 0.010990 -0.001296 -0.001555 0.000000 -0.002238 0.000000
# 2 -0.001296 0.010972 -0.004730 0.000000 0.002945 0.000000
# 3 -0.001555 -0.004730 0.014973 0.000000 -0.005707 0.000000
# 4 0.000000 0.000000 0.000000 0.056486 0.000000 0.001791
# 5 -0.002238 0.002945 -0.005707 0.000000 0.035115 0.000000
# 6 0.000000 0.000000 0.000000 0.001791 0.000000 0.037875
#
#
# Mechanical properties :
#
#
# Convention : Reuss Voigt Hill
#
# Bulk Modulus (GPa) = 45.93029 48.16322 47.04676
# Shear Modulus (GPa) = 26.47894 29.68296 28.08095
#
# Velocity S-wave (km/s) = 3.59371 3.80492 3.70082
# Velocity P-wave (km/s) = 6.29456 6.54173 6.41933
#
# Compressibility (1/GPa) = 0.02177213
#
# Stress axis : x y z
#
# Youngs Moduli (GPa) = 90.99529 91.14137 66.78869
#
# Poissons Ratio (x) = 0.11811 0.10389
# Poissons Ratio (y) = 0.11792 0.31589
# Poissons Ratio (z) = 0.14154 0.43106
#
# Static dielectric constant tensor:
#      x y z
#    x 3.875860 0.000000 0.104560 
#    y 0.000000 3.637870 0.000000 
#    z 0.104560 0.000000 3.559950 
# 
# 
# High freq. dielectric constant tensor:
#      x y z
#    x 1.824770 0.000000 0.006930 
#    y 0.000000 1.792510 0.000000 
#    z 0.006930 0.000000 1.779530 
# 
# From -- ./inp_files/260672.got.cif
#   From: 2010.06.25/outbox.cif.g09.slc.cpg/sg15_131_cif.got.tgz:260672.got - 2010.06.28 07:06:18.
