data_PCOD8141594
_publ_section_title
;
Structure prediction by ZEFSAII (Michael W. Deem and Ramdas Pophale) SiO2 
 PCOD8141594
Probable space group: C 2/C
;
_chemical_formula_sum "Si O2"
_cell_formula_units_Z 56
_cell_length_a 12.661550
_cell_length_b 26.369078
_cell_length_c 9.139268
_cell_angle_alpha 90.000000
_cell_angle_beta 71.955923
_cell_angle_gamma 90.000000
_cell_volume 2901.288125
_symmetry_space_group_name_H-M "C 2/C"
_symmetry_group_IT_number 15
_symmetry_cell_setting 'monoclinic'
loop_
_space_group_symop_operation_xyz
x,y,z
-x,y,1/2-z
-x,-y,-z
x,-y,1/2+z
1/2+x,1/2+y,z
1/2-x,1/2+y,1/2-z
1/2-x,1/2-y,-z
1/2+x,1/2-y,1/2+z
loop_
_atom_site_type_symbol
_atom_site_label
_atom_site_fract_x
_atom_site_fract_y
_atom_site_fract_z
Si Si1 0.611421 0.026436 0.394682
Si Si2 0.229973 0.191116 0.476646
Si Si3 0.601887 0.862749 0.800988
Si Si4 0.015287 0.791435 0.407960
Si Si5 0.086860 0.700774 0.586403
Si Si6 0.742538 0.661842 0.790142
Si Si7 0.366173 0.060908 0.814240
O O1 0.599974 0.076013 0.295078
O O2 0.677862 0.043408 0.508668
O O3 0.500000 0.000000 0.500000
O O4 0.674334 0.983397 0.276903
O O5 0.250000 0.250000 0.500000
O O6 0.290834 0.165493 0.313001
O O7 0.273292 0.165542 0.606265
O O8 0.099983 0.183044 0.494606
O O9 0.500000 0.841791 0.750000
O O10 0.590678 0.847221 0.975620
O O11 0.054277 0.749744 0.507506
O O12 0.109496 0.834861 0.364428
O O13 0.000000 0.767915 0.250000
O O14 0.203021 0.705416 0.627564
O O15 0.000000 0.687926 0.750000
O O16 0.793287 0.609195 0.813858
O O17 0.500000 0.070434 0.750000
#
# Coordination Sequence:
#
# PCOD8141594 Si02
#       7
#     8   8   8   8   8   8   8
#     4  10  22  37  58  88 129 154 198 250 319 380
#     4  11  24  41  61  89 125 167 212 250 306 377
#     4  12  23  37  61  91 123 163 202 250 319 375
#     4  10  23  43  59  86 121 169 209 247 298 369
#     4  12  23  37  59  89 125 158 205 253 305 358
#     4  11  22  38  64  86 122 162 207 255 303 359
#     4  10  21  37  59  92 124 153 200 251 319 367
#
# _framework density 19.301770000000001
#
# number of rings (size 3 to 8) (size 9 to 14) (size 15 to 20)
#    0.000    1.143    1.429    6.857    8.000    1.143 
#    0.000    0.000    0.000    0.857    0.000    0.000 
#    0.000    0.000    0.000    0.000    0.000    0.000 
#
# Total GULP energy -346951.672659 kJ/mol
# GULP energy per Si atom -12391.131166 kJ/mol
# Density = 1.925784 g / cm^3
# Si number density = 19.301770 Si / 1000 Ang^3
#
#
#
# Elastic Constant Matrix: (Units=GPa)
#
#
# Indices 1 2 3 4 5 6 
#
# 1 116.1174 47.1816 59.7239 0.0000 4.9552 0.0000
# 2 47.1816 119.6044 60.0282 0.0000 0.9235 0.0000
# 3 59.7239 60.0282 127.3974 0.0000 3.7111 0.0000
# 4 0.0000 0.0000 0.0000 37.6132 0.0000 5.9761
# 5 4.9552 0.9235 3.7111 0.0000 32.8367 0.0000
# 6 0.0000 0.0000 0.0000 5.9761 0.0000 26.9313
#
#
#
# Elastic Compliance Matrix: (Units=1/GPa)
#
#
# Indices 1 2 3 4 5 6 
#
# 1 0.011933 -0.002499 -0.004381 0.000000 -0.001235 0.000000
# 2 -0.002499 0.011476 -0.004251 0.000000 0.000535 0.000000
# 3 -0.004381 -0.004251 0.011923 0.000000 -0.000567 0.000000
# 4 0.000000 0.000000 0.000000 0.027558 0.000000 -0.006115
# 5 -0.001235 0.000535 -0.000567 0.000000 0.030689 0.000000
# 6 0.000000 0.000000 0.000000 -0.006115 0.000000 0.038489
#
#
# Mechanical properties :
#
#
# Convention : Reuss Voigt Hill
#
# Bulk Modulus (GPa) = 76.51281 77.44297 76.97789
# Shear Modulus (GPa) = 31.50834 32.55529 32.03181
#
# Velocity S-wave (km/s) = 4.04469 4.11134 4.07815
# Velocity P-wave (km/s) = 7.84468 7.92129 7.88308
#
# Compressibility (1/GPa) = 0.01306971
#
# Stress axis : x y z
#
# Youngs Moduli (GPa) = 83.79819 87.13484 83.87206
#
# Poissons Ratio (x) = 0.21778 0.36742
# Poissons Ratio (y) = 0.20944 0.35658
# Poissons Ratio (z) = 0.36710 0.37045
#
# Static dielectric constant tensor:
#      x y z
#    x 4.885400 0.000000 1.354380 
#    y 0.000000 4.328230 0.000000 
#    z 1.354380 0.000000 5.091730 
# 
# 
# High freq. dielectric constant tensor:
#      x y z
#    x 1.732910 0.000000 0.022740 
#    y 0.000000 1.741920 0.000000 
#    z 0.022740 0.000000 1.769430 
# 
# From -- ./inp_files/34200.got.cif
#   From: 2010.06.25/outbox.cif.g09.slc.cpg/sg15_18_cif.got.tgz:34200.got - 2010.06.28 07:06:18.
