data_PCOD8141080
_publ_section_title
;
Structure prediction by ZEFSAII (Michael W. Deem and Ramdas Pophale) SiO2 
 PCOD8141080
Probable space group: C 2/C
;
_chemical_formula_sum "Si O2"
_cell_formula_units_Z 48
_cell_length_a 17.155754
_cell_length_b 15.639224
_cell_length_c 17.455012
_cell_angle_alpha 90.000000
_cell_angle_beta 147.180878
_cell_angle_gamma 90.000000
_cell_volume 2538.255897
_symmetry_space_group_name_H-M "C 2/C"
_symmetry_group_IT_number 15
_symmetry_cell_setting 'monoclinic'
loop_
_space_group_symop_operation_xyz
x,y,z
-x,y,1/2-z
-x,-y,-z
x,-y,1/2+z
1/2+x,1/2+y,z
1/2-x,1/2+y,1/2-z
1/2-x,1/2-y,-z
1/2+x,1/2-y,1/2+z
loop_
_atom_site_type_symbol
_atom_site_label
_atom_site_fract_x
_atom_site_fract_y
_atom_site_fract_z
Si Si1 0.110112 0.592347 0.155644
Si Si2 0.149445 0.337794 0.252296
Si Si3 0.177350 0.679853 0.064394
Si Si4 0.846863 0.484099 0.658531
Si Si5 0.692525 0.078152 0.639638
Si Si6 0.662804 0.483001 0.867356
O O1 0.183767 0.661624 0.161178
O O2 0.181654 0.587584 0.298997
O O3 0.128993 0.500266 0.134035
O O4 0.939024 0.611725 0.021963
O O5 0.231558 0.266277 0.370210
O O6 0.153508 0.420801 0.308135
O O7 0.232366 0.352875 0.238900
O O8 0.985039 0.309265 0.100069
O O9 0.249706 0.603177 0.077169
O O10 0.724640 0.472440 0.494237
O O11 0.000000 0.463746 0.750000
O O12 0.824450 0.049773 0.693670
O O13 0.500000 0.459030 0.750000
#
# Coordination Sequence:
#
# PCOD8141080 Si02
#       6
#     8   8   8   8   8   8
#     4   8  15  32  57  72  94 135 183 209 240 307
#     4  10  21  35  56  76 105 140 173 209 252 314
#     4  10  21  37  52  77 107 141 172 206 257 307
#     4  11  18  34  56  80  99 135 177 211 260 305
#     4   8  15  34  53  72  99 137 174 209 250 298
#     4  11  22  34  52  81 109 132 168 220 263 299
#
# _framework density 18.910623000000001
#
# number of rings (size 3 to 8) (size 9 to 14) (size 15 to 20)
#    0.000    2.333    3.333    2.000    2.333    1.333 
#    3.000    2.500    0.000    2.000    0.000    0.000 
#    0.000    0.000    0.000    0.000    0.000    0.000 
#
# Total GULP energy -297369.720404 kJ/mol
# GULP energy per Si atom -12390.405017 kJ/mol
# Density = 1.886758 g / cm^3
# Si number density = 18.910623 Si / 1000 Ang^3
#
#
#
# Elastic Constant Matrix: (Units=GPa)
#
#
# Indices 1 2 3 4 5 6 
#
# 1 76.3966 -0.4397 18.4041 0.0019 -1.0757 0.0002
# 2 -0.4397 7.0635 1.2201 0.0010 7.5804 0.0009
# 3 18.4041 1.2201 48.0030 0.0039 -1.6830 0.0017
# 4 0.0019 0.0010 0.0039 47.8834 0.0013 -11.4183
# 5 -1.0757 7.5804 -1.6830 0.0013 29.5664 0.0006
# 6 0.0002 0.0009 0.0017 -11.4183 0.0006 15.3668
#
#
#
# Elastic Compliance Matrix: (Units=1/GPa)
#
#
# Indices 1 2 3 4 5 6 
#
# 1 0.014449 0.002272 -0.005611 0.000000 -0.000376 0.000000
# 2 0.002272 0.197866 -0.007692 -0.000005 -0.051085 -0.000012
# 3 -0.005611 -0.007692 0.023287 -0.000003 0.003093 -0.000004
# 4 0.000000 -0.000005 -0.000003 0.025381 0.000000 0.018859
# 5 -0.000376 -0.051085 0.003093 0.000000 0.047082 0.000001
# 6 0.000000 -0.000012 -0.000004 0.018859 0.000001 0.079089
#
#
# Mechanical properties :
#
#
# Convention : Reuss Voigt Hill
#
# Bulk Modulus (GPa) = 4.68291 18.87021 11.77656
# Shear Modulus (GPa) = 10.40813 26.04858 18.22835
#
# Velocity S-wave (km/s) = 2.34857 3.71544 3.10808
# Velocity P-wave (km/s) = 3.13626 5.32975 4.37278
#
# Compressibility (1/GPa) = 0.21354249
#
# Stress axis : x y z
#
# Youngs Moduli (GPa) = 69.20907 5.05393 42.94226
#
# Poissons Ratio (x) = -0.01149 0.24093
# Poissons Ratio (y) = -0.15728 0.33029
# Poissons Ratio (z) = 0.38830 0.03887
#
# Static dielectric constant tensor:
#      x y z
#    x 3.716790 0.000000 -0.470930 
#    y 0.000000 3.232060 -0.000010 
#    z -0.470930 -0.000010 4.163420 
# 
# 
# High freq. dielectric constant tensor:
#      x y z
#    x 1.740230 0.000000 -0.016100 
#    y 0.000000 1.694310 0.000000 
#    z -0.016100 0.000000 1.722660 
# 
# From -- ./inp_files/47940.got.cif
#   From: 2010.06.25/outbox.cif.g09.slc.cpg/sg15_24_cif.got.tgz:47940.got - 2010.06.28 07:06:18.
