data_PCOD8141022
_publ_section_title
;
Structure prediction by ZEFSAII (Michael W. Deem and Ramdas Pophale) SiO2 
 PCOD8141022
Probable space group: C 2/C
;
_chemical_formula_sum "Si O2"
_cell_formula_units_Z 64
_cell_length_a 24.159464
_cell_length_b 9.300259
_cell_length_c 14.375887
_cell_angle_alpha 90.000000
_cell_angle_beta 99.087563
_cell_angle_gamma 90.000000
_cell_volume 3189.563650
_symmetry_space_group_name_H-M "C 2/C"
_symmetry_group_IT_number 15
_symmetry_cell_setting 'monoclinic'
loop_
_space_group_symop_operation_xyz
x,y,z
-x,y,1/2-z
-x,-y,-z
x,-y,1/2+z
1/2+x,1/2+y,z
1/2-x,1/2+y,1/2-z
1/2-x,1/2-y,-z
1/2+x,1/2-y,1/2+z
loop_
_atom_site_type_symbol
_atom_site_label
_atom_site_fract_x
_atom_site_fract_y
_atom_site_fract_z
Si Si1 0.579977 0.912957 0.526808
Si Si2 0.563084 0.219456 0.303031
Si Si3 0.043087 0.173988 0.187440
Si Si4 0.683466 0.274751 0.089387
Si Si5 0.098865 0.599489 0.821287
Si Si6 0.465229 0.208389 0.006234
Si Si7 0.138047 0.039805 0.734762
Si Si8 0.307184 0.319016 0.620952
O O1 0.635139 0.846211 0.588522
O O2 0.574424 0.870923 0.417045
O O3 0.524064 0.853479 0.560926
O O4 0.578511 0.085215 0.539799
O O5 0.500000 0.201241 0.250000
O O6 0.561890 0.279260 0.409339
O O7 0.599115 0.331710 0.256815
O O8 0.598437 0.070734 0.302684
O O9 0.057504 0.328356 0.235854
O O10 0.020403 0.186542 0.075886
O O11 0.000000 0.098179 0.250000
O O12 0.098298 0.083169 0.185820
O O13 0.676271 0.404527 0.160332
O O14 0.742084 0.199075 0.126399
O O15 0.682450 0.340984 0.985949
O O16 0.160022 0.676559 0.833038
O O17 0.174911 0.968655 0.826122
#
# Coordination Sequence:
#
# PCOD8141022 Si02
#       8
#     8   8   8   8   8   8   8   8
#     4   9  18  35  58  92 112 160 203 244 293 354
#     4  11  23  38  57  93 127 157 200 251 300 354
#     4  11  21  37  56  89 123 166 195 238 297 373
#     4  10  21  42  67  82 121 159 204 252 308 354
#     4   9  19  36  61  84 122 157 205 245 286 358
#     4  10  21  34  59  87 125 156 201 245 299 354
#     4  11  25  39  60  92 121 155 199 249 309 359
#     4   9  22  44  65  88 115 161 208 248 305 365
#
# _framework density 20.065442000000001
#
# number of rings (size 3 to 8) (size 9 to 14) (size 15 to 20)
#    0.000    2.000    1.250    1.500    7.000    1.000 
#    2.250    1.875    0.000    3.750    0.000    0.000 
#    0.000    0.000    0.000    0.000    0.000    0.000 
#
# Total GULP energy -396605.118489 kJ/mol
# GULP energy per Si atom -12393.909953 kJ/mol
# Density = 2.001977 g / cm^3
# Si number density = 20.065442 Si / 1000 Ang^3
#
#
#
# Elastic Constant Matrix: (Units=GPa)
#
#
# Indices 1 2 3 4 5 6 
#
# 1 105.7646 38.0300 33.0068 0.0000 4.8338 0.0000
# 2 38.0300 75.4708 33.9131 0.0000 -0.1371 0.0000
# 3 33.0068 33.9131 95.0578 0.0000 -6.3338 0.0000
# 4 0.0000 0.0000 0.0000 23.6619 0.0000 -1.3727
# 5 4.8338 -0.1371 -6.3338 0.0000 28.1397 0.0000
# 6 0.0000 0.0000 0.0000 -1.3727 0.0000 26.0160
#
#
#
# Elastic Compliance Matrix: (Units=1/GPa)
#
#
# Indices 1 2 3 4 5 6 
#
# 1 0.012187 -0.004958 -0.002643 0.000000 -0.002713 0.000000
# 2 -0.004958 0.017838 -0.004649 0.000000 -0.000108 0.000000
# 3 -0.002643 -0.004649 0.013325 0.000000 0.003431 0.000000
# 4 0.000000 0.000000 0.000000 0.042392 0.000000 0.002237
# 5 -0.002713 -0.000108 0.003431 0.000000 0.036775 0.000000
# 6 0.000000 0.000000 0.000000 0.002237 0.000000 0.038556
#
#
# Mechanical properties :
#
#
# Convention : Reuss Voigt Hill
#
# Bulk Modulus (GPa) = 53.05714 54.02144 53.53929
# Shear Modulus (GPa) = 26.06121 26.98639 26.52380
#
# Velocity S-wave (km/s) = 3.60781 3.67129 3.63969
# Velocity P-wave (km/s) = 6.62227 6.70464 6.66359
#
# Compressibility (1/GPa) = 0.01884761
#
# Stress axis : x y z
#
# Youngs Moduli (GPa) = 82.05701 56.06161 75.04620
#
# Poissons Ratio (x) = 0.27795 0.19838
# Poissons Ratio (y) = 0.40684 0.34892
# Poissons Ratio (z) = 0.21692 0.26065
#
# Static dielectric constant tensor:
#      x y z
#    x 3.630790 0.000000 -0.105880 
#    y 0.000000 3.504290 0.000000 
#    z -0.105880 0.000000 3.796360 
# 
# 
# High freq. dielectric constant tensor:
#      x y z
#    x 1.773090 0.000000 -0.007040 
#    y 0.000000 1.765410 0.000000 
#    z -0.007040 0.000000 1.795140 
# 
# From -- ./inp_files/172398.got.cif
#   From: 2010.06.25/outbox.cif.g09.slc.cpg/sg15_87_cif.got.tgz:172398.got - 2010.06.28 07:06:18.
