data_PCOD8141029
_publ_section_title
;
Structure prediction by ZEFSAII (Michael W. Deem and Ramdas Pophale) SiO2 
 PCOD8141029
Probable space group: C 2/C
;
_chemical_formula_sum "Si O2"
_cell_formula_units_Z 48
_cell_length_a 17.550728
_cell_length_b 17.815489
_cell_length_c 15.488860
_cell_angle_alpha 90.000000
_cell_angle_beta 32.270418
_cell_angle_gamma 90.000000
_cell_volume 2585.741850
_symmetry_space_group_name_H-M "C 2/C"
_symmetry_group_IT_number 15
_symmetry_cell_setting 'monoclinic'
loop_
_space_group_symop_operation_xyz
x,y,z
-x,y,1/2-z
-x,-y,-z
x,-y,1/2+z
1/2+x,1/2+y,z
1/2-x,1/2+y,1/2-z
1/2-x,1/2-y,-z
1/2+x,1/2-y,1/2+z
loop_
_atom_site_type_symbol
_atom_site_label
_atom_site_fract_x
_atom_site_fract_y
_atom_site_fract_z
Si Si1 0.537471 0.827626 0.314142
Si Si2 0.155771 0.129907 0.780225
Si Si3 0.339842 0.323064 0.409675
Si Si4 0.337503 0.397357 0.591978
Si Si5 0.277715 0.230684 0.174651
Si Si6 0.630655 0.965956 0.322991
O O1 0.500000 0.816798 0.250000
O O2 0.398735 0.806728 0.501247
O O3 0.666922 0.772850 0.217631
O O4 0.577900 0.915242 0.292659
O O5 0.192932 0.128816 0.643614
O O6 0.148359 0.213617 0.827185
O O7 0.291651 0.089653 0.687420
O O8 0.006774 0.086680 0.941245
O O9 0.500000 0.294105 0.250000
O O10 0.250000 0.250000 0.500000
O O11 0.306766 0.371427 0.524897
O O12 0.297695 0.335858 0.701092
O O13 0.244408 0.471851 0.687193
O O14 0.500000 0.000000 0.500000
#
# Coordination Sequence:
#
# PCOD8141029 Si02
#       6
#     8   8   8   8   8   8
#     4  11  24  41  62  90 119 155 210 252 306 356
#     4  10  22  39  61  90 122 160 199 242 307 362
#     4  10  21  34  60  92 121 153 197 245 291 354
#     4  11  21  39  60  88 126 159 198 243 306 362
#     4  11  20  38  67  86 117 160 198 256 298 357
#     4  11  24  39  63  86 119 165 198 249 307 362
#
# _framework density 18.563338000000002
#
# number of rings (size 3 to 8) (size 9 to 14) (size 15 to 20)
#    0.000    1.333    5.000    1.000    0.000    2.667 
#    0.000    0.000    0.000    0.000    0.000    0.000 
#    0.000    0.000    0.000    0.000    0.000    0.000 
#
# Total GULP energy -297547.860203 kJ/mol
# GULP energy per Si atom -12397.827508 kJ/mol
# Density = 1.852109 g / cm^3
# Si number density = 18.563338 Si / 1000 Ang^3
#
#
#
# Elastic Constant Matrix: (Units=GPa)
#
#
# Indices 1 2 3 4 5 6 
#
# 1 98.4036 23.1641 19.2014 0.0026 7.7913 -0.0018
# 2 23.1641 84.8279 23.1989 0.0034 -3.4751 -0.0018
# 3 19.2014 23.1989 72.1944 0.0052 -1.1702 -0.0041
# 4 0.0026 0.0034 0.0052 23.6545 -0.0041 -14.0616
# 5 7.7913 -3.4751 -1.1702 -0.0041 26.2307 0.0034
# 6 -0.0018 -0.0018 -0.0041 -14.0616 0.0034 17.8823
#
#
#
# Elastic Compliance Matrix: (Units=1/GPa)
#
#
# Indices 1 2 3 4 5 6 
#
# 1 0.011546 -0.002692 -0.002269 -0.000001 -0.003887 0.000001
# 2 -0.002692 0.013613 -0.003619 -0.000001 0.002442 -0.000001
# 3 -0.002269 -0.003619 0.015632 -0.000002 0.000892 0.000002
# 4 -0.000001 -0.000001 -0.000002 0.079382 0.000004 0.062421
# 5 -0.003887 0.002442 0.000892 0.000004 0.039641 -0.000004
# 6 0.000001 -0.000001 0.000002 0.062421 -0.000004 0.105006
#
#
# Mechanical properties :
#
#
# Convention : Reuss Voigt Hill
#
# Bulk Modulus (GPa) = 42.31443 42.95053 42.63248
# Shear Modulus (GPa) = 17.24982 26.21093 21.73038
#
# Velocity S-wave (km/s) = 3.05165 3.76170 3.42513
# Velocity P-wave (km/s) = 5.93809 6.48496 6.21754
#
# Compressibility (1/GPa) = 0.02363260
#
# Stress axis : x y z
#
# Youngs Moduli (GPa) = 86.60696 73.45725 63.96984
#
# Poissons Ratio (x) = 0.19773 0.14515
# Poissons Ratio (y) = 0.23312 0.23151
# Poissons Ratio (z) = 0.19651 0.26584
#
# Static dielectric constant tensor:
#      x y z
#    x 3.743560 -0.000010 -0.019470 
#    y -0.000010 3.396440 0.000000 
#    z -0.019470 0.000000 3.531500 
# 
# 
# High freq. dielectric constant tensor:
#      x y z
#    x 1.731110 0.000000 -0.006800 
#    y 0.000000 1.717440 0.000000 
#    z -0.006800 0.000000 1.736010 
# 
# From -- ./inp_files/48337.got.cif
#   From: 2010.06.25/outbox.cif.g09.slc.cpg/sg15_25_cif.got.tgz:48337.got - 2010.06.28 07:06:18.
