data_PCOD8141307
_publ_section_title
;
Structure prediction by ZEFSAII (Michael W. Deem and Ramdas Pophale) SiO2 
 PCOD8141307
Probable space group: C 2/C
;
_chemical_formula_sum "Si O2"
_cell_formula_units_Z 56
_cell_length_a 10.718562
_cell_length_b 11.662383
_cell_length_c 22.401176
_cell_angle_alpha 90.000000
_cell_angle_beta 86.572723
_cell_angle_gamma 90.000000
_cell_volume 2795.227774
_symmetry_space_group_name_H-M "C 2/C"
_symmetry_group_IT_number 15
_symmetry_cell_setting 'monoclinic'
loop_
_space_group_symop_operation_xyz
x,y,z
-x,y,1/2-z
-x,-y,-z
x,-y,1/2+z
1/2+x,1/2+y,z
1/2-x,1/2+y,1/2-z
1/2-x,1/2-y,-z
1/2+x,1/2-y,1/2+z
loop_
_atom_site_type_symbol
_atom_site_label
_atom_site_fract_x
_atom_site_fract_y
_atom_site_fract_z
Si Si1 0.109084 0.959049 0.423886
Si Si2 0.477862 0.383066 0.316948
Si Si3 0.263003 0.008534 0.123636
Si Si4 0.479465 0.115019 0.184848
Si Si5 0.594594 0.634219 0.043701
Si Si6 0.868281 0.446463 0.931453
Si Si7 0.541854 0.138795 0.956825
O O1 0.131290 0.856622 0.472065
O O2 0.094417 0.914715 0.356710
O O3 0.220750 0.050102 0.425654
O O4 0.980404 0.017686 0.444730
O O5 0.500000 0.432949 0.250000
O O6 0.346699 0.434588 0.343008
O O7 0.479325 0.246639 0.315562
O O8 0.351101 0.915677 0.088000
O O9 0.337957 0.082275 0.170952
O O10 0.216496 0.110397 0.080702
O O11 0.500000 0.062216 0.250000
O O12 0.570597 0.057198 0.134853
O O13 0.508990 0.740521 0.067101
O O14 0.917873 0.560559 0.963197
O O15 0.903870 0.344112 0.976872
#
# Coordination Sequence:
#
# PCOD8141307 Si02
#       7
#     8   8   8   8   8   8   8
#     4  10  21  36  58  90 120 151 202 245 293 361
#     4  10  23  41  61  86 116 164 203 242 301 345
#     4  10  22  42  58  88 126 148 200 256 284 366
#     4  10  23  41  61  86 116 164 203 242 301 345
#     4  10  21  37  59  89 120 158 188 242 313 353
#     4  10  21  36  58  90 120 151 202 245 293 361
#     4  10  21  37  59  89 120 158 188 242 313 353
#
# _framework density 20.034144999999999
#
# number of rings (size 3 to 8) (size 9 to 14) (size 15 to 20)
#    0.000    2.000    1.429    0.857    6.000    1.143 
#    0.000    0.000    0.000    7.714    0.000    0.000 
#    0.000    0.000    0.000    0.000    0.000    0.000 
#
# Total GULP energy -346942.596496 kJ/mol
# GULP energy per Si atom -12390.807018 kJ/mol
# Density = 1.998855 g / cm^3
# Si number density = 20.034145 Si / 1000 Ang^3
#
#
#
# Elastic Constant Matrix: (Units=GPa)
#
#
# Indices 1 2 3 4 5 6 
#
# 1 110.7702 33.5541 57.1101 0.0000 19.1669 0.0000
# 2 33.5541 62.3643 33.6911 0.0000 3.9497 0.0000
# 3 57.1101 33.6911 156.0445 0.0000 26.9027 0.0000
# 4 0.0000 0.0000 0.0000 21.3258 0.0000 -0.0219
# 5 19.1669 3.9497 26.9027 0.0000 33.6252 0.0000
# 6 0.0000 0.0000 0.0000 -0.0219 0.0000 38.3671
#
#
#
# Elastic Compliance Matrix: (Units=1/GPa)
#
#
# Indices 1 2 3 4 5 6 
#
# 1 0.012786 -0.005076 -0.002819 0.000000 -0.004437 0.000000
# 2 -0.005076 0.020206 -0.003010 0.000000 0.002928 0.000000
# 3 -0.002819 -0.003010 0.008992 0.000000 -0.005234 0.000000
# 4 0.000000 0.000000 0.000000 0.046892 0.000000 0.000027
# 5 -0.004437 0.002928 -0.005234 0.000000 0.036113 0.000000
# 6 0.000000 0.000000 0.000000 0.000027 0.000000 0.026064
#
#
# Mechanical properties :
#
#
# Convention : Reuss Voigt Hill
#
# Bulk Modulus (GPa) = 49.56306 64.20996 56.88651
# Shear Modulus (GPa) = 27.84169 32.31854 30.08011
#
# Velocity S-wave (km/s) = 3.73193 4.02079 3.87905
# Velocity P-wave (km/s) = 6.58504 7.32636 6.96557
#
# Compressibility (1/GPa) = 0.02017632
#
# Stress axis : x y z
#
# Youngs Moduli (GPa) = 78.20922 49.48958 111.20621
#
# Poissons Ratio (x) = 0.25119 0.31346
# Poissons Ratio (y) = 0.39696 0.33471
# Poissons Ratio (z) = 0.22045 0.14896
#
# Static dielectric constant tensor:
#      x y z
#    x 3.749530 0.000000 0.334770 
#    y 0.000000 3.336890 0.000000 
#    z 0.334770 0.000000 4.058370 
# 
# 
# High freq. dielectric constant tensor:
#      x y z
#    x 1.792110 0.000000 0.010840 
#    y 0.000000 1.760720 0.000000 
#    z 0.010840 0.000000 1.784050 
# 
# From -- ./inp_files/236959.got.cif
#   From: 2010.06.25/outbox.cif.g09.slc.cpg/sg15_119_cif.got.tgz:236959.got - 2010.06.28 07:06:18.
