data_PCOD8141211
_publ_section_title
;
Structure prediction by ZEFSAII (Michael W. Deem and Ramdas Pophale) SiO2 
 PCOD8141211
Probable space group: C 2/C
;
_chemical_formula_sum "Si O2"
_cell_formula_units_Z 48
_cell_length_a 28.918951
_cell_length_b 5.021198
_cell_length_c 17.532518
_cell_angle_alpha 90.000000
_cell_angle_beta 106.210781
_cell_angle_gamma 90.000000
_cell_volume 2444.637669
_symmetry_space_group_name_H-M "C 2/C"
_symmetry_group_IT_number 15
_symmetry_cell_setting 'monoclinic'
loop_
_space_group_symop_operation_xyz
x,y,z
-x,y,1/2-z
-x,-y,-z
x,-y,1/2+z
1/2+x,1/2+y,z
1/2-x,1/2+y,1/2-z
1/2-x,1/2-y,-z
1/2+x,1/2-y,1/2+z
loop_
_atom_site_type_symbol
_atom_site_label
_atom_site_fract_x
_atom_site_fract_y
_atom_site_fract_z
Si Si1 0.718722 0.205956 0.323845
Si Si2 0.138651 0.625885 0.993115
Si Si3 0.472433 0.608679 0.659054
Si Si4 0.361136 0.618446 0.601651
Si Si5 0.972532 0.388148 0.060583
Si Si6 0.280602 0.201337 0.353397
O O1 0.668517 0.269089 0.341026
O O2 0.706962 0.221226 0.229463
O O3 0.757637 0.422782 0.366144
O O4 0.742010 0.926399 0.359530
O O5 0.147256 0.322122 0.972211
O O6 0.082776 0.654953 0.988824
O O7 0.155077 0.825217 0.932753
O O8 0.168784 0.715048 0.080419
O O9 0.500000 0.557561 0.750000
O O10 0.416143 0.588328 0.652617
O O11 0.490169 0.395671 0.602772
O O12 0.481668 0.903639 0.632515
O O13 0.000000 0.500000 0.000000
#
# Coordination Sequence:
#
# PCOD8141211 Si02
#       6
#     8   8   8   8   8   8
#     4  10  21  36  53  77 108 141 178 221 268 321
#     4  10  21  36  55  80 108 139 179 224 267 320
#     4  10  21  38  58  83 113 145 185 231 278 331
#     4  10  21  36  55  80 108 139 180 224 267 322
#     4  10  21  38  58  83 113 145 185 230 277 332
#     4  10  21  36  53  77 109 141 178 222 268 322
#
# _framework density 19.634813000000001
#
# number of rings (size 3 to 8) (size 9 to 14) (size 15 to 20)
#    0.000    2.000    0.000    3.000    0.000    5.333 
#    0.000    5.000    0.000    0.000    0.000    0.000 
#    0.000    0.000    0.000    0.000    0.000    0.000 
#
# Total GULP energy -297557.513351 kJ/mol
# GULP energy per Si atom -12398.229723 kJ/mol
# Density = 1.959012 g / cm^3
# Si number density = 19.634813 Si / 1000 Ang^3
#
#
#
# Elastic Constant Matrix: (Units=GPa)
#
#
# Indices 1 2 3 4 5 6 
#
# 1 87.9629 19.2677 57.3498 0.0000 -3.1929 0.0000
# 2 19.2677 85.9624 38.2419 0.0000 10.3669 0.0000
# 3 57.3498 38.2419 110.0963 0.0000 19.1011 0.0000
# 4 0.0000 0.0000 0.0000 20.2846 0.0000 -4.7485
# 5 -3.1929 10.3669 19.1011 0.0000 20.0117 0.0000
# 6 0.0000 0.0000 0.0000 -4.7485 0.0000 18.9729
#
#
#
# Elastic Compliance Matrix: (Units=1/GPa)
#
#
# Indices 1 2 3 4 5 6 
#
# 1 0.020977 -0.000667 -0.013586 0.000000 0.016660 0.000000
# 2 -0.000667 0.013940 -0.003863 0.000000 -0.003641 0.000000
# 3 -0.013586 -0.003863 0.021010 0.000000 -0.020220 0.000000
# 4 0.000000 0.000000 0.000000 0.052367 0.000000 0.013106
# 5 0.016660 -0.003641 -0.020220 0.000000 0.073815 0.000000
# 6 0.000000 0.000000 0.000000 0.013106 0.000000 0.055987
#
#
# Mechanical properties :
#
#
# Convention : Reuss Voigt Hill
#
# Bulk Modulus (GPa) = 50.77369 57.08227 53.92798
# Shear Modulus (GPa) = 17.80049 23.13132 20.46590
#
# Velocity S-wave (km/s) = 3.01421 3.43604 3.23201
# Velocity P-wave (km/s) = 6.16677 6.69902 6.43840
#
# Compressibility (1/GPa) = 0.01969524
#
# Stress axis : x y z
#
# Youngs Moduli (GPa) = 47.67188 71.73555 47.59727
#
# Poissons Ratio (x) = 0.04786 0.64664
# Poissons Ratio (y) = 0.03180 0.18386
# Poissons Ratio (z) = 0.64765 0.27711
#
# Static dielectric constant tensor:
#      x y z
#    x 3.458010 0.000000 0.017310 
#    y 0.000000 3.973900 0.000000 
#    z 0.017310 0.000000 3.390400 
# 
# 
# High freq. dielectric constant tensor:
#      x y z
#    x 1.755460 0.000000 0.004000 
#    y 0.000000 1.789320 0.000000 
#    z 0.004000 0.000000 1.756470 
# 
# From -- ./inp_files/217805.got.cif
#   From: 2010.06.25/outbox.cif.g09.slc.cpg/sg15_109_cif.got.tgz:217805.got - 2010.06.28 07:06:18.
