data_PCOD8141266
_publ_section_title
;
Structure prediction by ZEFSAII (Michael W. Deem and Ramdas Pophale) SiO2 
 PCOD8141266
Probable space group: C 2/C
;
_chemical_formula_sum "Si O2"
_cell_formula_units_Z 40
_cell_length_a 12.533866
_cell_length_b 30.891998
_cell_length_c 5.018693
_cell_angle_alpha 90.000000
_cell_angle_beta 82.727877
_cell_angle_gamma 90.000000
_cell_volume 1927.587711
_symmetry_space_group_name_H-M "C 2/C"
_symmetry_group_IT_number 15
_symmetry_cell_setting 'monoclinic'
loop_
_space_group_symop_operation_xyz
x,y,z
-x,y,1/2-z
-x,-y,-z
x,-y,1/2+z
1/2+x,1/2+y,z
1/2-x,1/2+y,1/2-z
1/2-x,1/2-y,-z
1/2+x,1/2-y,1/2+z
loop_
_atom_site_type_symbol
_atom_site_label
_atom_site_fract_x
_atom_site_fract_y
_atom_site_fract_z
Si Si1 0.427580 0.227419 0.520749
Si Si2 0.074462 0.177663 0.481511
Si Si3 0.621497 0.471640 0.689339
Si Si4 0.375425 0.138836 0.716115
Si Si5 0.744414 0.111449 0.221266
O O1 0.500000 0.236418 0.750000
O O2 0.372651 0.274285 0.482933
O O3 0.348755 0.187496 0.615099
O O4 0.500000 0.212234 0.250000
O O5 0.167723 0.143047 0.430189
O O6 0.000000 0.176185 0.250000
O O7 0.000000 0.163889 0.750000
O O8 0.500000 0.453107 0.750000
O O9 0.640102 0.488585 0.384982
O O10 0.706980 0.434765 0.723449
O O11 0.500000 0.132816 0.750000
O O12 0.344354 0.105903 0.486177
O O13 0.304639 0.131892 0.998583
#
# Coordination Sequence:
#
# PCOD8141266 Si02
#       5
#     8   8   8   8   8
#     4   9  18  35  55  78 117 162 197 239 291 337
#     4  10  21  36  56  87 124 153 190 246 298 352
#     4  10  22  41  65  92 122 149 177 227 299 374
#     4  11  23  39  58  83 119 161 207 248 279 326
#     4  12  23  37  64  90 114 155 200 243 292 349
#
# _framework density 20.751327
#
# number of rings (size 3 to 8) (size 9 to 14) (size 15 to 20)
#    0.000    1.600    0.000    6.000    0.000    4.000 
#    0.000    0.000    0.000   12.000    0.000    0.000 
#    0.000    0.000    0.000    0.000    0.000    0.000 
#
# Total GULP energy -247942.730524 kJ/mol
# GULP energy per Si atom -12397.136526 kJ/mol
# Density = 2.070410 g / cm^3
# Si number density = 20.751327 Si / 1000 Ang^3
#
#
#
# Elastic Constant Matrix: (Units=GPa)
#
#
# Indices 1 2 3 4 5 6 
#
# 1 74.5966 51.1724 30.0771 0.0000 7.0582 0.0000
# 2 51.1724 82.8756 25.6680 0.0000 -8.8259 0.0000
# 3 30.0771 25.6680 147.6288 0.0000 -5.8322 0.0000
# 4 0.0000 0.0000 0.0000 20.7803 0.0000 8.5501
# 5 7.0582 -8.8259 -5.8322 0.0000 37.0206 0.0000
# 6 0.0000 0.0000 0.0000 8.5501 0.0000 27.5862
#
#
#
# Elastic Compliance Matrix: (Units=1/GPa)
#
#
# Indices 1 2 3 4 5 6 
#
# 1 0.027039 -0.016802 -0.002968 0.000000 -0.009628 0.000000
# 2 -0.016802 0.023469 -0.000312 0.000000 0.008749 0.000000
# 3 -0.002968 -0.000312 0.007499 0.000000 0.001673 0.000000
# 4 0.000000 0.000000 0.000000 0.055156 0.000000 -0.017095
# 5 -0.009628 0.008749 0.001673 0.000000 0.031197 0.000000
# 6 0.000000 0.000000 0.000000 -0.017095 0.000000 0.041549
#
#
# Mechanical properties :
#
#
# Convention : Reuss Voigt Hill
#
# Bulk Modulus (GPa) = 56.04128 57.65955 56.85042
# Shear Modulus (GPa) = 21.55002 30.28966 25.91984
#
# Velocity S-wave (km/s) = 3.22606 3.82468 3.53805
# Velocity P-wave (km/s) = 6.39854 6.88117 6.64424
#
# Compressibility (1/GPa) = 0.01784399
#
# Stress axis : x y z
#
# Youngs Moduli (GPa) = 36.98404 42.60960 133.35656
#
# Poissons Ratio (x) = 0.71591 0.39578
# Poissons Ratio (y) = 0.62139 0.04158
# Poissons Ratio (z) = 0.10976 0.01329
#
# Static dielectric constant tensor:
#      x y z
#    x 3.689390 0.000000 0.205640 
#    y 0.000000 3.748090 0.000000 
#    z 0.205640 0.000000 4.030870 
# 
# 
# High freq. dielectric constant tensor:
#      x y z
#    x 1.795780 0.000000 0.012500 
#    y 0.000000 1.800310 0.000000 
#    z 0.012500 0.000000 1.840080 
# 
# From -- ./inp_files/4881.got.cif
#   From: 2010.06.25/outbox.cif.g09.slc.cpg/sg15_3_cif.got.tgz:4881.got - 2010.06.28 07:06:18.
