data_PCOD8141058
_publ_section_title
;
Structure prediction by ZEFSAII (Michael W. Deem and Ramdas Pophale) SiO2 
 PCOD8141058
Probable space group: C 2/C
;
_chemical_formula_sum "Si O2"
_cell_formula_units_Z 56
_cell_length_a 26.076840
_cell_length_b 6.806490
_cell_length_c 18.084822
_cell_angle_alpha 90.000000
_cell_angle_beta 59.723840
_cell_angle_gamma 90.000000
_cell_volume 2772.092785
_symmetry_space_group_name_H-M "C 2/C"
_symmetry_group_IT_number 15
_symmetry_cell_setting 'monoclinic'
loop_
_space_group_symop_operation_xyz
x,y,z
-x,y,1/2-z
-x,-y,-z
x,-y,1/2+z
1/2+x,1/2+y,z
1/2-x,1/2+y,1/2-z
1/2-x,1/2-y,-z
1/2+x,1/2-y,1/2+z
loop_
_atom_site_type_symbol
_atom_site_label
_atom_site_fract_x
_atom_site_fract_y
_atom_site_fract_z
Si Si1 0.742107 0.477188 0.518314
Si Si2 0.851073 0.279202 0.918736
Si Si3 0.083700 0.553342 0.989536
Si Si4 0.835390 0.617607 0.700231
Si Si5 0.617211 0.761238 0.763681
Si Si6 0.030211 0.799169 0.449964
Si Si7 0.223284 0.996974 0.700448
O O1 0.750000 0.250000 0.500000
O O2 0.794379 0.588558 0.436088
O O3 0.678318 0.567020 0.536360
O O4 0.751216 0.508565 0.598910
O O5 0.893054 0.238513 0.816959
O O6 0.888184 0.402802 0.951044
O O7 0.126666 0.665157 0.900766
O O8 0.073799 0.318455 0.977115
O O9 0.019827 0.649059 0.037288
O O10 0.879460 0.491769 0.719650
O O11 0.818193 0.808052 0.758668
O O12 0.775629 0.501104 0.721857
O O13 0.566218 0.652863 0.848460
O O14 0.680691 0.680654 0.743115
O O15 0.000000 0.000000 0.500000
#
# Coordination Sequence:
#
# PCOD8141058 Si02
#       7
#     8   8   8   8   8   8   8
#     4  10  21  35  53  84 126 161 195 236 302 371
#     4  10  21  38  57  85 123 159 198 244 306 370
#     4  10  22  39  61  86 116 158 204 248 307 366
#     4  11  20  34  55  86 118 152 197 245 294 359
#     4  10  22  38  57  86 120 153 198 252 299 360
#     4  10  22  42  63  87 115 155 208 260 304 361
#     4  11  20  32  55  84 116 154 196 239 298 360
#
# _framework density 20.201345
#
# number of rings (size 3 to 8) (size 9 to 14) (size 15 to 20)
#    0.000    1.714    2.857    1.714    0.000    2.857 
#    0.000    0.000    0.000    5.143    0.000    0.000 
#    0.000    0.000    0.000    0.000    0.000    0.000 
#
# Total GULP energy -346957.226044 kJ/mol
# GULP energy per Si atom -12391.329502 kJ/mol
# Density = 2.015537 g / cm^3
# Si number density = 20.201345 Si / 1000 Ang^3
#
#
#
# Elastic Constant Matrix: (Units=GPa)
#
#
# Indices 1 2 3 4 5 6 
#
# 1 73.6783 23.1096 34.4982 0.0009 5.2403 0.0005
# 2 23.1096 95.2879 41.0999 0.0052 9.8550 0.0101
# 3 34.4982 41.0999 136.2808 0.0005 -10.9493 -0.0008
# 4 0.0009 0.0052 0.0005 33.3161 0.0006 -11.6947
# 5 5.2403 9.8550 -10.9493 0.0006 17.6012 0.0008
# 6 0.0005 0.0101 -0.0008 -11.6947 0.0008 25.1875
#
#
#
# Elastic Compliance Matrix: (Units=1/GPa)
#
#
# Indices 1 2 3 4 5 6 
#
# 1 0.016518 -0.001458 -0.004285 0.000000 -0.006767 0.000000
# 2 -0.001458 0.013914 -0.004651 -0.000004 -0.010250 -0.000007
# 3 -0.004285 -0.004651 0.010670 0.000001 0.010518 0.000003
# 4 0.000000 -0.000004 0.000001 0.035860 0.000001 0.016650
# 5 -0.006767 -0.010250 0.010518 0.000001 0.071111 0.000003
# 6 0.000000 -0.000007 0.000003 0.016650 0.000003 0.047433
#
#
# Mechanical properties :
#
#
# Convention : Reuss Voigt Hill
#
# Bulk Modulus (GPa) = 49.22639 55.85137 52.53888
# Shear Modulus (GPa) = 22.41506 28.99025 25.70265
#
# Velocity S-wave (km/s) = 3.33465 3.79234 3.57083
# Velocity P-wave (km/s) = 6.26477 6.84712 6.56241
#
# Compressibility (1/GPa) = 0.02031431
#
# Stress axis : x y z
#
# Youngs Moduli (GPa) = 60.54165 71.86977 93.71896
#
# Poissons Ratio (x) = 0.10476 0.40162
# Poissons Ratio (y) = 0.08825 0.43586
# Poissons Ratio (z) = 0.25944 0.33425
#
# Static dielectric constant tensor:
#      x y z
#    x 3.893210 0.000110 0.711820 
#    y 0.000110 3.739390 0.000250 
#    z 0.711820 0.000250 5.568280 
# 
# 
# High freq. dielectric constant tensor:
#      x y z
#    x 1.761620 0.000000 -0.012540 
#    y 0.000000 1.787690 0.000000 
#    z -0.012540 0.000000 1.799860 
# 
# From -- ./inp_files/256512.got.cif
#   From: 2010.06.25/outbox.cif.g09.slc.cpg/sg15_129_cif.got.tgz:256512.got - 2010.06.28 07:06:18.
