data_PCOD8141292
_publ_section_title
;
Structure prediction by ZEFSAII (Michael W. Deem and Ramdas Pophale) SiO2 
 PCOD8141292
Probable space group: C 2/C
;
_chemical_formula_sum "Si O2"
_cell_formula_units_Z 56
_cell_length_a 9.207024
_cell_length_b 26.075595
_cell_length_c 14.514765
_cell_angle_alpha 90.000000
_cell_angle_beta 54.854788
_cell_angle_gamma 90.000000
_cell_volume 2849.411938
_symmetry_space_group_name_H-M "C 2/C"
_symmetry_group_IT_number 15
_symmetry_cell_setting 'monoclinic'
loop_
_space_group_symop_operation_xyz
x,y,z
-x,y,1/2-z
-x,-y,-z
x,-y,1/2+z
1/2+x,1/2+y,z
1/2-x,1/2+y,1/2-z
1/2-x,1/2-y,-z
1/2+x,1/2-y,1/2+z
loop_
_atom_site_type_symbol
_atom_site_label
_atom_site_fract_x
_atom_site_fract_y
_atom_site_fract_z
Si Si1 0.648126 0.822061 0.971260
Si Si2 0.505278 0.733615 0.353036
Si Si3 0.328127 0.837947 0.748312
Si Si4 0.140319 0.945294 0.863112
Si Si5 0.265125 0.488254 0.007403
Si Si6 0.297496 0.529620 0.805397
Si Si7 0.500177 0.907053 0.350306
O O1 0.603238 0.833629 0.881482
O O2 0.855219 0.810259 0.911065
O O3 0.528547 0.776751 0.057845
O O4 0.604973 0.873582 0.039290
O O5 0.500000 0.756322 0.250000
O O6 0.693409 0.709287 0.312679
O O7 0.500000 0.832386 0.750000
O O8 0.221364 0.890105 0.809066
O O9 0.926416 0.947552 0.932776
O O10 0.224757 0.986343 0.763348
O O11 0.182923 0.961780 0.952023
O O12 0.202649 0.509037 0.931708
O O13 0.102288 0.461152 0.117840
O O14 0.500000 0.544776 0.750000
O O15 0.201801 0.581874 0.807833
O O16 0.500000 0.880621 0.250000
#
# Coordination Sequence:
#
# PCOD8141292 Si02
#       7
#     8   8   8   8   8   8   8
#     4  10  22  40  65  88 114 158 199 246 305 348
#     4   9  20  44  66  87 116 149 201 254 294 364
#     4  11  24  37  63  93 121 154 200 245 308 359
#     4  10  21  38  56  86 118 160 200 240 289 357
#     4  10  21  36  58  78 118 159 198 243 285 336
#     4  10  22  38  55  79 120 157 196 242 291 347
#     4  12  22  35  57  89 114 151 198 245 293 355
#
# _framework density 19.653178
#
# number of rings (size 3 to 8) (size 9 to 14) (size 15 to 20)
#    0.000    1.714    1.429    2.571    4.000    4.571 
#    0.000    0.714    0.000    0.000    0.000    0.000 
#    0.000    0.000    0.000    0.000    0.000    0.000 
#
# Total GULP energy -347167.110356 kJ/mol
# GULP energy per Si atom -12398.825370 kJ/mol
# Density = 1.960845 g / cm^3
# Si number density = 19.653178 Si / 1000 Ang^3
#
#
#
# Elastic Constant Matrix: (Units=GPa)
#
#
# Indices 1 2 3 4 5 6 
#
# 1 109.5668 41.9012 49.8569 0.0000 6.6777 0.0000
# 2 41.9012 66.7383 41.0869 0.0000 2.2004 0.0000
# 3 49.8569 41.0869 128.4275 0.0000 14.7538 0.0000
# 4 0.0000 0.0000 0.0000 43.1740 0.0000 -2.7515
# 5 6.6777 2.2004 14.7538 0.0000 27.3849 0.0000
# 6 0.0000 0.0000 0.0000 -2.7515 0.0000 10.5849
#
#
#
# Elastic Compliance Matrix: (Units=1/GPa)
#
#
# Indices 1 2 3 4 5 6 
#
# 1 0.012910 -0.006303 -0.002869 0.000000 -0.001096 0.000000
# 2 -0.006303 0.021822 -0.004807 0.000000 0.002373 0.000000
# 3 -0.002869 -0.004807 0.010994 0.000000 -0.004837 0.000000
# 4 0.000000 0.000000 0.000000 0.023552 0.000000 0.006122
# 5 -0.001096 0.002373 -0.004837 0.000000 0.039199 0.000000
# 6 0.000000 0.000000 0.000000 0.006122 0.000000 0.096066
#
#
# Mechanical properties :
#
#
# Convention : Reuss Voigt Hill
#
# Bulk Modulus (GPa) = 56.28333 63.38029 59.83181
# Shear Modulus (GPa) = 20.97101 27.68793 24.32947
#
# Velocity S-wave (km/s) = 3.27012 3.75751 3.52226
# Velocity P-wave (km/s) = 6.55429 7.15154 6.85942
#
# Compressibility (1/GPa) = 0.01776725
#
# Stress axis : x y z
#
# Youngs Moduli (GPa) = 77.46187 45.82470 90.95751
#
# Poissons Ratio (x) = 0.28881 0.26100
# Poissons Ratio (y) = 0.48821 0.43727
# Poissons Ratio (z) = 0.22227 0.22030
#
# Static dielectric constant tensor:
#      x y z
#    x 3.575380 0.000000 0.029090 
#    y 0.000000 3.312970 0.000000 
#    z 0.029090 0.000000 3.815040 
# 
# 
# High freq. dielectric constant tensor:
#      x y z
#    x 1.763080 0.000000 0.000960 
#    y 0.000000 1.742430 0.000000 
#    z 0.000960 0.000000 1.789810 
# 
# From -- ./inp_files/81251.got.cif
#   From: 2010.06.25/outbox.cif.g09.slc.cpg/sg15_41_cif.got.tgz:81251.got - 2010.06.28 07:06:18.
