data_PCOD8141219
_publ_section_title
;
Structure prediction by ZEFSAII (Michael W. Deem and Ramdas Pophale) SiO2 
 PCOD8141219
Probable space group: C 2/C
;
_chemical_formula_sum "Si O2"
_cell_formula_units_Z 56
_cell_length_a 9.860414
_cell_length_b 31.960196
_cell_length_c 12.848372
_cell_angle_alpha 90.000000
_cell_angle_beta 47.681198
_cell_angle_gamma 90.000000
_cell_volume 2993.905748
_symmetry_space_group_name_H-M "C 2/C"
_symmetry_group_IT_number 15
_symmetry_cell_setting 'monoclinic'
loop_
_space_group_symop_operation_xyz
x,y,z
-x,y,1/2-z
-x,-y,-z
x,-y,1/2+z
1/2+x,1/2+y,z
1/2-x,1/2+y,1/2-z
1/2-x,1/2-y,-z
1/2+x,1/2-y,1/2+z
loop_
_atom_site_type_symbol
_atom_site_label
_atom_site_fract_x
_atom_site_fract_y
_atom_site_fract_z
Si Si1 0.689013 0.548873 0.375923
Si Si2 0.112620 0.995660 0.598196
Si Si3 0.700086 0.118108 0.880214
Si Si4 0.485687 0.715350 0.924038
Si Si5 0.965856 0.877054 0.436537
Si Si6 0.586128 0.954740 0.937188
Si Si7 0.699428 0.211573 0.884668
O O1 0.735293 0.528739 0.467084
O O2 0.541291 0.520244 0.398302
O O3 0.594118 0.593810 0.437608
O O4 0.866932 0.552452 0.209486
O O5 0.231224 0.957171 0.584895
O O6 0.000000 0.019137 0.750000
O O7 0.816081 0.116086 0.924789
O O8 0.611612 0.164971 0.922916
O O9 0.832970 0.111548 0.712235
O O10 0.543399 0.082723 0.956981
O O11 0.466627 0.669483 0.984851
O O12 0.341677 0.715560 0.905005
O O13 0.691828 0.721513 0.776999
O O14 0.454250 0.752729 0.022302
O O15 0.500000 0.000000 0.000000
#
# Coordination Sequence:
#
# PCOD8141219 Si02
#       7
#     8   8   8   8   8   8   8
#     4  10  21  36  54  71  93 133 169 196 255 302
#     4   9  21  37  53  70  95 129 166 207 251 296
#     4   9  19  31  47  70 104 133 161 207 252 285
#     4   8  14  25  42  66  93 126 163 194 238 295
#     4   9  18  31  49  70  98 136 169 195 245 309
#     4  11  23  35  49  75 101 125 167 217 246 286
#     4   8  14  26  41  64  95 130 157 195 244 291
#
# _framework density 18.704663
#
# number of rings (size 3 to 8) (size 9 to 14) (size 15 to 20)
#    0.000    2.857    0.000    2.571    8.000    3.429 
#    0.000    2.857    0.000    0.000    0.000    1.000 
#    0.000    0.000    0.000    0.000    0.000    0.000 
#
# Total GULP energy -346871.507788 kJ/mol
# GULP energy per Si atom -12388.268135 kJ/mol
# Density = 1.866209 g / cm^3
# Si number density = 18.704663 Si / 1000 Ang^3
#
#
#
# Elastic Constant Matrix: (Units=GPa)
#
#
# Indices 1 2 3 4 5 6 
#
# 1 19.8428 11.8035 23.0106 0.0000 0.9987 0.0000
# 2 11.8035 148.2933 88.5283 0.0000 2.5540 0.0000
# 3 23.0106 88.5283 132.5761 0.0000 3.6425 0.0000
# 4 0.0000 0.0000 0.0000 41.7695 0.0000 -7.0921
# 5 0.9987 2.5540 3.6425 0.0000 19.6900 0.0000
# 6 0.0000 0.0000 0.0000 -7.0921 0.0000 10.3362
#
#
#
# Elastic Compliance Matrix: (Units=1/GPa)
#
#
# Indices 1 2 3 4 5 6 
#
# 1 0.063696 0.002546 -0.012722 0.000000 -0.001207 0.000000
# 2 0.002546 0.011315 -0.007995 0.000000 -0.000118 0.000000
# 3 -0.012722 -0.007995 0.015120 0.000000 -0.001115 0.000000
# 4 0.000000 0.000000 0.000000 0.027098 0.000000 0.018593
# 5 -0.001207 -0.000118 -0.001115 0.000000 0.051070 0.000000
# 6 0.000000 0.000000 0.000000 0.018593 0.000000 0.109505
#
#
# Mechanical properties :
#
#
# Convention : Reuss Voigt Hill
#
# Bulk Modulus (GPa) = 18.59109 60.82191 39.70650
# Shear Modulus (GPa) = 15.05683 26.18380 20.62032
#
# Velocity S-wave (km/s) = 2.84029 3.74552 3.32387
# Velocity P-wave (km/s) = 4.55161 7.16190 6.00042
#
# Compressibility (1/GPa) = 0.05378921
#
# Stress axis : x y z
#
# Youngs Moduli (GPa) = 15.69966 88.37543 66.13774
#
# Poissons Ratio (x) = -0.22498 0.84141
# Poissons Ratio (y) = -0.03997 0.52874
# Poissons Ratio (z) = 0.19973 0.70652
#
# Static dielectric constant tensor:
#      x y z
#    x 3.159890 0.000000 0.068540 
#    y 0.000000 3.829840 0.000000 
#    z 0.068540 0.000000 3.985290 
# 
# 
# High freq. dielectric constant tensor:
#      x y z
#    x 1.671050 0.000000 -0.003680 
#    y 0.000000 1.730190 0.000000 
#    z -0.003680 0.000000 1.732610 
# 
# From -- ./inp_files/149018.got.cif
#   From: 2010.06.25/outbox.cif.g09.slc.cpg/sg15_75_cif.got.tgz:149018.got - 2010.06.28 07:06:18.
