data_PCOD8141270
_publ_section_title
;
Structure prediction by ZEFSAII (Michael W. Deem and Ramdas Pophale) SiO2 
 PCOD8141270
Probable space group: C 2/C
;
_chemical_formula_sum "Si O2"
_cell_formula_units_Z 64
_cell_length_a 13.746049
_cell_length_b 29.287393
_cell_length_c 12.189450
_cell_angle_alpha 90.000000
_cell_angle_beta 40.652175
_cell_angle_gamma 90.000000
_cell_volume 3196.936724
_symmetry_space_group_name_H-M "C 2/C"
_symmetry_group_IT_number 15
_symmetry_cell_setting 'monoclinic'
loop_
_space_group_symop_operation_xyz
x,y,z
-x,y,1/2-z
-x,-y,-z
x,-y,1/2+z
1/2+x,1/2+y,z
1/2-x,1/2+y,1/2-z
1/2-x,1/2-y,-z
1/2+x,1/2-y,1/2+z
loop_
_atom_site_type_symbol
_atom_site_label
_atom_site_fract_x
_atom_site_fract_y
_atom_site_fract_z
Si Si1 0.145019 0.315276 0.577510
Si Si2 0.882324 0.941345 0.107092
Si Si3 0.638727 0.266583 0.716594
Si Si4 0.382530 0.524175 0.254031
Si Si5 0.825791 0.323740 0.408859
Si Si6 0.178013 0.573758 0.590200
Si Si7 0.095668 0.222275 0.504140
Si Si8 0.396542 0.641832 0.743397
O O1 0.079666 0.272755 0.565055
O O2 0.250560 0.299941 0.587081
O O3 0.227658 0.351458 0.429368
O O4 0.000000 0.340890 0.750000
O O5 0.750210 0.950856 0.133340
O O6 0.889956 0.889545 0.142511
O O7 0.843497 0.973712 0.243689
O O8 0.043755 0.949728 0.912802
O O9 0.500000 0.269786 0.750000
O O10 0.767066 0.303108 0.574529
O O11 0.712542 0.215391 0.649334
O O12 0.585020 0.277791 0.882875
O O13 0.500000 0.519504 0.250000
O O14 0.236948 0.550772 0.426017
O O15 0.757444 0.374277 0.455387
O O16 0.000000 0.332149 0.250000
O O17 0.000000 0.569156 0.750000
O O18 0.956577 0.192497 0.665147
O O19 0.500000 0.619408 0.750000
#
# Coordination Sequence:
#
# PCOD8141270 Si02
#       8
#     8   8   8   8   8   8   8   8
#     4  10  21  38  55  77 112 153 197 239 294 338
#     4  10  21  38  65  89 111 154 190 241 297 333
#     4  10  22  35  55  82 114 157 204 243 277 331
#     4   9  20  40  65  90 114 145 191 240 291 357
#     4   9  21  37  49  79 121 154 190 235 283 336
#     4  10  22  39  59  88 126 152 187 233 290 367
#     4  10  21  36  57  80 109 155 200 245 284 335
#     4  10  22  38  58  86 113 147 201 249 283 342
#
# _framework density 20.019165000000001
#
# number of rings (size 3 to 8) (size 9 to 14) (size 15 to 20)
#    0.000    2.250    0.000    2.250    5.250    6.000 
#    2.250    0.625    0.000    0.000    0.000    0.000 
#    0.000    0.000    0.000    0.000    0.000    0.000 
#
# Total GULP energy -396605.422986 kJ/mol
# GULP energy per Si atom -12393.919468 kJ/mol
# Density = 1.997360 g / cm^3
# Si number density = 20.019165 Si / 1000 Ang^3
#
#
#
# Elastic Constant Matrix: (Units=GPa)
#
#
# Indices 1 2 3 4 5 6 
#
# 1 56.6061 16.1167 45.6736 0.0000 8.0386 0.0000
# 2 16.1167 89.1536 48.8468 0.0000 -1.8058 0.0000
# 3 45.6736 48.8468 141.5708 0.0000 -4.3556 0.0000
# 4 0.0000 0.0000 0.0000 34.8669 0.0000 2.7528
# 5 8.0386 -1.8058 -4.3556 0.0000 34.4752 0.0000
# 6 0.0000 0.0000 0.0000 2.7528 0.0000 21.9036
#
#
#
# Elastic Compliance Matrix: (Units=1/GPa)
#
#
# Indices 1 2 3 4 5 6 
#
# 1 0.025464 -0.000155 -0.008377 0.000000 -0.007004 0.000000
# 2 -0.000155 0.013833 -0.004718 0.000000 0.000165 0.000000
# 3 -0.008377 -0.004718 0.011491 0.000000 0.003158 0.000000
# 4 0.000000 0.000000 0.000000 0.028968 0.000000 -0.003641
# 5 -0.007004 0.000165 0.003158 0.000000 0.031047 0.000000
# 6 0.000000 0.000000 0.000000 -0.003641 0.000000 0.046112
#
#
# Mechanical properties :
#
#
# Convention : Reuss Voigt Hill
#
# Bulk Modulus (GPa) = 41.17288 56.51163 48.84225
# Shear Modulus (GPa) = 26.10814 30.02869 28.06842
#
# Velocity S-wave (km/s) = 3.61523 3.87718 3.74849
# Velocity P-wave (km/s) = 6.16749 6.95222 6.57158
#
# Compressibility (1/GPa) = 0.02428783
#
# Stress axis : x y z
#
# Youngs Moduli (GPa) = 39.27111 72.29210 87.02383
#
# Poissons Ratio (x) = 0.01123 0.72901
# Poissons Ratio (y) = 0.00610 0.41054
# Poissons Ratio (z) = 0.32898 0.34104
#
# Static dielectric constant tensor:
#      x y z
#    x 3.468720 0.000000 0.044220 
#    y 0.000000 3.639280 0.000000 
#    z 0.044220 0.000000 3.846610 
# 
# 
# High freq. dielectric constant tensor:
#      x y z
#    x 1.765690 0.000000 0.003290 
#    y 0.000000 1.764890 0.000000 
#    z 0.003290 0.000000 1.794210 
# 
# From -- ./inp_files/101334.got.cif
#   From: 2010.06.25/outbox.cif.g09.slc.cpg/sg15_51_cif.got.tgz:101334.got - 2010.06.28 07:06:18.
