data_PCOD8141604
_publ_section_title
;
Structure prediction by ZEFSAII (Michael W. Deem and Ramdas Pophale) SiO2 
 PCOD8141604
Probable space group: C 2/C
;
_chemical_formula_sum "Si O2"
_cell_formula_units_Z 40
_cell_length_a 16.185498
_cell_length_b 9.548505
_cell_length_c 24.708114
_cell_angle_alpha 90.000000
_cell_angle_beta 146.518776
_cell_angle_gamma 90.000000
_cell_volume 2106.567802
_symmetry_space_group_name_H-M "C 2/C"
_symmetry_group_IT_number 15
_symmetry_cell_setting 'monoclinic'
loop_
_space_group_symop_operation_xyz
x,y,z
-x,y,1/2-z
-x,-y,-z
x,-y,1/2+z
1/2+x,1/2+y,z
1/2-x,1/2+y,1/2-z
1/2-x,1/2-y,-z
1/2+x,1/2-y,1/2+z
loop_
_atom_site_type_symbol
_atom_site_label
_atom_site_fract_x
_atom_site_fract_y
_atom_site_fract_z
Si Si1 0.674898 0.306774 0.905144
Si Si2 0.290143 0.617167 0.881648
Si Si3 0.652457 0.678330 0.233877
Si Si4 0.373748 0.315601 0.908266
Si Si5 0.323491 0.012963 0.905409
O O1 0.678766 0.177381 0.865892
O O2 0.505642 0.349114 0.823716
O O3 0.758779 0.442056 0.924823
O O4 0.750000 0.250000 0.000000
O O5 0.224695 0.670260 0.788301
O O6 0.290686 0.450472 0.887454
O O7 0.453688 0.685526 0.979380
O O8 0.634488 0.670966 0.160486
O O9 0.758336 0.556986 0.315490
O O10 0.287536 0.179478 0.883908
O O11 0.500000 0.000000 0.000000
#
# Coordination Sequence:
#
# PCOD8141604 Si02
#       5
#     8   8   8   8   8
#     4  11  21  40  62  85 119 164 199 237 301 366
#     4  10  21  37  60  86 120 151 198 246 299 356
#     4  11  21  39  63  86 116 165 197 240 308 361
#     4  11  21  37  61  89 117 151 201 254 292 352
#     4  11  20  37  60  90 119 155 203 251 291 361
#
# _framework density 18.988232
#
# number of rings (size 3 to 8) (size 9 to 14) (size 15 to 20)
#    0.000    1.200    6.000    3.600    0.000    0.000 
#    0.000    5.000    0.000    0.000    0.000    0.000 
#    0.000    0.000    0.000    0.000    0.000    0.000 
#
# Total GULP energy -247931.547142 kJ/mol
# GULP energy per Si atom -12396.577357 kJ/mol
# Density = 1.894501 g / cm^3
# Si number density = 18.988232 Si / 1000 Ang^3
#
#
#
# Elastic Constant Matrix: (Units=GPa)
#
#
# Indices 1 2 3 4 5 6 
#
# 1 99.8369 55.6001 47.1436 0.0000 -8.3791 0.0000
# 2 55.6001 159.2375 43.1888 0.0000 1.1860 0.0000
# 3 47.1436 43.1888 104.0013 0.0002 13.3492 0.0000
# 4 0.0000 0.0000 0.0002 29.4590 0.0000 -0.6825
# 5 -8.3791 1.1860 13.3492 0.0000 21.1116 0.0000
# 6 0.0000 0.0000 0.0000 -0.6825 0.0000 23.2396
#
#
#
# Elastic Compliance Matrix: (Units=1/GPa)
#
#
# Indices 1 2 3 4 5 6 
#
# 1 0.016646 -0.003889 -0.007408 0.000000 0.011510 0.000000
# 2 -0.003889 0.008035 -0.001434 0.000000 -0.001088 0.000000
# 3 -0.007408 -0.001434 0.015167 0.000000 -0.012450 0.000000
# 4 0.000000 0.000000 0.000000 0.033969 0.000000 0.000998
# 5 0.011510 -0.001088 -0.012450 0.000000 0.059869 0.000000
# 6 0.000000 0.000000 0.000000 0.000998 0.000000 0.043059
#
#
# Mechanical properties :
#
#
# Convention : Reuss Voigt Hill
#
# Bulk Modulus (GPa) = 69.51300 72.77118 71.14209
# Shear Modulus (GPa) = 24.15433 29.23824 26.69629
#
# Velocity S-wave (km/s) = 3.57048 3.92830 3.75365
# Velocity P-wave (km/s) = 7.32705 7.68003 7.50562
#
# Compressibility (1/GPa) = 0.01438580
#
# Stress axis : x y z
#
# Youngs Moduli (GPa) = 60.07411 124.45807 65.93269
#
# Poissons Ratio (x) = 0.48398 0.48844
# Poissons Ratio (y) = 0.23361 0.09456
# Poissons Ratio (z) = 0.44503 0.17851
#
# Static dielectric constant tensor:
#      x y z
#    x 3.393920 0.000000 -0.058330 
#    y 0.000000 3.709860 0.000000 
#    z -0.058330 0.000000 3.830150 
# 
# 
# High freq. dielectric constant tensor:
#      x y z
#    x 1.717990 0.000000 -0.007350 
#    y 0.000000 1.741600 0.000000 
#    z -0.007350 0.000000 1.759010 
# 
# From -- ./inp_files/208877.got.cif
#   From: 2010.06.25/outbox.cif.g09.slc.cpg/sg15_105_cif.got.tgz:208877.got - 2010.06.28 07:06:18.
