data_PCOD8141625
_publ_section_title
;
Structure prediction by ZEFSAII (Michael W. Deem and Ramdas Pophale) SiO2 
 PCOD8141625
Probable space group: C 2/C
;
_chemical_formula_sum "Si O2"
_cell_formula_units_Z 52
_cell_length_a 16.836591
_cell_length_b 11.898545
_cell_length_c 23.830121
_cell_angle_alpha 90.000000
_cell_angle_beta 30.607855
_cell_angle_gamma 90.000000
_cell_volume 2430.681445
_symmetry_space_group_name_H-M "C 2/C"
_symmetry_group_IT_number 15
_symmetry_cell_setting 'monoclinic'
loop_
_space_group_symop_operation_xyz
x,y,z
-x,y,1/2-z
-x,-y,-z
x,-y,1/2+z
1/2+x,1/2+y,z
1/2-x,1/2+y,1/2-z
1/2-x,1/2-y,-z
1/2+x,1/2-y,1/2+z
loop_
_atom_site_type_symbol
_atom_site_label
_atom_site_fract_x
_atom_site_fract_y
_atom_site_fract_z
Si Si1 0.472951 0.389302 0.142774
Si Si2 0.919895 0.133922 0.434539
Si Si3 0.371303 0.810778 0.152359
Si Si4 0.668200 0.780008 0.452473
Si Si5 0.328376 0.289907 0.871247
Si Si6 0.113282 0.527234 0.481750
Si Si7 0.000000 0.182536 0.750000
O O1 0.538394 0.504959 0.077382
O O2 0.295045 0.364754 0.232784
O O3 0.483674 0.393712 0.203789
O O4 0.569698 0.288909 0.056707
O O5 0.792142 0.184287 0.556442
O O6 0.837915 0.147590 0.424946
O O7 0.085732 0.201010 0.337096
O O8 0.392415 0.773191 0.074354
O O9 0.503548 0.901517 0.090800
O O10 0.847819 0.737967 0.346328
O O11 0.673080 0.910099 0.471110
O O12 0.500000 0.247808 0.750000
O O13 0.258408 0.391442 0.874906
O O14 0.000000 0.500000 0.500000
#
# Coordination Sequence:
#
# PCOD8141625 Si02
#       7
#     8   8   8   8   8   8   4
#     4  11  23  38  66  88 123 164 200 265 317 379
#     4  10  23  40  59  95 123 162 219 250 315 379
#     4   9  22  38  57  91 122 161 206 254 311 370
#     4  10  21  37  60  91 120 157 202 254 317 374
#     4  10  22  39  65  89 125 167 208 266 311 370
#     4   9  19  35  61  93 120 155 210 256 301 376
#     4  10  22  40  58  92 116 158 210 252 314 378
#
# _framework density 21.393179
#
# number of rings (size 3 to 8) (size 9 to 14) (size 15 to 20)
#    0.000    2.154    0.000    1.385   10.769    3.077 
#    1.385    0.000    0.000    0.000    0.000    0.000 
#    0.000    0.000    0.000    0.000    0.000    0.000 
#
# Total GULP energy -322131.779961 kJ/mol
# GULP energy per Si atom -12389.683845 kJ/mol
# Density = 2.134449 g / cm^3
# Si number density = 21.393179 Si / 1000 Ang^3
#
#
#
# Elastic Constant Matrix: (Units=GPa)
#
#
# Indices 1 2 3 4 5 6 
#
# 1 59.6641 22.7412 25.5785 0.0006 -18.5784 -0.0002
# 2 22.7412 118.0328 61.8134 0.0038 -0.8267 -0.0009
# 3 25.5785 61.8134 134.7123 0.0048 -23.9197 -0.0003
# 4 0.0006 0.0038 0.0048 24.9337 -0.0003 -1.8386
# 5 -18.5784 -0.8267 -23.9197 -0.0003 31.8460 0.0000
# 6 -0.0002 -0.0009 -0.0003 -1.8386 0.0000 19.9075
#
#
#
# Elastic Compliance Matrix: (Units=1/GPa)
#
#
# Indices 1 2 3 4 5 6 
#
# 1 0.022408 -0.004215 -0.000022 0.000000 0.012947 0.000000
# 2 -0.004215 0.012429 -0.006095 -0.000001 -0.006715 0.000000
# 3 -0.000022 -0.006095 0.011763 -0.000001 0.008664 0.000000
# 4 0.000000 -0.000001 -0.000001 0.040381 -0.000001 0.003730
# 5 0.012947 -0.006715 0.008664 -0.000001 0.045287 0.000000
# 6 0.000000 0.000000 0.000000 0.003730 0.000000 0.050577
#
#
# Mechanical properties :
#
#
# Convention : Reuss Voigt Hill
#
# Bulk Modulus (GPa) = 38.55710 59.18616 48.87163
# Shear Modulus (GPa) = 23.56773 28.82250 26.19511
#
# Velocity S-wave (km/s) = 3.32271 3.67451 3.50303
# Velocity P-wave (km/s) = 5.72562 6.76229 6.26543
#
# Compressibility (1/GPa) = 0.02593556
#
# Stress axis : x y z
#
# Youngs Moduli (GPa) = 44.62727 80.45473 85.01578
#
# Poissons Ratio (x) = 0.33914 0.00184
# Poissons Ratio (y) = 0.18812 0.51818
# Poissons Ratio (z) = 0.00097 0.49038
#
# Static dielectric constant tensor:
#      x y z
#    x 3.873660 0.000000 -0.330410 
#    y 0.000000 4.213460 0.000000 
#    z -0.330410 0.000000 4.012420 
# 
# 
# High freq. dielectric constant tensor:
#      x y z
#    x 1.833360 0.000000 -0.036630 
#    y 0.000000 1.824720 0.000000 
#    z -0.036630 0.000000 1.839560 
# 
# From -- ./inp_files/298856.got.cif
#   From: 2010.06.25/outbox.cif.g09.slc.cpg/sg15_150_cif.got.tgz:298856.got - 2010.06.28 07:06:18.
