data_PCOD8141459
_publ_section_title
;
Structure prediction by ZEFSAII (Michael W. Deem and Ramdas Pophale) SiO2 
 PCOD8141459
Probable space group: C 2/C
;
_chemical_formula_sum "Si O2"
_cell_formula_units_Z 44
_cell_length_a 12.155659
_cell_length_b 13.799853
_cell_length_c 26.732932
_cell_angle_alpha 90.000000
_cell_angle_beta 150.277868
_cell_angle_gamma 90.000000
_cell_volume 2223.314867
_symmetry_space_group_name_H-M "C 2/C"
_symmetry_group_IT_number 15
_symmetry_cell_setting 'monoclinic'
loop_
_space_group_symop_operation_xyz
x,y,z
-x,y,1/2-z
-x,-y,-z
x,-y,1/2+z
1/2+x,1/2+y,z
1/2-x,1/2+y,1/2-z
1/2-x,1/2-y,-z
1/2+x,1/2-y,1/2+z
loop_
_atom_site_type_symbol
_atom_site_label
_atom_site_fract_x
_atom_site_fract_y
_atom_site_fract_z
Si Si1 0.088954 0.971230 0.462004
Si Si2 0.779769 0.588948 0.137324
Si Si3 0.186975 0.216095 0.894022
Si Si4 0.580341 0.261848 0.119099
Si Si5 0.755241 0.993903 0.086649
Si Si6 0.000000 0.851968 0.750000
O O1 0.269493 0.953539 0.576971
O O2 0.219142 0.997799 0.463224
O O3 0.931163 0.876762 0.396342
O O4 0.934433 0.061238 0.415139
O O5 0.780843 0.706416 0.137353
O O6 0.000000 0.547428 0.250000
O O7 0.146494 0.109272 0.855090
O O8 0.982806 0.253483 0.847680
O O9 0.405561 0.205276 0.015200
O O10 0.822745 0.218672 0.205898
O O11 0.891848 0.081310 0.164764
O O12 0.500000 0.000000 0.000000
#
# Coordination Sequence:
#
# PCOD8141459 Si02
#       6
#     8   8   8   8   8   4
#     4   9  22  42  60  90 123 157 200 254 310 351
#     4  10  21  36  68  87 116 157 208 246 302 365
#     4   9  19  40  60  82 123 162 194 253 315 351
#     4   9  19  38  62  83 118 164 202 243 308 377
#     4  11  23  40  61  90 129 164 201 254 305 366
#     4  12  24  34  64  94 118 164 222 240 296 368
#
# _framework density 19.79027
#
# number of rings (size 3 to 8) (size 9 to 14) (size 15 to 20)
#    0.000    2.182    1.818    1.091    5.091    0.000 
#    0.000    0.909    0.000    0.000    0.000    0.000 
#    0.000    0.000    0.000    0.000    0.000    0.000 
#
# Total GULP energy -272768.000742 kJ/mol
# GULP energy per Si atom -12398.545488 kJ/mol
# Density = 1.974523 g / cm^3
# Si number density = 19.790270 Si / 1000 Ang^3
#
#
#
# Elastic Constant Matrix: (Units=GPa)
#
#
# Indices 1 2 3 4 5 6 
#
# 1 144.2756 72.3610 63.6416 0.0000 15.0154 0.0000
# 2 72.3610 106.6010 43.7464 -0.0004 9.3905 0.0001
# 3 63.6416 43.7464 109.4491 0.0004 8.5854 0.0006
# 4 0.0000 -0.0004 0.0004 22.7097 0.0002 8.7871
# 5 15.0154 9.3905 8.5854 0.0002 30.2771 0.0001
# 6 0.0000 0.0001 0.0006 8.7871 0.0001 31.5238
#
#
#
# Elastic Compliance Matrix: (Units=1/GPa)
#
#
# Indices 1 2 3 4 5 6 
#
# 1 0.012355 -0.006311 -0.004433 0.000000 -0.002913 0.000000
# 2 -0.006311 0.014598 -0.002102 0.000000 -0.000802 0.000000
# 3 -0.004433 -0.002102 0.012612 0.000000 -0.000726 0.000000
# 4 0.000000 0.000000 0.000000 0.049358 0.000000 -0.013758
# 5 -0.002913 -0.000802 -0.000726 0.000000 0.034927 0.000000
# 6 0.000000 0.000000 0.000000 -0.013758 0.000000 0.035557
#
#
# Mechanical properties :
#
#
# Convention : Reuss Voigt Hill
#
# Bulk Modulus (GPa) = 72.08757 79.98040 76.03398
# Shear Modulus (GPa) = 26.35422 28.94057 27.64740
#
# Velocity S-wave (km/s) = 3.65317 3.82823 3.74173
# Velocity P-wave (km/s) = 7.36879 7.74869 7.56113
#
# Compressibility (1/GPa) = 0.01387202
#
# Stress axis : x y z
#
# Youngs Moduli (GPa) = 80.93892 68.50315 79.29166
#
# Poissons Ratio (x) = 0.43230 0.35152
# Poissons Ratio (y) = 0.51078 0.16670
# Poissons Ratio (z) = 0.35882 0.14402
#
# Static dielectric constant tensor:
#      x y z
#    x 3.597360 0.000000 -0.059650 
#    y 0.000000 3.738070 0.000000 
#    z -0.059650 0.000000 3.430150 
# 
# 
# High freq. dielectric constant tensor:
#      x y z
#    x 1.768610 0.000000 -0.000160 
#    y 0.000000 1.779470 0.000000 
#    z -0.000160 0.000000 1.753590 
# 
# From -- ./inp_files/123272.got.cif
#   From: 2010.06.25/outbox.cif.g09.slc.cpg/sg15_62_cif.got.tgz:123272.got - 2010.06.28 07:06:18.
