data_PCOD8141056
_publ_section_title
;
Structure prediction by ZEFSAII (Michael W. Deem and Ramdas Pophale) SiO2 
 PCOD8141056
Probable space group: C 2/C
;
_chemical_formula_sum "Si O2"
_cell_formula_units_Z 40
_cell_length_a 18.922284
_cell_length_b 5.090128
_cell_length_c 21.670720
_cell_angle_alpha 90.000000
_cell_angle_beta 101.636162
_cell_angle_gamma 90.000000
_cell_volume 2044.358465
_symmetry_space_group_name_H-M "C 2/C"
_symmetry_group_IT_number 15
_symmetry_cell_setting 'monoclinic'
loop_
_space_group_symop_operation_xyz
x,y,z
-x,y,1/2-z
-x,-y,-z
x,-y,1/2+z
1/2+x,1/2+y,z
1/2-x,1/2+y,1/2-z
1/2-x,1/2-y,-z
1/2+x,1/2-y,1/2+z
loop_
_atom_site_type_symbol
_atom_site_label
_atom_site_fract_x
_atom_site_fract_y
_atom_site_fract_z
Si Si1 0.776778 0.733413 0.862032
Si Si2 0.909897 0.337772 0.302373
Si Si3 0.505162 0.674618 0.678597
Si Si4 0.247144 0.715235 0.927125
Si Si5 0.869064 0.533555 0.165589
O O1 0.832427 0.737956 0.815581
O O2 0.780970 0.463641 0.899363
O O3 0.795077 0.964179 0.914570
O O4 0.696780 0.786334 0.819182
O O5 0.935661 0.615117 0.335378
O O6 0.903706 0.358133 0.226706
O O7 0.969609 0.119580 0.333476
O O8 0.500000 0.706485 0.750000
O O9 0.426082 0.770101 0.641493
O O10 0.163694 0.665887 0.891377
O O11 0.250000 0.750000 0.000000
#
# Coordination Sequence:
#
# PCOD8141056 Si02
#       5
#     8   8   8   8   8
#     4  10  23  36  62  86 118 150 196 251 298 339
#     4  11  22  35  56  89 125 145 183 242 304 361
#     4  10  21  35  53  83 124 158 181 223 298 370
#     4  10  22  39  62  85 113 155 210 248 284 341
#     4   9  24  34  63  85 119 157 193 235 294 358
#
# _framework density 19.566040000000001
#
# number of rings (size 3 to 8) (size 9 to 14) (size 15 to 20)
#    1.200    0.800    0.000    3.600   11.200    0.000 
#    0.000    0.000    0.000    7.200    0.000    0.000 
#    0.000    0.000    0.000    0.000    0.000    0.000 
#
# Total GULP energy -247764.000192 kJ/mol
# GULP energy per Si atom -12388.200010 kJ/mol
# Density = 1.952151 g / cm^3
# Si number density = 19.566040 Si / 1000 Ang^3
#
#
#
# Elastic Constant Matrix: (Units=GPa)
#
#
# Indices 1 2 3 4 5 6 
#
# 1 99.8588 32.8535 18.5506 0.0000 -3.3477 0.0000
# 2 32.8535 133.7586 26.1459 0.0000 -0.6370 0.0000
# 3 18.5506 26.1459 59.2164 0.0000 5.1138 0.0000
# 4 0.0000 0.0000 0.0000 20.4456 0.0000 -10.6772
# 5 -3.3477 -0.6370 5.1138 0.0000 8.8968 0.0000
# 6 0.0000 0.0000 0.0000 -10.6772 0.0000 23.7794
#
#
#
# Elastic Compliance Matrix: (Units=1/GPa)
#
#
# Indices 1 2 3 4 5 6 
#
# 1 0.011521 -0.002183 -0.003163 0.000000 0.005997 0.000000
# 2 -0.002183 0.008663 -0.003287 0.000000 0.001688 0.000000
# 3 -0.003163 -0.003287 0.020469 0.000000 -0.013191 0.000000
# 4 0.000000 0.000000 0.000000 0.063892 0.000000 0.028688
# 5 0.005997 0.001688 -0.013191 0.000000 0.122359 0.000000
# 6 0.000000 0.000000 0.000000 0.028688 0.000000 0.054935
#
#
# Mechanical properties :
#
#
# Convention : Reuss Voigt Hill
#
# Bulk Modulus (GPa) = 42.75992 49.77043 46.26518
# Shear Modulus (GPa) = 16.29200 24.97660 20.63430
#
# Velocity S-wave (km/s) = 2.88873 3.57673 3.25098
# Velocity P-wave (km/s) = 5.74699 6.52301 6.14726
#
# Compressibility (1/GPa) = 0.02338638
#
# Stress axis : x y z
#
# Youngs Moduli (GPa) = 86.79820 115.43563 48.85553
#
# Poissons Ratio (x) = 0.25198 0.15454
# Poissons Ratio (y) = 0.18947 0.16058
# Poissons Ratio (z) = 0.27456 0.37942
#
# Static dielectric constant tensor:
#      x y z
#    x 3.868060 0.000000 0.032720 
#    y 0.000000 3.958360 0.000000 
#    z 0.032720 0.000000 3.104150 
# 
# 
# High freq. dielectric constant tensor:
#      x y z
#    x 1.763240 0.000000 -0.002630 
#    y 0.000000 1.784620 0.000000 
#    z -0.002630 0.000000 1.697810 
# 
# From -- ./inp_files/271704.got.cif
#   From: 2010.06.25/outbox.cif.g09.slc.cpg/sg15_136_cif.got.tgz:271704.got - 2010.06.28 07:06:18.
