data_PCOD8141610
_publ_section_title
;
Structure prediction by ZEFSAII (Michael W. Deem and Ramdas Pophale) SiO2 
 PCOD8141610
Probable space group: C 2/C
;
_chemical_formula_sum "Si O2"
_cell_formula_units_Z 48
_cell_length_a 28.872686
_cell_length_b 16.617093
_cell_length_c 14.502823
_cell_angle_alpha 90.000000
_cell_angle_beta 161.096970
_cell_angle_gamma 90.000000
_cell_volume 2254.219293
_symmetry_space_group_name_H-M "C 2/C"
_symmetry_group_IT_number 15
_symmetry_cell_setting 'monoclinic'
loop_
_space_group_symop_operation_xyz
x,y,z
-x,y,1/2-z
-x,-y,-z
x,-y,1/2+z
1/2+x,1/2+y,z
1/2-x,1/2+y,1/2-z
1/2-x,1/2-y,-z
1/2+x,1/2-y,1/2+z
loop_
_atom_site_type_symbol
_atom_site_label
_atom_site_fract_x
_atom_site_fract_y
_atom_site_fract_z
Si Si1 0.667799 0.798560 0.062777
Si Si2 0.155525 0.464206 0.294026
Si Si3 0.107391 0.174732 0.801670
Si Si4 0.060760 0.002843 0.767287
Si Si5 0.350658 0.216085 0.766386
Si Si6 0.692436 0.577066 0.796664
O O1 0.722875 0.781228 0.270325
O O2 0.744119 0.880149 0.173593
O O3 0.500000 0.816772 0.750000
O O4 0.696436 0.722235 0.048936
O O5 0.268952 0.488945 0.426422
O O6 0.119691 0.371764 0.215881
O O7 0.223528 0.494618 0.519259
O O8 0.000000 0.500000 0.000000
O O9 0.210262 0.140481 0.914992
O O10 0.997153 0.234786 0.545577
O O11 0.026267 0.097979 0.693084
O O12 0.000000 0.973298 0.750000
O O13 0.973131 0.948440 0.528550
O O14 0.250000 0.250000 0.500000
#
# Coordination Sequence:
#
# PCOD8141610 Si02
#       6
#     8   8   8   8   8   8
#     4  10  21  37  60  88 120 160 201 246 303 370
#     4  11  23  39  60  88 122 160 201 252 309 362
#     4  10  21  38  60  86 119 161 202 243 301 372
#     4  11  22  39  62  90 122 161 207 253 301 364
#     4  11  21  38  61  89 121 156 200 256 306 351
#     4  11  22  39  63  89 119 160 207 250 300 363
#
# _framework density 21.293402
#
# number of rings (size 3 to 8) (size 9 to 14) (size 15 to 20)
#    0.000    1.333    0.000    9.000    0.000    1.333 
#    0.000    0.000    0.000    6.000    0.000    0.000 
#    0.000    0.000    0.000    0.000    0.000    0.000 
#
# Total GULP energy -297356.239493 kJ/mol
# GULP energy per Si atom -12389.843312 kJ/mol
# Density = 2.124494 g / cm^3
# Si number density = 21.293402 Si / 1000 Ang^3
#
#
#
# Elastic Constant Matrix: (Units=GPa)
#
#
# Indices 1 2 3 4 5 6 
#
# 1 109.6895 33.7701 54.8140 0.0000 -11.2744 0.0000
# 2 33.7701 134.5840 47.0173 0.0000 -7.2303 0.0000
# 3 54.8140 47.0173 108.5264 0.0000 0.4209 0.0000
# 4 0.0000 0.0000 0.0000 27.1885 0.0000 -1.7407
# 5 -11.2744 -7.2303 0.4209 0.0000 42.3183 0.0000
# 6 0.0000 0.0000 0.0000 -1.7407 0.0000 30.2605
#
#
#
# Elastic Compliance Matrix: (Units=1/GPa)
#
#
# Indices 1 2 3 4 5 6 
#
# 1 0.012768 -0.000906 -0.006069 0.000000 0.003307 0.000000
# 2 -0.000906 0.008920 -0.003412 0.000000 0.001317 0.000000
# 3 -0.006069 -0.003412 0.013767 0.000000 -0.002337 0.000000
# 4 0.000000 0.000000 0.000000 0.036916 0.000000 0.002124
# 5 0.003307 0.001317 -0.002337 0.000000 0.024760 0.000000
# 6 0.000000 0.000000 0.000000 0.002124 0.000000 0.033169
#
#
# Mechanical properties :
#
#
# Convention : Reuss Voigt Hill
#
# Bulk Modulus (GPa) = 68.11461 69.33365 68.72413
# Shear Modulus (GPa) = 32.05759 34.43335 33.24547
#
# Velocity S-wave (km/s) = 3.88431 4.02567 3.95562
# Velocity P-wave (km/s) = 7.22324 7.36477 7.29435
#
# Compressibility (1/GPa) = 0.01468114
#
# Stress axis : x y z
#
# Youngs Moduli (GPa) = 78.31781 112.10260 72.63638
#
# Poissons Ratio (x) = 0.10155 0.44086
# Poissons Ratio (y) = 0.07094 0.24785
# Poissons Ratio (z) = 0.47534 0.38252
#
# Static dielectric constant tensor:
#      x y z
#    x 4.074050 0.000000 -0.228850 
#    y 0.000000 4.150750 0.000000 
#    z -0.228850 0.000000 3.756460 
# 
# 
# High freq. dielectric constant tensor:
#      x y z
#    x 1.838550 0.000000 -0.005390 
#    y 0.000000 1.851020 0.000000 
#    z -0.005390 0.000000 1.815240 
# 
# From -- ./inp_files/182539.got.cif
#   From: 2010.06.25/outbox.cif.g09.slc.cpg/sg15_92_cif.got.tgz:182539.got - 2010.06.28 07:06:18.
