data_PCOD8141623
_publ_section_title
;
Structure prediction by ZEFSAII (Michael W. Deem and Ramdas Pophale) SiO2 
 PCOD8141623
Probable space group: C 2/C
;
_chemical_formula_sum "Si O2"
_cell_formula_units_Z 44
_cell_length_a 10.378229
_cell_length_b 13.678385
_cell_length_c 22.484392
_cell_angle_alpha 90.000000
_cell_angle_beta 137.305059
_cell_angle_gamma 90.000000
_cell_volume 2164.360605
_symmetry_space_group_name_H-M "C 2/C"
_symmetry_group_IT_number 15
_symmetry_cell_setting 'monoclinic'
loop_
_space_group_symop_operation_xyz
x,y,z
-x,y,1/2-z
-x,-y,-z
x,-y,1/2+z
1/2+x,1/2+y,z
1/2-x,1/2+y,1/2-z
1/2-x,1/2-y,-z
1/2+x,1/2-y,1/2+z
loop_
_atom_site_type_symbol
_atom_site_label
_atom_site_fract_x
_atom_site_fract_y
_atom_site_fract_z
Si Si1 0.985167 0.285469 0.810318
Si Si2 0.013950 0.117772 0.603562
Si Si3 0.856651 0.915270 0.820641
Si Si4 0.500000 0.518606 0.250000
Si Si5 0.593652 0.294322 0.551124
Si Si6 0.828852 0.575121 0.931256
O O1 0.903609 0.203409 0.826575
O O2 0.194256 0.320041 0.899757
O O3 0.000000 0.236447 0.750000
O O4 0.856593 0.381594 0.765389
O O5 0.033610 0.156562 0.543059
O O6 0.801004 0.087658 0.553393
O O7 0.151075 0.024461 0.655481
O O8 0.955490 0.842612 0.901807
O O9 0.970591 0.912650 0.797362
O O10 0.310591 0.454587 0.171059
O O11 0.568203 0.177855 0.548472
O O12 0.000000 0.500000 0.000000
#
# Coordination Sequence:
#
# PCOD8141623 Si02
#       6
#     8   8   8   4   8   8
#     4   9  19  35  61  87 113 153 202 249 291 354
#     4  10  21  37  60  91 116 157 201 251 306 358
#     4  10  22  36  61  83 125 152 198 251 300 357
#     4  10  24  38  60  88 126 164 204 246 306 364
#     4  10  21  38  63  91 115 152 204 252 304 357
#     4  10  22  38  64  93 120 160 202 255 299 367
#
# _framework density 20.329329000000001
#
# number of rings (size 3 to 8) (size 9 to 14) (size 15 to 20)
#    0.000    2.182    0.000    2.727   24.182    0.000 
#    0.000    3.636   10.000    0.000    0.000    0.000 
#    0.000    0.000    0.000    0.000    0.000    0.000 
#
# Total GULP energy -272640.709629 kJ/mol
# GULP energy per Si atom -12392.759529 kJ/mol
# Density = 2.028306 g / cm^3
# Si number density = 20.329329 Si / 1000 Ang^3
#
#
#
# Elastic Constant Matrix: (Units=GPa)
#
#
# Indices 1 2 3 4 5 6 
#
# 1 64.6698 60.9840 42.5335 0.0000 -25.6979 0.0000
# 2 60.9840 165.2666 78.3568 0.0000 -9.3998 0.0000
# 3 42.5335 78.3568 117.5532 0.0000 -15.5828 0.0000
# 4 0.0000 0.0000 0.0000 38.2604 0.0000 3.2201
# 5 -25.6979 -9.3998 -15.5828 0.0000 37.9784 0.0000
# 6 0.0000 0.0000 0.0000 3.2201 0.0000 33.2611
#
#
#
# Elastic Compliance Matrix: (Units=1/GPa)
#
#
# Indices 1 2 3 4 5 6 
#
# 1 0.035296 -0.010364 -0.003211 0.000000 0.020000 0.000000
# 2 -0.010364 0.011892 -0.004988 0.000000 -0.006116 0.000000
# 3 -0.003211 -0.004988 0.013263 0.000000 0.002035 0.000000
# 4 0.000000 0.000000 0.000000 0.026351 0.000000 -0.002551
# 5 0.020000 -0.006116 0.002035 0.000000 0.039185 0.000000
# 6 0.000000 0.000000 0.000000 -0.002551 0.000000 0.030312
#
#
# Mechanical properties :
#
#
# Convention : Reuss Voigt Hill
#
# Bulk Modulus (GPa) = 42.87239 79.02647 60.94943
# Shear Modulus (GPa) = 24.85068 32.94100 28.89584
#
# Velocity S-wave (km/s) = 3.50008 4.02975 3.77422
# Velocity P-wave (km/s) = 6.12118 7.78520 7.00279
#
# Compressibility (1/GPa) = 0.02332503
#
# Stress axis : x y z
#
# Youngs Moduli (GPa) = 28.33143 84.08863 75.39802
#
# Poissons Ratio (x) = 0.87153 0.24212
# Poissons Ratio (y) = 0.29364 0.37605
# Poissons Ratio (z) = 0.09098 0.41940
#
# Static dielectric constant tensor:
#      x y z
#    x 3.436030 0.000000 -0.163750 
#    y 0.000000 3.772870 0.000000 
#    z -0.163750 0.000000 3.879350 
# 
# 
# High freq. dielectric constant tensor:
#      x y z
#    x 1.757550 0.000000 -0.026010 
#    y 0.000000 1.798520 0.000000 
#    z -0.026010 0.000000 1.799210 
# 
# From -- ./inp_files/196311.got.cif
#   From: 2010.06.25/outbox.cif.g09.slc.cpg/sg15_99_cif.got.tgz:196311.got - 2010.06.28 07:06:18.
