data_PCOD8141542
_publ_section_title
;
Structure prediction by ZEFSAII (Michael W. Deem and Ramdas Pophale) SiO2 
 PCOD8141542
Probable space group: C 2/C
;
_chemical_formula_sum "Si O2"
_cell_formula_units_Z 64
_cell_length_a 15.384854
_cell_length_b 29.760158
_cell_length_c 8.393190
_cell_angle_alpha 90.000000
_cell_angle_beta 114.975986
_cell_angle_gamma 90.000000
_cell_volume 3483.503170
_symmetry_space_group_name_H-M "C 2/C"
_symmetry_group_IT_number 15
_symmetry_cell_setting 'monoclinic'
loop_
_space_group_symop_operation_xyz
x,y,z
-x,y,1/2-z
-x,-y,-z
x,-y,1/2+z
1/2+x,1/2+y,z
1/2-x,1/2+y,1/2-z
1/2-x,1/2-y,-z
1/2+x,1/2-y,1/2+z
loop_
_atom_site_type_symbol
_atom_site_label
_atom_site_fract_x
_atom_site_fract_y
_atom_site_fract_z
Si Si1 0.476121 0.181177 0.914575
Si Si2 0.355961 0.699505 0.751230
Si Si3 0.890949 0.450257 0.976165
Si Si4 0.236551 0.225886 0.323083
Si Si5 0.048742 0.776991 0.505784
Si Si6 0.346004 0.139727 0.309245
Si Si7 0.196153 0.366599 0.091148
Si Si8 0.887127 0.453775 0.348528
O O1 0.500000 0.190985 0.750000
O O2 0.485060 0.225556 0.027864
O O3 0.370195 0.160850 0.837720
O O4 0.544379 0.145397 0.052178
O O5 0.283220 0.740563 0.730283
O O6 0.395092 0.708838 0.606872
O O7 0.303291 0.651191 0.710587
O O8 0.447646 0.695855 0.942638
O O9 0.875797 0.448734 0.152142
O O10 0.002948 0.444641 0.015346
O O11 0.824196 0.411394 0.846721
O O12 0.853216 0.497120 0.876662
O O13 0.250000 0.250000 0.500000
O O14 0.122539 0.217776 0.209444
O O15 0.284239 0.176748 0.356565
O O16 0.331419 0.145298 0.110754
O O17 0.184334 0.419316 0.117210
#
# Coordination Sequence:
#
# PCOD8141542 Si02
#       8
#     8   8   8   8   8   8   8   8
#     4  12  23  34  54  82 115 158 202 245 293 344
#     4  11  24  38  59  79 114 159 206 241 293 346
#     4  10  21  37  58  87 116 156 184 238 301 351
#     4  12  24  37  58  85 117 157 203 250 294 348
#     4  11  23  41  55  78 118 157 206 250 287 341
#     4  12  23  36  55  87 115 158 199 238 294 356
#     4  12  23  37  57  84 117 159 202 240 296 358
#     4  10  21  37  59  84 123 147 193 236 292 367
#
# _framework density 18.372309999999999
#
# number of rings (size 3 to 8) (size 9 to 14) (size 15 to 20)
#    0.000    0.750    5.000    3.750    3.500    1.000 
#    0.000    0.000    0.000    0.000    0.000    0.875 
#    0.000    0.000    0.000    0.000    0.000    0.000 
#
# Total GULP energy -396740.529580 kJ/mol
# GULP energy per Si atom -12398.141549 kJ/mol
# Density = 1.833049 g / cm^3
# Si number density = 18.372310 Si / 1000 Ang^3
#
#
#
# Elastic Constant Matrix: (Units=GPa)
#
#
# Indices 1 2 3 4 5 6 
#
# 1 77.6148 56.1556 48.0602 0.0000 11.7247 0.0000
# 2 56.1556 147.5949 39.5013 0.0000 1.9426 0.0000
# 3 48.0602 39.5013 78.0685 0.0000 15.4932 0.0000
# 4 0.0000 0.0000 0.0000 26.9548 0.0000 -2.5104
# 5 11.7247 1.9426 15.4932 0.0000 27.4783 0.0000
# 6 0.0000 0.0000 0.0000 -2.5104 0.0000 33.0238
#
#
#
# Elastic Compliance Matrix: (Units=1/GPa)
#
#
# Indices 1 2 3 4 5 6 
#
# 1 0.025297 -0.006489 -0.011529 0.000000 -0.003835 0.000000
# 2 -0.006489 0.009589 -0.001433 0.000000 0.002899 0.000000
# 3 -0.011529 -0.001433 0.022109 0.000000 -0.007445 0.000000
# 4 0.000000 0.000000 0.000000 0.037364 0.000000 0.002840
# 5 -0.003835 0.002899 -0.007445 0.000000 0.042022 0.000000
# 6 0.000000 0.000000 0.000000 0.002840 0.000000 0.030497
#
#
# Mechanical properties :
#
#
# Convention : Reuss Voigt Hill
#
# Bulk Modulus (GPa) = 55.26499 65.63472 60.44985
# Shear Modulus (GPa) = 23.60597 28.12878 25.86737
#
# Velocity S-wave (km/s) = 3.58839 3.91710 3.75634
# Velocity P-wave (km/s) = 6.87856 7.50070 7.19636
#
# Compressibility (1/GPa) = 0.01809464
#
# Stress axis : x y z
#
# Youngs Moduli (GPa) = 39.53007 104.28183 45.23002
#
# Poissons Ratio (x) = 0.67667 0.52146
# Poissons Ratio (y) = 0.25650 0.06480
# Poissons Ratio (z) = 0.45575 0.14940
#
# Static dielectric constant tensor:
#      x y z
#    x 3.463700 0.000000 0.064950 
#    y 0.000000 3.486140 0.000000 
#    z 0.064950 0.000000 3.391510 
# 
# 
# High freq. dielectric constant tensor:
#      x y z
#    x 1.690640 0.000000 -0.012650 
#    y 0.000000 1.703720 0.000000 
#    z -0.012650 0.000000 1.717870 
# 
# From -- ./inp_files/43574.got.cif
#   From: 2010.06.25/outbox.cif.g09.slc.cpg/sg15_22_cif.got.tgz:43574.got - 2010.06.28 07:06:18.
