data_PCOD8141915
_publ_section_title
;
Structure prediction by ZEFSAII (Michael W. Deem and Ramdas Pophale) SiO2 
 PCOD8141915
Probable space group: C 2/C
;
_chemical_formula_sum "Si O2"
_cell_formula_units_Z 56
_cell_length_a 7.932168
_cell_length_b 12.256802
_cell_length_c 27.498739
_cell_angle_alpha 90.000000
_cell_angle_beta 113.874219
_cell_angle_gamma 90.000000
_cell_volume 2444.754449
_symmetry_space_group_name_H-M "C 2/C"
_symmetry_group_IT_number 15
_symmetry_cell_setting 'monoclinic'
loop_
_space_group_symop_operation_xyz
x,y,z
-x,y,1/2-z
-x,-y,-z
x,-y,1/2+z
1/2+x,1/2+y,z
1/2-x,1/2+y,1/2-z
1/2-x,1/2-y,-z
1/2+x,1/2-y,1/2+z
loop_
_atom_site_type_symbol
_atom_site_label
_atom_site_fract_x
_atom_site_fract_y
_atom_site_fract_z
Si Si1 0.051539 0.725026 0.539978
Si Si2 0.048524 0.716998 0.433491
Si Si3 0.000000 0.912192 0.750000
Si Si4 0.500000 0.842941 0.750000
Si Si5 0.497760 0.459349 0.928274
Si Si6 0.206859 0.993687 0.189179
Si Si7 0.193820 0.521131 0.965113
Si Si8 0.215920 0.750633 0.186694
O O1 0.966325 0.752975 0.476538
O O2 0.271526 0.708993 0.557727
O O3 0.025080 0.829262 0.570849
O O4 0.951113 0.621282 0.552706
O O5 0.083465 0.588458 0.442190
O O6 0.906041 0.736882 0.374806
O O7 0.117385 0.833883 0.799136
O O8 0.128312 0.990655 0.733874
O O9 0.390577 0.767809 0.774912
O O10 0.631240 0.918078 0.799411
O O11 0.461348 0.491426 0.868390
O O12 0.350830 0.531040 0.942171
O O13 0.704848 0.487688 0.970366
O O14 0.293436 0.873462 0.196043
#
# Coordination Sequence:
#
# PCOD8141915 Si02
#       8
#     8   8   4   4   8   8   8   8
#     4  10  21  38  58  88 135 169 206 260 312 390
#     4  10  23  37  60  95 125 168 216 254 324 393
#     4  10  26  46  68 100 120 162 230 262 336 390
#     4  10  22  46  64  92 124 158 218 270 328 382
#     4  10  23  37  60  95 125 168 216 254 324 393
#     4  11  24  43  69  93 127 167 210 275 324 383
#     4  10  21  38  58  88 135 169 206 260 312 390
#     4  11  24  43  69  93 127 167 210 275 324 383
#
# _framework density 22.906185000000001
#
# number of rings (size 3 to 8) (size 9 to 14) (size 15 to 20)
#    0.000    1.714    0.000    3.429   10.000    2.286 
#    0.000    7.143    0.000    0.000    0.000    0.000 
#    0.000    0.000    0.000    0.000    0.000    0.000 
#
# Total GULP energy -347149.550966 kJ/mol
# GULP energy per Si atom -12398.198249 kJ/mol
# Density = 2.285405 g / cm^3
# Si number density = 22.906185 Si / 1000 Ang^3
#
#
#
# Elastic Constant Matrix: (Units=GPa)
#
#
# Indices 1 2 3 4 5 6 
#
# 1 51.5583 22.0141 -1.5362 0.0000 5.3590 0.0000
# 2 22.0141 127.1368 20.2732 0.0000 2.9316 0.0000
# 3 -1.5362 20.2732 102.3764 0.0000 17.5644 0.0000
# 4 0.0000 0.0000 0.0000 25.8761 0.0000 6.9479
# 5 5.3590 2.9316 17.5644 0.0000 25.8411 0.0000
# 6 0.0000 0.0000 0.0000 6.9479 0.0000 27.0249
#
#
#
# Elastic Compliance Matrix: (Units=1/GPa)
#
#
# Indices 1 2 3 4 5 6 
#
# 1 0.021713 -0.003960 0.002044 0.000000 -0.005443 0.000000
# 2 -0.003960 0.008845 -0.002015 0.000000 0.001187 0.000000
# 3 0.002044 -0.002015 0.011582 0.000000 -0.008067 0.000000
# 4 0.000000 0.000000 0.000000 0.041511 0.000000 -0.010672
# 5 -0.005443 0.001187 -0.008067 0.000000 0.045176 0.000000
# 6 0.000000 0.000000 0.000000 -0.010672 0.000000 0.039747
#
#
# Mechanical properties :
#
#
# Convention : Reuss Voigt Hill
#
# Bulk Modulus (GPa) = 29.17333 40.28596 34.72965
# Shear Modulus (GPa) = 26.61541 31.76977 29.19259
#
# Velocity S-wave (km/s) = 3.41241 3.72822 3.57380
# Velocity P-wave (km/s) = 5.31881 6.01318 5.67662
#
# Compressibility (1/GPa) = 0.03427788
#
# Stress axis : x y z
#
# Youngs Moduli (GPa) = 46.05540 113.05670 86.34382
#
# Poissons Ratio (x) = 0.44771 -0.17647
# Poissons Ratio (y) = 0.18238 0.17395
# Poissons Ratio (z) = -0.09413 0.22777
#
# Static dielectric constant tensor:
#      x y z
#    x 4.073810 0.000000 0.066290 
#    y 0.000000 4.260790 0.000000 
#    z 0.066290 0.000000 4.037730 
# 
# 
# High freq. dielectric constant tensor:
#      x y z
#    x 1.890680 0.000000 0.004930 
#    y 0.000000 1.920760 0.000000 
#    z 0.004930 0.000000 1.897350 
# 
# From -- ./inp_files/288090.got.cif
#   From: 2010.06.25/outbox.cif.g09.slc.cpg/sg15_145_cif.got.tgz:288090.got - 2010.06.28 07:06:18.
