data_PCOD8141615
_publ_section_title
;
Structure prediction by ZEFSAII (Michael W. Deem and Ramdas Pophale) SiO2 
 PCOD8141615
Probable space group: C 2/C
;
_chemical_formula_sum "Si O2"
_cell_formula_units_Z 56
_cell_length_a 28.503206
_cell_length_b 8.561467
_cell_length_c 12.661526
_cell_angle_alpha 90.000000
_cell_angle_beta 63.551840
_cell_angle_gamma 90.000000
_cell_volume 2766.399033
_symmetry_space_group_name_H-M "C 2/C"
_symmetry_group_IT_number 15
_symmetry_cell_setting 'monoclinic'
loop_
_space_group_symop_operation_xyz
x,y,z
-x,y,1/2-z
-x,-y,-z
x,-y,1/2+z
1/2+x,1/2+y,z
1/2-x,1/2+y,1/2-z
1/2-x,1/2-y,-z
1/2+x,1/2-y,1/2+z
loop_
_atom_site_type_symbol
_atom_site_label
_atom_site_fract_x
_atom_site_fract_y
_atom_site_fract_z
Si Si1 0.766275 0.774055 0.834623
Si Si2 0.565079 0.262222 0.563427
Si Si3 0.271743 0.884686 0.120200
Si Si4 0.560293 0.763727 0.818853
Si Si5 0.169483 0.215003 0.611070
Si Si6 0.827558 0.874335 0.964275
Si Si7 0.000000 0.988151 0.250000
Si Si8 0.000000 0.513198 0.750000
O O1 0.791522 0.709487 0.702409
O O2 0.816314 0.802437 0.859698
O O3 0.732048 0.931206 0.854621
O O4 0.726977 0.640541 0.917187
O O5 0.555125 0.245528 0.449450
O O6 0.626704 0.279040 0.524453
O O7 0.535290 0.413046 0.635529
O O8 0.544054 0.112200 0.646265
O O9 0.214869 0.817104 0.149447
O O10 0.313468 0.852351 0.985963
O O11 0.620528 0.779009 0.725058
O O12 0.537530 0.609703 0.787907
O O13 0.528212 0.912471 0.811405
O O14 0.157239 0.056663 0.558156
#
# Coordination Sequence:
#
# PCOD8141615 Si02
#       8
#     8   8   8   8   8   8   4   4
#     4  10  21  38  60  90 125 164 202 251 304 364
#     4  11  22  43  66  90 125 165 201 261 316 359
#     4  10  21  37  60  89 124 164 201 249 306 362
#     4  11  22  42  66  90 125 163 203 260 315 365
#     4  10  21  39  60  88 123 159 208 253 299 376
#     4  10  21  39  60  88 124 156 212 250 300 372
#     4  10  22  42  66  96 114 156 216 262 302 382
#     4  10  26  42  62  94 126 158 216 256 304 382
#
# _framework density 20.242923000000001
#
# number of rings (size 3 to 8) (size 9 to 14) (size 15 to 20)
#    0.000    1.714    1.429    2.571    2.000    2.286 
#    2.571    1.429    0.000    0.000    0.000    0.000 
#    0.000    0.000    0.000    0.000    0.000    0.000 
#
# Total GULP energy -347288.009937 kJ/mol
# GULP energy per Si atom -12403.143212 kJ/mol
# Density = 2.019685 g / cm^3
# Si number density = 20.242923 Si / 1000 Ang^3
#
#
#
# Elastic Constant Matrix: (Units=GPa)
#
#
# Indices 1 2 3 4 5 6 
#
# 1 96.3128 21.1970 40.7302 0.0000 11.4272 0.0000
# 2 21.1970 77.9992 31.2541 0.0000 13.5677 0.0000
# 3 40.7302 31.2541 96.9501 0.0000 19.3519 0.0000
# 4 0.0000 0.0000 0.0000 20.6954 0.0000 1.7210
# 5 11.4272 13.5677 19.3519 0.0000 36.4680 0.0000
# 6 0.0000 0.0000 0.0000 1.7210 0.0000 18.7430
#
#
#
# Elastic Compliance Matrix: (Units=1/GPa)
#
#
# Indices 1 2 3 4 5 6 
#
# 1 0.012811 -0.001416 -0.004731 0.000000 -0.000977 0.000000
# 2 -0.001416 0.015245 -0.003664 0.000000 -0.003284 0.000000
# 3 -0.004731 -0.003664 0.014445 0.000000 -0.004820 0.000000
# 4 0.000000 0.000000 0.000000 0.048692 0.000000 -0.004471
# 5 -0.000977 -0.003284 -0.004820 0.000000 0.031507 0.000000
# 6 0.000000 0.000000 0.000000 -0.004471 0.000000 0.053764
#
#
# Mechanical properties :
#
#
# Convention : Reuss Voigt Hill
#
# Bulk Modulus (GPa) = 43.70704 50.84719 47.27712
# Shear Modulus (GPa) = 24.54450 27.05333 25.79892
#
# Velocity S-wave (km/s) = 3.48587 3.65969 3.57384
# Velocity P-wave (km/s) = 6.15141 6.55979 6.35888
#
# Compressibility (1/GPa) = 0.02287961
#
# Stress axis : x y z
#
# Youngs Moduli (GPa) = 78.05831 65.59585 69.22671
#
# Poissons Ratio (x) = 0.09288 0.32748
# Poissons Ratio (y) = 0.11053 0.25366
# Poissons Ratio (z) = 0.36926 0.24036
#
# Static dielectric constant tensor:
#      x y z
#    x 3.665760 0.000000 0.089440 
#    y 0.000000 3.732550 0.000000 
#    z 0.089440 0.000000 3.625990 
# 
# 
# High freq. dielectric constant tensor:
#      x y z
#    x 1.788110 0.000000 0.005890 
#    y 0.000000 1.796910 0.000000 
#    z 0.005890 0.000000 1.793630 
# 
# From -- ./inp_files/122022.got.cif
#   From: 2010.06.25/outbox.cif.g09.slc.cpg/sg15_62_cif.got.tgz:122022.got - 2010.06.28 07:06:18.
