data_PCOD8141349
_publ_section_title
;
Structure prediction by ZEFSAII (Michael W. Deem and Ramdas Pophale) SiO2 
 PCOD8141349
Probable space group: C 2/C
;
_chemical_formula_sum "Si O2"
_cell_formula_units_Z 52
_cell_length_a 30.073845
_cell_length_b 14.296297
_cell_length_c 8.853255
_cell_angle_alpha 90.000000
_cell_angle_beta 137.593944
_cell_angle_gamma 90.000000
_cell_volume 2566.968004
_symmetry_space_group_name_H-M "C 2/C"
_symmetry_group_IT_number 15
_symmetry_cell_setting 'monoclinic'
loop_
_space_group_symop_operation_xyz
x,y,z
-x,y,1/2-z
-x,-y,-z
x,-y,1/2+z
1/2+x,1/2+y,z
1/2-x,1/2+y,1/2-z
1/2-x,1/2-y,-z
1/2+x,1/2-y,1/2+z
loop_
_atom_site_type_symbol
_atom_site_label
_atom_site_fract_x
_atom_site_fract_y
_atom_site_fract_z
Si Si1 0.302408 0.620178 0.091509
Si Si2 0.346470 0.817290 0.293486
Si Si3 0.060546 0.612657 0.730736
Si Si4 0.637373 0.501161 0.011451
Si Si5 0.949179 0.072564 0.944870
Si Si6 0.000000 0.236515 0.250000
Si Si7 0.945722 0.405590 0.733287
O O1 0.346482 0.708188 0.253267
O O2 0.308102 0.544799 0.240692
O O3 0.330550 0.583315 0.003138
O O4 0.226987 0.644598 0.879338
O O5 0.385981 0.873708 0.265255
O O6 0.382540 0.838134 0.544839
O O7 0.077379 0.513165 0.848555
O O8 0.061874 0.698271 0.853233
O O9 0.982505 0.609350 0.485104
O O10 0.610840 0.579105 0.825866
O O11 0.575812 0.463274 0.954568
O O12 0.979675 0.174503 0.052597
O O13 0.000000 0.000000 0.000000
O O14 0.000000 0.375240 0.750000
#
# Coordination Sequence:
#
# PCOD8141349 Si02
#       7
#     8   8   8   8   8   4   8
#     4  10  23  41  61  89 118 169 205 257 292 374
#     4  10  22  39  63  84 119 158 215 242 310 365
#     4  10  21  36  60  89 122 152 198 254 310 365
#     4  10  22  40  60  84 127 158 206 247 304 361
#     4  11  21  38  59  89 123 161 197 247 307 359
#     4  12  22  34  60  92 124 158 192 252 314 362
#     4   9  19  39  57  87 116 153 192 256 306 366
#
# _framework density 20.257361
#
# number of rings (size 3 to 8) (size 9 to 14) (size 15 to 20)
#    0.000    1.846    2.308    0.923    6.462    0.000 
#    0.000    0.000    0.000    4.615    0.000    0.000 
#    0.000    0.000    0.000    0.000    0.000    0.000 
#
# Total GULP energy -322256.962889 kJ/mol
# GULP energy per Si atom -12394.498573 kJ/mol
# Density = 2.021125 g / cm^3
# Si number density = 20.257361 Si / 1000 Ang^3
#
#
#
# Elastic Constant Matrix: (Units=GPa)
#
#
# Indices 1 2 3 4 5 6 
#
# 1 98.2121 43.1107 33.3497 0.0000 -4.6225 0.0000
# 2 43.1107 116.9961 43.2450 0.0000 3.6853 0.0000
# 3 33.3497 43.2450 79.3955 0.0000 0.8059 0.0000
# 4 0.0000 0.0000 0.0000 33.8407 0.0000 -6.0471
# 5 -4.6225 3.6853 0.8059 0.0000 27.1619 0.0000
# 6 0.0000 0.0000 0.0000 -6.0471 0.0000 32.8296
#
#
#
# Elastic Compliance Matrix: (Units=1/GPa)
#
#
# Indices 1 2 3 4 5 6 
#
# 1 0.013108 -0.003598 -0.003575 0.000000 0.002825 0.000000
# 2 -0.003598 0.011734 -0.004859 0.000000 -0.002060 0.000000
# 3 -0.003575 -0.004859 0.016748 0.000000 -0.000446 0.000000
# 4 0.000000 0.000000 0.000000 0.030556 0.000000 0.005628
# 5 0.002825 -0.002060 -0.000446 0.000000 0.037590 0.000000
# 6 0.000000 0.000000 0.000000 0.005628 0.000000 0.031497
#
#
# Mechanical properties :
#
#
# Convention : Reuss Voigt Hill
#
# Bulk Modulus (GPa) = 57.05688 59.33496 58.19592
# Shear Modulus (GPa) = 29.21604 30.42634 29.82119
#
# Velocity S-wave (km/s) = 3.80181 3.87975 3.84098
# Velocity P-wave (km/s) = 6.89194 7.03023 6.96143
#
# Compressibility (1/GPa) = 0.01752637
#
# Stress axis : x y z
#
# Youngs Moduli (GPa) = 76.28810 85.22316 59.70827
#
# Poissons Ratio (x) = 0.30660 0.21347
# Poissons Ratio (y) = 0.27445 0.29013
# Poissons Ratio (z) = 0.27274 0.41411
#
# Static dielectric constant tensor:
#      x y z
#    x 3.512710 0.000000 -0.133130 
#    y 0.000000 3.777470 0.000000 
#    z -0.133130 0.000000 3.976790 
# 
# 
# High freq. dielectric constant tensor:
#      x y z
#    x 1.782760 0.000000 -0.011550 
#    y 0.000000 1.792470 0.000000 
#    z -0.011550 0.000000 1.786010 
# 
# From -- ./inp_files/69800.got.cif
#   From: 2010.06.25/outbox.cif.g09.slc.cpg/sg15_35_cif.got.tgz:69800.got - 2010.06.28 07:06:18.
