data_PCOD8141899
_publ_section_title
;
Structure prediction by ZEFSAII (Michael W. Deem and Ramdas Pophale) SiO2 
 PCOD8141899
Probable space group: C 2/C
;
_chemical_formula_sum "Si O2"
_cell_formula_units_Z 60
_cell_length_a 25.160199
_cell_length_b 18.574594
_cell_length_c 9.568004
_cell_angle_alpha 90.000000
_cell_angle_beta 134.465423
_cell_angle_gamma 90.000000
_cell_volume 3191.201316
_symmetry_space_group_name_H-M "C 2/C"
_symmetry_group_IT_number 15
_symmetry_cell_setting 'monoclinic'
loop_
_space_group_symop_operation_xyz
x,y,z
-x,y,1/2-z
-x,-y,-z
x,-y,1/2+z
1/2+x,1/2+y,z
1/2-x,1/2+y,1/2-z
1/2-x,1/2-y,-z
1/2+x,1/2-y,1/2+z
loop_
_atom_site_type_symbol
_atom_site_label
_atom_site_fract_x
_atom_site_fract_y
_atom_site_fract_z
Si Si1 0.510021 0.844390 0.976135
Si Si2 0.385705 0.967652 0.460685
Si Si3 0.284702 0.015554 0.025189
Si Si4 0.644780 0.782867 0.908697
Si Si5 0.148087 0.267413 0.230123
Si Si6 0.248112 0.859019 0.896437
Si Si7 0.228686 0.148882 0.041255
Si Si8 0.000000 0.419531 0.250000
O O1 0.556399 0.903663 0.971008
O O2 0.559083 0.771671 0.081251
O O3 0.492451 0.872016 0.097750
O O4 0.436265 0.817876 0.760871
O O5 0.321393 0.946322 0.454658
O O6 0.350588 0.000506 0.256368
O O7 0.427374 0.030713 0.621852
O O8 0.220026 0.067357 0.969393
O O9 0.238921 0.942972 0.910779
O O10 0.702707 0.821492 0.918722
O O11 0.670854 0.792081 0.116431
O O12 0.652798 0.696416 0.886987
O O13 0.176348 0.186918 0.317512
O O14 0.179872 0.327435 0.393726
O O15 0.259292 0.849760 0.753895
#
# Coordination Sequence:
#
# PCOD8141899 Si02
#       8
#     8   8   8   8   8   8   8   4
#     4  12  24  37  58  84 119 160 192 236 291 360
#     4  12  24  35  55  86 119 155 192 230 292 357
#     4  12  22  38  58  84 117 156 196 242 292 345
#     4  10  23  38  58  83 113 155 199 241 282 349
#     4  10  21  38  58  83 113 154 200 239 293 344
#     4  10  21  38  58  83 116 151 197 248 288 346
#     4  10  22  39  58  82 114 152 198 244 288 341
#     4  12  26  36  48  84 128 160 180 234 294 352
#
# _framework density 18.801697000000001
#
# number of rings (size 3 to 8) (size 9 to 14) (size 15 to 20)
#    0.000    1.067    4.000    2.400    5.600    0.000 
#    0.000    0.000    0.000    0.800    0.000    0.000 
#    0.000    0.000    0.000    0.000    0.000    0.000 
#
# Total GULP energy -371740.524435 kJ/mol
# GULP energy per Si atom -12391.350815 kJ/mol
# Density = 1.875890 g / cm^3
# Si number density = 18.801697 Si / 1000 Ang^3
#
#
#
# Elastic Constant Matrix: (Units=GPa)
#
#
# Indices 1 2 3 4 5 6 
#
# 1 64.7989 50.3625 24.2984 0.0000 -10.7151 0.0000
# 2 50.3625 116.5048 46.2811 0.0000 -0.5497 0.0000
# 3 24.2984 46.2811 75.3450 0.0000 -9.6265 0.0000
# 4 0.0000 0.0000 0.0000 30.8028 0.0000 1.3783
# 5 -10.7151 -0.5497 -9.6265 0.0000 25.5590 0.0000
# 6 0.0000 0.0000 0.0000 1.3783 0.0000 28.6064
#
#
#
# Elastic Compliance Matrix: (Units=1/GPa)
#
#
# Indices 1 2 3 4 5 6 
#
# 1 0.025820 -0.011029 -0.000210 0.000000 0.010508 0.000000
# 2 -0.011029 0.016219 -0.007304 0.000000 -0.007025 0.000000
# 3 -0.000210 -0.007304 0.018695 0.000000 0.006796 0.000000
# 4 0.000000 0.000000 0.000000 0.032535 0.000000 -0.001568
# 5 0.010508 -0.007025 0.006796 0.000000 0.045939 0.000000
# 6 0.000000 0.000000 0.000000 -0.001568 0.000000 0.035033
#
#
# Mechanical properties :
#
#
# Convention : Reuss Voigt Hill
#
# Bulk Modulus (GPa) = 42.28391 55.39252 48.83821
# Shear Modulus (GPa) = 22.80943 26.04074 24.42508
#
# Velocity S-wave (km/s) = 3.48682 3.72562 3.60820
# Velocity P-wave (km/s) = 6.22485 6.93054 6.58716
#
# Compressibility (1/GPa) = 0.02364966
#
# Stress axis : x y z
#
# Youngs Moduli (GPa) = 38.72926 61.65651 53.49165
#
# Poissons Ratio (x) = 0.67998 0.01123
# Poissons Ratio (y) = 0.42713 0.39068
# Poissons Ratio (z) = 0.00813 0.45031
#
# Static dielectric constant tensor:
#      x y z
#    x 3.530910 0.000000 -0.150300 
#    y 0.000000 3.984000 0.000000 
#    z -0.150300 0.000000 3.583300 
# 
# 
# High freq. dielectric constant tensor:
#      x y z
#    x 1.715080 0.000000 -0.032950 
#    y 0.000000 1.731490 0.000000 
#    z -0.032950 0.000000 1.731390 
# 
# From -- ./inp_files/67035.got.cif
#   From: 2010.06.25/outbox.cif.g09.slc.cpg/sg15_34_cif.got.tgz:67035.got - 2010.06.28 07:06:18.
