data_PCOD8141616
_publ_section_title
;
Structure prediction by ZEFSAII (Michael W. Deem and Ramdas Pophale) SiO2 
 PCOD8141616
Probable space group: C 2/C
;
_chemical_formula_sum "Si O2"
_cell_formula_units_Z 64
_cell_length_a 26.858963
_cell_length_b 8.853279
_cell_length_c 14.444879
_cell_angle_alpha 90.000000
_cell_angle_beta 112.368415
_cell_angle_gamma 90.000000
_cell_volume 3176.394535
_symmetry_space_group_name_H-M "C 2/C"
_symmetry_group_IT_number 15
_symmetry_cell_setting 'monoclinic'
loop_
_space_group_symop_operation_xyz
x,y,z
-x,y,1/2-z
-x,-y,-z
x,-y,1/2+z
1/2+x,1/2+y,z
1/2-x,1/2+y,1/2-z
1/2-x,1/2-y,-z
1/2+x,1/2-y,1/2+z
loop_
_atom_site_type_symbol
_atom_site_label
_atom_site_fract_x
_atom_site_fract_y
_atom_site_fract_z
Si Si1 0.610526 0.492057 0.456353
Si Si2 0.674771 0.048802 0.187347
Si Si3 0.793021 0.908811 0.754043
Si Si4 0.328736 0.216813 0.930712
Si Si5 0.438674 0.280990 0.216115
Si Si6 0.383280 0.348406 0.363779
Si Si7 0.346173 0.948635 0.615405
Si Si8 0.688808 0.272506 0.923862
O O1 0.625112 0.334540 0.513382
O O2 0.570615 0.439966 0.345941
O O3 0.585071 0.591023 0.522297
O O4 0.662605 0.582205 0.455079
O O5 0.734877 0.023570 0.188835
O O6 0.647389 0.197283 0.127043
O O7 0.678790 0.056578 0.300708
O O8 0.643915 0.906621 0.119757
O O9 0.783780 0.809155 0.841075
O O10 0.812144 0.798270 0.686480
O O11 0.837020 0.038650 0.796552
O O12 0.308737 0.140206 0.013338
O O13 0.500000 0.230753 0.250000
O O14 0.426223 0.316416 0.314319
O O15 0.404001 0.136126 0.157221
O O16 0.347901 0.123409 0.583816
O O17 0.750000 0.250000 0.000000
#
# Coordination Sequence:
#
# PCOD8141616 Si02
#       8
#     8   8   8   8   8   8   8   8
#     4  10  22  39  62  91 126 159 209 264 311 380
#     4  11  21  36  56  88 127 170 205 248 305 380
#     4  11  21  35  55  86 128 166 206 247 304 375
#     4  10  21  38  55  84 121 167 206 254 301 362
#     4  10  22  44  66  87 120 165 217 275 319 359
#     4  10  21  37  60  89 125 160 205 262 312 372
#     4  10  23  39  61  88 125 165 211 259 309 377
#     4  12  23  38  58  92 132 172 202 250 310 381
#
# _framework density 20.148631000000002
#
# number of rings (size 3 to 8) (size 9 to 14) (size 15 to 20)
#    0.000    1.500    2.500    3.000    3.500    1.000 
#    0.000    0.625    0.000   18.750    0.000    0.000 
#    0.000    0.000    0.000    0.000    0.000    0.000 
#
# Total GULP energy -396451.971172 kJ/mol
# GULP energy per Si atom -12389.124099 kJ/mol
# Density = 2.010277 g / cm^3
# Si number density = 20.148631 Si / 1000 Ang^3
#
#
#
# Elastic Constant Matrix: (Units=GPa)
#
#
# Indices 1 2 3 4 5 6 
#
# 1 95.8486 41.5151 30.4101 0.0000 0.9235 0.0000
# 2 41.5151 117.8629 39.7036 0.0000 0.1167 0.0000
# 3 30.4101 39.7036 90.9152 0.0000 -16.5402 0.0000
# 4 0.0000 0.0000 0.0000 41.8909 0.0000 -5.3747
# 5 0.9235 0.1167 -16.5402 0.0000 22.4542 0.0000
# 6 0.0000 0.0000 0.0000 -5.3747 0.0000 20.6979
#
#
#
# Elastic Compliance Matrix: (Units=1/GPa)
#
#
# Indices 1 2 3 4 5 6 
#
# 1 0.013034 -0.003440 -0.003408 0.000000 -0.003029 0.000000
# 2 -0.003440 0.011138 -0.004270 0.000000 -0.003062 0.000000
# 3 -0.003408 -0.004270 0.016206 0.000000 0.012100 0.000000
# 4 0.000000 0.000000 0.000000 0.024694 0.000000 0.006412
# 5 -0.003029 -0.003062 0.012100 0.000000 0.053589 0.000000
# 6 0.000000 0.000000 0.000000 0.006412 0.000000 0.049979
#
#
# Mechanical properties :
#
#
# Convention : Reuss Voigt Hill
#
# Bulk Modulus (GPa) = 55.12818 58.65381 56.89100
# Shear Modulus (GPa) = 25.39070 29.87513 27.63292
#
# Velocity S-wave (km/s) = 3.55374 3.85481 3.70733
# Velocity P-wave (km/s) = 6.65274 6.99904 6.82808
#
# Compressibility (1/GPa) = 0.01813954
#
# Stress axis : x y z
#
# Youngs Moduli (GPa) = 76.72512 89.78616 61.70690
#
# Poissons Ratio (x) = 0.30883 0.21033
# Poissons Ratio (y) = 0.26391 0.26352
# Poissons Ratio (z) = 0.26152 0.38343
#
# Static dielectric constant tensor:
#      x y z
#    x 3.066710 0.000000 -0.269370 
#    y 0.000000 4.080830 0.000000 
#    z -0.269370 0.000000 4.089070 
# 
# 
# High freq. dielectric constant tensor:
#      x y z
#    x 1.721440 0.000000 -0.028290 
#    y 0.000000 1.808940 0.000000 
#    z -0.028290 0.000000 1.809030 
# 
# From -- ./inp_files/176635.got.cif
#   From: 2010.06.25/outbox.cif.g09.slc.cpg/sg15_89_cif.got.tgz:176635.got - 2010.06.28 07:06:18.
