data_PCOD8141389
_publ_section_title
;
Structure prediction by ZEFSAII (Michael W. Deem and Ramdas Pophale) SiO2 
 PCOD8141389
Probable space group: C 2/C
;
_chemical_formula_sum "Si O2"
_cell_formula_units_Z 56
_cell_length_a 20.268389
_cell_length_b 11.539219
_cell_length_c 12.547021
_cell_angle_alpha 90.000000
_cell_angle_beta 76.847216
_cell_angle_gamma 90.000000
_cell_volume 2857.532726
_symmetry_space_group_name_H-M "C 2/C"
_symmetry_group_IT_number 15
_symmetry_cell_setting 'monoclinic'
loop_
_space_group_symop_operation_xyz
x,y,z
-x,y,1/2-z
-x,-y,-z
x,-y,1/2+z
1/2+x,1/2+y,z
1/2-x,1/2+y,1/2-z
1/2-x,1/2-y,-z
1/2+x,1/2-y,1/2+z
loop_
_atom_site_type_symbol
_atom_site_label
_atom_site_fract_x
_atom_site_fract_y
_atom_site_fract_z
Si Si1 0.218399 0.122676 0.395091
Si Si2 0.074695 0.922784 0.219759
Si Si3 0.164052 0.077130 0.050751
Si Si4 0.600915 0.272697 0.407478
Si Si5 0.833900 0.638272 0.523878
Si Si6 0.715717 0.911357 0.851013
Si Si7 0.966956 0.693652 0.372543
O O1 0.174181 0.240968 0.408973
O O2 0.285296 0.140666 0.440345
O O3 0.239139 0.082852 0.270512
O O4 0.173043 0.019908 0.457741
O O5 0.100382 0.878538 0.324472
O O6 0.071103 0.813907 0.140508
O O7 0.000000 0.979433 0.250000
O O8 0.126098 0.020732 0.164641
O O9 0.235899 0.125039 0.067629
O O10 0.119000 0.180187 0.018249
O O11 0.657567 0.181520 0.352393
O O12 0.527254 0.212300 0.435745
O O13 0.816802 0.536549 0.612987
O O14 0.910100 0.615137 0.450293
O O15 0.000000 0.642401 0.250000
#
# Coordination Sequence:
#
# PCOD8141389 Si02
#       7
#     8   8   8   8   8   8   8
#     4  10  21  36  62  85 115 149 202 243 278 346
#     4   9  19  36  61  85 109 148 198 243 287 339
#     4  11  21  37  58  86 115 154 188 243 295 347
#     4  10  22  37  57  83 123 148 190 236 298 344
#     4  10  21  39  61  89 115 153 202 236 290 344
#     4  11  24  36  59  87 119 157 187 242 291 347
#     4   9  18  36  63  88 114 152 197 245 278 346
#
# _framework density 19.597325999999999
#
# number of rings (size 3 to 8) (size 9 to 14) (size 15 to 20)
#    0.000    2.286    1.429    3.000    6.000    2.857 
#    2.571    0.000    0.000    0.857    0.000    0.000 
#    0.000    0.000    0.000    0.000    0.000    0.000 
#
# Total GULP energy -347122.332169 kJ/mol
# GULP energy per Si atom -12397.226149 kJ/mol
# Density = 1.955272 g / cm^3
# Si number density = 19.597326 Si / 1000 Ang^3
#
#
#
# Elastic Constant Matrix: (Units=GPa)
#
#
# Indices 1 2 3 4 5 6 
#
# 1 102.9202 29.8591 34.4543 0.0000 -6.3202 0.0000
# 2 29.8591 37.8899 37.9545 0.0000 -6.7186 0.0000
# 3 34.4543 37.9545 91.4595 0.0000 -16.8300 0.0000
# 4 0.0000 0.0000 0.0000 24.1242 0.0000 -4.6991
# 5 -6.3202 -6.7186 -16.8300 0.0000 32.4727 0.0000
# 6 0.0000 0.0000 0.0000 -4.6991 0.0000 19.7424
#
#
#
# Elastic Compliance Matrix: (Units=1/GPa)
#
#
# Indices 1 2 3 4 5 6 
#
# 1 0.012658 -0.008898 -0.001063 0.000000 0.000072 0.000000
# 2 -0.008898 0.051428 -0.018075 0.000000 -0.000459 0.000000
# 3 -0.001063 -0.018075 0.020018 0.000000 0.006428 0.000000
# 4 0.000000 0.000000 0.000000 0.043467 0.000000 0.010346
# 5 0.000072 -0.000459 0.006428 0.000000 0.034046 0.000000
# 6 0.000000 0.000000 0.000000 0.010346 0.000000 0.053115
#
#
# Mechanical properties :
#
#
# Convention : Reuss Voigt Hill
#
# Bulk Modulus (GPa) = 35.67137 48.53395 42.10266
# Shear Modulus (GPa) = 17.84780 23.93465 20.89123
#
# Velocity S-wave (km/s) = 3.02110 3.49853 3.26854
# Velocity P-wave (km/s) = 5.51462 6.41397 5.98122
#
# Compressibility (1/GPa) = 0.02803368
#
# Stress axis : x y z
#
# Youngs Moduli (GPa) = 79.00237 19.44462 49.95555
#
# Poissons Ratio (x) = 0.17301 0.05309
# Poissons Ratio (y) = 0.70294 0.90292
# Poissons Ratio (z) = 0.08396 0.35145
#
# Static dielectric constant tensor:
#      x y z
#    x 3.690510 0.000000 -0.049030 
#    y 0.000000 3.342910 0.000000 
#    z -0.049030 0.000000 3.396730 
# 
# 
# High freq. dielectric constant tensor:
#      x y z
#    x 1.775830 0.000000 -0.001850 
#    y 0.000000 1.736470 0.000000 
#    z -0.001850 0.000000 1.753340 
# 
# From -- ./inp_files/111004.got.cif
#   From: 2010.06.25/outbox.cif.g09.slc.cpg/sg15_56_cif.got.tgz:111004.got - 2010.06.28 07:06:18.
