data_PCOD8141536
_publ_section_title
;
Structure prediction by ZEFSAII (Michael W. Deem and Ramdas Pophale) SiO2 
 PCOD8141536
Probable space group: C 2/C
;
_chemical_formula_sum "Si O2"
_cell_formula_units_Z 48
_cell_length_a 12.758917
_cell_length_b 6.710681
_cell_length_c 27.617392
_cell_angle_alpha 90.000000
_cell_angle_beta 100.905048
_cell_angle_gamma 90.000000
_cell_volume 2321.928964
_symmetry_space_group_name_H-M "C 2/C"
_symmetry_group_IT_number 15
_symmetry_cell_setting 'monoclinic'
loop_
_space_group_symop_operation_xyz
x,y,z
-x,y,1/2-z
-x,-y,-z
x,-y,1/2+z
1/2+x,1/2+y,z
1/2-x,1/2+y,1/2-z
1/2-x,1/2-y,-z
1/2+x,1/2-y,1/2+z
loop_
_atom_site_type_symbol
_atom_site_label
_atom_site_fract_x
_atom_site_fract_y
_atom_site_fract_z
Si Si1 0.403060 0.215341 0.777547
Si Si2 0.962363 0.193091 0.469353
Si Si3 0.631169 0.045461 0.137696
Si Si4 0.758994 0.188057 0.391419
Si Si5 0.567463 0.053973 0.442469
Si Si6 0.284413 0.432835 0.303242
O O1 0.500000 0.195053 0.750000
O O2 0.381999 0.448800 0.786519
O O3 0.300410 0.110349 0.745630
O O4 0.428622 0.102521 0.829960
O O5 0.871923 0.121126 0.424115
O O6 0.913536 0.346811 0.503802
O O7 0.058106 0.312107 0.449354
O O8 0.000000 0.000000 0.500000
O O9 0.544420 0.122945 0.091371
O O10 0.677785 0.230337 0.169859
O O11 0.728232 0.925082 0.119418
O O12 0.664487 0.130844 0.418892
O O13 0.733385 0.072833 0.339769
#
# Coordination Sequence:
#
# PCOD8141536 Si02
#       6
#     8   8   8   8   8   8
#     4  11  23  39  60  86 116 155 200 249 306 364
#     4  10  21  37  58  86 121 152 200 246 291 361
#     4  10  22  39  58  84 120 151 197 253 294 361
#     4  10  22  37  59  86 118 155 199 246 297 363
#     4  10  21  38  58  86 117 158 195 243 305 349
#     4  11  22  40  59  86 119 152 201 251 300 366
#
# _framework density 20.672466
#
# number of rings (size 3 to 8) (size 9 to 14) (size 15 to 20)
#    0.000    1.667    1.667    2.500    0.000    4.000 
#    0.000    0.000    0.000    0.000    0.000    0.000 
#    0.000    0.000    0.000    0.000    0.000    0.000 
#
# Total GULP energy -297508.369077 kJ/mol
# GULP energy per Si atom -12396.182045 kJ/mol
# Density = 2.062541 g / cm^3
# Si number density = 20.672466 Si / 1000 Ang^3
#
#
#
# Elastic Constant Matrix: (Units=GPa)
#
#
# Indices 1 2 3 4 5 6 
#
# 1 62.7349 28.3670 12.2906 0.0000 -19.3367 0.0000
# 2 28.3670 84.5599 11.3620 0.0000 1.6188 0.0000
# 3 12.2906 11.3620 77.7257 0.0000 1.3059 0.0000
# 4 0.0000 0.0000 0.0000 47.3971 0.0000 0.9961
# 5 -19.3367 1.6188 1.3059 0.0000 41.3681 0.0000
# 6 0.0000 0.0000 0.0000 0.9961 0.0000 21.8688
#
#
#
# Elastic Compliance Matrix: (Units=1/GPa)
#
#
# Indices 1 2 3 4 5 6 
#
# 1 0.023477 -0.007721 -0.002775 0.000000 0.011364 0.000000
# 2 -0.007721 0.014609 -0.000845 0.000000 -0.004154 0.000000
# 3 -0.002775 -0.000845 0.013456 0.000000 -0.001689 0.000000
# 4 0.000000 0.000000 0.000000 0.021119 0.000000 -0.000962
# 5 0.011364 -0.004154 -0.001689 0.000000 0.029701 0.000000
# 6 0.000000 0.000000 0.000000 -0.000962 0.000000 0.045771
#
#
# Mechanical properties :
#
#
# Convention : Reuss Voigt Hill
#
# Bulk Modulus (GPa) = 34.64736 36.56220 35.60478
# Shear Modulus (GPa) = 27.71091 33.66019 30.68555
#
# Velocity S-wave (km/s) = 3.66522 4.03955 3.85693
# Velocity P-wave (km/s) = 5.89138 6.28348 6.09058
#
# Compressibility (1/GPa) = 0.02886223
#
# Stress axis : x y z
#
# Youngs Moduli (GPa) = 42.59426 68.45100 74.31402
#
# Poissons Ratio (x) = 0.52848 0.20620
# Poissons Ratio (y) = 0.32885 0.06279
# Poissons Ratio (z) = 0.11819 0.05784
#
# Static dielectric constant tensor:
#      x y z
#    x 3.546640 0.000000 0.128340 
#    y 0.000000 3.971530 0.000000 
#    z 0.128340 0.000000 4.197550 
# 
# 
# High freq. dielectric constant tensor:
#      x y z
#    x 1.776660 0.000000 0.008280 
#    y 0.000000 1.815100 0.000000 
#    z 0.008280 0.000000 1.839530 
# 
# From -- ./inp_files/294432.got.cif
#   From: 2010.06.25/outbox.cif.g09.slc.cpg/sg15_148_cif.got.tgz:294432.got - 2010.06.28 07:06:18.
