data_PCOD8141395
_publ_section_title
;
Structure prediction by ZEFSAII (Michael W. Deem and Ramdas Pophale) SiO2 
 PCOD8141395
Probable space group: C 2/C
;
_chemical_formula_sum "Si O2"
_cell_formula_units_Z 48
_cell_length_a 20.367921
_cell_length_b 5.343054
_cell_length_c 20.610839
_cell_angle_alpha 90.000000
_cell_angle_beta 103.418394
_cell_angle_gamma 90.000000
_cell_volume 2181.782680
_symmetry_space_group_name_H-M "C 2/C"
_symmetry_group_IT_number 15
_symmetry_cell_setting 'monoclinic'
loop_
_space_group_symop_operation_xyz
x,y,z
-x,y,1/2-z
-x,-y,-z
x,-y,1/2+z
1/2+x,1/2+y,z
1/2-x,1/2+y,1/2-z
1/2-x,1/2-y,-z
1/2+x,1/2-y,1/2+z
loop_
_atom_site_type_symbol
_atom_site_label
_atom_site_fract_x
_atom_site_fract_y
_atom_site_fract_z
Si Si1 0.823183 0.309857 0.100566
Si Si2 0.614560 0.997565 0.011558
Si Si3 0.943397 0.893367 0.291863
Si Si4 0.080153 0.387625 0.262596
Si Si5 0.246659 0.295924 0.074570
Si Si6 0.494626 0.697998 0.942506
O O1 0.889151 0.352523 0.159115
O O2 0.772657 0.535427 0.111704
O O3 0.790418 0.038332 0.106414
O O4 0.844312 0.322104 0.028964
O O5 0.567378 0.125110 0.053649
O O6 0.667206 0.845185 0.069286
O O7 0.567625 0.828528 0.954508
O O8 0.897745 0.643904 0.269752
O O9 0.000000 0.907834 0.250000
O O10 0.980052 0.914475 0.369287
O O11 0.897993 0.144702 0.274878
O O12 0.000000 0.406301 0.250000
O O13 0.250000 0.250000 0.000000
O O14 0.500000 0.500000 0.000000
#
# Coordination Sequence:
#
# PCOD8141395 Si02
#       6
#     8   8   8   8   8   8
#     4  11  22  39  67  96 127 167 224 263 317 379
#     4  10  23  39  60  95 136 165 209 265 326 382
#     4  10  22  39  60  89 127 164 209 257 320 387
#     4  10  21  36  62  89 123 159 207 265 315 371
#     4  10  22  38  63  95 129 174 214 264 317 379
#     4  11  26  37  65  97 133 171 206 268 339 388
#
# _framework density 22.000356
#
# number of rings (size 3 to 8) (size 9 to 14) (size 15 to 20)
#    0.000    1.667    0.000    5.000   16.333    0.000 
#    0.000    0.000    0.000    4.000    0.000    0.000 
#    0.000    0.000    0.000    0.000    0.000    0.000 
#
# Total GULP energy -297361.500273 kJ/mol
# GULP energy per Si atom -12390.062511 kJ/mol
# Density = 2.195028 g / cm^3
# Si number density = 22.000356 Si / 1000 Ang^3
#
#
#
# Elastic Constant Matrix: (Units=GPa)
#
#
# Indices 1 2 3 4 5 6 
#
# 1 88.1449 15.3049 10.0029 0.0000 17.3029 0.0000
# 2 15.3049 160.8447 22.5391 0.0000 5.1408 0.0000
# 3 10.0029 22.5391 110.7514 0.0000 10.1314 0.0000
# 4 0.0000 0.0000 0.0000 37.1205 0.0000 15.7527
# 5 17.3029 5.1408 10.1314 0.0000 23.7761 0.0000
# 6 0.0000 0.0000 0.0000 15.7527 0.0000 3.3458
#
#
#
# Elastic Compliance Matrix: (Units=1/GPa)
#
#
# Indices 1 2 3 4 5 6 
#
# 1 0.013386 -0.000950 -0.000149 0.000000 -0.009473 0.000000
# 2 -0.000950 0.006484 -0.001216 0.000000 -0.000192 0.000000
# 3 -0.000149 -0.001216 0.009632 0.000000 -0.003733 0.000000
# 4 0.000000 0.000000 0.000000 -0.026994 0.000000 0.127090
# 5 -0.009473 -0.000192 -0.003733 0.000000 0.050585 0.000000
# 6 0.000000 0.000000 0.000000 0.127090 0.000000 -0.299482
#
#
# Mechanical properties :
#
#
# Convention : Reuss Voigt Hill
#
# Bulk Modulus (GPa) = 40.20684 50.60384 45.40534
# Shear Modulus (GPa) = -21.41627 33.64143 6.11258
#
# Velocity S-wave (km/s) = -3.12340 3.91465 1.66866
# Velocity P-wave (km/s) = 2.30384 6.59424 4.93921
#
# Compressibility (1/GPa) = 0.02487139
#
# Stress axis : x y z
#
# Youngs Moduli (GPa) = 74.70288 154.22214 103.82412
#
# Poissons Ratio (x) = 0.14653 0.01548
# Poissons Ratio (y) = 0.07097 0.12627
# Poissons Ratio (z) = 0.01114 0.18756
#
# Static dielectric constant tensor:
#      x y z
#    x 1.107210 -0.000010 -0.233010 
#    y -0.000010 10.863850 -0.000010 
#    z -0.233010 -0.000010 3.620820 
# 
# 
# High freq. dielectric constant tensor:
#      x y z
#    x 1.835680 0.000000 0.029950 
#    y 0.000000 1.888970 0.000000 
#    z 0.029950 0.000000 1.848000 
# 
# From -- ./inp_files/250859.got.cif
#   From: 2010.06.25/outbox.cif.g09.slc.cpg/sg15_126_cif.got.tgz:250859.got - 2010.06.28 07:06:18.
