data_PCOD8141574
_publ_section_title
;
Structure prediction by ZEFSAII (Michael W. Deem and Ramdas Pophale) SiO2 
 PCOD8141574
Probable space group: C 2/C
;
_chemical_formula_sum "Si O2"
_cell_formula_units_Z 48
_cell_length_a 30.622330
_cell_length_b 8.869935
_cell_length_c 8.505788
_cell_angle_alpha 90.000000
_cell_angle_beta 90.347107
_cell_angle_gamma 90.000000
_cell_volume 2310.283381
_symmetry_space_group_name_H-M "C 2/C"
_symmetry_group_IT_number 15
_symmetry_cell_setting 'monoclinic'
loop_
_space_group_symop_operation_xyz
x,y,z
-x,y,1/2-z
-x,-y,-z
x,-y,1/2+z
1/2+x,1/2+y,z
1/2-x,1/2+y,1/2-z
1/2-x,1/2-y,-z
1/2+x,1/2-y,1/2+z
loop_
_atom_site_type_symbol
_atom_site_label
_atom_site_fract_x
_atom_site_fract_y
_atom_site_fract_z
Si Si1 0.629307 0.299198 0.790092
Si Si2 0.545032 0.883116 0.333967
Si Si3 0.454279 0.802040 0.806887
Si Si4 0.207589 0.701068 0.295588
Si Si5 0.129823 0.881861 0.149405
Si Si6 0.292884 0.882481 0.344421
O O1 0.581878 0.226904 0.767246
O O2 0.632920 0.439771 0.673145
O O3 0.664890 0.175288 0.746446
O O4 0.637966 0.350513 0.967626
O O5 0.500000 0.838286 0.250000
O O6 0.539859 0.865797 0.518974
O O7 0.558272 0.056300 0.302939
O O8 0.500000 0.729348 0.750000
O O9 0.417439 0.675092 0.793907
O O10 0.166024 0.800908 0.253889
O O11 0.250568 0.800929 0.273405
O O12 0.211501 0.560760 0.178558
O O13 0.202113 0.643741 0.471580
#
# Coordination Sequence:
#
# PCOD8141574 Si02
#       6
#     8   8   8   8   8   8
#     4  11  24  40  60  87 119 156 197 242 293 348
#     4  10  21  37  59  86 115 151 194 240 291 347
#     4  10  21  37  59  86 115 151 194 240 291 347
#     4  11  24  41  63  90 120 155 195 240 290 346
#     4  11  24  40  60  87 119 156 197 242 293 348
#     4  11  24  41  63  90 120 155 195 240 290 346
#
# _framework density 20.776672000000001
#
# number of rings (size 3 to 8) (size 9 to 14) (size 15 to 20)
#    0.000    1.333    0.000    6.000    0.000   14.000 
#    0.000    3.333    0.000    0.000    0.000    0.000 
#    0.000    0.000    0.000    0.000    0.000    0.000 
#
# Total GULP energy -297773.667538 kJ/mol
# GULP energy per Si atom -12407.236147 kJ/mol
# Density = 2.072938 g / cm^3
# Si number density = 20.776672 Si / 1000 Ang^3
#
#
#
# Elastic Constant Matrix: (Units=GPa)
#
#
# Indices 1 2 3 4 5 6 
#
# 1 97.7036 22.6079 29.1422 0.0000 -0.7184 0.0000
# 2 22.6079 69.4839 -6.9699 0.0000 0.9669 0.0000
# 3 29.1422 -6.9699 40.4392 0.0000 -4.2730 0.0000
# 4 0.0000 0.0000 0.0000 -109.9195 0.0000 38.4484
# 5 -0.7184 0.9669 -4.2730 0.0000 33.1428 0.0000
# 6 0.0000 0.0000 0.0000 38.4484 0.0000 18.5681
#
#
#
# Elastic Compliance Matrix: (Units=1/GPa)
#
#
# Indices 1 2 3 4 5 6 
#
# 1 0.015299 -0.006187 -0.012203 0.000000 -0.001061 0.000000
# 2 -0.006187 0.017148 0.007449 0.000000 0.000326 0.000000
# 3 -0.012203 0.007449 0.035236 0.000000 0.004061 0.000000
# 4 0.000000 0.000000 0.000000 -0.005276 0.000000 0.010925
# 5 -0.001061 0.000326 0.004061 0.000000 0.030663 0.000000
# 6 0.000000 0.000000 0.000000 0.010925 0.000000 0.031234
#
#
# Mechanical properties :
#
#
# Convention : Reuss Voigt Hill
#
# Bulk Modulus (GPa) = 21.83498 33.02078 27.42788
# Shear Modulus (GPa) = 30.96877 -0.78527 15.09175
#
# Velocity S-wave (km/s) = 3.86496 -0.61545 2.69807
# Velocity P-wave (km/s) = 5.51810 3.92717 4.78916
#
# Compressibility (1/GPa) = 0.04579806
#
# Stress axis : x y z
#
# Youngs Moduli (GPa) = 65.36446 58.31742 28.38031
#
# Poissons Ratio (x) = 0.36082 0.34634
# Poissons Ratio (y) = 0.40442 -0.21139
# Poissons Ratio (z) = 0.79767 -0.43438
#
# Static dielectric constant tensor:
#      x y z
#    x 3.991680 0.000000 -0.012460 
#    y 0.000000 3.791030 0.000000 
#    z -0.012460 0.000000 3.795780 
# 
# 
# High freq. dielectric constant tensor:
#      x y z
#    x 1.829670 0.000000 -0.002670 
#    y 0.000000 1.814390 0.000000 
#    z -0.002670 0.000000 1.826070 
# 
# From -- ./inp_files/68578.got.cif
#   From: 2010.06.25/outbox.cif.g09.slc.cpg/sg15_35_cif.got.tgz:68578.got - 2010.06.28 07:06:18.
