data_PCOD8141733
_publ_section_title
;
Structure prediction by ZEFSAII (Michael W. Deem and Ramdas Pophale) SiO2 
 PCOD8141733
Probable space group: C 2/C
;
_chemical_formula_sum "Si O2"
_cell_formula_units_Z 52
_cell_length_a 10.932856
_cell_length_b 10.793177
_cell_length_c 23.961766
_cell_angle_alpha 90.000000
_cell_angle_beta 62.922465
_cell_angle_gamma 90.000000
_cell_volume 2517.576535
_symmetry_space_group_name_H-M "C 2/C"
_symmetry_group_IT_number 15
_symmetry_cell_setting 'monoclinic'
loop_
_space_group_symop_operation_xyz
x,y,z
-x,y,1/2-z
-x,-y,-z
x,-y,1/2+z
1/2+x,1/2+y,z
1/2-x,1/2+y,1/2-z
1/2-x,1/2-y,-z
1/2+x,1/2-y,1/2+z
loop_
_atom_site_type_symbol
_atom_site_label
_atom_site_fract_x
_atom_site_fract_y
_atom_site_fract_z
Si Si1 0.494398 0.251412 0.941841
Si Si2 0.000000 0.748342 0.250000
Si Si3 0.875665 0.998878 0.430066
Si Si4 0.686075 0.959589 0.067270
Si Si5 0.745637 0.107823 0.851940
Si Si6 0.907231 0.813837 0.081366
Si Si7 0.069299 0.401695 0.841216
O O1 0.435630 0.362234 0.916148
O O2 0.400700 0.131304 0.953834
O O3 0.649620 0.222130 0.891022
O O4 0.489640 0.285779 0.007615
O O5 0.885031 0.837952 0.298817
O O6 0.925136 0.661955 0.220144
O O7 0.795387 0.973103 0.504591
O O8 0.775912 0.979682 0.398563
O O9 0.999978 0.902352 0.399719
O O10 0.763293 0.882330 0.099341
O O11 0.589326 0.062054 0.115148
O O12 0.666977 0.023112 0.822305
O O13 0.877115 0.690336 0.122067
#
# Coordination Sequence:
#
# PCOD8141733 Si02
#       7
#     8   4   8   8   8   8   8
#     4  10  21  37  62  96 131 164 199 246 309 384
#     4  12  28  44  62  88 116 164 220 266 304 356
#     4  11  21  35  64  99 131 162 197 246 311 384
#     4  10  21  37  62  96 130 165 198 245 314 376
#     4  11  25  44  64  90 121 166 208 258 315 355
#     4  11  21  35  64  99 130 164 195 247 314 376
#     4  11  25  44  64  88 123 162 210 262 303 371
#
# _framework density 20.654785
#
# number of rings (size 3 to 8) (size 9 to 14) (size 15 to 20)
#    0.000    1.231    1.538    6.462    4.308    6.154 
#    0.000    0.000    0.000    0.000    0.000    0.000 
#    0.000    0.000    0.000    0.000    0.000    0.000 
#
# Total GULP energy -322534.499654 kJ/mol
# GULP energy per Si atom -12405.173064 kJ/mol
# Density = 2.060777 g / cm^3
# Si number density = 20.654785 Si / 1000 Ang^3
#
#
#
# Elastic Constant Matrix: (Units=GPa)
#
#
# Indices 1 2 3 4 5 6 
#
# 1 94.5197 14.4540 30.5470 0.0000 9.0767 0.0000
# 2 14.4540 49.2569 16.9249 0.0000 19.2610 0.0000
# 3 30.5470 16.9249 59.0097 0.0000 9.8464 0.0000
# 4 0.0000 0.0000 0.0000 21.8200 0.0000 2.8820
# 5 9.0767 19.2610 9.8464 0.0000 18.5419 0.0000
# 6 0.0000 0.0000 0.0000 2.8820 0.0000 40.5083
#
#
#
# Elastic Compliance Matrix: (Units=1/GPa)
#
#
# Indices 1 2 3 4 5 6 
#
# 1 0.012878 -0.000826 -0.006058 0.000000 -0.002230 0.000000
# 2 -0.000826 0.035246 -0.003994 0.000000 -0.034088 0.000000
# 3 -0.006058 -0.003994 0.021989 0.000000 -0.004563 0.000000
# 4 0.000000 0.000000 0.000000 0.046264 0.000000 -0.003292
# 5 -0.002230 -0.034088 -0.004563 0.000000 0.092856 0.000000
# 6 0.000000 0.000000 0.000000 -0.003292 0.000000 0.024920
#
#
# Mechanical properties :
#
#
# Convention : Reuss Voigt Hill
#
# Bulk Modulus (GPa) = 20.67883 36.29312 28.48598
# Shear Modulus (GPa) = 18.38054 25.56471 21.97263
#
# Velocity S-wave (km/s) = 2.98634 3.52193 3.26514
# Velocity P-wave (km/s) = 4.68235 5.84364 5.29493
#
# Compressibility (1/GPa) = 0.04835863
#
# Stress axis : x y z
#
# Youngs Moduli (GPa) = 77.65265 28.37233 45.47735
#
# Poissons Ratio (x) = 0.02343 0.27548
# Poissons Ratio (y) = 0.06412 0.18162
# Poissons Ratio (z) = 0.47038 0.11331
#
# Static dielectric constant tensor:
#      x y z
#    x 3.903000 0.000000 -0.036440 
#    y 0.000000 3.830780 0.000000 
#    z -0.036440 0.000000 3.445550 
# 
# 
# High freq. dielectric constant tensor:
#      x y z
#    x 1.825300 0.000000 -0.000510 
#    y 0.000000 1.820710 0.000000 
#    z -0.000510 0.000000 1.775910 
# 
# From -- ./inp_files/269202.got.cif
#   From: 2010.06.25/outbox.cif.g09.slc.cpg/sg15_135_cif.got.tgz:269202.got - 2010.06.28 07:06:18.
