data_PCOD8141223
_publ_section_title
;
Structure prediction by ZEFSAII (Michael W. Deem and Ramdas Pophale) SiO2 
 PCOD8141223
Probable space group: C 2/C
;
_chemical_formula_sum "Si O2"
_cell_formula_units_Z 44
_cell_length_a 15.867504
_cell_length_b 17.654378
_cell_length_c 8.095219
_cell_angle_alpha 90.000000
_cell_angle_beta 104.223019
_cell_angle_gamma 90.000000
_cell_volume 2198.207999
_symmetry_space_group_name_H-M "C 2/C"
_symmetry_group_IT_number 15
_symmetry_cell_setting 'monoclinic'
loop_
_space_group_symop_operation_xyz
x,y,z
-x,y,1/2-z
-x,-y,-z
x,-y,1/2+z
1/2+x,1/2+y,z
1/2-x,1/2+y,1/2-z
1/2-x,1/2-y,-z
1/2+x,1/2-y,1/2+z
loop_
_atom_site_type_symbol
_atom_site_label
_atom_site_fract_x
_atom_site_fract_y
_atom_site_fract_z
Si Si1 0.115255 0.919301 0.451346
Si Si2 0.273218 0.157390 0.866762
Si Si3 0.761177 0.338828 0.003207
Si Si4 0.000000 0.202791 0.750000
Si Si5 0.404288 0.580773 0.190982
Si Si6 0.341553 0.199028 0.225060
O O1 0.198688 0.901510 0.381153
O O2 0.044542 0.851753 0.405990
O O3 0.142339 0.924502 0.654553
O O4 0.075557 0.998647 0.375843
O O5 0.306984 0.133827 0.698416
O O6 0.238276 0.242820 0.830511
O O7 0.346287 0.155787 0.048204
O O8 0.664124 0.374465 0.955637
O O9 0.820341 0.357850 0.869362
O O10 0.750000 0.250000 0.000000
O O11 0.930489 0.256956 0.806474
O O12 0.500000 0.620247 0.250000
#
# Coordination Sequence:
#
# PCOD8141223 Si02
#       6
#     8   8   8   4   8   8
#     4  11  22  37  53  84 123 158 187 235 289 355
#     4   9  18  35  55  74 110 150 192 231 282 337
#     4  10  21  36  54  78 110 152 197 238 273 345
#     4  10  22  34  60  82 120 156 190 240 292 340
#     4  12  24  35  54  84 121 158 190 232 293 349
#     4   9  18  36  53  79 108 151 192 236 282 330
#
# _framework density 20.016304999999999
#
# number of rings (size 3 to 8) (size 9 to 14) (size 15 to 20)
#    0.000    1.818    2.727    1.636   10.182    0.000 
#    0.000    0.909    0.000    0.000    0.000    1.273 
#    2.727    0.000    0.000    0.000    0.000    0.000 
#
# Total GULP energy -272562.077923 kJ/mol
# GULP energy per Si atom -12389.185360 kJ/mol
# Density = 1.997075 g / cm^3
# Si number density = 20.016305 Si / 1000 Ang^3
#
#
#
# Elastic Constant Matrix: (Units=GPa)
#
#
# Indices 1 2 3 4 5 6 
#
# 1 68.9339 39.0260 41.1499 0.0000 -0.7323 0.0000
# 2 39.0260 47.2041 29.5548 0.0000 7.0718 0.0000
# 3 41.1499 29.5548 163.9622 0.0000 -24.7374 0.0000
# 4 0.0000 0.0000 0.0000 22.6082 0.0000 -1.0193
# 5 -0.7323 7.0718 -24.7374 0.0000 26.8826 0.0000
# 6 0.0000 0.0000 0.0000 -1.0193 0.0000 11.6571
#
#
#
# Elastic Compliance Matrix: (Units=1/GPa)
#
#
# Indices 1 2 3 4 5 6 
#
# 1 0.029217 -0.023353 -0.002411 0.000000 0.004720 0.000000
# 2 -0.023353 0.046341 -0.005141 0.000000 -0.017557 0.000000
# 3 -0.002411 -0.005141 0.009086 0.000000 0.009648 0.000000
# 4 0.000000 0.000000 0.000000 0.044407 0.000000 0.003883
# 5 0.004720 -0.017557 0.009648 0.000000 0.050824 0.000000
# 6 0.000000 0.000000 0.000000 0.003883 0.000000 0.086124
#
#
# Mechanical properties :
#
#
# Convention : Reuss Voigt Hill
#
# Bulk Modulus (GPa) = 43.79387 55.50683 49.65035
# Shear Modulus (GPa) = 14.90666 23.58754 19.24710
#
# Velocity S-wave (km/s) = 2.73193 3.43653 3.10429
# Velocity P-wave (km/s) = 5.64605 6.59828 6.14065
#
# Compressibility (1/GPa) = 0.02283424
#
# Stress axis : x y z
#
# Youngs Moduli (GPa) = 34.22676 21.57928 110.05442
#
# Poissons Ratio (x) = 0.50394 0.26534
# Poissons Ratio (y) = 0.79929 0.56581
# Poissons Ratio (z) = 0.08252 0.11094
#
# Static dielectric constant tensor:
#      x y z
#    x 3.420680 0.000000 -0.393650 
#    y 0.000000 3.329230 0.000000 
#    z -0.393650 0.000000 4.773000 
# 
# 
# High freq. dielectric constant tensor:
#      x y z
#    x 1.737840 0.000000 -0.014080 
#    y 0.000000 1.736810 0.000000 
#    z -0.014080 0.000000 1.809700 
# 
# From -- ./inp_files/39273.got.cif
#   From: 2010.06.25/outbox.cif.g09.slc.cpg/sg15_20_cif.got.tgz:39273.got - 2010.06.28 07:06:18.
