data_PCOD8141254
_publ_section_title
;
Structure prediction by ZEFSAII (Michael W. Deem and Ramdas Pophale) SiO2 
 PCOD8141254
Probable space group: C 2/C
;
_chemical_formula_sum "Si O2"
_cell_formula_units_Z 48
_cell_length_a 11.627033
_cell_length_b 8.331253
_cell_length_c 24.360552
_cell_angle_alpha 90.000000
_cell_angle_beta 73.152177
_cell_angle_gamma 90.000000
_cell_volume 2258.466482
_symmetry_space_group_name_H-M "C 2/C"
_symmetry_group_IT_number 15
_symmetry_cell_setting 'monoclinic'
loop_
_space_group_symop_operation_xyz
x,y,z
-x,y,1/2-z
-x,-y,-z
x,-y,1/2+z
1/2+x,1/2+y,z
1/2-x,1/2+y,1/2-z
1/2-x,1/2-y,-z
1/2+x,1/2-y,1/2+z
loop_
_atom_site_type_symbol
_atom_site_label
_atom_site_fract_x
_atom_site_fract_y
_atom_site_fract_z
Si Si1 0.524466 0.767853 0.405560
Si Si2 0.751451 0.483751 0.101084
Si Si3 0.662689 0.400242 0.505400
Si Si4 0.779195 0.352920 0.385179
Si Si5 0.308204 0.425641 0.694027
Si Si6 0.369515 0.348060 0.279308
O O1 0.472918 0.664589 0.464655
O O2 0.415645 0.857536 0.388909
O O3 0.580883 0.641671 0.355822
O O4 0.618692 0.899563 0.413672
O O5 0.699673 0.467463 0.046166
O O6 0.766030 0.669972 0.115883
O O7 0.655619 0.396542 0.154065
O O8 0.750000 0.250000 0.500000
O O9 0.688608 0.453481 0.439125
O O10 0.770521 0.445160 0.329024
O O11 0.359724 0.497180 0.742462
O O12 0.224100 0.284246 0.726571
O O13 0.500000 0.273303 0.250000
#
# Coordination Sequence:
#
# PCOD8141254 Si02
#       6
#     8   8   8   8   8   8
#     4   9  19  37  57  81 112 144 182 226 270 323
#     4   9  18  36  59  81 109 148 184 221 275 323
#     4   8  17  33  56  83 112 144 181 220 269 327
#     4  10  21  36  56  84 114 144 181 224 271 327
#     4  11  24  38  57  84 108 144 188 224 277 328
#     4  11  23  40  59  80 110 144 185 232 273 324
#
# _framework density 21.253357999999999
#
# number of rings (size 3 to 8) (size 9 to 14) (size 15 to 20)
#    0.000    2.667    0.000    3.000    0.000   10.667 
#    0.000    4.167    0.000    0.000    0.000    1.167 
#    0.000    0.000    0.000    0.000    0.000    0.000 
#
# Total GULP energy -297461.203952 kJ/mol
# GULP energy per Si atom -12394.216831 kJ/mol
# Density = 2.120498 g / cm^3
# Si number density = 21.253358 Si / 1000 Ang^3
#
#
#
# Elastic Constant Matrix: (Units=GPa)
#
#
# Indices 1 2 3 4 5 6 
#
# 1 92.5277 18.6307 32.0880 0.0000 -29.6122 0.0000
# 2 18.6307 53.4718 10.9200 0.0000 -10.1346 0.0000
# 3 32.0880 10.9200 79.2636 0.0000 -19.2939 0.0000
# 4 0.0000 0.0000 0.0000 27.9445 0.0000 4.0051
# 5 -29.6122 -10.1346 -19.2939 0.0000 37.8857 0.0000
# 6 0.0000 0.0000 0.0000 4.0051 0.0000 31.3128
#
#
#
# Elastic Compliance Matrix: (Units=1/GPa)
#
#
# Indices 1 2 3 4 5 6 
#
# 1 0.015749 -0.002912 -0.003616 0.000000 0.009689 0.000000
# 2 -0.002912 0.020426 -0.000981 0.000000 0.002688 0.000000
# 3 -0.003616 -0.000981 0.015368 0.000000 0.004738 0.000000
# 4 0.000000 0.000000 0.000000 0.036453 0.000000 -0.004663
# 5 0.009689 0.002688 0.004738 0.000000 0.037100 0.000000
# 6 0.000000 0.000000 0.000000 -0.004663 0.000000 0.032532
#
#
# Mechanical properties :
#
#
# Convention : Reuss Voigt Hill
#
# Bulk Modulus (GPa) = 27.37827 38.72671 33.05249
# Shear Modulus (GPa) = 27.05303 30.33687 28.69495
#
# Velocity S-wave (km/s) = 3.57162 3.78218 3.67841
# Velocity P-wave (km/s) = 5.46977 6.11017 5.79882
#
# Compressibility (1/GPa) = 0.03652531
#
# Stress axis : x y z
#
# Youngs Moduli (GPa) = 63.49689 48.95725 65.06891
#
# Poissons Ratio (x) = 0.14258 0.23528
# Poissons Ratio (y) = 0.18493 0.06381
# Poissons Ratio (z) = 0.22959 0.04801
#
# Static dielectric constant tensor:
#      x y z
#    x 3.755360 0.000000 -0.197640 
#    y 0.000000 3.643260 0.000000 
#    z -0.197640 0.000000 4.722660 
# 
# 
# High freq. dielectric constant tensor:
#      x y z
#    x 1.827910 0.000000 -0.014130 
#    y 0.000000 1.817940 0.000000 
#    z -0.014130 0.000000 1.847920 
# 
# From -- ./inp_files/268032.got.cif
#   From: 2010.06.25/outbox.cif.g09.slc.cpg/sg15_135_cif.got.tgz:268032.got - 2010.06.28 07:06:18.
