data_PCOD8141731
_publ_section_title
;
Structure prediction by ZEFSAII (Michael W. Deem and Ramdas Pophale) SiO2 
 PCOD8141731
Probable space group: C 2/C
;
_chemical_formula_sum "Si O2"
_cell_formula_units_Z 40
_cell_length_a 13.983592
_cell_length_b 14.626842
_cell_length_c 17.118475
_cell_angle_alpha 90.000000
_cell_angle_beta 150.960367
_cell_angle_gamma 90.000000
_cell_volume 1699.601610
_symmetry_space_group_name_H-M "C 2/C"
_symmetry_group_IT_number 15
_symmetry_cell_setting 'monoclinic'
loop_
_space_group_symop_operation_xyz
x,y,z
-x,y,1/2-z
-x,-y,-z
x,-y,1/2+z
1/2+x,1/2+y,z
1/2-x,1/2+y,1/2-z
1/2-x,1/2-y,-z
1/2+x,1/2-y,1/2+z
loop_
_atom_site_type_symbol
_atom_site_label
_atom_site_fract_x
_atom_site_fract_y
_atom_site_fract_z
Si Si1 0.813607 0.688114 0.936109
Si Si2 0.545936 0.200038 0.865042
Si Si3 0.216784 0.378013 0.913014
Si Si4 0.432029 0.473027 0.288653
Si Si5 0.203596 0.349008 0.635617
O O1 0.749328 0.793776 0.875747
O O2 0.691136 0.621127 0.792144
O O3 0.748410 0.660305 0.975720
O O4 0.046760 0.676908 0.090026
O O5 0.500000 0.146567 0.750000
O O6 0.370082 0.271690 0.753728
O O7 0.750000 0.250000 0.000000
O O8 0.580413 0.137467 0.965985
O O9 0.000000 0.420716 0.750000
O O10 0.378120 0.458785 0.018788
O O11 0.500000 0.500752 0.250000
O O12 0.301334 0.555125 0.229049
#
# Coordination Sequence:
#
# PCOD8141731 Si02
#       5
#     8   8   8   8   8
#     4  10  21  37  62  95 127 168 214 262 320 389
#     4   9  20  39  60  88 126 170 210 259 324 391
#     4  10  21  39  64  91 132 168 214 260 329 378
#     4  10  21  40  63  89 129 175 208 266 327 384
#     4  11  22  38  65  94 127 168 222 261 321 382
#
# _framework density 23.534928000000001
#
# number of rings (size 3 to 8) (size 9 to 14) (size 15 to 20)
#    0.000    2.000    0.000    5.400    5.600    0.000 
#    0.000   16.000    0.000    0.000    0.000    4.200 
#    0.000    0.000    0.000    0.000    0.000    0.000 
#
# Total GULP energy -247869.130978 kJ/mol
# GULP energy per Si atom -12393.456549 kJ/mol
# Density = 2.348136 g / cm^3
# Si number density = 23.534928 Si / 1000 Ang^3
#
#
#
# Elastic Constant Matrix: (Units=GPa)
#
#
# Indices 1 2 3 4 5 6 
#
# 1 58.3778 26.5266 13.7375 0.0098 34.7182 0.0016
# 2 26.5266 98.1729 64.7962 0.0170 10.2324 0.0071
# 3 13.7375 64.7962 149.4954 0.0342 30.9518 0.0121
# 4 0.0098 0.0170 0.0342 39.7237 0.0056 11.6639
# 5 34.7182 10.2324 30.9518 0.0056 41.4330 0.0015
# 6 0.0016 0.0071 0.0121 11.6639 0.0015 18.2723
#
#
#
# Elastic Compliance Matrix: (Units=1/GPa)
#
#
# Indices 1 2 3 4 5 6 
#
# 1 0.049462 -0.016631 0.012296 -0.000010 -0.046524 0.000004
# 2 -0.016631 0.019919 -0.010614 0.000003 0.016945 -0.000003
# 3 0.012296 -0.010614 0.013900 -0.000008 -0.018066 0.000000
# 4 -0.000010 0.000003 -0.000008 0.030981 0.000011 -0.019776
# 5 -0.046524 0.016945 -0.018066 0.000011 0.072430 -0.000003
# 6 0.000004 -0.000003 0.000000 -0.019776 -0.000003 0.067351
#
#
# Mechanical properties :
#
#
# Convention : Reuss Voigt Hill
#
# Bulk Modulus (GPa) = 18.73260 57.35185 38.04222
# Shear Modulus (GPa) = 16.57080 33.28486 24.92783
#
# Velocity S-wave (km/s) = 2.65636 3.76476 3.25804
# Velocity P-wave (km/s) = 4.16954 6.58177 5.50930
#
# Compressibility (1/GPa) = 0.05338288
#
# Stress axis : x y z
#
# Youngs Moduli (GPa) = 20.21752 50.20356 71.94290
#
# Poissons Ratio (x) = 0.83494 -0.88459
# Poissons Ratio (y) = 0.33624 0.76358
# Poissons Ratio (z) = -0.24859 0.53284
#
# Static dielectric constant tensor:
#      x y z
#    x 4.312410 -0.000020 -0.009430 
#    y -0.000020 3.900490 -0.000020 
#    z -0.009430 -0.000020 4.728820 
# 
# 
# High freq. dielectric constant tensor:
#      x y z
#    x 1.916700 0.000000 0.022400 
#    y 0.000000 1.898060 0.000000 
#    z 0.022400 0.000000 1.949290 
# 
# From -- ./inp_files/205815.got.cif
#   From: 2010.06.25/outbox.cif.g09.slc.cpg/sg15_103_cif.got.tgz:205815.got - 2010.06.28 07:06:18.
