data_PCOD8141644
_publ_section_title
;
Structure prediction by ZEFSAII (Michael W. Deem and Ramdas Pophale) SiO2 
 PCOD8141644
Probable space group: C 2/C
;
_chemical_formula_sum "Si O2"
_cell_formula_units_Z 64
_cell_length_a 12.326931
_cell_length_b 12.969744
_cell_length_c 21.309741
_cell_angle_alpha 90.000000
_cell_angle_beta 73.509363
_cell_angle_gamma 90.000000
_cell_volume 3266.799802
_symmetry_space_group_name_H-M "C 2/C"
_symmetry_group_IT_number 15
_symmetry_cell_setting 'monoclinic'
loop_
_space_group_symop_operation_xyz
x,y,z
-x,y,1/2-z
-x,-y,-z
x,-y,1/2+z
1/2+x,1/2+y,z
1/2-x,1/2+y,1/2-z
1/2-x,1/2-y,-z
1/2+x,1/2-y,1/2+z
loop_
_atom_site_type_symbol
_atom_site_label
_atom_site_fract_x
_atom_site_fract_y
_atom_site_fract_z
Si Si1 0.660270 0.691822 0.931892
Si Si2 0.473806 0.476448 0.821374
Si Si3 0.918300 0.261113 0.937024
Si Si4 0.110304 0.646377 0.193353
Si Si5 0.782853 0.037561 0.679530
Si Si6 0.795626 0.891237 0.941247
Si Si7 0.712250 0.115658 0.947645
Si Si8 0.797217 0.139516 0.805733
O O1 0.535268 0.702989 0.925824
O O2 0.732620 0.622332 0.872114
O O3 0.715323 0.803518 0.927431
O O4 0.653619 0.636619 0.999895
O O5 0.500000 0.421696 0.750000
O O6 0.587747 0.499774 0.840585
O O7 0.398840 0.401456 0.875824
O O8 0.407282 0.582713 0.817160
O O9 0.920026 0.326135 0.872907
O O10 0.824650 0.172049 0.954087
O O11 0.896691 0.340204 0.998172
O O12 0.200288 0.555422 0.177715
O O13 0.166328 0.744959 0.218350
O O14 0.000000 0.611478 0.250000
O O15 0.748500 0.084464 0.752453
O O16 0.721628 0.994414 0.959226
O O17 0.699218 0.137690 0.875052
#
# Coordination Sequence:
#
# PCOD8141644 Si02
#       8
#     8   8   8   8   8   8   8   8
#     4  11  23  38  55  81 116 154 187 230 284 332
#     4   9  19  37  60  85 108 142 188 232 277 331
#     4  10  21  37  61  85 112 146 188 235 279 332
#     4  11  22  37  57  84 115 147 185 231 279 331
#     4  11  22  37  60  85 111 148 191 228 274 332
#     4  10  22  38  56  81 116 148 185 231 283 338
#     4   9  19  37  58  87 113 141 188 233 274 335
#     4   9  19  37  59  84 113 141 181 230 279 332
#
# _framework density 19.591038999999999
#
# number of rings (size 3 to 8) (size 9 to 14) (size 15 to 20)
#    0.000    2.000    0.000    4.875    0.000   11.500 
#    0.000    4.375    0.000    0.000    0.000    0.000 
#    0.000    0.000    0.000    0.000    0.000    0.000 
#
# Total GULP energy -396875.785790 kJ/mol
# GULP energy per Si atom -12402.368306 kJ/mol
# Density = 1.954645 g / cm^3
# Si number density = 19.591039 Si / 1000 Ang^3
#
#
#
# Elastic Constant Matrix: (Units=GPa)
#
#
# Indices 1 2 3 4 5 6 
#
# 1 52.0570 39.0590 21.7700 0.0000 6.0339 0.0000
# 2 39.0590 124.3920 51.4737 0.0000 -1.0872 0.0000
# 3 21.7700 51.4737 116.3612 0.0000 -4.4703 0.0000
# 4 0.0000 0.0000 0.0000 34.6993 0.0000 -3.4980
# 5 6.0339 -1.0872 -4.4703 0.0000 24.6206 0.0000
# 6 0.0000 0.0000 0.0000 -3.4980 0.0000 20.9589
#
#
#
# Elastic Compliance Matrix: (Units=1/GPa)
#
#
# Indices 1 2 3 4 5 6 
#
# 1 0.026544 -0.007624 -0.001869 0.000000 -0.007181 0.000000
# 2 -0.007624 0.012033 -0.003831 0.000000 0.001704 0.000000
# 3 -0.001869 -0.003831 0.010724 0.000000 0.002236 0.000000
# 4 0.000000 0.000000 0.000000 0.029312 0.000000 0.004892
# 5 -0.007181 0.001704 0.002236 0.000000 0.042858 0.000000
# 6 0.000000 0.000000 0.000000 0.004892 0.000000 0.048529
#
#
# Mechanical properties :
#
#
# Convention : Reuss Voigt Hill
#
# Bulk Modulus (GPa) = 44.14521 57.49063 50.81792
# Shear Modulus (GPa) = 24.48566 28.08959 26.28762
#
# Velocity S-wave (km/s) = 3.53914 3.79066 3.66706
# Velocity P-wave (km/s) = 6.26761 6.96907 6.62763
#
# Compressibility (1/GPa) = 0.02265252
#
# Stress axis : x y z
#
# Youngs Moduli (GPa) = 37.67279 83.10252 93.24553
#
# Poissons Ratio (x) = 0.63358 0.17432
# Poissons Ratio (y) = 0.28722 0.35724
# Poissons Ratio (z) = 0.07043 0.31838
#
# Static dielectric constant tensor:
#      x y z
#    x 3.241570 0.000000 -0.021020 
#    y 0.000000 3.547200 0.000000 
#    z -0.021020 0.000000 4.020080 
# 
# 
# High freq. dielectric constant tensor:
#      x y z
#    x 1.735270 0.000000 0.001110 
#    y 0.000000 1.763450 0.000000 
#    z 0.001110 0.000000 1.786150 
# 
# From -- ./inp_files/269251.got.cif
#   From: 2010.06.25/outbox.cif.g09.slc.cpg/sg15_135_cif.got.tgz:269251.got - 2010.06.28 07:06:18.
