data_PCOD8141905
_publ_section_title
;
Structure prediction by ZEFSAII (Michael W. Deem and Ramdas Pophale) SiO2 
 PCOD8141905
Probable space group: C 2/C
;
_chemical_formula_sum "Si O2"
_cell_formula_units_Z 60
_cell_length_a 25.963094
_cell_length_b 17.239044
_cell_length_c 8.791252
_cell_angle_alpha 90.000000
_cell_angle_beta 54.947717
_cell_angle_gamma 90.000000
_cell_volume 3221.121539
_symmetry_space_group_name_H-M "C 2/C"
_symmetry_group_IT_number 15
_symmetry_cell_setting 'monoclinic'
loop_
_space_group_symop_operation_xyz
x,y,z
-x,y,1/2-z
-x,-y,-z
x,-y,1/2+z
1/2+x,1/2+y,z
1/2-x,1/2+y,1/2-z
1/2-x,1/2-y,-z
1/2+x,1/2-y,1/2+z
loop_
_atom_site_type_symbol
_atom_site_label
_atom_site_fract_x
_atom_site_fract_y
_atom_site_fract_z
Si Si1 0.369561 0.772253 0.446862
Si Si2 0.271477 0.455778 0.502361
Si Si3 0.010132 0.910610 0.006572
Si Si4 0.734392 0.696034 0.669976
Si Si5 0.500000 0.296406 0.750000
Si Si6 0.675673 0.275590 0.793597
Si Si7 0.894347 0.893287 0.405406
Si Si8 0.777847 0.401502 0.602374
O O1 0.328535 0.724386 0.638161
O O2 0.441357 0.761005 0.381623
O O3 0.367955 0.740608 0.276283
O O4 0.347972 0.863278 0.474133
O O5 0.272703 0.392535 0.366477
O O6 0.344700 0.460413 0.435901
O O7 0.227980 0.432328 0.716736
O O8 0.240377 0.533381 0.489450
O O9 0.019964 0.855934 0.847293
O O10 0.075262 0.915537 0.986440
O O11 0.949311 0.875934 0.193700
O O12 0.000000 0.000000 0.000000
O O13 0.750000 0.750000 0.500000
O O14 0.791964 0.698201 0.693513
O O15 0.731367 0.331395 0.643298
O O16 0.641467 0.313050 0.998975
#
# Coordination Sequence:
#
# PCOD8141905 Si02
#       8
#     8   8   8   8   4   8   8   8
#     4  11  23  41  60  89 124 157 215 250 296 379
#     4  11  23  36  60  91 117 160 194 252 326 355
#     4  11  24  38  53  85 125 168 201 243 285 368
#     4  11  19  38  61  90 118 157 191 258 310 365
#     4  12  24  38  68  86 116 182 202 250 310 344
#     4  10  21  38  58  85 121 155 197 250 303 355
#     4  10  21  39  53  80 127 156 205 237 282 373
#     4  10  23  37  58  90 121 152 201 254 308 372
#
# _framework density 18.627051999999999
#
# number of rings (size 3 to 8) (size 9 to 14) (size 15 to 20)
#    0.000    1.333    5.333    3.200    7.467    1.067 
#    2.400    0.000    0.000    0.800    0.000    0.000 
#    0.000    0.000    0.000    0.000    0.000    0.000 
#
# Total GULP energy -371682.496887 kJ/mol
# GULP energy per Si atom -12389.416563 kJ/mol
# Density = 1.858466 g / cm^3
# Si number density = 18.627052 Si / 1000 Ang^3
#
#
#
# Elastic Constant Matrix: (Units=GPa)
#
#
# Indices 1 2 3 4 5 6 
#
# 1 121.6255 62.1887 38.6568 0.0000 -5.0687 0.0000
# 2 62.1887 92.2141 27.0401 0.0000 -0.8958 0.0000
# 3 38.6568 27.0401 76.1588 0.0000 -1.1932 0.0000
# 4 0.0000 0.0000 0.0000 17.3543 0.0000 2.9259
# 5 -5.0687 -0.8958 -1.1932 0.0000 30.9235 0.0000
# 6 0.0000 0.0000 0.0000 2.9259 0.0000 34.5793
#
#
#
# Elastic Compliance Matrix: (Units=1/GPa)
#
#
# Indices 1 2 3 4 5 6 
#
# 1 0.013697 -0.008025 -0.004074 0.000000 0.001855 0.000000
# 2 -0.008025 0.016807 -0.001908 0.000000 -0.000902 0.000000
# 3 -0.004074 -0.001908 0.015874 0.000000 -0.000111 0.000000
# 4 0.000000 0.000000 0.000000 0.058456 0.000000 -0.004946
# 5 0.001855 -0.000902 -0.000111 0.000000 0.032612 0.000000
# 6 0.000000 0.000000 0.000000 -0.004946 0.000000 0.029338
#
#
# Mechanical properties :
#
#
# Convention : Reuss Voigt Hill
#
# Bulk Modulus (GPa) = 54.45398 60.64107 57.54752
# Shear Modulus (GPa) = 24.88553 27.37895 26.13224
#
# Velocity S-wave (km/s) = 3.65908 3.83802 3.74962
# Velocity P-wave (km/s) = 6.86652 7.22956 7.05038
#
# Compressibility (1/GPa) = 0.01836413
#
# Stress axis : x y z
#
# Youngs Moduli (GPa) = 73.00672 59.49932 62.99500
#
# Poissons Ratio (x) = 0.47746 0.25666
# Poissons Ratio (y) = 0.58586 0.12021
# Poissons Ratio (z) = 0.29745 0.11354
#
# Static dielectric constant tensor:
#      x y z
#    x 0.000000 0.000000 0.000000 
#    y 0.000000 0.000000 0.000000 
#    z 0.000000 0.000000 0.000000 
# 
# 
# High freq. dielectric constant tensor:
#      x y z
#    x 1.727130 0.000000 0.017470 
#    y 0.000000 1.698910 0.000000 
#    z 0.017470 0.000000 1.728760 
# 
# From -- ./inp_files/62723.got.cif
#   From: 2010.06.25/outbox.cif.g09.slc.cpg/sg15_32_cif.got.tgz:62723.got - 2010.06.28 07:06:18.
