data_PCOD8141444
_publ_section_title
;
Structure prediction by ZEFSAII (Michael W. Deem and Ramdas Pophale) SiO2 
 PCOD8141444
Probable space group: C 2/C
;
_chemical_formula_sum "Si O2"
_cell_formula_units_Z 64
_cell_length_a 17.924194
_cell_length_b 13.955412
_cell_length_c 14.614500
_cell_angle_alpha 90.000000
_cell_angle_beta 50.948184
_cell_angle_gamma 90.000000
_cell_volume 2838.902718
_symmetry_space_group_name_H-M "C 2/C"
_symmetry_group_IT_number 15
_symmetry_cell_setting 'monoclinic'
loop_
_space_group_symop_operation_xyz
x,y,z
-x,y,1/2-z
-x,-y,-z
x,-y,1/2+z
1/2+x,1/2+y,z
1/2-x,1/2+y,1/2-z
1/2-x,1/2-y,-z
1/2+x,1/2-y,1/2+z
loop_
_atom_site_type_symbol
_atom_site_label
_atom_site_fract_x
_atom_site_fract_y
_atom_site_fract_z
Si Si1 0.610701 0.022718 0.929890
Si Si2 0.909688 0.970608 0.379860
Si Si3 0.100938 0.166854 0.012727
Si Si4 0.111502 0.678636 0.653640
Si Si5 0.197948 0.523318 0.051687
Si Si6 0.270275 0.884842 0.777739
Si Si7 0.219693 0.689037 0.739814
Si Si8 0.561727 0.404897 0.958438
O O1 0.652812 0.111961 0.841695
O O2 0.662239 0.925905 0.854432
O O3 0.622908 0.046461 0.028697
O O4 0.500000 0.000000 0.000000
O O5 0.923348 0.079043 0.402618
O O6 0.000000 0.943157 0.250000
O O7 0.802266 0.964866 0.421606
O O8 0.914086 0.888261 0.453998
O O9 0.186822 0.138969 0.877597
O O10 0.000818 0.183541 0.033618
O O11 0.128018 0.260229 0.049498
O O12 0.178243 0.585137 0.597645
O O13 0.151816 0.734522 0.711954
O O14 0.000000 0.651577 0.750000
O O15 0.191317 0.587766 0.149518
O O16 0.260698 0.769438 0.777207
O O17 0.164409 0.923276 0.832288
O O18 0.500000 0.500000 0.000000
#
# Coordination Sequence:
#
# PCOD8141444 Si02
#       8
#     8   8   8   8   8   8   8   8
#     4  12  27  47  75 105 143 201 245 297 371 437
#     4  10  21  36  64  99 133 180 225 289 373 439
#     4  11  22  38  62 104 137 176 232 301 362 428
#     4  12  23  41  68 104 139 185 243 312 366 435
#     4  11  25  44  70  98 143 184 243 294 370 436
#     4  11  25  46  68 101 142 187 235 303 358 432
#     4  12  25  44  70 101 149 186 243 300 365 434
#     4   9  20  39  62  92 137 172 221 285 360 428
#
# _framework density 22.543921999999998
#
# number of rings (size 3 to 8) (size 9 to 14) (size 15 to 20)
#    0.000    1.000    2.500    4.500    7.000    1.500 
#    0.000    0.000    0.000    1.500    0.000    0.000 
#    0.000    0.000    0.000    0.000    0.000    0.000 
#
# Total GULP energy -396438.744852 kJ/mol
# GULP energy per Si atom -12388.710777 kJ/mol
# Density = 2.249261 g / cm^3
# Si number density = 22.543922 Si / 1000 Ang^3
#
#
#
# Elastic Constant Matrix: (Units=GPa)
#
#
# Indices 1 2 3 4 5 6 
#
# 1 173.0247 38.9409 55.4929 0.0000 0.6796 0.0000
# 2 38.9409 86.1262 31.7810 0.0000 10.9253 0.0000
# 3 55.4929 31.7810 106.0154 0.0000 -7.2242 0.0000
# 4 0.0000 0.0000 0.0000 23.3429 0.0000 7.3441
# 5 0.6796 10.9253 -7.2242 0.0000 37.4477 0.0000
# 6 0.0000 0.0000 0.0000 7.3441 0.0000 35.6892
#
#
#
# Elastic Compliance Matrix: (Units=1/GPa)
#
#
# Indices 1 2 3 4 5 6 
#
# 1 0.007274 -0.002095 -0.003189 0.000000 -0.000136 0.000000
# 2 -0.002095 0.014500 -0.003583 0.000000 -0.004883 0.000000
# 3 -0.003189 -0.003583 0.012414 0.000000 0.003498 0.000000
# 4 0.000000 0.000000 0.000000 0.045805 0.000000 -0.009426
# 5 -0.000136 -0.004883 0.003498 0.000000 0.028806 0.000000
# 6 0.000000 0.000000 0.000000 -0.009426 0.000000 0.029959
#
#
# Mechanical properties :
#
#
# Convention : Reuss Voigt Hill
#
# Bulk Modulus (GPa) = 60.77295 68.62178 64.69736
# Shear Modulus (GPa) = 30.86863 35.22607 33.04735
#
# Velocity S-wave (km/s) = 3.70437 3.95720 3.83287
# Velocity P-wave (km/s) = 6.73146 7.16830 6.95331
#
# Compressibility (1/GPa) = 0.01645469
#
# Stress axis : x y z
#
# Youngs Moduli (GPa) = 137.47003 68.96721 80.55287
#
# Poissons Ratio (x) = 0.14449 0.25688
# Poissons Ratio (y) = 0.28800 0.28861
# Poissons Ratio (z) = 0.43838 0.24710
#
# Static dielectric constant tensor:
#      x y z
#    x 4.972000 0.000000 -0.030510 
#    y 0.000000 3.810700 0.000000 
#    z -0.030510 0.000000 4.292050 
# 
# 
# High freq. dielectric constant tensor:
#      x y z
#    x 1.907910 0.000000 -0.011390 
#    y 0.000000 1.855560 0.000000 
#    z -0.011390 0.000000 1.896290 
# 
# From -- ./inp_files/162552.got.cif
#   From: 2010.06.25/outbox.cif.g09.slc.cpg/sg15_82_cif.got.tgz:162552.got - 2010.06.28 07:06:18.
