data_PCOD8141917
_publ_section_title
;
Structure prediction by ZEFSAII (Michael W. Deem and Ramdas Pophale) SiO2 
 PCOD8141917
Probable space group: C 2/C
;
_chemical_formula_sum "Si O2"
_cell_formula_units_Z 60
_cell_length_a 5.207577
_cell_length_b 18.577028
_cell_length_c 30.187453
_cell_angle_alpha 90.000000
_cell_angle_beta 111.393289
_cell_angle_gamma 90.000000
_cell_volume 2719.155579
_symmetry_space_group_name_H-M "C 2/C"
_symmetry_group_IT_number 15
_symmetry_cell_setting 'monoclinic'
loop_
_space_group_symop_operation_xyz
x,y,z
-x,y,1/2-z
-x,-y,-z
x,-y,1/2+z
1/2+x,1/2+y,z
1/2-x,1/2+y,1/2-z
1/2-x,1/2-y,-z
1/2+x,1/2-y,1/2+z
loop_
_atom_site_type_symbol
_atom_site_label
_atom_site_fract_x
_atom_site_fract_y
_atom_site_fract_z
Si Si1 0.400189 0.089240 0.105406
Si Si2 0.664508 0.206380 0.951281
Si Si3 0.971889 0.071769 0.333010
Si Si4 0.700679 0.696888 0.722213
Si Si5 0.430791 0.586265 0.644328
Si Si6 0.350054 0.233930 0.056061
Si Si7 0.500000 0.664120 0.250000
Si Si8 0.193117 0.432898 0.413115
O O1 0.248447 0.093475 0.143175
O O2 0.306052 0.151422 0.066164
O O3 0.725578 0.095030 0.132378
O O4 0.320585 0.016201 0.073983
O O5 0.338186 0.218175 0.922544
O O6 0.729479 0.120673 0.957758
O O7 0.832551 0.240508 0.920243
O O8 0.750000 0.250000 0.000000
O O9 0.893966 0.114018 0.283317
O O10 0.964101 0.985826 0.323269
O O11 0.500000 0.682030 0.750000
O O12 0.562140 0.659171 0.671550
O O13 0.748484 0.783270 0.717770
O O14 0.000000 0.660481 0.750000
O O15 0.542286 0.579234 0.601333
O O16 0.098874 0.589501 0.627719
O O17 0.250000 0.250000 0.000000
#
# Coordination Sequence:
#
# PCOD8141917 Si02
#       8
#     8   8   8   8   8   8   4   8
#     4  10  22  41  61  89 120 159 206 253 305 359
#     4  10  21  38  58  90 122 155 197 243 306 365
#     4  10  23  39  63  86 123 160 208 252 305 359
#     4  10  23  39  56  86 122 153 200 247 305 354
#     4  10  21  40  61  89 114 164 205 249 300 358
#     4  10  21  39  61  90 123 156 198 248 310 373
#     4  10  26  40  58  90 122 162 202 252 308 354
#     4  10  21  39  62  88 118 157 206 250 295 361
#
# _framework density 22.065671999999999
#
# number of rings (size 3 to 8) (size 9 to 14) (size 15 to 20)
#    0.400    1.600    0.000    2.400    2.800    3.200 
#    0.000    5.333    0.000    0.000    0.000    0.000 
#    0.000    0.000    0.000    0.000    0.000    0.000 
#
# Total GULP energy -371688.384842 kJ/mol
# GULP energy per Si atom -12389.612828 kJ/mol
# Density = 2.201545 g / cm^3
# Si number density = 22.065672 Si / 1000 Ang^3
#
#
#
# Elastic Constant Matrix: (Units=GPa)
#
#
# Indices 1 2 3 4 5 6 
#
# 1 152.6739 22.2200 -0.1169 0.0000 -13.5320 0.0000
# 2 22.2200 149.1919 47.7986 0.0000 -25.5209 0.0000
# 3 -0.1169 47.7986 42.3363 0.0000 -10.0657 0.0000
# 4 0.0000 0.0000 0.0000 42.1072 0.0000 6.9479
# 5 -13.5320 -25.5209 -10.0657 0.0000 16.1514 0.0000
# 6 0.0000 0.0000 0.0000 6.9479 0.0000 14.4180
#
#
#
# Elastic Compliance Matrix: (Units=1/GPa)
#
#
# Indices 1 2 3 4 5 6 
#
# 1 0.007224 -0.000752 0.002378 0.000000 0.006345 0.000000
# 2 -0.000752 0.012476 -0.011212 0.000000 0.012096 0.000000
# 3 0.002378 -0.011212 0.038209 0.000000 0.008088 0.000000
# 4 0.000000 0.000000 0.000000 0.025800 0.000000 -0.012433
# 5 0.006345 0.012096 0.008088 0.000000 0.091384 0.000000
# 6 0.000000 0.000000 0.000000 -0.012433 0.000000 0.075349
#
#
# Mechanical properties :
#
#
# Convention : Reuss Voigt Hill
#
# Bulk Modulus (GPa) = 25.81601 53.77839 39.79720
# Shear Modulus (GPa) = 17.69745 32.82199 25.25972
#
# Velocity S-wave (km/s) = 2.83510 3.86096 3.38709
# Velocity P-wave (km/s) = 4.73730 6.65589 5.77680
#
# Compressibility (1/GPa) = 0.03873565
#
# Stress axis : x y z
#
# Youngs Moduli (GPa) = 138.43451 80.15341 26.17215
#
# Poissons Ratio (x) = 0.06029 -0.06224
# Poissons Ratio (y) = 0.10414 0.29344
# Poissons Ratio (z) = -0.32919 0.89868
#
# Static dielectric constant tensor:
#      x y z
#    x 3.385130 0.000000 -0.416680 
#    y 0.000000 4.242490 0.000000 
#    z -0.416680 0.000000 3.447340 
# 
# 
# High freq. dielectric constant tensor:
#      x y z
#    x 1.902110 0.000000 -0.009080 
#    y 0.000000 1.882130 0.000000 
#    z -0.009080 0.000000 1.812920 
# 
# From -- ./inp_files/305812.got.cif
#   From: 2010.06.25/outbox.cif.g09.slc.cpg/sg15_153_cif.got.tgz:305812.got - 2010.06.28 07:06:18.
