data_PCOD8141932
_publ_section_title
;
Structure prediction by ZEFSAII (Michael W. Deem and Ramdas Pophale) SiO2 
 PCOD8141932
Probable space group: C 2/C
;
_chemical_formula_sum "Si O2"
_cell_formula_units_Z 48
_cell_length_a 8.772727
_cell_length_b 24.033607
_cell_length_c 10.935938
_cell_angle_alpha 90.000000
_cell_angle_beta 91.357976
_cell_angle_gamma 90.000000
_cell_volume 2305.088567
_symmetry_space_group_name_H-M "C 2/C"
_symmetry_group_IT_number 15
_symmetry_cell_setting 'monoclinic'
loop_
_space_group_symop_operation_xyz
x,y,z
-x,y,1/2-z
-x,-y,-z
x,-y,1/2+z
1/2+x,1/2+y,z
1/2-x,1/2+y,1/2-z
1/2-x,1/2-y,-z
1/2+x,1/2-y,1/2+z
loop_
_atom_site_type_symbol
_atom_site_label
_atom_site_fract_x
_atom_site_fract_y
_atom_site_fract_z
Si Si1 0.837745 0.428013 0.020815
Si Si2 0.607274 0.040398 0.364134
Si Si3 0.776763 0.771717 0.815280
Si Si4 0.173771 0.887702 0.781824
Si Si5 0.288284 0.815260 0.118778
Si Si6 0.000180 0.242392 0.532719
O O1 0.715371 0.413937 0.913162
O O2 0.007928 0.430707 0.968563
O O3 0.801362 0.487033 0.082751
O O4 0.824434 0.380901 0.125965
O O5 0.500000 0.021061 0.250000
O O6 0.729249 0.085553 0.325272
O O7 0.788650 0.821634 0.717294
O O8 0.825840 0.714689 0.748133
O O9 0.605085 0.766883 0.861598
O O10 0.895032 0.784246 0.925725
O O11 0.000000 0.900527 0.750000
O O12 0.109004 0.806140 0.085895
O O13 0.394117 0.792228 0.012057
#
# Coordination Sequence:
#
# PCOD8141932 Si02
#       6
#     8   8   8   8   8   8
#     4  10  21  38  59  83 111 147 194 241 286 341
#     4   9  21  40  60  82 110 150 196 237 285 345
#     4  11  22  37  56  84 118 153 188 229 288 348
#     4  11  21  37  60  83 113 151 192 238 289 346
#     4  11  20  35  59  84 113 148 188 237 283 335
#     4  10  22  36  53  83 118 151 189 228 283 348
#
# _framework density 20.823495999999999
#
# number of rings (size 3 to 8) (size 9 to 14) (size 15 to 20)
#    0.000    1.667    0.000    6.000    0.000    4.667 
#    0.000    6.667    0.000    0.000    0.000    0.000 
#    0.000    0.000    0.000    0.000    0.000    0.000 
#
# Total GULP energy -297665.076492 kJ/mol
# GULP energy per Si atom -12402.711521 kJ/mol
# Density = 2.077610 g / cm^3
# Si number density = 20.823496 Si / 1000 Ang^3
#
#
#
# Elastic Constant Matrix: (Units=GPa)
#
#
# Indices 1 2 3 4 5 6 
#
# 1 104.0451 34.5930 20.7681 0.0000 -1.0163 0.0000
# 2 34.5930 106.4435 28.1790 0.0000 7.3395 0.0000
# 3 20.7681 28.1790 62.1356 0.0000 5.7704 0.0000
# 4 0.0000 0.0000 0.0000 39.8120 0.0000 -4.1913
# 5 -1.0163 7.3395 5.7704 0.0000 25.8617 0.0000
# 6 0.0000 0.0000 0.0000 -4.1913 0.0000 25.8598
#
#
#
# Elastic Compliance Matrix: (Units=1/GPa)
#
#
# Indices 1 2 3 4 5 6 
#
# 1 0.011157 -0.003093 -0.002500 0.000000 0.001874 0.000000
# 2 -0.003093 0.011635 -0.004008 0.000000 -0.002529 0.000000
# 3 -0.002500 -0.004008 0.019045 0.000000 -0.003210 0.000000
# 4 0.000000 0.000000 0.000000 0.025554 0.000000 0.004142
# 5 0.001874 -0.002529 -0.003210 0.000000 0.040175 0.000000
# 6 0.000000 0.000000 0.000000 0.004142 0.000000 0.039341
#
#
# Mechanical properties :
#
#
# Convention : Reuss Voigt Hill
#
# Bulk Modulus (GPa) = 44.18007 48.85606 46.51807
# Shear Modulus (GPa) = 28.79253 30.91231 29.85242
#
# Velocity S-wave (km/s) = 3.72249 3.85709 3.79039
# Velocity P-wave (km/s) = 6.30384 6.58400 6.44545
#
# Compressibility (1/GPa) = 0.02263464
#
# Stress axis : x y z
#
# Youngs Moduli (GPa) = 89.62943 85.94492 52.50633
#
# Poissons Ratio (x) = 0.26585 0.13128
# Poissons Ratio (y) = 0.27724 0.21044
# Poissons Ratio (z) = 0.22411 0.34446
#
# Static dielectric constant tensor:
#      x y z
#    x 3.868670 0.000000 -0.112780 
#    y 0.000000 3.652480 0.000000 
#    z -0.112780 0.000000 3.765820 
# 
# 
# High freq. dielectric constant tensor:
#      x y z
#    x 1.821090 0.000000 -0.002320 
#    y 0.000000 1.798570 0.000000 
#    z -0.002320 0.000000 1.815400 
# 
# From -- ./inp_files/79271.got.cif
#   From: 2010.06.25/outbox.cif.g09.slc.cpg/sg15_40_cif.got.tgz:79271.got - 2010.06.28 07:06:18.
