data_PCOD8141966
_publ_section_title
;
Structure prediction by ZEFSAII (Michael W. Deem and Ramdas Pophale) SiO2 
 PCOD8141966
Probable space group: C 2/C
;
_chemical_formula_sum "Si O2"
_cell_formula_units_Z 56
_cell_length_a 15.182791
_cell_length_b 17.906423
_cell_length_c 19.644175
_cell_angle_alpha 90.000000
_cell_angle_beta 149.853278
_cell_angle_gamma 90.000000
_cell_volume 2682.161008
_symmetry_space_group_name_H-M "C 2/C"
_symmetry_group_IT_number 15
_symmetry_cell_setting 'monoclinic'
loop_
_space_group_symop_operation_xyz
x,y,z
-x,y,1/2-z
-x,-y,-z
x,-y,1/2+z
1/2+x,1/2+y,z
1/2-x,1/2+y,1/2-z
1/2-x,1/2-y,-z
1/2+x,1/2-y,1/2+z
loop_
_atom_site_type_symbol
_atom_site_label
_atom_site_fract_x
_atom_site_fract_y
_atom_site_fract_z
Si Si1 0.558848 0.888347 0.606738
Si Si2 0.000501 0.649800 0.922114
Si Si3 0.395448 0.420412 0.983857
Si Si4 0.077485 0.824264 0.630639
Si Si5 0.353105 0.822169 0.594917
Si Si6 0.263398 0.028790 0.722101
Si Si7 0.350298 0.319921 0.597245
O O1 0.454917 0.880758 0.466833
O O2 0.722459 0.831973 0.712262
O O3 0.438959 0.865127 0.589694
O O4 0.623880 0.973246 0.655923
O O5 0.961385 0.736884 0.896246
O O6 0.872295 0.605376 0.784675
O O7 0.201692 0.630344 0.035185
O O8 0.450069 0.363317 0.960101
O O9 0.291840 0.377942 0.972682
O O10 0.273872 0.487815 0.874762
O O11 0.576989 0.453710 0.134215
O O12 0.946611 0.862421 0.598796
O O13 0.500000 0.801372 0.750000
O O14 0.250000 0.750000 0.500000
O O15 0.500000 0.293641 0.750000
O O16 0.250000 0.250000 0.500000
#
# Coordination Sequence:
#
# PCOD8141966 Si02
#       7
#     8   8   8   8   8   8   8
#     4  11  23  43  63  94 138 172 227 279 343 409
#     4  11  23  38  68  95 132 170 227 273 348 399
#     4  10  23  46  66  94 139 174 233 271 348 410
#     4  10  21  38  66  92 127 170 214 282 328 401
#     4  12  25  43  71 104 140 177 232 292 343 410
#     4  10  23  43  67  92 130 186 217 278 339 417
#     4  10  21  38  59  96 129 160 213 272 330 392
#
# _framework density 20.878688
#
# number of rings (size 3 to 8) (size 9 to 14) (size 15 to 20)
#    0.000    1.429    4.286    1.286    4.000    1.143 
#   10.286    0.000    0.000    0.000    0.000    0.000 
#    0.000    0.000    0.000    0.000    0.000    0.000 
#
# Total GULP energy -347085.344216 kJ/mol
# GULP energy per Si atom -12395.905151 kJ/mol
# Density = 2.083117 g / cm^3
# Si number density = 20.878688 Si / 1000 Ang^3
#
#
#
# Elastic Constant Matrix: (Units=GPa)
#
#
# Indices 1 2 3 4 5 6 
#
# 1 161.8057 49.1138 42.9310 0.0281 19.3442 -0.0061
# 2 49.1138 101.4865 45.0232 -0.0077 6.1185 -0.0059
# 3 42.9310 45.0232 92.7150 0.0594 10.2208 -0.0262
# 4 0.0281 -0.0077 0.0594 44.1940 0.0162 3.3268
# 5 19.3442 6.1185 10.2208 0.0162 25.8213 0.0002
# 6 -0.0061 -0.0059 -0.0262 3.3268 0.0002 27.9183
#
#
#
# Elastic Compliance Matrix: (Units=1/GPa)
#
#
# Indices 1 2 3 4 5 6 
#
# 1 0.008083 -0.002802 -0.001869 -0.000001 -0.004651 0.000000
# 2 -0.002802 0.013539 -0.005390 0.000011 0.001025 -0.000004
# 3 -0.001869 -0.005390 0.014611 -0.000019 -0.003106 0.000014
# 4 -0.000001 0.000011 -0.000019 0.022832 -0.000008 -0.002721
# 5 -0.004651 0.001025 -0.003106 -0.000008 0.043199 -0.000003
# 6 0.000000 -0.000004 0.000014 -0.002721 -0.000003 0.036143
#
#
# Mechanical properties :
#
#
# Convention : Reuss Voigt Hill
#
# Bulk Modulus (GPa) = 62.07227 70.01590 66.04408
# Shear Modulus (GPa) = 30.50636 34.18268 32.34452
#
# Velocity S-wave (km/s) = 3.82661 4.05063 3.94021
# Velocity P-wave (km/s) = 7.02271 7.44877 7.23888
#
# Compressibility (1/GPa) = 0.01611025
#
# Stress axis : x y z
#
# Youngs Moduli (GPa) = 123.71985 73.86050 68.44042
#
# Poissons Ratio (x) = 0.20695 0.12793
# Poissons Ratio (y) = 0.34665 0.36891
# Poissons Ratio (z) = 0.23127 0.39813
#
# Static dielectric constant tensor:
#      x y z
#    x 4.213730 -0.000020 0.327420 
#    y -0.000020 3.699350 -0.000100 
#    z 0.327420 -0.000100 4.013220 
# 
# 
# High freq. dielectric constant tensor:
#      x y z
#    x 1.817260 0.000000 0.010720 
#    y 0.000000 1.808860 0.000000 
#    z 0.010720 0.000000 1.826140 
# 
# From -- ./inp_files/245182.got.cif
#   From: 2010.06.25/outbox.cif.g09.slc.cpg/sg15_123_cif.got.tgz:245182.got - 2010.06.28 07:06:18.
