data_PCOD8141622
_publ_section_title
;
Structure prediction by ZEFSAII (Michael W. Deem and Ramdas Pophale) SiO2 
 PCOD8141622
Probable space group: C 2/C
;
_chemical_formula_sum "Si O2"
_cell_formula_units_Z 64
_cell_length_a 6.390906
_cell_length_b 27.002649
_cell_length_c 18.027236
_cell_angle_alpha 90.000000
_cell_angle_beta 104.398476
_cell_angle_gamma 90.000000
_cell_volume 3013.268458
_symmetry_space_group_name_H-M "C 2/C"
_symmetry_group_IT_number 15
_symmetry_cell_setting 'monoclinic'
loop_
_space_group_symop_operation_xyz
x,y,z
-x,y,1/2-z
-x,-y,-z
x,-y,1/2+z
1/2+x,1/2+y,z
1/2-x,1/2+y,1/2-z
1/2-x,1/2-y,-z
1/2+x,1/2-y,1/2+z
loop_
_atom_site_type_symbol
_atom_site_label
_atom_site_fract_x
_atom_site_fract_y
_atom_site_fract_z
Si Si1 0.055530 0.945516 0.591914
Si Si2 0.842815 0.876434 0.668136
Si Si3 0.496810 0.293174 0.920396
Si Si4 0.004215 0.865912 0.163313
Si Si5 0.876478 0.637690 0.108335
Si Si6 0.803180 0.053137 0.919622
Si Si7 0.251397 0.702426 0.913826
Si Si8 0.042856 0.382756 0.054303
O O1 0.224458 0.903382 0.631264
O O2 0.867825 0.932912 0.636740
O O3 0.974811 0.938554 0.500822
O O4 0.171104 0.998162 0.611186
O O5 0.878346 0.839837 0.601812
O O6 0.599702 0.864195 0.673773
O O7 0.000000 0.864552 0.750000
O O8 0.239870 0.307724 0.897843
O O9 0.570802 0.244634 0.879485
O O10 0.568192 0.280183 0.010766
O O11 0.141628 0.911459 0.143882
O O12 0.118209 0.814388 0.148136
O O13 0.000000 0.868022 0.250000
O O14 0.760001 0.869951 0.115479
O O15 0.917715 0.619017 0.028958
O O16 0.559674 0.063881 0.929046
O O17 0.139746 0.655645 0.940291
#
# Coordination Sequence:
#
# PCOD8141622 Si02
#       8
#     8   8   8   8   8   8   8   8
#     4  10  21  37  60  90 120 158 211 261 303 370
#     4  11  23  40  59  86 128 161 200 266 319 366
#     4  10  21  38  62  90 119 153 205 254 300 374
#     4  11  23  40  59  88 127 160 197 253 317 366
#     4  11  19  37  64  89 117 164 209 248 315 374
#     4  10  21  37  60  91 121 157 212 260 302 369
#     4  10  21  38  63  91 119 153 205 255 299 367
#     4  11  19  37  62  86 117 162 203 251 303 370
#
# _framework density 21.239393
#
# number of rings (size 3 to 8) (size 9 to 14) (size 15 to 20)
#    0.000    1.500    5.000    1.500    0.000    7.500 
#    2.250    1.250    0.000    0.000    0.000    0.000 
#    0.000    0.000    0.000    0.000    0.000    0.000 
#
# Total GULP energy -396537.346614 kJ/mol
# GULP energy per Si atom -12391.792082 kJ/mol
# Density = 2.119105 g / cm^3
# Si number density = 21.239393 Si / 1000 Ang^3
#
#
#
# Elastic Constant Matrix: (Units=GPa)
#
#
# Indices 1 2 3 4 5 6 
#
# 1 123.1050 54.2726 39.4729 0.0000 12.5975 0.0000
# 2 54.2726 120.3364 29.9695 0.0000 -1.9587 0.0000
# 3 39.4729 29.9695 85.6198 0.0000 4.3237 0.0000
# 4 0.0000 0.0000 0.0000 16.7024 0.0000 -1.0715
# 5 12.5975 -1.9587 4.3237 0.0000 35.3575 0.0000
# 6 0.0000 0.0000 0.0000 -1.0715 0.0000 44.2886
#
#
#
# Elastic Compliance Matrix: (Units=1/GPa)
#
#
# Indices 1 2 3 4 5 6 
#
# 1 0.011631 -0.004408 -0.003620 0.000000 -0.003946 0.000000
# 2 -0.004408 0.010803 -0.001870 0.000000 0.002398 0.000000
# 3 -0.003620 -0.001870 0.014030 0.000000 -0.000530 0.000000
# 4 0.000000 0.000000 0.000000 0.059965 0.000000 0.001451
# 5 -0.003946 0.002398 -0.000530 0.000000 0.029886 0.000000
# 6 0.000000 0.000000 0.000000 0.001451 0.000000 0.022614
#
#
# Mechanical properties :
#
#
# Convention : Reuss Voigt Hill
#
# Bulk Modulus (GPa) = 59.99854 64.05456 62.02655
# Shear Modulus (GPa) = 28.68924 32.95944 30.82434
#
# Velocity S-wave (km/s) = 3.67925 3.94357 3.81370
# Velocity P-wave (km/s) = 6.80876 7.13859 6.97563
#
# Compressibility (1/GPa) = 0.01666707
#
# Stress axis : x y z
#
# Youngs Moduli (GPa) = 85.97627 92.56666 71.27718
#
# Poissons Ratio (x) = 0.40807 0.25802
# Poissons Ratio (y) = 0.37902 0.13329
# Poissons Ratio (z) = 0.31123 0.17311
#
# Static dielectric constant tensor:
#      x y z
#    x 4.673490 0.000000 0.214400 
#    y 0.000000 4.006690 0.000000 
#    z 0.214400 0.000000 3.692140 
# 
# 
# High freq. dielectric constant tensor:
#      x y z
#    x 1.847680 0.000000 -0.004320 
#    y 0.000000 1.821730 0.000000 
#    z -0.004320 0.000000 1.805030 
# 
# From -- ./inp_files/228814.got.cif
#   From: 2010.06.25/outbox.cif.g09.slc.cpg/sg15_115_cif.got.tgz:228814.got - 2010.06.28 07:06:18.
