data_PCOD8141087
_publ_section_title
;
Structure prediction by ZEFSAII (Michael W. Deem and Ramdas Pophale) SiO2 
 PCOD8141087
Probable space group: C 2/C
;
_chemical_formula_sum "Si O2"
_cell_formula_units_Z 60
_cell_length_a 19.045868
_cell_length_b 34.630350
_cell_length_c 5.003396
_cell_angle_alpha 90.000000
_cell_angle_beta 114.255274
_cell_angle_gamma 90.000000
_cell_volume 3008.749468
_symmetry_space_group_name_H-M "C 2/C"
_symmetry_group_IT_number 15
_symmetry_cell_setting 'monoclinic'
loop_
_space_group_symop_operation_xyz
x,y,z
-x,y,1/2-z
-x,-y,-z
x,-y,1/2+z
1/2+x,1/2+y,z
1/2-x,1/2+y,1/2-z
1/2-x,1/2-y,-z
1/2+x,1/2-y,1/2+z
loop_
_atom_site_type_symbol
_atom_site_label
_atom_site_fract_x
_atom_site_fract_y
_atom_site_fract_z
Si Si1 0.683133 0.137866 0.821213
Si Si2 0.305986 0.910127 0.665699
Si Si3 0.552186 0.199194 0.574227
Si Si4 0.129232 0.908613 0.363324
Si Si5 0.451030 0.716164 0.423999
Si Si6 0.912574 0.524295 0.102242
Si Si7 0.500000 0.471865 0.250000
Si Si8 0.858412 0.857136 0.639022
O O1 0.684587 0.126066 0.515101
O O2 0.625283 0.172990 0.755005
O O3 0.662083 0.102567 0.992351
O O4 0.768396 0.150796 0.037145
O O5 0.216946 0.923664 0.535504
O O6 0.355131 0.943564 0.611534
O O7 0.500000 0.198291 0.750000
O O8 0.584776 0.242172 0.545785
O O9 0.500000 0.182826 0.250000
O O10 0.074883 0.945659 0.310520
O O11 0.105339 0.880025 0.559689
O O12 0.118743 0.883308 0.079158
O O13 0.500000 0.728822 0.250000
O O14 0.392805 0.685506 0.206000
O O15 0.500000 0.698928 0.750000
O O16 0.897711 0.487532 0.272359
O O17 0.000000 0.539777 0.250000
O O18 0.500000 0.500000 0.500000
#
# Coordination Sequence:
#
# PCOD8141087 Si02
#       8
#     8   8   8   8   8   8   4   8
#     4  10  21  37  57  82 116 151 193 236 281 347
#     4  10  21  38  58  84 112 149 195 231 287 350
#     4  10  21  37  55  83 120 154 192 240 287 338
#     4  10  23  39  59  85 115 148 189 243 283 341
#     4  10  21  35  56  86 115 149 197 237 285 351
#     4  10  21  36  55  81 110 140 181 233 279 329
#     4  12  26  42  60  88 120 154 194 236 296 362
#     4  10  21  38  59  86 113 149 195 239 288 335
#
# _framework density 19.941838000000001
#
# number of rings (size 3 to 8) (size 9 to 14) (size 15 to 20)
#    0.000    1.867    0.000    3.200    2.800    3.200 
#    0.000    0.000    0.000    9.600    0.000    0.000 
#    0.000    0.000    0.000    0.000    0.000    0.000 
#
# Total GULP energy -371762.182341 kJ/mol
# GULP energy per Si atom -12392.072745 kJ/mol
# Density = 1.989645 g / cm^3
# Si number density = 19.941838 Si / 1000 Ang^3
#
#
#
# Elastic Constant Matrix: (Units=GPa)
#
#
# Indices 1 2 3 4 5 6 
#
# 1 121.4246 61.1923 7.7211 0.0000 -2.0797 0.0000
# 2 61.1923 115.4132 48.5573 0.0000 20.3497 0.0000
# 3 7.7211 48.5573 153.0402 0.0000 -12.8157 0.0000
# 4 0.0000 0.0000 0.0000 4.8200 0.0000 -23.3234
# 5 -2.0797 20.3497 -12.8157 0.0000 32.0486 0.0000
# 6 0.0000 0.0000 0.0000 -23.3234 0.0000 22.2420
#
#
#
# Elastic Compliance Matrix: (Units=1/GPa)
#
#
# Indices 1 2 3 4 5 6 
#
# 1 0.013058 -0.009680 0.003102 0.000000 0.008235 0.000000
# 2 -0.009680 0.019559 -0.007046 0.000000 -0.015865 0.000000
# 3 0.003102 -0.007046 0.009317 0.000000 0.008401 0.000000
# 4 0.000000 0.000000 0.000000 -0.050923 0.000000 -0.053399
# 5 0.008235 -0.015865 0.008401 0.000000 0.045170 0.000000
# 6 0.000000 0.000000 0.000000 -0.053399 0.000000 -0.011035
#
#
# Mechanical properties :
#
#
# Convention : Reuss Voigt Hill
#
# Bulk Modulus (GPa) = 68.09534 69.42440 68.75987
# Shear Modulus (GPa) = 87.27934 29.98261 58.63097
#
# Velocity S-wave (km/s) = 6.62284 3.88171 5.42815
# Velocity P-wave (km/s) = 9.62828 7.41480 8.59311
#
# Compressibility (1/GPa) = 0.01468529
#
# Stress axis : x y z
#
# Youngs Moduli (GPa) = 76.58275 51.12819 107.33374
#
# Poissons Ratio (x) = 0.49494 -0.33297
# Poissons Ratio (y) = 0.74135 0.75625
# Poissons Ratio (z) = -0.23758 0.36024
#
# Static dielectric constant tensor:
#      x y z
#    x 3.628950 0.000000 -0.246520 
#    y 0.000000 3.313050 0.000000 
#    z -0.246520 0.000000 3.867110 
# 
# 
# High freq. dielectric constant tensor:
#      x y z
#    x 1.780170 0.000000 -0.016900 
#    y 0.000000 1.773950 0.000000 
#    z -0.016900 0.000000 1.792190 
# 
# From -- ./inp_files/14410.got.cif
#   From: 2010.06.25/outbox.cif.g09.slc.cpg/sg15_8_cif.got.tgz:14410.got - 2010.06.28 07:06:18.
