data_PCOD8141264
_publ_section_title
;
Structure prediction by ZEFSAII (Michael W. Deem and Ramdas Pophale) SiO2 
 PCOD8141264
Probable space group: C 2/C
;
_chemical_formula_sum "Si O2"
_cell_formula_units_Z 48
_cell_length_a 11.437968
_cell_length_b 23.967097
_cell_length_c 8.381168
_cell_angle_alpha 90.000000
_cell_angle_beta 96.858122
_cell_angle_gamma 90.000000
_cell_volume 2281.131176
_symmetry_space_group_name_H-M "C 2/C"
_symmetry_group_IT_number 15
_symmetry_cell_setting 'monoclinic'
loop_
_space_group_symop_operation_xyz
x,y,z
-x,y,1/2-z
-x,-y,-z
x,-y,1/2+z
1/2+x,1/2+y,z
1/2-x,1/2+y,1/2-z
1/2-x,1/2-y,-z
1/2+x,1/2-y,1/2+z
loop_
_atom_site_type_symbol
_atom_site_label
_atom_site_fract_x
_atom_site_fract_y
_atom_site_fract_z
Si Si1 0.278818 0.848792 0.290764
Si Si2 0.411086 0.067002 0.993100
Si Si3 0.326955 0.628513 0.050776
Si Si4 0.841853 0.455978 0.841784
Si Si5 0.055123 0.839904 0.419079
Si Si6 0.126144 0.769089 0.711861
O O1 0.390581 0.873988 0.401862
O O2 0.167752 0.874187 0.373400
O O3 0.283067 0.781594 0.287713
O O4 0.267522 0.865305 0.105037
O O5 0.552145 0.063084 0.023465
O O6 0.361369 0.061534 0.163004
O O7 0.343724 0.022715 0.865851
O O8 0.283637 0.572257 0.132505
O O9 0.321676 0.682040 0.166602
O O10 0.460982 0.622667 0.004273
O O11 0.106961 0.790501 0.531231
O O12 0.000000 0.812824 0.250000
O O13 0.000000 0.746703 0.750000
#
# Coordination Sequence:
#
# PCOD8141264 Si02
#       6
#     8   8   8   8   8   8
#     4  11  21  36  58  85 119 156 198 244 295 350
#     4  10  22  38  60  89 117 153 196 245 298 348
#     4  10  21  37  60  82 117 158 196 243 295 349
#     4  10  21  40  60  86 119 153 196 246 296 353
#     4   9  20  38  55  81 116 157 193 243 290 348
#     4  10  21  36  56  87 119 157 200 244 297 352
#
# _framework density 21.042192
#
# number of rings (size 3 to 8) (size 9 to 14) (size 15 to 20)
#    0.000    2.000    0.000    3.000    2.333    1.333 
#    3.000    0.833    0.000    7.000    0.000    0.000 
#    0.000    0.000    0.000    0.000    0.000    0.000 
#
# Total GULP energy -297328.492444 kJ/mol
# GULP energy per Si atom -12388.687185 kJ/mol
# Density = 2.099430 g / cm^3
# Si number density = 21.042192 Si / 1000 Ang^3
#
#
#
# Elastic Constant Matrix: (Units=GPa)
#
#
# Indices 1 2 3 4 5 6 
#
# 1 72.8550 28.0506 18.9415 0.0000 -10.6140 0.0000
# 2 28.0506 75.3007 25.9868 0.0000 -0.9086 0.0000
# 3 18.9415 25.9868 99.4045 0.0000 3.0453 0.0000
# 4 0.0000 0.0000 0.0000 28.3301 0.0000 2.8914
# 5 -10.6140 -0.9086 3.0453 0.0000 28.7672 0.0000
# 6 0.0000 0.0000 0.0000 2.8914 0.0000 29.7273
#
#
#
# Elastic Compliance Matrix: (Units=1/GPa)
#
#
# Indices 1 2 3 4 5 6 
#
# 1 0.017386 -0.005702 -0.002020 0.000000 0.006448 0.000000
# 2 -0.005702 0.016488 -0.003186 0.000000 -0.001246 0.000000
# 3 -0.002020 -0.003186 0.011340 0.000000 -0.002046 0.000000
# 4 0.000000 0.000000 0.000000 0.035652 0.000000 -0.003468
# 5 0.006448 -0.001246 -0.002046 0.000000 0.037318 0.000000
# 6 0.000000 0.000000 0.000000 -0.003468 0.000000 0.033976
#
#
# Mechanical properties :
#
#
# Convention : Reuss Voigt Hill
#
# Bulk Modulus (GPa) = 42.73526 43.72422 43.22974
# Shear Modulus (GPa) = 27.50641 29.00368 28.25505
#
# Velocity S-wave (km/s) = 3.61945 3.71665 3.66837
# Velocity P-wave (km/s) = 6.14985 6.26438 6.20738
#
# Compressibility (1/GPa) = 0.02339988
#
# Stress axis : x y z
#
# Youngs Moduli (GPa) = 57.51857 60.64858 88.18069
#
# Poissons Ratio (x) = 0.34579 0.17811
# Poissons Ratio (y) = 0.32794 0.28093
# Poissons Ratio (z) = 0.11618 0.19322
#
# Static dielectric constant tensor:
#      x y z
#    x 3.942830 0.000000 -0.071810 
#    y 0.000000 3.413960 0.000000 
#    z -0.071810 0.000000 4.016850 
# 
# 
# High freq. dielectric constant tensor:
#      x y z
#    x 1.822930 0.000000 -0.005850 
#    y 0.000000 1.788330 0.000000 
#    z -0.005850 0.000000 1.849880 
# 
# From -- ./inp_files/32113.got.cif
#   From: 2010.06.25/outbox.cif.g09.slc.cpg/sg15_17_cif.got.tgz:32113.got - 2010.06.28 07:06:18.
