data_PCOD8141650
_publ_section_title
;
Structure prediction by ZEFSAII (Michael W. Deem and Ramdas Pophale) SiO2 
 PCOD8141650
Probable space group: C 2/C
;
_chemical_formula_sum "Si O2"
_cell_formula_units_Z 40
_cell_length_a 9.158487
_cell_length_b 21.246365
_cell_length_c 18.608174
_cell_angle_alpha 90.000000
_cell_angle_beta 32.187160
_cell_angle_gamma 90.000000
_cell_volume 1928.785474
_symmetry_space_group_name_H-M "C 2/C"
_symmetry_group_IT_number 15
_symmetry_cell_setting 'monoclinic'
loop_
_space_group_symop_operation_xyz
x,y,z
-x,y,1/2-z
-x,-y,-z
x,-y,1/2+z
1/2+x,1/2+y,z
1/2-x,1/2+y,1/2-z
1/2-x,1/2-y,-z
1/2+x,1/2-y,1/2+z
loop_
_atom_site_type_symbol
_atom_site_label
_atom_site_fract_x
_atom_site_fract_y
_atom_site_fract_z
Si Si1 0.491915 0.163845 0.430831
Si Si2 0.156453 0.440391 0.611907
Si Si3 0.131999 0.681670 0.531726
Si Si4 0.932108 0.227594 0.700438
Si Si5 0.235158 0.418570 0.098794
O O1 0.487475 0.095468 0.394895
O O2 0.650979 0.162341 0.440109
O O3 0.652971 0.214047 0.314443
O O4 0.180870 0.187487 0.565665
O O5 0.477465 0.423475 0.479799
O O6 0.131098 0.515078 0.609695
O O7 0.000000 0.421104 0.750000
O O8 0.250000 0.750000 0.500000
O O9 0.291650 0.629288 0.510188
O O10 0.817538 0.679331 0.688023
O O11 0.000000 0.257108 0.750000
O O12 0.000000 0.392202 0.250000
#
# Coordination Sequence:
#
# PCOD8141650 Si02
#       5
#     8   8   8   8   8
#     4  10  21  37  61  86 115 159 197 251 294 358
#     4  10  22  41  66  88 118 162 206 242 301 367
#     4  11  25  36  56  91 122 156 198 251 302 351
#     4   9  20  37  57  85 118 158 196 235 305 360
#     4  10  23  42  63  89 121 161 200 252 302 357
#
# _framework density 20.738439
#
# number of rings (size 3 to 8) (size 9 to 14) (size 15 to 20)
#    0.000    2.000    0.000    1.800   14.000    0.800 
#    0.000    0.000    0.000    7.200    0.000    0.000 
#    0.000    0.000    0.000    0.000    0.000    0.000 
#
# Total GULP energy -248016.084679 kJ/mol
# GULP energy per Si atom -12400.804234 kJ/mol
# Density = 2.069124 g / cm^3
# Si number density = 20.738439 Si / 1000 Ang^3
#
#
#
# Elastic Constant Matrix: (Units=GPa)
#
#
# Indices 1 2 3 4 5 6 
#
# 1 100.6025 59.0790 17.5020 -0.0120 30.4326 0.0302
# 2 59.0790 111.9574 13.4706 -0.0013 32.3193 0.0054
# 3 17.5020 13.4706 72.6372 0.0816 13.8552 -0.0392
# 4 -0.0120 -0.0013 0.0816 20.6768 -0.0095 10.8279
# 5 30.4326 32.3193 13.8552 -0.0095 32.8014 0.0048
# 6 0.0302 0.0054 -0.0392 10.8279 0.0048 35.9146
#
#
#
# Elastic Compliance Matrix: (Units=1/GPa)
#
#
# Indices 1 2 3 4 5 6 
#
# 1 0.016268 -0.005911 -0.001148 0.000019 -0.008785 -0.000019
# 2 -0.005911 0.014630 0.000451 -0.000013 -0.009122 0.000008
# 3 -0.001148 0.000451 0.015055 -0.000086 -0.005738 0.000044
# 4 0.000019 -0.000013 -0.000086 0.057431 0.000050 -0.017315
# 5 -0.008785 -0.009122 -0.005738 0.000050 0.050048 -0.000019
# 6 -0.000019 0.000008 0.000044 -0.017315 -0.000019 0.033064
#
#
# Mechanical properties :
#
#
# Convention : Reuss Voigt Hill
#
# Bulk Modulus (GPa) = 30.54610 51.70005 41.12307
# Shear Modulus (GPa) = 23.73896 30.88825 27.31361
#
# Velocity S-wave (km/s) = 3.38699 3.86349 3.63306
# Velocity P-wave (km/s) = 5.48241 6.69968 6.12138
#
# Compressibility (1/GPa) = 0.03273741
#
# Stress axis : x y z
#
# Youngs Moduli (GPa) = 61.46936 68.35337 66.42438
#
# Poissons Ratio (x) = 0.40401 0.07626
# Poissons Ratio (y) = 0.36332 -0.02995
# Poissons Ratio (z) = 0.07057 -0.03082
#
# Static dielectric constant tensor:
#      x y z
#    x 3.624220 0.000000 0.053290 
#    y 0.000000 3.646810 0.000010 
#    z 0.053290 0.000010 3.910680 
# 
# 
# High freq. dielectric constant tensor:
#      x y z
#    x 1.798770 0.000000 0.001840 
#    y 0.000000 1.802580 0.000000 
#    z 0.001840 0.000000 1.824970 
# 
# From -- ./inp_files/77623.got.cif
#   From: 2010.06.25/outbox.cif.g09.slc.cpg/sg15_39_cif.got.tgz:77623.got - 2010.06.28 07:06:18.
