data_PCOD8141009
_publ_section_title
;
Structure prediction by ZEFSAII (Michael W. Deem and Ramdas Pophale) SiO2 
 PCOD8141009
Probable space group: C 2/C
;
_chemical_formula_sum "Si O2"
_cell_formula_units_Z 44
_cell_length_a 22.609027
_cell_length_b 20.318601
_cell_length_c 14.431737
_cell_angle_alpha 90.000000
_cell_angle_beta 161.874771
_cell_angle_gamma 90.000000
_cell_volume 2062.468036
_symmetry_space_group_name_H-M "C 2/C"
_symmetry_group_IT_number 15
_symmetry_cell_setting 'monoclinic'
loop_
_space_group_symop_operation_xyz
x,y,z
-x,y,1/2-z
-x,-y,-z
x,-y,1/2+z
1/2+x,1/2+y,z
1/2-x,1/2+y,1/2-z
1/2-x,1/2-y,-z
1/2+x,1/2-y,1/2+z
loop_
_atom_site_type_symbol
_atom_site_label
_atom_site_fract_x
_atom_site_fract_y
_atom_site_fract_z
Si Si1 0.519079 0.682549 0.639913
Si Si2 0.976487 0.034682 0.868418
Si Si3 0.594753 0.900130 0.162177
Si Si4 0.455773 0.021391 0.292877
Si Si5 0.311719 0.786215 0.731618
Si Si6 0.000000 0.060064 0.250000
O O1 0.443412 0.608866 0.507724
O O2 0.602289 0.715768 0.670773
O O3 0.334890 0.723837 0.401247
O O4 0.689752 0.680303 0.968154
O O5 0.761790 0.038821 0.515495
O O6 0.084876 0.988479 0.956124
O O7 0.000000 0.000000 0.000000
O O8 0.500288 0.950933 0.094659
O O9 0.823223 0.894552 0.520282
O O10 0.491402 0.831133 0.026358
O O11 0.569101 0.922196 0.016765
O O12 0.500000 0.020740 0.250000
#
# Coordination Sequence:
#
# PCOD8141009 Si02
#       6
#     8   8   8   8   8   4
#     4  10  22  38  61  92 122 163 202 256 314 369
#     4  11  22  36  60  93 127 160 201 254 309 376
#     4  10  21  38  61  88 126 166 199 261 311 367
#     4  10  21  34  57  94 125 159 205 251 311 373
#     4  10  21  40  62  87 127 159 205 256 312 373
#     4  10  22  38  60  92 128 160 202 260 314 366
#
# _framework density 21.333665
#
# number of rings (size 3 to 8) (size 9 to 14) (size 15 to 20)
#    0.000    1.818    1.818    2.182    7.636    2.909 
#    0.000    0.000    0.000    9.818    2.364    0.000 
#    0.000    0.000    0.000    0.000    0.000    0.000 
#
# Total GULP energy -272729.706571 kJ/mol
# GULP energy per Si atom -12396.804844 kJ/mol
# Density = 2.128511 g / cm^3
# Si number density = 21.333665 Si / 1000 Ang^3
#
#
#
# Elastic Constant Matrix: (Units=GPa)
#
#
# Indices 1 2 3 4 5 6 
#
# 1 104.7811 21.3265 11.1439 0.0000 -1.8443 0.0000
# 2 21.3265 70.1852 29.4474 0.0000 10.7732 0.0000
# 3 11.1439 29.4474 69.3769 0.0000 18.5996 0.0000
# 4 0.0000 0.0000 0.0000 31.4228 0.0000 4.1788
# 5 -1.8443 10.7732 18.5996 0.0000 39.0791 0.0000
# 6 0.0000 0.0000 0.0000 4.1788 0.0000 24.9226
#
#
#
# Elastic Compliance Matrix: (Units=1/GPa)
#
#
# Indices 1 2 3 4 5 6 
#
# 1 0.010280 -0.003043 -0.000819 0.000000 0.001714 0.000000
# 2 -0.003043 0.018309 -0.006753 0.000000 -0.001977 0.000000
# 3 -0.000819 -0.006753 0.019398 0.000000 -0.007410 0.000000
# 4 0.000000 0.000000 0.000000 0.032550 0.000000 -0.005458
# 5 0.001714 -0.001977 -0.007410 0.000000 0.029742 0.000000
# 6 0.000000 0.000000 0.000000 -0.005458 0.000000 0.041039
#
#
# Mechanical properties :
#
#
# Convention : Reuss Voigt Hill
#
# Bulk Modulus (GPa) = 37.37180 40.90876 39.14028
# Shear Modulus (GPa) = 27.55303 31.24658 29.39980
#
# Velocity S-wave (km/s) = 3.59768 3.83124 3.71630
# Velocity P-wave (km/s) = 5.90030 6.22804 6.06639
#
# Compressibility (1/GPa) = 0.02675815
#
# Stress axis : x y z
#
# Youngs Moduli (GPa) = 97.27252 54.61679 51.55100
#
# Poissons Ratio (x) = 0.16621 0.04223
# Poissons Ratio (y) = 0.29602 0.34810
# Poissons Ratio (z) = 0.07968 0.36881
#
# Static dielectric constant tensor:
#      x y z
#    x 3.848040 0.000000 0.178120 
#    y 0.000000 3.576590 0.000000 
#    z 0.178120 0.000000 4.057720 
# 
# 
# High freq. dielectric constant tensor:
#      x y z
#    x 1.832890 0.000000 0.019030 
#    y 0.000000 1.810130 0.000000 
#    z 0.019030 0.000000 1.833140 
# 
# From -- ./inp_files/174295.got.cif
#   From: 2010.06.25/outbox.cif.g09.slc.cpg/sg15_88_cif.got.tgz:174295.got - 2010.06.28 07:06:18.
