data_PCOD8141205
_publ_section_title
;
Structure prediction by ZEFSAII (Michael W. Deem and Ramdas Pophale) SiO2 
 PCOD8141205
Probable space group: C 2/C
;
_chemical_formula_sum "Si O2"
_cell_formula_units_Z 48
_cell_length_a 24.245571
_cell_length_b 9.364021
_cell_length_c 18.934797
_cell_angle_alpha 90.000000
_cell_angle_beta 38.653851
_cell_angle_gamma 90.000000
_cell_volume 2685.140789
_symmetry_space_group_name_H-M "C 2/C"
_symmetry_group_IT_number 15
_symmetry_cell_setting 'monoclinic'
loop_
_space_group_symop_operation_xyz
x,y,z
-x,y,1/2-z
-x,-y,-z
x,-y,1/2+z
1/2+x,1/2+y,z
1/2-x,1/2+y,1/2-z
1/2-x,1/2-y,-z
1/2+x,1/2-y,1/2+z
loop_
_atom_site_type_symbol
_atom_site_label
_atom_site_fract_x
_atom_site_fract_y
_atom_site_fract_z
Si Si1 0.750004 0.658869 0.929461
Si Si2 0.650954 0.382924 0.401335
Si Si3 0.591913 0.688552 0.481289
Si Si4 0.249994 0.327113 0.573262
Si Si5 0.849061 0.617072 0.703237
Si Si6 0.408098 0.188559 0.165115
O O1 0.662689 0.689482 0.967954
O O2 0.750001 0.492201 0.947323
O O3 0.837322 0.689476 0.793330
O O4 0.750000 0.750000 0.000000
O O5 0.586708 0.519866 0.469308
O O6 0.750008 0.436128 0.278866
O O7 0.612079 0.267430 0.387938
O O8 0.664762 0.719827 0.467438
O O9 0.612059 0.767432 0.387911
O O10 0.500007 0.749989 0.603101
O O11 0.250000 0.250000 0.500000
O O12 0.164736 0.280179 0.703043
O O13 0.913306 0.480128 0.642723
#
# Coordination Sequence:
#
# PCOD8141205 Si02
#       6
#     8   8   8   8   8   8
#     4   8  17  32  54  78 104 142 179 218 264 332
#     4   9  18  34  55  79 113 139 183 224 277 322
#     4  11  20  35  56  82 109 142 184 232 273 327
#     4  10  21  36  52  78 110 146 181 222 278 326
#     4   9  18  34  55  79 113 139 183 224 277 322
#     4  11  20  35  56  82 109 142 184 232 273 327
#
# _framework density 17.876158
#
# number of rings (size 3 to 8) (size 9 to 14) (size 15 to 20)
#    1.000    1.333    3.333    1.000    0.000    3.333 
#    0.000    0.000    0.000    5.000    0.000    0.000 
#    0.000    0.000    0.000    0.000    0.000    0.000 
#
# Total GULP energy -297333.913633 kJ/mol
# GULP energy per Si atom -12388.913068 kJ/mol
# Density = 1.783547 g / cm^3
# Si number density = 17.876158 Si / 1000 Ang^3
#
#
#
# Elastic Constant Matrix: (Units=GPa)
#
#
# Indices 1 2 3 4 5 6 
#
# 1 111.5763 67.4006 82.4263 0.0004 25.1386 0.0001
# 2 67.4006 87.1383 55.1633 0.0088 17.5392 -0.0059
# 3 82.4263 55.1633 91.7967 0.0007 3.3065 -0.0008
# 4 0.0004 0.0088 0.0007 28.4608 -0.0009 10.1467
# 5 25.1386 17.5392 3.3065 -0.0009 37.0246 0.0004
# 6 0.0001 -0.0059 -0.0008 10.1467 0.0004 35.5570
#
#
#
# Elastic Compliance Matrix: (Units=1/GPa)
#
#
# Indices 1 2 3 4 5 6 
#
# 1 0.044026 -0.007913 -0.033944 0.000003 -0.023112 -0.000003
# 2 -0.007913 0.022504 -0.006247 -0.000009 -0.004730 0.000006
# 3 -0.033944 -0.006247 0.044333 0.000002 0.022047 -0.000001
# 4 0.000003 -0.000009 0.000002 0.039116 0.000003 -0.011162
# 5 -0.023112 -0.004730 0.022047 0.000003 0.042973 -0.000002
# 6 -0.000003 0.000006 -0.000001 -0.011162 -0.000002 0.031309
#
#
# Mechanical properties :
#
#
# Convention : Reuss Voigt Hill
#
# Bulk Modulus (GPa) = 68.24425 77.83242 73.03833
# Shear Modulus (GPa) = 15.36786 25.90987 20.63886
#
# Velocity S-wave (km/s) = 2.93522 3.81124 3.40155
# Velocity P-wave (km/s) = 7.05311 7.93736 7.50826
#
# Compressibility (1/GPa) = 0.01465325
#
# Stress axis : x y z
#
# Youngs Moduli (GPa) = 22.71389 44.43729 22.55655
#
# Poissons Ratio (x) = 0.35163 0.76566
# Poissons Ratio (y) = 0.17974 0.14092
# Poissons Ratio (z) = 0.77100 0.27762
#
# Static dielectric constant tensor:
#      x y z
#    x 3.262830 0.000000 -0.038310 
#    y 0.000000 3.159890 0.000000 
#    z -0.038310 0.000000 3.289770 
# 
# 
# High freq. dielectric constant tensor:
#      x y z
#    x 1.683060 0.000000 0.003460 
#    y 0.000000 1.688730 0.000000 
#    z 0.003460 0.000000 1.680660 
# 
# From -- ./inp_files/254791.got.cif
#   From: 2010.06.25/outbox.cif.g09.slc.cpg/sg15_128_cif.got.tgz:254791.got - 2010.06.28 07:06:18.
