data_PCOD8141549
_publ_section_title
;
Structure prediction by ZEFSAII (Michael W. Deem and Ramdas Pophale) SiO2 
 PCOD8141549
Probable space group: C 2/C
;
_chemical_formula_sum "Si O2"
_cell_formula_units_Z 56
_cell_length_a 9.360130
_cell_length_b 27.877819
_cell_length_c 20.875526
_cell_angle_alpha 90.000000
_cell_angle_beta 149.222787
_cell_angle_gamma 90.000000
_cell_volume 2787.369508
_symmetry_space_group_name_H-M "C 2/C"
_symmetry_group_IT_number 15
_symmetry_cell_setting 'monoclinic'
loop_
_space_group_symop_operation_xyz
x,y,z
-x,y,1/2-z
-x,-y,-z
x,-y,1/2+z
1/2+x,1/2+y,z
1/2-x,1/2+y,1/2-z
1/2-x,1/2-y,-z
1/2+x,1/2-y,1/2+z
loop_
_atom_site_type_symbol
_atom_site_label
_atom_site_fract_x
_atom_site_fract_y
_atom_site_fract_z
Si Si1 0.536139 0.286753 0.004419
Si Si2 0.320779 0.554155 0.873173
Si Si3 0.180030 0.864234 0.485082
Si Si4 0.052596 0.773428 0.679151
Si Si5 0.664244 0.620153 0.252461
Si Si6 0.573100 0.283058 0.351177
Si Si7 0.677880 0.445354 0.639586
O O1 0.492123 0.287202 0.911855
O O2 0.321860 0.253067 0.957561
O O3 0.471683 0.338869 0.011175
O O4 0.832811 0.261380 0.129658
O O5 0.498285 0.589256 0.896497
O O6 0.333920 0.501504 0.846667
O O7 0.000000 0.571335 0.750000
O O8 0.469537 0.560150 0.999611
O O9 0.499083 0.880386 0.618090
O O10 0.162355 0.832939 0.415099
O O11 0.061243 0.825094 0.714403
O O12 0.326273 0.741995 0.794682
O O13 0.500000 0.596826 0.250000
O O14 0.566405 0.588605 0.153725
O O15 0.500000 0.293270 0.250000
O O16 0.000000 0.430720 0.750000
#
# Coordination Sequence:
#
# PCOD8141549 Si02
#       7
#     8   8   8   8   8   8   8
#     4  10  21  37  58  87 123 170 214 262 313 382
#     4  10  23  41  71 102 123 164 224 282 340 391
#     4  12  23  39  64  92 129 174 220 268 334 401
#     4  10  22  36  57  88 127 165 214 264 314 378
#     4  12  25  40  67  98 129 171 223 267 331 397
#     4  10  22  38  53  81 129 173 211 258 317 383
#     4  10  21  46  73  95 130 164 224 286 328 402
#
# _framework density 20.090626
#
# number of rings (size 3 to 8) (size 9 to 14) (size 15 to 20)
#    0.000    1.429    2.857    2.143    4.000    0.000 
#    5.143    1.429    0.000    0.000    0.000    0.000 
#    0.000    0.000    0.000    0.000    0.000    0.000 
#
# Total GULP energy -346948.408705 kJ/mol
# GULP energy per Si atom -12391.014597 kJ/mol
# Density = 2.004490 g / cm^3
# Si number density = 20.090626 Si / 1000 Ang^3
#
#
#
# Elastic Constant Matrix: (Units=GPa)
#
#
# Indices 1 2 3 4 5 6 
#
# 1 111.2821 42.2254 32.0121 -0.0146 16.3981 -0.0069
# 2 42.2254 88.2081 26.9930 -0.0028 6.7528 -0.0025
# 3 32.0121 26.9930 115.2162 -0.0849 23.8506 -0.0964
# 4 -0.0146 -0.0028 -0.0849 36.1995 -0.0145 0.0516
# 5 16.3981 6.7528 23.8506 -0.0145 33.1608 -0.0162
# 6 -0.0069 -0.0025 -0.0964 0.0516 -0.0162 26.3551
#
#
#
# Elastic Compliance Matrix: (Units=1/GPa)
#
#
# Indices 1 2 3 4 5 6 
#
# 1 0.011819 -0.004957 -0.001318 0.000000 -0.003887 -0.000005
# 2 -0.004957 0.014298 -0.002206 -0.000006 0.001126 -0.000007
# 3 -0.001318 -0.002206 0.010967 0.000022 -0.006787 0.000035
# 4 0.000000 -0.000006 0.000022 0.027625 -0.000003 -0.000054
# 5 -0.003887 0.001126 -0.006787 -0.000003 0.036731 -0.000003
# 6 -0.000005 -0.000007 0.000035 -0.000054 -0.000003 0.037944
#
#
# Mechanical properties :
#
#
# Convention : Reuss Voigt Hill
#
# Bulk Modulus (GPa) = 49.69222 57.46304 53.57763
# Shear Modulus (GPa) = 30.66493 33.37479 32.01986
#
# Velocity S-wave (km/s) = 3.91107 4.08022 3.99654
# Velocity P-wave (km/s) = 6.72183 7.13173 6.92981
#
# Compressibility (1/GPa) = 0.02012387
#
# Stress axis : x y z
#
# Youngs Moduli (GPa) = 84.60994 69.93744 91.18021
#
# Poissons Ratio (x) = 0.34667 0.12016
# Poissons Ratio (y) = 0.41940 0.20112
# Poissons Ratio (z) = 0.11150 0.15426
#
# Static dielectric constant tensor:
#      x y z
#    x 3.706070 0.000360 0.257100 
#    y 0.000360 3.881150 0.000350 
#    z 0.257100 0.000350 3.929130 
# 
# 
# High freq. dielectric constant tensor:
#      x y z
#    x 1.781500 0.000000 0.002040 
#    y 0.000000 1.783390 0.000000 
#    z 0.002040 0.000000 1.796200 
# 
# From -- ./inp_files/234943.got.cif
#   From: 2010.06.25/outbox.cif.g09.slc.cpg/sg15_118_cif.got.tgz:234943.got - 2010.06.28 07:06:18.
