data_PCOD8141387
_publ_section_title
;
Structure prediction by ZEFSAII (Michael W. Deem and Ramdas Pophale) SiO2 
 PCOD8141387
Probable space group: C 2/C
;
_chemical_formula_sum "Si O2"
_cell_formula_units_Z 52
_cell_length_a 24.729333
_cell_length_b 14.388402
_cell_length_c 8.936165
_cell_angle_alpha 90.000000
_cell_angle_beta 130.753010
_cell_angle_gamma 90.000000
_cell_volume 2408.664865
_symmetry_space_group_name_H-M "C 2/C"
_symmetry_group_IT_number 15
_symmetry_cell_setting 'monoclinic'
loop_
_space_group_symop_operation_xyz
x,y,z
-x,y,1/2-z
-x,-y,-z
x,-y,1/2+z
1/2+x,1/2+y,z
1/2-x,1/2+y,1/2-z
1/2-x,1/2-y,-z
1/2+x,1/2-y,1/2+z
loop_
_atom_site_type_symbol
_atom_site_label
_atom_site_fract_x
_atom_site_fract_y
_atom_site_fract_z
Si Si1 0.125930 0.334133 0.783314
Si Si2 0.273029 0.010883 0.128669
Si Si3 0.168794 0.012855 0.183445
Si Si4 0.000000 0.295159 0.750000
Si Si5 0.212630 0.309806 0.221262
Si Si6 0.902463 0.191107 0.343940
Si Si7 0.873609 0.810301 0.466475
O O1 0.157703 0.422216 0.751517
O O2 0.057372 0.359234 0.765255
O O3 0.099852 0.256496 0.618025
O O4 0.186141 0.293954 0.002976
O O5 0.202965 0.050395 0.089826
O O6 0.299996 0.915653 0.250845
O O7 0.242348 0.997184 0.908341
O O8 0.111089 0.082706 0.146979
O O9 0.126399 0.916371 0.089408
O O10 0.964107 0.229066 0.561527
O O11 0.171691 0.243819 0.261682
O O12 0.294487 0.280334 0.373020
O O13 0.922892 0.200777 0.204619
#
# Coordination Sequence:
#
# PCOD8141387 Si02
#       7
#     8   8   8   4   8   8   8
#     4  11  23  42  62  89 134 173 213 257 310 385
#     4  11  21  37  64 100 133 156 203 269 335 379
#     4  11  22  37  63 105 129 156 205 268 339 382
#     4  10  28  46  62  84 130 190 224 248 300 384
#     4  10  21  36  62 101 126 159 202 270 339 373
#     4  11  23  42  61  89 133 167 215 260 311 387
#     4  11  22  36  67  98 123 161 211 272 331 370
#
# _framework density 21.588723999999999
#
# number of rings (size 3 to 8) (size 9 to 14) (size 15 to 20)
#    0.000    1.231    6.154    1.846    6.462    0.615 
#    0.000    6.154    0.000    0.000    0.000    0.000 
#    0.000    0.000    0.000    0.000    0.000    0.000 
#
# Total GULP energy -322327.291948 kJ/mol
# GULP energy per Si atom -12397.203536 kJ/mol
# Density = 2.153959 g / cm^3
# Si number density = 21.588724 Si / 1000 Ang^3
#
#
#
# Elastic Constant Matrix: (Units=GPa)
#
#
# Indices 1 2 3 4 5 6 
#
# 1 68.5077 21.3615 3.1567 0.0000 -10.5054 0.0000
# 2 21.3615 45.5729 15.5438 0.0000 -14.0762 0.0000
# 3 3.1567 15.5438 94.2129 0.0000 -15.0190 0.0000
# 4 0.0000 0.0000 0.0000 25.7173 0.0000 -6.4515
# 5 -10.5054 -14.0762 -15.0190 0.0000 31.0444 0.0000
# 6 0.0000 0.0000 0.0000 -6.4515 0.0000 21.7561
#
#
#
# Elastic Compliance Matrix: (Units=1/GPa)
#
#
# Indices 1 2 3 4 5 6 
#
# 1 0.017376 -0.007615 0.001150 0.000000 0.002983 0.000000
# 2 -0.007615 0.029438 -0.003126 0.000000 0.009259 0.000000
# 3 0.001150 -0.003126 0.011841 0.000000 0.004700 0.000000
# 4 0.000000 0.000000 0.000000 0.042009 0.000000 0.012457
# 5 0.002983 0.009259 0.004700 0.000000 0.039694 0.000000
# 6 0.000000 0.000000 0.000000 0.012457 0.000000 0.049658
#
#
# Mechanical properties :
#
#
# Convention : Reuss Voigt Hill
#
# Bulk Modulus (GPa) = 25.33419 32.04638 28.69029
# Shear Modulus (GPa) = 22.48646 26.91901 24.70274
#
# Velocity S-wave (km/s) = 3.23086 3.53498 3.38634
# Velocity P-wave (km/s) = 5.06738 5.61584 5.34865
#
# Compressibility (1/GPa) = 0.03947235
#
# Stress axis : x y z
#
# Youngs Moduli (GPa) = 57.55083 33.96940 84.45429
#
# Poissons Ratio (x) = 0.25869 -0.09711
# Poissons Ratio (y) = 0.43827 0.26398
# Poissons Ratio (z) = -0.06617 0.10618
#
# Static dielectric constant tensor:
#      x y z
#    x 3.877750 0.000000 -0.332980 
#    y 0.000000 3.728860 0.000000 
#    z -0.332980 0.000000 4.028350 
# 
# 
# High freq. dielectric constant tensor:
#      x y z
#    x 1.837880 0.000000 -0.027430 
#    y 0.000000 1.831160 0.000000 
#    z -0.027430 0.000000 1.854770 
# 
# From -- ./inp_files/61674.got.cif
#   From: 2010.06.25/outbox.cif.g09.slc.cpg/sg15_31_cif.got.tgz:61674.got - 2010.06.28 07:06:18.
