data_PCOD8141577
_publ_section_title
;
Structure prediction by ZEFSAII (Michael W. Deem and Ramdas Pophale) SiO2 
 PCOD8141577
Probable space group: C 2/C
;
_chemical_formula_sum "Si O2"
_cell_formula_units_Z 64
_cell_length_a 23.875278
_cell_length_b 8.961718
_cell_length_c 14.501852
_cell_angle_alpha 90.000000
_cell_angle_beta 88.031147
_cell_angle_gamma 90.000000
_cell_volume 3101.035362
_symmetry_space_group_name_H-M "C 2/C"
_symmetry_group_IT_number 15
_symmetry_cell_setting 'monoclinic'
loop_
_space_group_symop_operation_xyz
x,y,z
-x,y,1/2-z
-x,-y,-z
x,-y,1/2+z
1/2+x,1/2+y,z
1/2-x,1/2+y,1/2-z
1/2-x,1/2-y,-z
1/2+x,1/2-y,1/2+z
loop_
_atom_site_type_symbol
_atom_site_label
_atom_site_fract_x
_atom_site_fract_y
_atom_site_fract_z
Si Si1 0.193072 0.660532 0.240676
Si Si2 0.606550 0.690042 0.612136
Si Si3 0.877626 0.159807 0.390973
Si Si4 0.604557 0.148508 0.920681
Si Si5 0.982869 0.144439 0.611395
Si Si6 0.192903 0.680396 0.756112
Si Si7 0.622057 0.810486 0.916468
Si Si8 0.500156 0.320557 0.604821
O O1 0.143380 0.713488 0.178191
O O2 0.202943 0.486670 0.219924
O O3 0.248653 0.751121 0.213927
O O4 0.176506 0.685616 0.348397
O O5 0.624984 0.518519 0.610716
O O6 0.615002 0.749806 0.508544
O O7 0.541520 0.707833 0.648197
O O8 0.830924 0.221611 0.325603
O O9 0.862899 0.214309 0.494840
O O10 0.939307 0.217712 0.353352
O O11 0.652238 0.185959 0.845258
O O12 0.543866 0.187163 0.879014
O O13 0.604022 0.975853 0.949119
O O14 0.985099 0.148637 0.501438
O O15 0.928700 0.240928 0.642396
O O16 0.974413 0.974312 0.647394
#
# Coordination Sequence:
#
# PCOD8141577 Si02
#       8
#     8   8   8   8   8   8   8   8
#     4  11  25  42  59  82 112 149 195 240 282 333
#     4  10  21  38  61  87 116 151 188 229 280 337
#     4  10  21  38  61  87 116 151 188 229 280 337
#     4  10  21  37  59  87 117 149 186 232 285 336
#     4   8  16  32  55  85 117 149 185 223 273 338
#     4  11  25  42  59  82 112 149 195 240 282 333
#     4  10  21  37  59  87 117 149 186 232 285 336
#     4   8  16  32  55  85 117 149 185 223 273 338
#
# _framework density 20.638269000000001
#
# number of rings (size 3 to 8) (size 9 to 14) (size 15 to 20)
#    0.000    2.250    0.000    3.750    0.000   11.500 
#    0.000    5.000    0.000    0.000    0.000    0.000 
#    0.000    0.000    0.000    0.000    0.000    0.000 
#
# Total GULP energy -396784.473027 kJ/mol
# GULP energy per Si atom -12399.514782 kJ/mol
# Density = 2.059129 g / cm^3
# Si number density = 20.638269 Si / 1000 Ang^3
#
#
#
# Elastic Constant Matrix: (Units=GPa)
#
#
# Indices 1 2 3 4 5 6 
#
# 1 61.5754 7.6808 6.5744 0.0000 8.0116 0.0000
# 2 7.6808 81.5957 15.7111 0.0000 0.1074 0.0000
# 3 6.5744 15.7111 31.1138 0.0000 7.5158 0.0000
# 4 0.0000 0.0000 0.0000 20.3869 0.0000 3.2811
# 5 8.0116 0.1074 7.5158 0.0000 30.1653 0.0000
# 6 0.0000 0.0000 0.0000 3.2811 0.0000 36.5380
#
#
#
# Elastic Compliance Matrix: (Units=1/GPa)
#
#
# Indices 1 2 3 4 5 6 
#
# 1 0.017135 -0.001217 -0.002030 0.000000 -0.004041 0.000000
# 2 -0.001217 0.013751 -0.007185 0.000000 0.002064 0.000000
# 3 -0.002030 -0.007185 0.038370 0.000000 -0.008995 0.000000
# 4 0.000000 0.000000 0.000000 0.049770 0.000000 -0.004469
# 5 -0.004041 0.002064 -0.008995 0.000000 0.036458 0.000000
# 6 0.000000 0.000000 0.000000 -0.004469 0.000000 0.027770
#
#
# Mechanical properties :
#
#
# Convention : Reuss Voigt Hill
#
# Bulk Modulus (GPa) = 20.66475 26.02416 23.34445
# Shear Modulus (GPa) = 22.70167 27.03929 24.87048
#
# Velocity S-wave (km/s) = 3.32019 3.62353 3.47517
# Velocity P-wave (km/s) = 4.97321 5.49032 5.23815
#
# Compressibility (1/GPa) = 0.04839159
#
# Stress axis : x y z
#
# Youngs Moduli (GPa) = 58.36178 72.72277 26.06189
#
# Poissons Ratio (x) = 0.08848 0.05291
# Poissons Ratio (y) = 0.07101 0.18726
# Poissons Ratio (z) = 0.11848 0.52253
#
# Static dielectric constant tensor:
#      x y z
#    x 3.881840 0.000000 0.094310 
#    y 0.000000 3.890630 0.000000 
#    z 0.094310 0.000000 3.508880 
# 
# 
# High freq. dielectric constant tensor:
#      x y z
#    x 1.806960 0.000000 0.004200 
#    y 0.000000 1.813870 0.000000 
#    z 0.004200 0.000000 1.797890 
# 
# From -- ./inp_files/172389.got.cif
#   From: 2010.06.25/outbox.cif.g09.slc.cpg/sg15_87_cif.got.tgz:172389.got - 2010.06.28 07:06:18.
