data_PCOD8141178
_publ_section_title
;
Structure prediction by ZEFSAII (Michael W. Deem and Ramdas Pophale) SiO2 
 PCOD8141178
Probable space group: C 2/C
;
_chemical_formula_sum "Si O2"
_cell_formula_units_Z 56
_cell_length_a 26.766595
_cell_length_b 17.967010
_cell_length_c 17.990198
_cell_angle_alpha 90.000000
_cell_angle_beta 160.893319
_cell_angle_gamma 90.000000
_cell_volume 2831.966733
_symmetry_space_group_name_H-M "C 2/C"
_symmetry_group_IT_number 15
_symmetry_cell_setting 'monoclinic'
loop_
_space_group_symop_operation_xyz
x,y,z
-x,y,1/2-z
-x,-y,-z
x,-y,1/2+z
1/2+x,1/2+y,z
1/2-x,1/2+y,1/2-z
1/2-x,1/2-y,-z
1/2+x,1/2-y,1/2+z
loop_
_atom_site_type_symbol
_atom_site_label
_atom_site_fract_x
_atom_site_fract_y
_atom_site_fract_z
Si Si1 0.844202 0.894038 0.881619
Si Si2 0.793439 0.341125 0.664033
Si Si3 0.676540 0.430536 0.362716
Si Si4 0.324968 0.763687 0.025016
Si Si5 0.833654 0.686999 0.990221
Si Si6 0.120149 0.727707 0.608111
Si Si7 0.174895 0.435588 0.502723
O O1 0.736413 0.881069 0.800246
O O2 0.905062 0.815830 0.934927
O O3 0.744889 0.943028 0.684229
O O4 0.995116 0.938212 0.118783
O O5 0.760028 0.400229 0.553157
O O6 0.690248 0.267759 0.505113
O O7 0.966711 0.315691 0.909402
O O8 0.713113 0.374652 0.346328
O O9 0.732651 0.513300 0.424335
O O10 0.500000 0.742377 0.250000
O O11 0.250000 0.750000 0.000000
O O12 0.232055 0.714932 0.834632
O O13 0.304610 0.851090 0.990442
O O14 0.000000 0.659595 0.250000
O O15 0.809046 0.693873 0.867504
O O16 0.000000 0.461488 0.250000
#
# Coordination Sequence:
#
# PCOD8141178 Si02
#       7
#     8   8   8   8   8   8   8
#     4  10  22  39  60  87 127 166 208 259 313 380
#     4  11  21  35  61  95 128 160 207 260 319 373
#     4  12  21  38  60  91 129 171 200 251 321 398
#     4  10  24  44  69  92 119 164 226 283 321 365
#     4  11  20  33  55  91 129 161 199 245 313 384
#     4  10  21  35  62  92 123 161 208 263 312 385
#     4  10  24  42  61  86 122 170 215 261 318 380
#
# _framework density 19.774242999999998
#
# number of rings (size 3 to 8) (size 9 to 14) (size 15 to 20)
#    0.000    1.429    2.857    3.429    8.000    0.000 
#    0.000    3.571    0.000    0.000    0.000    0.000 
#    0.000    0.000    0.000    0.000    0.000    0.000 
#
# Total GULP energy -347122.929474 kJ/mol
# GULP energy per Si atom -12397.247481 kJ/mol
# Density = 1.972924 g / cm^3
# Si number density = 19.774243 Si / 1000 Ang^3
#
#
#
# Elastic Constant Matrix: (Units=GPa)
#
#
# Indices 1 2 3 4 5 6 
#
# 1 120.8127 26.1570 67.6315 0.0000 -4.2690 0.0000
# 2 26.1570 43.2061 34.8395 0.0000 -1.5977 0.0000
# 3 67.6315 34.8395 149.8104 0.0000 -8.9887 0.0000
# 4 0.0000 0.0000 0.0000 9.3976 0.0000 0.9829
# 5 -4.2690 -1.5977 -8.9887 0.0000 32.4208 0.0000
# 6 0.0000 0.0000 0.0000 0.9829 0.0000 33.7675
#
#
#
# Elastic Compliance Matrix: (Units=1/GPa)
#
#
# Indices 1 2 3 4 5 6 
#
# 1 0.011471 -0.003410 -0.004378 0.000000 0.000129 0.000000
# 2 -0.003410 0.029506 -0.005351 0.000000 -0.000479 0.000000
# 3 -0.004378 -0.005351 0.010012 0.000000 0.001936 0.000000
# 4 0.000000 0.000000 0.000000 0.106735 0.000000 -0.003107
# 5 0.000129 -0.000479 0.001936 0.000000 0.031374 0.000000
# 6 0.000000 0.000000 0.000000 -0.003107 0.000000 0.029705
#
#
# Mechanical properties :
#
#
# Convention : Reuss Voigt Hill
#
# Bulk Modulus (GPa) = 40.46655 63.45389 51.96022
# Shear Modulus (GPa) = 19.73799 27.46392 23.60095
#
# Velocity S-wave (km/s) = 3.16280 3.73080 3.45848
# Velocity P-wave (km/s) = 5.81777 7.12161 6.50245
#
# Compressibility (1/GPa) = 0.02471177
#
# Stress axis : x y z
#
# Youngs Moduli (GPa) = 87.17842 33.89084 99.87914
#
# Poissons Ratio (x) = 0.11555 0.43725
# Poissons Ratio (y) = 0.29724 0.53450
# Poissons Ratio (z) = 0.38165 0.18136
#
# Static dielectric constant tensor:
#      x y z
#    x 3.593790 0.000000 -0.128280 
#    y 0.000000 3.365340 0.000000 
#    z -0.128280 0.000000 3.663660 
# 
# 
# High freq. dielectric constant tensor:
#      x y z
#    x 1.778710 0.000000 0.003620 
#    y 0.000000 1.745840 0.000000 
#    z 0.003620 0.000000 1.779830 
# 
# From -- ./inp_files/222990.got.cif
#   From: 2010.06.25/outbox.cif.g09.slc.cpg/sg15_112_cif.got.tgz:222990.got - 2010.06.28 07:06:18.
