data_PCOD8141140
_publ_section_title
;
Structure prediction by ZEFSAII (Michael W. Deem and Ramdas Pophale) SiO2 
 PCOD8141140
Probable space group: C 2/C
;
_chemical_formula_sum "Si O2"
_cell_formula_units_Z 60
_cell_length_a 8.559724
_cell_length_b 21.204783
_cell_length_c 14.314272
_cell_angle_alpha 90.000000
_cell_angle_beta 88.565685
_cell_angle_gamma 90.000000
_cell_volume 2597.327800
_symmetry_space_group_name_H-M "C 2/C"
_symmetry_group_IT_number 15
_symmetry_cell_setting 'monoclinic'
loop_
_space_group_symop_operation_xyz
x,y,z
-x,y,1/2-z
-x,-y,-z
x,-y,1/2+z
1/2+x,1/2+y,z
1/2-x,1/2+y,1/2-z
1/2-x,1/2-y,-z
1/2+x,1/2-y,1/2+z
loop_
_atom_site_type_symbol
_atom_site_label
_atom_site_fract_x
_atom_site_fract_y
_atom_site_fract_z
Si Si1 0.377400 0.819852 0.910331
Si Si2 0.109365 0.015715 0.869175
Si Si3 0.268216 0.522846 0.941881
Si Si4 0.099895 0.580464 0.329284
Si Si5 0.739015 0.863224 0.203954
Si Si6 0.644094 0.622352 0.298781
Si Si7 0.070123 0.641897 0.899534
Si Si8 0.000000 0.771674 0.250000
O O1 0.492018 0.880321 0.900315
O O2 0.197526 0.842310 0.893034
O O3 0.420934 0.766390 0.835847
O O4 0.393406 0.803800 0.021560
O O5 0.187465 0.066340 0.797804
O O6 0.941565 0.043125 0.905244
O O7 0.092038 0.949663 0.816567
O O8 0.224592 0.004753 0.954166
O O9 0.211330 0.466719 0.878854
O O10 0.139074 0.577296 0.941292
O O11 0.208142 0.630245 0.272121
O O12 0.000000 0.544009 0.250000
O O13 0.615141 0.859113 0.120355
O O14 0.660342 0.845706 0.302926
O O15 0.876858 0.812836 0.192482
O O16 0.500000 0.657577 0.250000
#
# Coordination Sequence:
#
# PCOD8141140 Si02
#       8
#     8   8   8   8   8   8   8   4
#     4  11  24  46  71  98 133 180 237 295 343 411
#     4  11  23  39  64 100 143 182 221 278 359 421
#     4  11  22  37  65 104 146 175 223 284 350 436
#     4  10  21  35  59  95 130 176 213 272 347 397
#     4  11  27  45  69  99 140 192 230 287 352 427
#     4  11  20  38  64 101 133 172 219 286 345 405
#     4  11  25  45  69 105 136 180 241 286 355 420
#     4  12  26  52  72  92 138 190 242 294 354 410
#
# _framework density 23.100666
#
# number of rings (size 3 to 8) (size 9 to 14) (size 15 to 20)
#    0.000    1.067    4.667    2.400    6.533    2.133 
#    2.400    0.000    0.000    0.000    0.000    0.000 
#    0.000    0.000    0.000    0.000    0.000    0.000 
#
# Total GULP energy -371814.041012 kJ/mol
# GULP energy per Si atom -12393.801367 kJ/mol
# Density = 2.304809 g / cm^3
# Si number density = 23.100666 Si / 1000 Ang^3
#
#
#
# Elastic Constant Matrix: (Units=GPa)
#
#
# Indices 1 2 3 4 5 6 
#
# 1 121.9470 36.1111 55.3415 0.0000 33.7758 0.0000
# 2 36.1111 71.3810 26.7395 0.0000 15.8383 0.0000
# 3 55.3415 26.7395 138.2420 0.0000 32.9662 0.0000
# 4 0.0000 0.0000 0.0000 24.2376 0.0000 6.5070
# 5 33.7758 15.8383 32.9662 0.0000 46.7150 0.0000
# 6 0.0000 0.0000 0.0000 6.5070 0.0000 21.1608
#
#
#
# Elastic Compliance Matrix: (Units=1/GPa)
#
#
# Indices 1 2 3 4 5 6 
#
# 1 0.012138 -0.003874 -0.002802 0.000000 -0.005486 0.000000
# 2 -0.003874 0.016885 -0.001224 0.000000 -0.002060 0.000000
# 3 -0.002802 -0.001224 0.009631 0.000000 -0.004356 0.000000
# 4 0.000000 0.000000 0.000000 0.044971 0.000000 -0.013829
# 5 -0.005486 -0.002060 -0.004356 0.000000 0.029145 0.000000
# 6 0.000000 0.000000 0.000000 -0.013829 0.000000 0.051509
#
#
# Mechanical properties :
#
#
# Convention : Reuss Voigt Hill
#
# Bulk Modulus (GPa) = 43.75507 63.10602 53.43054
# Shear Modulus (GPa) = 26.63884 32.64789 29.64337
#
# Velocity S-wave (km/s) = 3.39951 3.76345 3.58610
# Velocity P-wave (km/s) = 5.86439 6.80161 6.35031
#
# Compressibility (1/GPa) = 0.02285450
#
# Stress axis : x y z
#
# Youngs Moduli (GPa) = 82.38390 59.22533 103.83469
#
# Poissons Ratio (x) = 0.22944 0.29092
# Poissons Ratio (y) = 0.31915 0.12708
# Poissons Ratio (z) = 0.23082 0.07248
#
# Static dielectric constant tensor:
#      x y z
#    x 4.410510 0.000000 0.237210 
#    y 0.000000 3.771390 0.000000 
#    z 0.237210 0.000000 4.695230 
# 
# 
# High freq. dielectric constant tensor:
#      x y z
#    x 1.925620 0.000000 0.015480 
#    y 0.000000 1.874300 0.000000 
#    z 0.015480 0.000000 1.931120 
# 
# From -- ./inp_files/137417.got.cif
#   From: 2010.06.25/outbox.cif.g09.slc.cpg/sg15_69_cif.got.tgz:137417.got - 2010.06.28 07:06:18.
