data_PCOD8141872
_publ_section_title
;
Structure prediction by ZEFSAII (Michael W. Deem and Ramdas Pophale) SiO2 
 PCOD8141872
Probable space group: C 2/C
;
_chemical_formula_sum "Si O2"
_cell_formula_units_Z 32
_cell_length_a 19.029268
_cell_length_b 15.495727
_cell_length_c 5.147795
_cell_angle_alpha 90.000000
_cell_angle_beta 77.892882
_cell_angle_gamma 90.000000
_cell_volume 1484.179060
_symmetry_space_group_name_H-M "C 2/C"
_symmetry_group_IT_number 15
_symmetry_cell_setting 'monoclinic'
loop_
_space_group_symop_operation_xyz
x,y,z
-x,y,1/2-z
-x,-y,-z
x,-y,1/2+z
1/2+x,1/2+y,z
1/2-x,1/2+y,1/2-z
1/2-x,1/2-y,-z
1/2+x,1/2-y,1/2+z
loop_
_atom_site_type_symbol
_atom_site_label
_atom_site_fract_x
_atom_site_fract_y
_atom_site_fract_z
Si Si1 0.331730 0.205075 0.155705
Si Si2 0.967763 0.096598 0.026879
Si Si3 0.326101 0.684950 0.164328
Si Si4 0.415162 0.953058 0.787219
O O1 0.325328 0.280329 0.372056
O O2 0.254468 0.155422 0.196115
O O3 0.392523 0.141074 0.210142
O O4 0.352091 0.244074 0.857551
O O5 0.881055 0.103198 0.114098
O O6 0.000000 0.146199 0.250000
O O7 0.000000 0.145266 0.750000
O O8 0.000000 0.000000 0.000000
O O9 0.500000 0.955027 0.750000
O O10 0.384968 0.020864 0.594242
#
# Coordination Sequence:
#
# PCOD8141872 Si02
#       4
#     8   8   8   8
#     4  10  21  38  60  87 115 158 199 247 303 355
#     4  10  21  38  56  83 122 158 197 247 297 358
#     4  10  21  38  59  85 121 152 204 248 289 366
#     4  10  21  38  57  85 117 144 191 245 299 360
#
# _framework density 21.560742000000001
#
# number of rings (size 3 to 8) (size 9 to 14) (size 15 to 20)
#    0.000    2.000    0.000    3.000    0.000    3.000 
#    9.000    0.000    0.000    0.000    0.000    0.000 
#    0.000    0.000    0.000    0.000    0.000    0.000 
#
# Total GULP energy -198213.234849 kJ/mol
# GULP energy per Si atom -12388.327178 kJ/mol
# Density = 2.151167 g / cm^3
# Si number density = 21.560742 Si / 1000 Ang^3
#
#
#
# Elastic Constant Matrix: (Units=GPa)
#
#
# Indices 1 2 3 4 5 6 
#
# 1 87.3278 36.5791 44.3385 0.0000 5.4766 0.0000
# 2 36.5791 52.1243 7.9908 0.0000 2.5846 0.0000
# 3 44.3385 7.9908 144.4266 0.0000 15.8328 0.0000
# 4 0.0000 0.0000 0.0000 19.2397 0.0000 2.1481
# 5 5.4766 2.5846 15.8328 0.0000 31.6984 0.0000
# 6 0.0000 0.0000 0.0000 2.1481 0.0000 45.2032
#
#
#
# Elastic Compliance Matrix: (Units=1/GPa)
#
#
# Indices 1 2 3 4 5 6 
#
# 1 0.019541 -0.012914 -0.005321 0.000000 0.000335 0.000000
# 2 -0.012914 0.027920 0.002565 0.000000 -0.001327 0.000000
# 3 -0.005321 0.002565 0.008821 0.000000 -0.003696 0.000000
# 4 0.000000 0.000000 0.000000 0.052253 0.000000 -0.002483
# 5 0.000335 -0.001327 -0.003696 0.000000 0.033444 0.000000
# 6 0.000000 0.000000 0.000000 -0.002483 0.000000 0.022240
#
#
# Mechanical properties :
#
#
# Convention : Reuss Voigt Hill
#
# Bulk Modulus (GPa) = 40.09336 51.29951 45.69644
# Shear Modulus (GPa) = 24.52498 32.22627 28.37562
#
# Velocity S-wave (km/s) = 3.37632 3.87029 3.63171
# Velocity P-wave (km/s) = 5.81681 6.61943 6.23106
#
# Compressibility (1/GPa) = 0.02494179
#
# Stress axis : x y z
#
# Youngs Moduli (GPa) = 51.17362 35.81628 113.36899
#
# Poissons Ratio (x) = 0.46254 0.60327
# Poissons Ratio (y) = 0.66087 -0.29083
# Poissons Ratio (z) = 0.27231 -0.09188
#
# Static dielectric constant tensor:
#      x y z
#    x 3.950570 0.000000 -1.285170 
#    y 0.000000 3.309560 0.000000 
#    z -1.285170 0.000000 -17.371620 
# 
# 
# High freq. dielectric constant tensor:
#      x y z
#    x 1.846720 0.000000 0.015940 
#    y 0.000000 1.793450 0.000000 
#    z 0.015940 0.000000 1.883610 
# 
# From -- ./inp_files/9457.got.cif
#   From: 2010.06.25/outbox.cif.g09.slc.cpg/sg15_5_cif.got.tgz:9457.got - 2010.06.28 07:06:18.
