data_PCOD8141871
_publ_section_title
;
Structure prediction by ZEFSAII (Michael W. Deem and Ramdas Pophale) SiO2 
 PCOD8141871
Probable space group: C 2/C
;
_chemical_formula_sum "Si O2"
_cell_formula_units_Z 60
_cell_length_a 17.089485
_cell_length_b 25.951848
_cell_length_c 12.699714
_cell_angle_alpha 90.000000
_cell_angle_beta 145.314329
_cell_angle_gamma 90.000000
_cell_volume 3205.234954
_symmetry_space_group_name_H-M "C 2/C"
_symmetry_group_IT_number 15
_symmetry_cell_setting 'monoclinic'
loop_
_space_group_symop_operation_xyz
x,y,z
-x,y,1/2-z
-x,-y,-z
x,-y,1/2+z
1/2+x,1/2+y,z
1/2-x,1/2+y,1/2-z
1/2-x,1/2-y,-z
1/2+x,1/2-y,1/2+z
loop_
_atom_site_type_symbol
_atom_site_label
_atom_site_fract_x
_atom_site_fract_y
_atom_site_fract_z
Si Si1 0.713076 0.529614 0.935173
Si Si2 0.171707 0.798578 0.536569
Si Si3 0.136869 0.792415 0.256601
Si Si4 0.527691 0.059261 0.557849
Si Si5 0.254129 0.589384 0.318762
Si Si6 0.000000 0.524040 0.750000
Si Si7 0.313304 0.600832 0.789053
Si Si8 0.056076 0.955933 0.635564
O O1 0.666262 0.572918 0.800319
O O2 0.611330 0.480012 0.807207
O O3 0.692419 0.551926 0.028904
O O4 0.870637 0.513839 0.089482
O O5 0.189010 0.806429 0.430863
O O6 0.285090 0.757847 0.701390
O O7 0.191189 0.853554 0.609892
O O8 0.023899 0.778828 0.412727
O O9 0.174969 0.838347 0.218758
O O10 0.410637 0.091990 0.369552
O O11 0.523178 0.062836 0.678793
O O12 0.670200 0.083126 0.679133
O O13 0.500000 0.000000 0.500000
O O14 0.308869 0.567795 0.269417
O O15 0.433150 0.585973 0.006353
O O16 0.000000 0.000000 0.500000
#
# Coordination Sequence:
#
# PCOD8141871 Si02
#       8
#     8   8   8   8   8   4   8   8
#     4  11  21  34  56  80 115 163 190 236 283 341
#     4  10  22  37  56  86 117 160 194 243 300 356
#     4  10  21  38  56  83 122 151 200 245 295 359
#     4  12  23  37  56  84 117 160 202 234 286 363
#     4  12  21  38  59  81 120 162 196 233 295 352
#     4  12  22  40  52  80 124 154 196 248 274 340
#     4  11  21  38  55  83 117 157 199 240 288 350
#     4  10  22  35  52  82 113 154 201 235 278 353
#
# _framework density 18.719376
#
# number of rings (size 3 to 8) (size 9 to 14) (size 15 to 20)
#    0.000    1.067    6.667    0.800    1.867    2.133 
#    0.000    0.000    0.000    0.000    0.000    0.933 
#    0.000    0.000    0.000    0.000    0.000    0.000 
#
# Total GULP energy -371931.331858 kJ/mol
# GULP energy per Si atom -12397.711062 kJ/mol
# Density = 1.867677 g / cm^3
# Si number density = 18.719376 Si / 1000 Ang^3
#
#
#
# Elastic Constant Matrix: (Units=GPa)
#
#
# Indices 1 2 3 4 5 6 
#
# 1 77.1798 36.1445 31.7625 0.0000 8.9677 0.0000
# 2 36.1445 103.0127 46.6484 0.0000 7.5946 0.0000
# 3 31.7625 46.6484 110.4534 0.0000 15.2256 0.0000
# 4 0.0000 0.0000 0.0000 31.8910 0.0000 5.2735
# 5 8.9677 7.5946 15.2256 0.0000 34.2567 0.0000
# 6 0.0000 0.0000 0.0000 5.2735 0.0000 24.7493
#
#
#
# Elastic Compliance Matrix: (Units=1/GPa)
#
#
# Indices 1 2 3 4 5 6 
#
# 1 0.016319 -0.004422 -0.002526 0.000000 -0.002169 0.000000
# 2 -0.004422 0.013208 -0.004327 0.000000 0.000153 0.000000
# 3 -0.002526 -0.004327 0.012127 0.000000 -0.003769 0.000000
# 4 0.000000 0.000000 0.000000 0.032502 0.000000 -0.006925
# 5 -0.002169 0.000153 -0.003769 0.000000 0.031401 0.000000
# 6 0.000000 0.000000 0.000000 -0.006925 0.000000 0.041881
#
#
# Mechanical properties :
#
#
# Convention : Reuss Voigt Hill
#
# Bulk Modulus (GPa) = 52.34924 57.75074 55.04999
# Shear Modulus (GPa) = 28.35162 29.91876 29.13519
#
# Velocity S-wave (km/s) = 3.89596 4.00218 3.94943
# Velocity P-wave (km/s) = 6.94723 7.23010 7.09008
#
# Compressibility (1/GPa) = 0.01910248
#
# Stress axis : x y z
#
# Youngs Moduli (GPa) = 61.27681 75.71442 82.45867
#
# Poissons Ratio (x) = 0.33482 0.20831
# Poissons Ratio (y) = 0.27098 0.35683
# Poissons Ratio (z) = 0.15480 0.32765
#
# Static dielectric constant tensor:
#      x y z
#    x 3.360840 0.000000 -0.110250 
#    y 0.000000 3.351140 0.000000 
#    z -0.110250 0.000000 3.918920 
# 
# 
# High freq. dielectric constant tensor:
#      x y z
#    x 1.712590 0.000000 0.021870 
#    y 0.000000 1.701630 0.000000 
#    z 0.021870 0.000000 1.740060 
# 
# From -- ./inp_files/164125.got.cif
#   From: 2010.06.25/outbox.cif.g09.slc.cpg/sg15_83_cif.got.tgz:164125.got - 2010.06.28 07:06:18.
