data_PCOD8141373
_publ_section_title
;
Structure prediction by ZEFSAII (Michael W. Deem and Ramdas Pophale) SiO2 
 PCOD8141373
Probable space group: C 2/C
;
_chemical_formula_sum "Si O2"
_cell_formula_units_Z 44
_cell_length_a 16.914493
_cell_length_b 29.246908
_cell_length_c 9.481234
_cell_angle_alpha 90.000000
_cell_angle_beta 25.727459
_cell_angle_gamma 90.000000
_cell_volume 2036.031376
_symmetry_space_group_name_H-M "C 2/C"
_symmetry_group_IT_number 15
_symmetry_cell_setting 'monoclinic'
loop_
_space_group_symop_operation_xyz
x,y,z
-x,y,1/2-z
-x,-y,-z
x,-y,1/2+z
1/2+x,1/2+y,z
1/2-x,1/2+y,1/2-z
1/2-x,1/2-y,-z
1/2+x,1/2-y,1/2+z
loop_
_atom_site_type_symbol
_atom_site_label
_atom_site_fract_x
_atom_site_fract_y
_atom_site_fract_z
Si Si1 0.500000 0.604260 0.250000
Si Si2 0.396591 0.279295 0.619483
Si Si3 0.785533 0.534024 0.750853
Si Si4 0.000000 0.742430 0.750000
Si Si5 0.349580 0.355723 0.272333
Si Si6 0.706662 0.950094 0.578672
Si Si7 0.000000 0.700289 0.250000
O O1 0.329351 0.572439 0.484520
O O2 0.454553 0.634031 0.458951
O O3 0.458919 0.274834 0.682226
O O4 0.515969 0.320709 0.360692
O O5 0.440274 0.231286 0.476500
O O6 0.180829 0.289358 0.942855
O O7 0.727879 0.484969 0.906612
O O8 0.737729 0.530419 0.663048
O O9 0.989860 0.551539 0.444097
O O10 0.302681 0.400475 0.442069
O O11 0.160211 0.331959 0.542898
#
# Coordination Sequence:
#
# PCOD8141373 Si02
#       7
#     4   8   8   4   8   8   4
#     4  10  21  36  61  90 116 160 201 258 308 387
#     4  11  23  43  64  93 124 173 210 266 315 376
#     4   9  18  36  61  87 120 154 202 243 325 370
#     4  10  23  42  68  88 121 173 216 256 324 373
#     4  11  22  37  61  94 124 162 216 256 313 377
#     4   9  19  38  62  88 117 162 198 257 305 385
#     4  12  24  40  65  88 127 169 211 264 316 374
#
# _framework density 21.610669999999999
#
# number of rings (size 3 to 8) (size 9 to 14) (size 15 to 20)
#    0.000    1.818    1.818    3.273    2.545    2.909 
#    0.000    2.727    0.000    0.000    0.000    0.000 
#    0.000    0.000    0.000    0.000    0.000    0.000 
#
# Total GULP energy -272696.985922 kJ/mol
# GULP energy per Si atom -12395.317542 kJ/mol
# Density = 2.156148 g / cm^3
# Si number density = 21.610670 Si / 1000 Ang^3
#
#
#
# Elastic Constant Matrix: (Units=GPa)
#
#
# Indices 1 2 3 4 5 6 
#
# 1 56.2471 18.8732 24.0889 0.0104 -16.7062 -0.0066
# 2 18.8732 121.0690 50.0098 0.0364 -19.8260 -0.0250
# 3 24.0889 50.0098 126.5980 -0.1329 -22.0719 0.1003
# 4 0.0104 0.0364 -0.1329 326.7570 0.0559 -206.5668
# 5 -16.7062 -19.8260 -22.0719 0.0559 28.1350 -0.0417
# 6 -0.0066 -0.0250 0.1003 -206.5668 -0.0417 171.3262
#
#
#
# Elastic Compliance Matrix: (Units=1/GPa)
#
#
# Indices 1 2 3 4 5 6 
#
# 1 0.022180 -0.000838 -0.001965 -0.000002 0.011038 0.000003
# 2 -0.000838 0.010423 -0.003202 -0.000002 0.004335 0.000002
# 3 -0.001965 -0.003202 0.010358 0.000002 0.004703 -0.000004
# 4 -0.000002 -0.000002 0.000002 0.012870 -0.000003 0.015517
# 5 0.011038 0.004335 0.004703 -0.000003 0.048841 0.000006
# 6 0.000003 0.000002 -0.000004 0.015517 0.000006 0.024546
#
#
# Mechanical properties :
#
#
# Convention : Reuss Voigt Hill
#
# Bulk Modulus (GPa) = 32.31014 54.42866 43.36940
# Shear Modulus (GPa) = 32.99368 119.30645 76.15007
#
# Velocity S-wave (km/s) = 3.91158 7.43822 5.94254
# Velocity P-wave (km/s) = 5.94845 9.95038 8.19738
#
# Compressibility (1/GPa) = 0.03095004
#
# Stress axis : x y z
#
# Youngs Moduli (GPa) = 45.08593 95.94149 96.54705
#
# Poissons Ratio (x) = 0.08044 0.18969
# Poissons Ratio (y) = 0.03780 0.30915
# Poissons Ratio (z) = 0.08858 0.30721
#
# Static dielectric constant tensor:
#      x y z
#    x 3.626890 0.000000 0.083650 
#    y 0.000000 3.976500 0.000000 
#    z 0.083650 0.000000 4.293860 
# 
# 
# High freq. dielectric constant tensor:
#      x y z
#    x 1.826130 0.000000 0.002970 
#    y 0.000000 1.845580 0.000000 
#    z 0.002970 0.000000 1.872590 
# 
# From -- ./inp_files/114987.got.cif
#   From: 2010.06.25/outbox.cif.g09.slc.cpg/sg15_58_cif.got.tgz:114987.got - 2010.06.28 07:06:18.
