data_PCOD8141879
_publ_section_title
;
Structure prediction by ZEFSAII (Michael W. Deem and Ramdas Pophale) SiO2 
 PCOD8141879
Probable space group: C 2/C
;
_chemical_formula_sum "Si O2"
_cell_formula_units_Z 56
_cell_length_a 13.637243
_cell_length_b 31.423341
_cell_length_c 9.068095
_cell_angle_alpha 90.000000
_cell_angle_beta 129.636375
_cell_angle_gamma 90.000000
_cell_volume 2992.587552
_symmetry_space_group_name_H-M "C 2/C"
_symmetry_group_IT_number 15
_symmetry_cell_setting 'monoclinic'
loop_
_space_group_symop_operation_xyz
x,y,z
-x,y,1/2-z
-x,-y,-z
x,-y,1/2+z
1/2+x,1/2+y,z
1/2-x,1/2+y,1/2-z
1/2-x,1/2-y,-z
1/2+x,1/2-y,1/2+z
loop_
_atom_site_type_symbol
_atom_site_label
_atom_site_fract_x
_atom_site_fract_y
_atom_site_fract_z
Si Si1 0.505505 0.632298 0.090900
Si Si2 0.164907 0.479725 0.016690
Si Si3 0.242695 0.368999 0.843167
Si Si4 0.124596 0.082263 0.778263
Si Si5 0.999486 0.230623 0.418683
Si Si6 0.731328 0.229430 0.322316
Si Si7 0.909251 0.448006 0.865395
O O1 0.500000 0.614537 0.250000
O O2 0.647207 0.625621 0.170104
O O3 0.464063 0.681256 0.042829
O O4 0.405480 0.605480 0.902124
O O5 0.303268 0.461457 0.191015
O O6 0.151462 0.529379 0.048488
O O7 0.146021 0.475089 0.824395
O O8 0.061595 0.451697 0.008930
O O9 0.201727 0.320301 0.817068
O O10 0.125967 0.398201 0.674691
O O11 0.287347 0.385368 0.045192
O O12 0.000000 0.069971 0.750000
O O13 0.107848 0.253236 0.619180
O O14 0.000000 0.247618 0.250000
O O15 0.859378 0.238346 0.352025
O O16 0.750000 0.250000 0.500000
#
# Coordination Sequence:
#
# PCOD8141879 Si02
#       7
#     8   8   8   8   8   8   8
#     4   9  18  33  54  76 105 143 177 214 269 324
#     4   9  18  33  54  73 102 137 176 212 269 320
#     4   9  19  35  54  75 113 137 175 227 269 319
#     4   9  17  33  52  78 105 137 174 219 270 313
#     4  10  21  38  57  78 115 156 183 229 292 342
#     4  11  21  37  58  87 112 148 195 238 280 338
#     4   9  18  35  53  75 103 141 172 215 270 318
#
# _framework density 18.712904000000002
#
# number of rings (size 3 to 8) (size 9 to 14) (size 15 to 20)
#    0.000    2.571    0.000    1.714    0.000    3.429 
#   12.857    7.143    6.286    0.000    0.000    0.000 
#    0.000    0.000    0.000    0.000    0.000    0.000 
#
# Total GULP energy -347145.837655 kJ/mol
# GULP energy per Si atom -12398.065631 kJ/mol
# Density = 1.867031 g / cm^3
# Si number density = 18.712904 Si / 1000 Ang^3
#
#
#
# Elastic Constant Matrix: (Units=GPa)
#
#
# Indices 1 2 3 4 5 6 
#
# 1 71.5738 45.1551 44.1360 0.0000 1.3209 0.0000
# 2 45.1551 95.1435 44.6020 0.0000 6.1742 0.0000
# 3 44.1360 44.6020 94.7354 0.0000 -0.7941 0.0000
# 4 0.0000 0.0000 0.0000 30.0495 0.0000 4.1346
# 5 1.3209 6.1742 -0.7941 0.0000 37.2955 0.0000
# 6 0.0000 0.0000 0.0000 4.1346 0.0000 29.6958
#
#
#
# Elastic Compliance Matrix: (Units=1/GPa)
#
#
# Indices 1 2 3 4 5 6 
#
# 1 0.023260 -0.007673 -0.007222 0.000000 0.000293 0.000000
# 2 -0.007673 0.016231 -0.004088 0.000000 -0.002502 0.000000
# 3 -0.007222 -0.004088 0.015855 0.000000 0.001270 0.000000
# 4 0.000000 0.000000 0.000000 0.033928 0.000000 -0.004724
# 5 0.000293 -0.002502 0.001270 0.000000 0.027244 0.000000
# 6 0.000000 0.000000 0.000000 -0.004724 0.000000 0.034333
#
#
# Mechanical properties :
#
#
# Convention : Reuss Voigt Hill
#
# Bulk Modulus (GPa) = 57.53232 58.80433 58.16832
# Shear Modulus (GPa) = 25.69247 27.91213 26.80230
#
# Velocity S-wave (km/s) = 3.70940 3.86631 3.78867
# Velocity P-wave (km/s) = 7.01125 7.17104 7.09160
#
# Compressibility (1/GPa) = 0.01738154
#
# Stress axis : x y z
#
# Youngs Moduli (GPa) = 42.99192 61.61189 63.06988
#
# Poissons Ratio (x) = 0.47274 0.45547
# Poissons Ratio (y) = 0.32987 0.25782
# Poissons Ratio (z) = 0.31048 0.25186
#
# Static dielectric constant tensor:
#      x y z
#    x 3.530400 0.000000 -0.046750 
#    y 0.000000 3.431950 0.000000 
#    z -0.046750 0.000000 3.517220 
# 
# 
# High freq. dielectric constant tensor:
#      x y z
#    x 1.730680 0.000000 -0.003110 
#    y 0.000000 1.715350 0.000000 
#    z -0.003110 0.000000 1.726090 
# 
# From -- ./inp_files/43598.got.cif
#   From: 2010.06.25/outbox.cif.g09.slc.cpg/sg15_22_cif.got.tgz:43598.got - 2010.06.28 07:06:18.
