data_PCOD8141593
_publ_section_title
;
Structure prediction by ZEFSAII (Michael W. Deem and Ramdas Pophale) SiO2 
 PCOD8141593
Probable space group: C 2/C
;
_chemical_formula_sum "Si O2"
_cell_formula_units_Z 52
_cell_length_a 19.137236
_cell_length_b 21.407213
_cell_length_c 8.654917
_cell_angle_alpha 90.000000
_cell_angle_beta 135.669872
_cell_angle_gamma 90.000000
_cell_volume 2477.706605
_symmetry_space_group_name_H-M "C 2/C"
_symmetry_group_IT_number 15
_symmetry_cell_setting 'monoclinic'
loop_
_space_group_symop_operation_xyz
x,y,z
-x,y,1/2-z
-x,-y,-z
x,-y,1/2+z
1/2+x,1/2+y,z
1/2-x,1/2+y,1/2-z
1/2-x,1/2-y,-z
1/2+x,1/2-y,1/2+z
loop_
_atom_site_type_symbol
_atom_site_label
_atom_site_fract_x
_atom_site_fract_y
_atom_site_fract_z
Si Si1 0.905531 0.724488 0.810769
Si Si2 0.194111 0.183952 0.899495
Si Si3 0.729233 0.943547 0.476221
Si Si4 0.695693 0.930289 0.788319
Si Si5 0.000000 0.217036 0.750000
Si Si6 0.312307 0.674180 0.964871
Si Si7 0.481038 0.907018 0.386035
O O1 0.794747 0.705939 0.686269
O O2 0.897429 0.782984 0.680005
O O3 0.967147 0.667305 0.836047
O O4 0.969216 0.739618 0.060976
O O5 0.161701 0.168540 0.673798
O O6 0.095026 0.176576 0.847403
O O7 0.250000 0.250000 0.000000
O O8 0.269854 0.134502 0.087677
O O9 0.718595 0.933221 0.642181
O O10 0.811628 0.894915 0.541887
O O11 0.624406 0.932871 0.216631
O O12 0.755276 0.014787 0.472750
O O13 0.576213 0.928481 0.638355
O O14 0.500000 0.937741 0.250000
#
# Coordination Sequence:
#
# PCOD8141593 Si02
#       7
#     8   8   8   8   4   8   8
#     4  10  21  37  59  91 129 163 214 262 324 386
#     4  12  25  40  64  93 129 171 217 274 330 388
#     4  10  21  39  63  90 127 174 217 267 325 398
#     4  11  22  40  61  93 132 170 219 267 332 392
#     4  12  24  38  60  96 124 168 212 270 320 394
#     4  10  22  40  63  88 125 171 213 265 329 382
#     4   9  20  33  59  92 127 172 209 261 320 395
#
# _framework density 20.98715
#
# number of rings (size 3 to 8) (size 9 to 14) (size 15 to 20)
#    0.000    1.538    1.538    3.231    8.615    0.000 
#    0.000    0.000    0.000    8.308    0.000    0.000 
#    0.000    0.000    0.000    0.000    0.000    0.000 
#
# Total GULP energy -322266.096958 kJ/mol
# GULP energy per Si atom -12394.849883 kJ/mol
# Density = 2.093938 g / cm^3
# Si number density = 20.987150 Si / 1000 Ang^3
#
#
#
# Elastic Constant Matrix: (Units=GPa)
#
#
# Indices 1 2 3 4 5 6 
#
# 1 62.8177 5.6812 3.0121 0.0000 -12.0115 0.0000
# 2 5.6812 120.6711 24.8168 0.0000 -3.1103 0.0000
# 3 3.0121 24.8168 82.7777 0.0000 -12.3597 0.0000
# 4 0.0000 0.0000 0.0000 35.5561 0.0000 -4.4257
# 5 -12.0115 -3.1103 -12.3597 0.0000 21.2466 0.0000
# 6 0.0000 0.0000 0.0000 -4.4257 0.0000 17.1963
#
#
#
# Elastic Compliance Matrix: (Units=1/GPa)
#
#
# Indices 1 2 3 4 5 6 
#
# 1 0.017990 -0.000816 0.001194 0.000000 0.010746 0.000000
# 2 -0.000816 0.008870 -0.002743 0.000000 -0.000758 0.000000
# 3 0.001194 -0.002743 0.014127 0.000000 0.008492 0.000000
# 4 0.000000 0.000000 0.000000 0.029055 0.000000 0.007478
# 5 0.010746 -0.000758 0.008492 0.000000 0.057971 0.000000
# 6 0.000000 0.000000 0.000000 0.007478 0.000000 0.060077
#
#
# Mechanical properties :
#
#
# Convention : Reuss Voigt Hill
#
# Bulk Modulus (GPa) = 27.57883 37.03183 32.30533
# Shear Modulus (GPa) = 24.40160 30.31689 27.35925
#
# Velocity S-wave (km/s) = 3.41353 3.80484 3.61448
# Velocity P-wave (km/s) = 5.35776 6.08159 5.73111
#
# Compressibility (1/GPa) = 0.03625970
#
# Stress axis : x y z
#
# Youngs Moduli (GPa) = 55.58531 112.74074 70.78485
#
# Poissons Ratio (x) = 0.09196 -0.08455
# Poissons Ratio (y) = 0.04534 0.19414
# Poissons Ratio (z) = -0.06639 0.30922
#
# Static dielectric constant tensor:
#      x y z
#    x 3.730800 0.000000 0.005990 
#    y 0.000000 3.830020 0.000000 
#    z 0.005990 0.000000 3.798800 
# 
# 
# High freq. dielectric constant tensor:
#      x y z
#    x 1.811070 0.000000 -0.011490 
#    y 0.000000 1.818760 0.000000 
#    z -0.011490 0.000000 1.816600 
# 
# From -- ./inp_files/50713.got.cif
#   From: 2010.06.25/outbox.cif.g09.slc.cpg/sg15_26_cif.got.tgz:50713.got - 2010.06.28 07:06:18.
