data_PCOD8141886
_publ_section_title
;
Structure prediction by ZEFSAII (Michael W. Deem and Ramdas Pophale) SiO2 
 PCOD8141886
Probable space group: C 2/C
;
_chemical_formula_sum "Si O2"
_cell_formula_units_Z 56
_cell_length_a 20.557296
_cell_length_b 12.761564
_cell_length_c 10.683307
_cell_angle_alpha 90.000000
_cell_angle_beta 82.995924
_cell_angle_gamma 90.000000
_cell_volume 2781.778306
_symmetry_space_group_name_H-M "C 2/C"
_symmetry_group_IT_number 15
_symmetry_cell_setting 'monoclinic'
loop_
_space_group_symop_operation_xyz
x,y,z
-x,y,1/2-z
-x,-y,-z
x,-y,1/2+z
1/2+x,1/2+y,z
1/2-x,1/2+y,1/2-z
1/2-x,1/2-y,-z
1/2+x,1/2-y,1/2+z
loop_
_atom_site_type_symbol
_atom_site_label
_atom_site_fract_x
_atom_site_fract_y
_atom_site_fract_z
Si Si1 0.206158 0.095690 0.350907
Si Si2 0.351755 0.066022 0.376964
Si Si3 0.107765 0.563748 0.400997
Si Si4 0.020216 0.249718 0.889674
Si Si5 0.725743 0.215917 0.373194
Si Si6 0.862496 0.887869 0.195253
Si Si7 0.881427 0.204398 0.939181
O O1 0.272959 0.048992 0.396584
O O2 0.219097 0.152987 0.216446
O O3 0.173018 0.184191 0.444188
O O4 0.152461 0.004566 0.347400
O O5 0.383485 0.016253 0.242332
O O6 0.363486 0.190456 0.366023
O O7 0.388858 0.024605 0.492104
O O8 0.041805 0.633478 0.428473
O O9 0.167171 0.639001 0.415586
O O10 0.077303 0.163218 0.897632
O O11 0.000000 0.255722 0.750000
O O12 0.954701 0.215708 0.981167
O O13 0.750000 0.250000 0.500000
O O14 0.703207 0.318732 0.303450
O O15 0.880440 0.890079 0.338365
#
# Coordination Sequence:
#
# PCOD8141886 Si02
#       7
#     8   8   8   8   8   8   8
#     4  11  24  35  63  96 116 159 205 250 308 367
#     4  11  22  38  62  94 127 157 202 252 318 365
#     4  10  21  38  62  92 119 166 202 250 304 372
#     4   9  18  42  62  84 118 166 205 239 309 353
#     4  10  21  38  57  85 126 156 188 251 309 357
#     4  10  21  38  61  85 115 160 200 243 303 362
#     4  11  22  40  62  84 124 162 200 256 295 365
#
# _framework density 20.131007
#
# number of rings (size 3 to 8) (size 9 to 14) (size 15 to 20)
#    0.000    1.714    5.714    1.286    6.000    2.286 
#    0.000    0.000    0.000    3.429    0.000    0.000 
#    0.000    0.000    0.000    0.000    0.000    0.000 
#
# Total GULP energy -347073.562652 kJ/mol
# GULP energy per Si atom -12395.484380 kJ/mol
# Density = 2.008519 g / cm^3
# Si number density = 20.131007 Si / 1000 Ang^3
#
#
#
# Elastic Constant Matrix: (Units=GPa)
#
#
# Indices 1 2 3 4 5 6 
#
# 1 103.6664 25.2488 34.2867 0.0000 -2.9927 0.0000
# 2 25.2488 58.4790 34.3636 0.0000 8.3169 0.0000
# 3 34.2867 34.3636 91.6178 0.0000 10.9181 0.0000
# 4 0.0000 0.0000 0.0000 30.6865 0.0000 7.2788
# 5 -2.9927 8.3169 10.9181 0.0000 16.7362 0.0000
# 6 0.0000 0.0000 0.0000 7.2788 0.0000 28.3015
#
#
#
# Elastic Compliance Matrix: (Units=1/GPa)
#
#
# Indices 1 2 3 4 5 6 
#
# 1 0.012052 -0.003885 -0.003838 0.000000 0.006590 0.000000
# 2 -0.003885 0.023757 -0.006470 0.000000 -0.008280 0.000000
# 3 -0.003838 -0.006470 0.015697 0.000000 -0.007711 0.000000
# 4 0.000000 0.000000 0.000000 0.034705 0.000000 -0.008926
# 5 0.006590 -0.008280 -0.007711 0.000000 0.070075 0.000000
# 6 0.000000 0.000000 0.000000 -0.008926 0.000000 0.037629
#
#
# Mechanical properties :
#
#
# Convention : Reuss Voigt Hill
#
# Bulk Modulus (GPa) = 43.25438 49.06237 46.15838
# Shear Modulus (GPa) = 21.73823 25.80243 23.77033
#
# Velocity S-wave (km/s) = 3.28965 3.58400 3.43998
# Velocity P-wave (km/s) = 5.99685 6.44602 6.22549
#
# Compressibility (1/GPa) = 0.02311905
#
# Stress axis : x y z
#
# Youngs Moduli (GPa) = 82.97073 42.09249 63.70604
#
# Poissons Ratio (x) = 0.16355 0.24453
# Poissons Ratio (y) = 0.32238 0.41218
# Poissons Ratio (z) = 0.31848 0.27234
#
# Static dielectric constant tensor:
#      x y z
#    x 4.071930 0.000000 0.041540 
#    y 0.000000 3.337180 0.000000 
#    z 0.041540 0.000000 3.480610 
# 
# 
# High freq. dielectric constant tensor:
#      x y z
#    x 1.791650 0.000000 0.003500 
#    y 0.000000 1.770790 0.000000 
#    z 0.003500 0.000000 1.767410 
# 
# From -- ./inp_files/111084.got.cif
#   From: 2010.06.25/outbox.cif.g09.slc.cpg/sg15_56_cif.got.tgz:111084.got - 2010.06.28 07:06:18.
