data_PCOD8141550
_publ_section_title
;
Structure prediction by ZEFSAII (Michael W. Deem and Ramdas Pophale) SiO2 
 PCOD8141550
Probable space group: C 2/C
;
_chemical_formula_sum "Si O2"
_cell_formula_units_Z 64
_cell_length_a 14.094619
_cell_length_b 25.499498
_cell_length_c 9.522877
_cell_angle_alpha 90.000000
_cell_angle_beta 108.662859
_cell_angle_gamma 90.000000
_cell_volume 3242.610144
_symmetry_space_group_name_H-M "C 2/C"
_symmetry_group_IT_number 15
_symmetry_cell_setting 'monoclinic'
loop_
_space_group_symop_operation_xyz
x,y,z
-x,y,1/2-z
-x,-y,-z
x,-y,1/2+z
1/2+x,1/2+y,z
1/2-x,1/2+y,1/2-z
1/2-x,1/2-y,-z
1/2+x,1/2-y,1/2+z
loop_
_atom_site_type_symbol
_atom_site_label
_atom_site_fract_x
_atom_site_fract_y
_atom_site_fract_z
Si Si1 0.189701 0.659629 0.633073
Si Si2 0.055485 0.565838 0.644011
Si Si3 0.919740 0.548033 0.327239
Si Si4 0.109157 0.702464 0.864157
Si Si5 0.402407 0.322372 0.607093
Si Si6 0.795782 0.357406 0.848264
Si Si7 0.095472 0.170741 0.718822
Si Si8 0.889522 0.709972 0.174758
O O1 0.129512 0.605469 0.601954
O O2 0.189629 0.687515 0.784507
O O3 0.305672 0.643676 0.669108
O O4 0.143720 0.701984 0.502681
O O5 0.112985 0.512295 0.721850
O O6 0.000000 0.593286 0.750000
O O7 0.968073 0.548134 0.501874
O O8 0.822789 0.585622 0.295773
O O9 0.000000 0.568569 0.250000
O O10 0.131171 0.761968 0.918215
O O11 0.000000 0.695315 0.750000
O O12 0.121132 0.663014 0.000780
O O13 0.500000 0.330282 0.750000
O O14 0.314172 0.357035 0.635014
O O15 0.420671 0.339303 0.455021
O O16 0.801915 0.318240 0.720106
O O17 0.104734 0.230857 0.771301
O O18 0.000000 0.144927 0.750000
O O19 0.000000 0.684317 0.250000
#
# Coordination Sequence:
#
# PCOD8141550 Si02
#       8
#     8   8   8   8   8   8   8   8
#     4  12  22  36  59  84 115 159 197 229 287 349
#     4  10  21  37  58  89 119 150 184 233 294 348
#     4  10  21  37  58  88 123 147 183 236 291 351
#     4  11  21  34  57  84 116 149 191 236 284 347
#     4  11  25  40  57  81 115 154 202 245 286 330
#     4  12  20  37  59  82 113 156 194 235 284 351
#     4  11  25  41  54  81 117 155 197 247 286 332
#     4  11  23  35  54  86 121 153 191 233 287 345
#
# _framework density 19.737186000000001
#
# number of rings (size 3 to 8) (size 9 to 14) (size 15 to 20)
#    0.000    1.000    2.500    6.000    7.000    0.000 
#    0.000    0.000    0.000    0.750    0.000    1.750 
#    0.000    0.000    0.000    0.000    0.000    0.000 
#
# Total GULP energy -396677.237520 kJ/mol
# GULP energy per Si atom -12396.163673 kJ/mol
# Density = 1.969226 g / cm^3
# Si number density = 19.737186 Si / 1000 Ang^3
#
#
#
# Elastic Constant Matrix: (Units=GPa)
#
#
# Indices 1 2 3 4 5 6 
#
# 1 121.5861 28.2184 24.3315 0.0000 -6.6581 0.0000
# 2 28.2184 56.8228 8.1571 0.0000 -7.2436 0.0000
# 3 24.3315 8.1571 82.4244 0.0000 -8.3399 0.0000
# 4 0.0000 0.0000 0.0000 13.6318 0.0000 -4.3893
# 5 -6.6581 -7.2436 -8.3399 0.0000 36.2705 0.0000
# 6 0.0000 0.0000 0.0000 -4.3893 0.0000 16.6328
#
#
#
# Elastic Compliance Matrix: (Units=1/GPa)
#
#
# Indices 1 2 3 4 5 6 
#
# 1 0.009759 -0.004457 -0.002405 0.000000 0.000349 0.000000
# 2 -0.004457 0.020266 -0.000372 0.000000 0.003144 0.000000
# 3 -0.002405 -0.000372 0.013132 0.000000 0.002504 0.000000
# 4 0.000000 0.000000 0.000000 0.080170 0.000000 0.021156
# 5 0.000349 0.003144 0.002504 0.000000 0.028838 0.000000
# 6 0.000000 0.000000 0.000000 0.021156 0.000000 0.065705
#
#
# Mechanical properties :
#
#
# Convention : Reuss Voigt Hill
#
# Bulk Modulus (GPa) = 34.85422 42.47193 38.66308
# Shear Modulus (GPa) = 20.66958 26.64876 23.65917
#
# Velocity S-wave (km/s) = 3.23962 3.67847 3.46600
# Velocity P-wave (km/s) = 5.62948 6.29340 5.97068
#
# Compressibility (1/GPa) = 0.02869093
#
# Stress axis : x y z
#
# Youngs Moduli (GPa) = 102.46640 49.34368 76.14800
#
# Poissons Ratio (x) = 0.21992 0.18310
# Poissons Ratio (y) = 0.45668 0.02832
# Poissons Ratio (z) = 0.24639 0.01835
#
# Static dielectric constant tensor:
#      x y z
#    x 3.832800 0.000000 -0.207570 
#    y 0.000000 3.611950 0.000000 
#    z -0.207570 0.000000 3.712510 
# 
# 
# High freq. dielectric constant tensor:
#      x y z
#    x 1.762720 0.000000 -0.017140 
#    y 0.000000 1.736640 0.000000 
#    z -0.017140 0.000000 1.783380 
# 
# From -- ./inp_files/43583.got.cif
#   From: 2010.06.25/outbox.cif.g09.slc.cpg/sg15_22_cif.got.tgz:43583.got - 2010.06.28 07:06:18.
