data_PCOD8141541
_publ_section_title
;
Structure prediction by ZEFSAII (Michael W. Deem and Ramdas Pophale) SiO2 
 PCOD8141541
Probable space group: C 2/C
;
_chemical_formula_sum "Si O2"
_cell_formula_units_Z 48
_cell_length_a 17.648551
_cell_length_b 15.793667
_cell_length_c 16.315818
_cell_angle_alpha 90.000000
_cell_angle_beta 30.847357
_cell_angle_gamma 90.000000
_cell_volume 2331.893961
_symmetry_space_group_name_H-M "C 2/C"
_symmetry_group_IT_number 15
_symmetry_cell_setting 'monoclinic'
loop_
_space_group_symop_operation_xyz
x,y,z
-x,y,1/2-z
-x,-y,-z
x,-y,1/2+z
1/2+x,1/2+y,z
1/2-x,1/2+y,1/2-z
1/2-x,1/2-y,-z
1/2+x,1/2-y,1/2+z
loop_
_atom_site_type_symbol
_atom_site_label
_atom_site_fract_x
_atom_site_fract_y
_atom_site_fract_z
Si Si1 0.130522 0.835716 0.876245
Si Si2 0.803924 0.822184 0.160531
Si Si3 0.689586 0.487206 0.235070
Si Si4 0.331632 0.173074 0.885483
Si Si5 0.165102 0.505365 0.063889
Si Si6 0.426101 0.402766 0.399948
O O1 0.253636 0.763591 0.752843
O O2 0.190956 0.925930 0.786108
O O3 0.093621 0.837242 0.007623
O O4 0.976114 0.811896 0.974504
O O5 0.785333 0.906877 0.230505
O O6 0.694839 0.832218 0.186127
O O7 0.532668 0.479279 0.332688
O O8 0.822597 0.481031 0.045457
O O9 0.500000 0.185574 0.750000
O O10 0.271039 0.088282 0.982764
O O11 0.250000 0.250000 0.000000
O O12 0.000000 0.516452 0.250000
O O13 0.263821 0.567092 0.026548
O O14 0.500000 0.360231 0.250000
#
# Coordination Sequence:
#
# PCOD8141541 Si02
#       6
#     8   8   8   8   8   8
#     4  11  22  40  62  89 120 158 200 248 297 352
#     4  11  23  39  61  91 120 156 203 246 294 357
#     4  10  21  40  63  85 119 163 199 241 298 360
#     4  11  22  36  54  82 116 150 189 241 296 353
#     4  10  21  37  58  87 116 151 198 249 299 346
#     4   9  19  38  62  84 115 160 202 237 290 360
#
# _framework density 20.584126999999999
#
# number of rings (size 3 to 8) (size 9 to 14) (size 15 to 20)
#    0.000    1.667    0.000    6.000    0.000    4.667 
#    0.000   13.333    0.000    0.000    0.000    0.000 
#    0.000    0.000    0.000    0.000    0.000    0.000 
#
# Total GULP energy -297508.850379 kJ/mol
# GULP energy per Si atom -12396.202099 kJ/mol
# Density = 2.053728 g / cm^3
# Si number density = 20.584127 Si / 1000 Ang^3
#
#
#
# Elastic Constant Matrix: (Units=GPa)
#
#
# Indices 1 2 3 4 5 6 
#
# 1 125.2643 39.2168 50.2557 -0.0006 8.3481 0.0005
# 2 39.2168 115.5949 50.6463 -0.0015 1.4173 0.0009
# 3 50.2557 50.6463 115.6185 -0.0022 5.6300 0.0010
# 4 -0.0006 -0.0015 -0.0022 32.5351 0.0006 5.2105
# 5 8.3481 1.4173 5.6300 0.0006 27.8327 -0.0003
# 6 0.0005 0.0009 0.0010 5.2105 -0.0003 21.4370
#
#
#
# Elastic Compliance Matrix: (Units=1/GPa)
#
#
# Indices 1 2 3 4 5 6 
#
# 1 0.010111 -0.001887 -0.003459 0.000000 -0.002237 0.000000
# 2 -0.001887 0.011062 -0.004066 0.000000 0.000825 0.000000
# 3 -0.003459 -0.004066 0.011991 0.000001 -0.001181 -0.000001
# 4 0.000000 0.000000 0.000001 0.031981 -0.000001 -0.007773
# 5 -0.002237 0.000825 -0.001181 -0.000001 0.036797 0.000001
# 6 0.000000 0.000000 -0.000001 -0.007773 0.000001 0.048538
#
#
# Mechanical properties :
#
#
# Convention : Reuss Voigt Hill
#
# Bulk Modulus (GPa) = 69.73428 70.74617 70.24023
# Shear Modulus (GPa) = 28.72173 30.78488 29.75331
#
# Velocity S-wave (km/s) = 3.73947 3.87145 3.80603
# Velocity P-wave (km/s) = 7.25232 7.37754 7.31519
#
# Compressibility (1/GPa) = 0.01434015
#
# Stress axis : x y z
#
# Youngs Moduli (GPa) = 98.90352 90.39658 83.39406
#
# Poissons Ratio (x) = 0.17059 0.28848
# Poissons Ratio (y) = 0.18665 0.33906
# Poissons Ratio (z) = 0.34214 0.36753
#
# Static dielectric constant tensor:
#      x y z
#    x 3.743960 -0.000020 0.066930 
#    y -0.000020 5.720610 -0.000040 
#    z 0.066930 -0.000040 3.766470 
# 
# 
# High freq. dielectric constant tensor:
#      x y z
#    x 1.815390 0.000000 0.006890 
#    y 0.000000 1.793680 0.000000 
#    z 0.006890 0.000000 1.810730 
# 
# From -- ./inp_files/211298.got.cif
#   From: 2010.06.25/outbox.cif.g09.slc.cpg/sg15_106_cif.got.tgz:211298.got - 2010.06.28 07:06:18.
