data_PCOD8141362
_publ_section_title
;
Structure prediction by ZEFSAII (Michael W. Deem and Ramdas Pophale) SiO2 
 PCOD8141362
Probable space group: C 2/C
;
_chemical_formula_sum "Si O2"
_cell_formula_units_Z 52
_cell_length_a 14.305421
_cell_length_b 29.500134
_cell_length_c 8.532270
_cell_angle_alpha 90.000000
_cell_angle_beta 131.416047
_cell_angle_gamma 90.000000
_cell_volume 2700.272114
_symmetry_space_group_name_H-M "C 2/C"
_symmetry_group_IT_number 15
_symmetry_cell_setting 'monoclinic'
loop_
_space_group_symop_operation_xyz
x,y,z
-x,y,1/2-z
-x,-y,-z
x,-y,1/2+z
1/2+x,1/2+y,z
1/2-x,1/2+y,1/2-z
1/2-x,1/2-y,-z
1/2+x,1/2-y,1/2+z
loop_
_atom_site_type_symbol
_atom_site_label
_atom_site_fract_x
_atom_site_fract_y
_atom_site_fract_z
Si Si1 0.500000 0.007860 0.750000
Si Si2 0.975068 0.652884 0.539240
Si Si3 0.881587 0.940704 0.329193
Si Si4 0.500000 0.488731 0.750000
Si Si5 0.735563 0.685920 0.116467
Si Si6 0.000000 0.130910 0.750000
Si Si7 0.105842 0.437282 0.107371
Si Si8 0.110923 0.277004 0.983046
O O1 0.400849 0.040822 0.726643
O O2 0.430234 0.976554 0.551229
O O3 0.828070 0.661304 0.342738
O O4 0.000000 0.647837 0.750000
O O5 0.016661 0.606740 0.497161
O O6 0.055726 0.695458 0.567968
O O7 0.939295 0.956679 0.555270
O O8 0.955040 0.897710 0.348043
O O9 0.743698 0.923222 0.211946
O O10 0.891849 0.980453 0.209856
O O11 0.805678 0.689252 0.028215
O O12 0.610364 0.658729 0.950558
O O13 0.696166 0.735529 0.138776
O O14 0.000000 0.257567 0.750000
#
# Coordination Sequence:
#
# PCOD8141362 Si02
#       8
#     4   8   8   4   8   4   8   8
#     4  10  24  38  61  86 118 160 205 244 306 342
#     4  11  24  39  61  92 126 160 196 256 310 361
#     4  10  21  36  61  82 121 154 204 245 301 362
#     4   9  20  40  54  88 114 166 198 248 304 361
#     4  10  21  39  63  88 119 151 207 250 294 374
#     4  11  22  36  59  94 112 158 195 254 302 357
#     4  11  22  41  58  91 119 161 202 253 295 362
#     4   9  19  39  66  88 113 159 201 250 303 355
#
# _framework density 19.257318000000001
#
# number of rings (size 3 to 8) (size 9 to 14) (size 15 to 20)
#    0.000    1.846    1.538    1.846    5.385    1.846 
#    5.538    0.000    1.692    0.000    0.000    0.000 
#    0.000    0.000    0.000    0.000    0.000    0.000 
#
# Total GULP energy -322348.347259 kJ/mol
# GULP energy per Si atom -12398.013356 kJ/mol
# Density = 1.921349 g / cm^3
# Si number density = 19.257318 Si / 1000 Ang^3
#
#
#
# Elastic Constant Matrix: (Units=GPa)
#
#
# Indices 1 2 3 4 5 6 
#
# 1 111.8181 41.4484 55.6326 0.0000 11.7053 0.0000
# 2 41.4484 92.6465 53.8688 0.0000 7.9880 0.0000
# 3 55.6326 53.8688 100.8693 0.0000 11.2658 0.0000
# 4 0.0000 0.0000 0.0000 21.2619 0.0000 4.6452
# 5 11.7053 7.9880 11.2658 0.0000 34.7690 0.0000
# 6 0.0000 0.0000 0.0000 4.6452 0.0000 29.9600
#
#
#
# Elastic Compliance Matrix: (Units=1/GPa)
#
#
# Indices 1 2 3 4 5 6 
#
# 1 0.012789 -0.002290 -0.005612 0.000000 -0.001961 0.000000
# 2 -0.002290 0.016093 -0.007268 0.000000 -0.000572 0.000000
# 3 -0.005612 -0.007268 0.017112 0.000000 -0.001986 0.000000
# 4 0.000000 0.000000 0.000000 0.048682 0.000000 -0.007548
# 5 -0.001961 -0.000572 -0.001986 0.000000 0.030196 0.000000
# 6 0.000000 0.000000 0.000000 -0.007548 0.000000 0.034548
#
#
# Mechanical properties :
#
#
# Convention : Reuss Voigt Hill
#
# Bulk Modulus (GPa) = 63.87401 67.47039 65.67220
# Shear Modulus (GPa) = 25.64399 27.49043 26.56721
#
# Velocity S-wave (km/s) = 3.65314 3.78237 3.71831
# Velocity P-wave (km/s) = 7.14385 7.36121 7.25334
#
# Compressibility (1/GPa) = 0.01565582
#
# Stress axis : x y z
#
# Youngs Moduli (GPa) = 78.19136 62.13811 58.43827
#
# Poissons Ratio (x) = 0.14227 0.32795
# Poissons Ratio (y) = 0.17902 0.42472
# Poissons Ratio (z) = 0.43880 0.45161
#
# Static dielectric constant tensor:
#      x y z
#    x 3.843550 0.000000 0.054970 
#    y 0.000000 3.593600 0.000000 
#    z 0.054970 0.000000 3.409030 
# 
# 
# High freq. dielectric constant tensor:
#      x y z
#    x 1.760990 0.000000 0.007400 
#    y 0.000000 1.757410 0.000000 
#    z 0.007400 0.000000 1.731180 
# 
# From -- ./inp_files/43682.got.cif
#   From: 2010.06.25/outbox.cif.g09.slc.cpg/sg15_22_cif.got.tgz:43682.got - 2010.06.28 07:06:18.
