data_PCOD8141679
_publ_section_title
;
Structure prediction by ZEFSAII (Michael W. Deem and Ramdas Pophale) SiO2 
 PCOD8141679
Probable space group: C 2/C
;
_chemical_formula_sum "Si O2"
_cell_formula_units_Z 52
_cell_length_a 17.350309
_cell_length_b 28.827661
_cell_length_c 4.990650
_cell_angle_alpha 90.000000
_cell_angle_beta 107.788861
_cell_angle_gamma 90.000000
_cell_volume 2376.822800
_symmetry_space_group_name_H-M "C 2/C"
_symmetry_group_IT_number 15
_symmetry_cell_setting 'monoclinic'
loop_
_space_group_symop_operation_xyz
x,y,z
-x,y,1/2-z
-x,-y,-z
x,-y,1/2+z
1/2+x,1/2+y,z
1/2-x,1/2+y,1/2-z
1/2-x,1/2-y,-z
1/2+x,1/2-y,1/2+z
loop_
_atom_site_type_symbol
_atom_site_label
_atom_site_fract_x
_atom_site_fract_y
_atom_site_fract_z
Si Si1 0.000000 0.466127 0.250000
Si Si2 0.775617 0.384942 0.582932
Si Si3 0.500000 0.806251 0.250000
Si Si4 0.000000 0.967012 0.250000
Si Si5 0.638391 0.748410 0.631334
Si Si6 0.831800 0.968937 0.959004
Si Si7 0.196095 0.799384 0.703548
Si Si8 0.380975 0.116905 0.689596
O O1 0.922955 0.433347 0.226638
O O2 0.000000 0.500000 0.500000
O O3 0.745772 0.437201 0.585001
O O4 0.701382 0.350812 0.583603
O O5 0.804455 0.380102 0.307502
O O6 0.851219 0.374713 0.855775
O O7 0.552249 0.773794 0.503966
O O8 0.559649 0.841355 0.153294
O O9 0.085337 0.939455 0.375528
O O10 0.000000 0.000000 0.500000
O O11 0.711597 0.783555 0.649144
O O12 0.647885 0.704911 0.433624
O O13 0.645200 0.732325 0.944315
O O14 0.828820 0.986387 0.650270
#
# Coordination Sequence:
#
# PCOD8141679 Si02
#       8
#     4   8   4   4   8   8   8   8
#     4  11  24  44  60  84 130 176 214 268 318 355
#     4  12  23  41  62  93 129 160 207 268 309 374
#     4  11  24  44  64  95 122 168 212 265 296 391
#     4   8  16  34  56  81 112 146 198 247 294 364
#     4  10  22  39  65  85 121 154 210 245 319 379
#     4  10  21  37  61  91 121 165 210 251 311 373
#     4  10  22  40  60  93 117 162 192 263 320 369
#     4  11  26  39  63  92 123 167 221 255 313 367
#
# _framework density 21.877943999999999
#
# number of rings (size 3 to 8) (size 9 to 14) (size 15 to 20)
#    0.000    1.538    1.538    2.769    4.308    7.385 
#    0.000    1.538    0.000    1.846    0.000    0.000 
#    0.000    0.000    0.000    0.000    0.000    0.000 
#
# Total GULP energy -322171.507273 kJ/mol
# GULP energy per Si atom -12391.211818 kJ/mol
# Density = 2.182815 g / cm^3
# Si number density = 21.877944 Si / 1000 Ang^3
#
#
#
# Elastic Constant Matrix: (Units=GPa)
#
#
# Indices 1 2 3 4 5 6 
#
# 1 75.9434 30.3653 26.8788 0.0000 9.4895 0.0000
# 2 30.3653 80.3104 15.3695 0.0000 13.0278 0.0000
# 3 26.8788 15.3695 94.5012 0.0000 4.6323 0.0000
# 4 0.0000 0.0000 0.0000 23.7594 0.0000 5.2077
# 5 9.4895 13.0278 4.6323 0.0000 41.4924 0.0000
# 6 0.0000 0.0000 0.0000 5.2077 0.0000 37.2619
#
#
#
# Elastic Compliance Matrix: (Units=1/GPa)
#
#
# Indices 1 2 3 4 5 6 
#
# 1 0.016894 -0.005368 -0.003846 0.000000 -0.001749 0.000000
# 2 -0.005368 0.015190 -0.000774 0.000000 -0.003455 0.000000
# 3 -0.003846 -0.000774 0.011811 0.000000 -0.000196 0.000000
# 4 0.000000 0.000000 0.000000 0.043419 0.000000 -0.006068
# 5 -0.001749 -0.003455 -0.000196 0.000000 0.025608 0.000000
# 6 0.000000 0.000000 0.000000 -0.006068 0.000000 0.027685
#
#
# Mechanical properties :
#
#
# Convention : Reuss Voigt Hill
#
# Bulk Modulus (GPa) = 41.80899 43.99802 42.90351
# Shear Modulus (GPa) = 29.66372 32.37883 31.02128
#
# Velocity S-wave (km/s) = 3.68621 3.85122 3.76962
# Velocity P-wave (km/s) = 6.10485 6.31903 6.21286
#
# Compressibility (1/GPa) = 0.02391830
#
# Stress axis : x y z
#
# Youngs Moduli (GPa) = 59.19322 65.83315 84.66376
#
# Poissons Ratio (x) = 0.35337 0.32565
# Poissons Ratio (y) = 0.31773 0.06556
# Poissons Ratio (z) = 0.22768 0.05098
#
# Static dielectric constant tensor:
#      x y z
#    x 4.072620 0.000000 0.198220 
#    y 0.000000 3.743780 0.000000 
#    z 0.198220 0.000000 4.034690 
# 
# 
# High freq. dielectric constant tensor:
#      x y z
#    x 1.852010 0.000000 0.001580 
#    y 0.000000 1.838780 0.000000 
#    z 0.001580 0.000000 1.873270 
# 
# From -- ./inp_files/11352.got.cif
#   From: 2010.06.25/outbox.cif.g09.slc.cpg/sg15_6_cif.got.tgz:11352.got - 2010.06.28 07:06:18.
