data_PCOD8141314
_publ_section_title
;
Structure prediction by ZEFSAII (Michael W. Deem and Ramdas Pophale) SiO2 
 PCOD8141314
Probable space group: C 2/C
;
_chemical_formula_sum "Si O2"
_cell_formula_units_Z 40
_cell_length_a 9.050587
_cell_length_b 25.845264
_cell_length_c 8.272310
_cell_angle_alpha 90.000000
_cell_angle_beta 81.493001
_cell_angle_gamma 90.000000
_cell_volume 1913.726394
_symmetry_space_group_name_H-M "C 2/C"
_symmetry_group_IT_number 15
_symmetry_cell_setting 'monoclinic'
loop_
_space_group_symop_operation_xyz
x,y,z
-x,y,1/2-z
-x,-y,-z
x,-y,1/2+z
1/2+x,1/2+y,z
1/2-x,1/2+y,1/2-z
1/2-x,1/2-y,-z
1/2+x,1/2-y,1/2+z
loop_
_atom_site_type_symbol
_atom_site_label
_atom_site_fract_x
_atom_site_fract_y
_atom_site_fract_z
Si Si1 0.335677 0.836181 0.323633
Si Si2 0.658620 0.864469 0.805967
Si Si3 0.836544 0.039472 0.347541
Si Si4 0.320513 0.242956 0.310662
Si Si5 0.334607 0.433625 0.221668
O O1 0.500000 0.820255 0.250000
O O2 0.346923 0.853135 0.504846
O O3 0.236750 0.785522 0.306685
O O4 0.271704 0.884279 0.229586
O O5 0.500000 0.874229 0.750000
O O6 0.752083 0.916504 0.759047
O O7 0.740204 0.814484 0.717749
O O8 0.840129 0.051878 0.533735
O O9 0.000000 0.034786 0.250000
O O10 0.765167 0.982347 0.331182
O O11 0.500000 0.242657 0.250000
O O12 0.250000 0.250000 0.500000
O O13 0.500000 0.417576 0.250000
#
# Coordination Sequence:
#
# PCOD8141314 Si02
#       5
#     8   8   8   8   8
#     4  11  23  39  61  89 120 158 202 249 302 363
#     4  10  23  40  58  85 119 156 197 245 301 358
#     4  10  21  36  59  85 113 152 196 243 296 357
#     4  11  24  42  65  92 123 162 202 252 308 364
#     4  10  21  37  58  85 116 152 195 243 298 358
#
# _framework density 20.901630000000001
#
# number of rings (size 3 to 8) (size 9 to 14) (size 15 to 20)
#    0.000    1.600    0.000    6.000    0.000   11.200 
#    0.000    4.000    0.000    0.000    0.000    0.000 
#    0.000    0.000    0.000    0.000    0.000    0.000 
#
# Total GULP energy -247859.563969 kJ/mol
# GULP energy per Si atom -12392.978198 kJ/mol
# Density = 2.085406 g / cm^3
# Si number density = 20.901630 Si / 1000 Ang^3
#
#
#
# Elastic Constant Matrix: (Units=GPa)
#
#
# Indices 1 2 3 4 5 6 
#
# 1 83.4993 59.5057 27.6494 0.0000 12.3232 0.0000
# 2 59.5057 136.9361 14.6404 0.0000 26.2189 0.0000
# 3 27.6494 14.6404 61.5585 0.0000 10.6191 0.0000
# 4 0.0000 0.0000 0.0000 6.1463 0.0000 42.0449
# 5 12.3232 26.2189 10.6191 0.0000 36.8622 0.0000
# 6 0.0000 0.0000 0.0000 42.0449 0.0000 -8.6207
#
#
#
# Elastic Compliance Matrix: (Units=1/GPa)
#
#
# Indices 1 2 3 4 5 6 
#
# 1 0.020009 -0.008148 -0.007256 0.000000 0.001197 0.000000
# 2 -0.008148 0.011834 0.001923 0.000000 -0.006247 0.000000
# 3 -0.007256 0.001923 0.019850 0.000000 -0.004661 0.000000
# 4 0.000000 0.000000 0.000000 0.004735 0.000000 0.023092
# 5 0.001197 -0.006247 -0.004661 0.000000 0.032514 0.000000
# 6 0.000000 0.000000 0.000000 0.023092 0.000000 -0.003376
#
#
# Mechanical properties :
#
#
# Convention : Reuss Voigt Hill
#
# Bulk Modulus (GPa) = 40.43449 53.95388 47.19419
# Shear Modulus (GPa) = 41.40024 18.89078 30.14551
#
# Velocity S-wave (km/s) = 4.45535 3.00958 3.80183
# Velocity P-wave (km/s) = 6.77156 6.16004 6.47302
#
# Compressibility (1/GPa) = 0.02473136
#
# Stress axis : x y z
#
# Youngs Moduli (GPa) = 49.97735 84.50169 50.37712
#
# Poissons Ratio (x) = 0.68855 0.36552
# Poissons Ratio (y) = 0.40723 -0.09688
# Poissons Ratio (z) = 0.36262 -0.16250
#
# Static dielectric constant tensor:
#      x y z
#    x 3.785210 0.000000 0.289480 
#    y 0.000000 4.673330 0.000000 
#    z 0.289480 0.000000 3.782650 
# 
# 
# High freq. dielectric constant tensor:
#      x y z
#    x 1.807090 0.000000 0.015610 
#    y 0.000000 1.846780 0.000000 
#    z 0.015610 0.000000 1.824530 
# 
# From -- ./inp_files/23625.got.cif
#   From: 2010.06.25/outbox.cif.g09.slc.cpg/sg15_12_cif.got.tgz:23625.got - 2010.06.28 07:06:18.
