data_PCOD8141753
_publ_section_title
;
Structure prediction by ZEFSAII (Michael W. Deem and Ramdas Pophale) SiO2 
 PCOD8141753
Probable space group: C 2/C
;
_chemical_formula_sum "Si O2"
_cell_formula_units_Z 60
_cell_length_a 28.687824
_cell_length_b 18.282888
_cell_length_c 12.356691
_cell_angle_alpha 90.000000
_cell_angle_beta 27.874321
_cell_angle_gamma 90.000000
_cell_volume 3030.103713
_symmetry_space_group_name_H-M "C 2/C"
_symmetry_group_IT_number 15
_symmetry_cell_setting 'monoclinic'
loop_
_space_group_symop_operation_xyz
x,y,z
-x,y,1/2-z
-x,-y,-z
x,-y,1/2+z
1/2+x,1/2+y,z
1/2-x,1/2+y,1/2-z
1/2-x,1/2-y,-z
1/2+x,1/2-y,1/2+z
loop_
_atom_site_type_symbol
_atom_site_label
_atom_site_fract_x
_atom_site_fract_y
_atom_site_fract_z
Si Si1 0.736797 0.289568 0.413456
Si Si2 0.889279 0.226521 0.931333
Si Si3 0.646670 0.789490 0.711209
Si Si4 0.188284 0.447254 0.230899
Si Si5 0.262097 0.894605 0.811203
Si Si6 0.033499 0.274155 0.297875
Si Si7 0.000000 0.525837 0.250000
Si Si8 0.382792 0.919287 0.350538
O O1 0.750000 0.250000 0.500000
O O2 0.743658 0.376408 0.401008
O O3 0.624429 0.281403 0.600627
O O4 0.818257 0.252669 0.171456
O O5 0.889314 0.292016 0.840674
O O6 0.000000 0.211642 0.750000
O O7 0.842381 0.150804 0.977261
O O8 0.750000 0.750000 0.500000
O O9 0.663616 0.864449 0.745467
O O10 0.562065 0.740203 0.944533
O O11 0.250572 0.518547 0.141522
O O12 0.090948 0.430361 0.506920
O O13 0.168153 0.459456 0.145347
O O14 0.309383 0.888415 0.594504
O O15 0.063369 0.346459 0.305828
O O16 0.000000 0.301736 0.250000
O O17 0.962130 0.476165 0.230665
#
# Coordination Sequence:
#
# PCOD8141753 Si02
#       8
#     8   8   8   8   8   8   4   8
#     4  12  24  40  60  91 125 168 211 258 310 375
#     4  11  23  40  64  93 128 166 215 266 312 368
#     4  10  21  37  63  93 121 159 210 261 310 370
#     4  11  24  37  60  90 126 163 211 259 310 385
#     4  10  21  44  63  89 128 168 207 257 325 376
#     4  12  19  37  64  85 120 163 208 245 308 379
#     4  10  22  36  56  94 124 154 198 262 336 364
#     4  11  19  37  62  88 118 164 202 254 321 388
#
# _framework density 19.801302
#
# number of rings (size 3 to 8) (size 9 to 14) (size 15 to 20)
#    0.000    1.067    4.667    2.800    0.933    2.133 
#    0.000    0.667    0.000    9.600    0.000    0.000 
#    0.000    0.000    0.000    0.000    0.000    0.000 
#
# Total GULP energy -371673.064984 kJ/mol
# GULP energy per Si atom -12389.102166 kJ/mol
# Density = 1.975623 g / cm^3
# Si number density = 19.801302 Si / 1000 Ang^3
#
#
#
# Elastic Constant Matrix: (Units=GPa)
#
#
# Indices 1 2 3 4 5 6 
#
# 1 113.1065 44.7187 50.4457 0.0000 1.7609 0.0000
# 2 44.7187 109.2842 44.8053 0.0000 -4.9649 0.0000
# 3 50.4457 44.8053 132.6203 0.0000 -0.9175 0.0000
# 4 0.0000 0.0000 0.0000 41.7770 0.0000 8.5381
# 5 1.7609 -4.9649 -0.9175 0.0000 40.6645 0.0000
# 6 0.0000 0.0000 0.0000 8.5381 0.0000 30.0315
#
#
#
# Elastic Compliance Matrix: (Units=1/GPa)
#
#
# Indices 1 2 3 4 5 6 
#
# 1 0.011698 -0.003489 -0.003278 0.000000 -0.001006 0.000000
# 2 -0.003489 0.011723 -0.002623 0.000000 0.001523 0.000000
# 3 -0.003278 -0.002623 0.009674 0.000000 0.000040 0.000000
# 4 0.000000 0.000000 0.000000 0.025413 0.000000 -0.007225
# 5 -0.001006 0.001523 0.000040 0.000000 0.024822 0.000000
# 6 0.000000 0.000000 0.000000 -0.007225 0.000000 0.035352
#
#
# Mechanical properties :
#
#
# Convention : Reuss Voigt Hill
#
# Bulk Modulus (GPa) = 69.85572 70.55004 70.20288
# Shear Modulus (GPa) = 35.15360 36.83069 35.99215
#
# Velocity S-wave (km/s) = 4.21802 4.31747 4.26803
# Velocity P-wave (km/s) = 7.68617 7.78205 7.73426
#
# Compressibility (1/GPa) = 0.01431522
#
# Stress axis : x y z
#
# Youngs Moduli (GPa) = 85.48320 85.30579 103.37371
#
# Poissons Ratio (x) = 0.29760 0.33887
# Poissons Ratio (y) = 0.29822 0.27114
# Poissons Ratio (z) = 0.28022 0.22375
#
# Static dielectric constant tensor:
#      x y z
#    x 3.830440 0.000000 0.049310 
#    y 0.000000 3.528050 0.000000 
#    z 0.049310 0.000000 3.806840 
# 
# 
# High freq. dielectric constant tensor:
#      x y z
#    x 1.784100 0.000000 0.012350 
#    y 0.000000 1.750590 0.000000 
#    z 0.012350 0.000000 1.773440 
# 
# From -- ./inp_files/98330.got.cif
#   From: 2010.06.25/outbox.cif.g09.slc.cpg/sg15_50_cif.got.tgz:98330.got - 2010.06.28 07:06:18.
