data_PCOD8141454
_publ_section_title
;
Structure prediction by ZEFSAII (Michael W. Deem and Ramdas Pophale) SiO2 
 PCOD8141454
Probable space group: C 2/C
;
_chemical_formula_sum "Si O2"
_cell_formula_units_Z 48
_cell_length_a 7.231511
_cell_length_b 18.149806
_cell_length_c 19.343982
_cell_angle_alpha 90.000000
_cell_angle_beta 112.193152
_cell_angle_gamma 90.000000
_cell_volume 2350.814624
_symmetry_space_group_name_H-M "C 2/C"
_symmetry_group_IT_number 15
_symmetry_cell_setting 'monoclinic'
loop_
_space_group_symop_operation_xyz
x,y,z
-x,y,1/2-z
-x,-y,-z
x,-y,1/2+z
1/2+x,1/2+y,z
1/2-x,1/2+y,1/2-z
1/2-x,1/2-y,-z
1/2+x,1/2-y,1/2+z
loop_
_atom_site_type_symbol
_atom_site_label
_atom_site_fract_x
_atom_site_fract_y
_atom_site_fract_z
Si Si1 0.722191 0.252998 0.785825
Si Si2 0.022615 0.623174 0.334649
Si Si3 0.951902 0.541216 0.663042
Si Si4 0.400292 0.637952 0.897909
Si Si5 0.635717 0.708488 0.043938
Si Si6 0.279264 0.831400 0.352994
O O1 0.500000 0.284043 0.750000
O O2 0.725628 0.191954 0.846326
O O3 0.796494 0.213691 0.725328
O O4 0.852275 0.320325 0.834019
O O5 0.000492 0.540153 0.360169
O O6 0.232185 0.653247 0.391469
O O7 0.000000 0.619931 0.250000
O O8 0.715115 0.559270 0.616831
O O9 0.000000 0.547475 0.750000
O O10 0.099711 0.594922 0.643576
O O11 0.586460 0.643952 0.871148
O O12 0.459278 0.660607 0.984620
O O13 0.571825 0.775470 0.085158
O O14 0.750000 0.750000 0.000000
#
# Coordination Sequence:
#
# PCOD8141454 Si02
#       6
#     8   8   8   8   8   8
#     4  12  20  38  67  93 117 163 218 256 296 370
#     4  11  22  42  61  89 128 157 203 263 305 358
#     4  11  24  39  60  94 126 157 206 255 307 367
#     4  11  21  39  65  92 123 157 212 247 300 379
#     4  10  21  36  67  90 116 168 207 246 305 365
#     4  11  20  39  64  91 117 167 199 253 310 345
#
# _framework density 20.418453
#
# number of rings (size 3 to 8) (size 9 to 14) (size 15 to 20)
#    0.000    1.000    8.333    0.500    0.000    1.333 
#    6.000    3.333    0.000    0.000    0.000    0.000 
#    0.000    0.000    0.000    0.000    0.000    0.000 
#
# Total GULP energy -297335.328906 kJ/mol
# GULP energy per Si atom -12388.972038 kJ/mol
# Density = 2.037198 g / cm^3
# Si number density = 20.418453 Si / 1000 Ang^3
#
#
#
# Elastic Constant Matrix: (Units=GPa)
#
#
# Indices 1 2 3 4 5 6 
#
# 1 45.0175 20.6781 0.3002 0.0000 6.1760 0.0000
# 2 20.6781 131.7355 30.2236 0.0000 -4.5438 0.0000
# 3 0.3002 30.2236 98.3279 0.0000 9.7844 0.0000
# 4 0.0000 0.0000 0.0000 -125.7094 0.0000 32.8988
# 5 6.1760 -4.5438 9.7844 0.0000 21.2837 0.0000
# 6 0.0000 0.0000 0.0000 32.8988 0.0000 17.0728
#
#
#
# Elastic Compliance Matrix: (Units=1/GPa)
#
#
# Indices 1 2 3 4 5 6 
#
# 1 0.025784 -0.004929 0.002395 0.000000 -0.009635 0.000000
# 2 -0.004929 0.009301 -0.003336 0.000000 0.004950 0.000000
# 3 0.002395 -0.003336 0.011871 0.000000 -0.006865 0.000000
# 4 0.000000 0.000000 0.000000 -0.005288 0.000000 0.010190
# 5 -0.009635 0.004950 -0.006865 0.000000 0.053993 0.000000
# 6 0.000000 0.000000 0.000000 0.010190 0.000000 0.038937
#
#
# Mechanical properties :
#
#
# Convention : Reuss Voigt Hill
#
# Bulk Modulus (GPa) = 28.39678 41.94274 35.16976
# Shear Modulus (GPa) = 31.63032 -2.54534 14.54249
#
# Velocity S-wave (km/s) = 3.94014 -1.11772 2.67165
# Velocity P-wave (km/s) = 5.88533 4.34976 5.17482
#
# Compressibility (1/GPa) = 0.03521526
#
# Stress axis : x y z
#
# Youngs Moduli (GPa) = 38.78443 107.51743 84.23649
#
# Poissons Ratio (x) = 0.52995 -0.20175
# Poissons Ratio (y) = 0.19117 0.28104
# Poissons Ratio (z) = -0.09289 0.35871
#
# Static dielectric constant tensor:
#      x y z
#    x 3.359420 0.000000 0.080620 
#    y 0.000000 4.087660 0.000000 
#    z 0.080620 0.000000 4.218380 
# 
# 
# High freq. dielectric constant tensor:
#      x y z
#    x 1.776210 0.000000 0.010900 
#    y 0.000000 1.795820 0.000000 
#    z 0.010900 0.000000 1.808490 
# 
# From -- ./inp_files/232317.got.cif
#   From: 2010.06.25/outbox.cif.g09.slc.cpg/sg15_117_cif.got.tgz:232317.got - 2010.06.28 07:06:18.
