data_PCOD8141086
_publ_section_title
;
Structure prediction by ZEFSAII (Michael W. Deem and Ramdas Pophale) SiO2 
 PCOD8141086
Probable space group: C 2/C
;
_chemical_formula_sum "Si O2"
_cell_formula_units_Z 44
_cell_length_a 20.339711
_cell_length_b 17.288779
_cell_length_c 8.658965
_cell_angle_alpha 90.000000
_cell_angle_beta 127.331645
_cell_angle_gamma 90.000000
_cell_volume 2421.129158
_symmetry_space_group_name_H-M "C 2/C"
_symmetry_group_IT_number 15
_symmetry_cell_setting 'monoclinic'
loop_
_space_group_symop_operation_xyz
x,y,z
-x,y,1/2-z
-x,-y,-z
x,-y,1/2+z
1/2+x,1/2+y,z
1/2-x,1/2+y,1/2-z
1/2-x,1/2-y,-z
1/2+x,1/2-y,1/2+z
loop_
_atom_site_type_symbol
_atom_site_label
_atom_site_fract_x
_atom_site_fract_y
_atom_site_fract_z
Si Si1 0.183008 0.975937 0.469255
Si Si2 0.430234 0.560481 0.949596
Si Si3 0.079817 0.339114 0.280369
Si Si4 0.296711 0.942745 0.894109
Si Si5 0.445084 0.054468 0.028135
Si Si6 0.500000 0.690847 0.250000
O O1 0.128949 0.920499 0.280845
O O2 0.246459 0.926592 0.664325
O O3 0.121583 0.026095 0.484229
O O4 0.233247 0.035879 0.437370
O O5 0.500000 0.500000 0.000000
O O6 0.469051 0.640489 0.062014
O O7 0.159974 0.363545 0.492714
O O8 0.072119 0.245776 0.280091
O O9 0.000000 0.378504 0.250000
O O10 0.083667 0.370136 0.110189
O O11 0.362798 0.011605 0.968881
O O12 0.500000 0.083439 0.250000
O O13 0.500000 0.000000 0.000000
#
# Coordination Sequence:
#
# PCOD8141086 Si02
#       6
#     8   8   8   8   8   4
#     4  10  22  32  63  92 110 144 202 253 292 325
#     4  11  20  42  65  85 102 149 212 257 286 347
#     4  10  21  35  56  85 126 161 184 234 288 346
#     4  11  18  33  55  92 125 149 193 232 286 354
#     4  12  17  30  56  87 121 169 201 221 259 349
#     4  10  22  40  64  82 118 146 206 242 298 340
#
# _framework density 18.173338999999999
#
# number of rings (size 3 to 8) (size 9 to 14) (size 15 to 20)
#    0.545    0.727    7.273    0.000    0.000    0.000 
#    0.000    3.636    0.000    0.000    0.000    0.000 
#    0.000    0.000    0.000    0.000    0.000    0.000 
#
# Total GULP energy -272703.577630 kJ/mol
# GULP energy per Si atom -12395.617165 kJ/mol
# Density = 1.813198 g / cm^3
# Si number density = 18.173339 Si / 1000 Ang^3
#
#
#
# Elastic Constant Matrix: (Units=GPa)
#
#
# Indices 1 2 3 4 5 6 
#
# 1 92.5417 27.3663 37.9823 0.0000 1.1137 0.0000
# 2 27.3663 111.7857 77.6857 0.0000 1.3293 0.0000
# 3 37.9823 77.6857 204.3777 0.0000 -2.4370 0.0000
# 4 0.0000 0.0000 0.0000 35.3496 0.0000 -1.0354
# 5 1.1137 1.3293 -2.4370 0.0000 28.2527 0.0000
# 6 0.0000 0.0000 0.0000 -1.0354 0.0000 13.9005
#
#
#
# Elastic Compliance Matrix: (Units=1/GPa)
#
#
# Indices 1 2 3 4 5 6 
#
# 1 0.011991 -0.001871 -0.001524 0.000000 -0.000516 0.000000
# 2 -0.001871 0.012476 -0.004405 0.000000 -0.000893 0.000000
# 3 -0.001524 -0.004405 0.006861 0.000000 0.000859 0.000000
# 4 0.000000 0.000000 0.000000 0.028351 0.000000 0.002112
# 5 -0.000516 -0.000893 0.000859 0.000000 0.035531 0.000000
# 6 0.000000 0.000000 0.000000 0.002112 0.000000 0.072097
#
#
# Mechanical properties :
#
#
# Convention : Reuss Voigt Hill
#
# Bulk Modulus (GPa) = 63.57849 77.19708 70.38779
# Shear Modulus (GPa) = 26.57493 33.21194 29.89344
#
# Velocity S-wave (km/s) = 3.82816 4.27957 4.06014
# Velocity P-wave (km/s) = 7.38919 8.18475 7.79712
#
# Compressibility (1/GPa) = 0.01572859
#
# Stress axis : x y z
#
# Youngs Moduli (GPa) = 83.39863 80.15675 145.75773
#
# Poissons Ratio (x) = 0.14993 0.22207
# Poissons Ratio (y) = 0.15600 0.64208
# Poissons Ratio (z) = 0.12706 0.35310
#
# Static dielectric constant tensor:
#      x y z
#    x 3.481210 0.000000 0.022300 
#    y 0.000000 2.927650 0.000000 
#    z 0.022300 0.000000 3.998830 
# 
# 
# High freq. dielectric constant tensor:
#      x y z
#    x 1.712160 0.000000 -0.000380 
#    y 0.000000 1.654380 0.000000 
#    z -0.000380 0.000000 1.728380 
# 
# From -- ./inp_files/56281.got.cif
#   From: 2010.06.25/outbox.cif.g09.slc.cpg/sg15_29_cif.got.tgz:56281.got - 2010.06.28 07:06:18.
