data_PCOD8141152
_publ_section_title
;
Structure prediction by ZEFSAII (Michael W. Deem and Ramdas Pophale) SiO2 
 PCOD8141152
Probable space group: C 2/C
;
_chemical_formula_sum "Si O2"
_cell_formula_units_Z 40
_cell_length_a 10.513872
_cell_length_b 10.365303
_cell_length_c 22.094616
_cell_angle_alpha 90.000000
_cell_angle_beta 132.898890
_cell_angle_gamma 90.000000
_cell_volume 1763.892146
_symmetry_space_group_name_H-M "C 2/C"
_symmetry_group_IT_number 15
_symmetry_cell_setting 'monoclinic'
loop_
_space_group_symop_operation_xyz
x,y,z
-x,y,1/2-z
-x,-y,-z
x,-y,1/2+z
1/2+x,1/2+y,z
1/2-x,1/2+y,1/2-z
1/2-x,1/2-y,-z
1/2+x,1/2-y,1/2+z
loop_
_atom_site_type_symbol
_atom_site_label
_atom_site_fract_x
_atom_site_fract_y
_atom_site_fract_z
Si Si1 0.743941 0.478072 0.799135
Si Si2 0.278233 0.236604 0.396894
Si Si3 0.603731 0.616529 0.004650
Si Si4 0.918728 0.495520 0.661319
Si Si5 0.895825 0.003506 0.623225
O O1 0.753031 0.327113 0.822142
O O2 0.603110 0.489065 0.699922
O O3 0.689177 0.559366 0.841934
O O4 0.930019 0.525541 0.837442
O O5 0.485721 0.255903 0.476723
O O6 0.185101 0.372980 0.364361
O O7 0.193028 0.138125 0.418665
O O8 0.637288 0.596616 0.943756
O O9 0.500000 0.500000 0.000000
O O10 0.792714 0.620276 0.097384
O O11 0.000000 0.445609 0.750000
#
# Coordination Sequence:
#
# PCOD8141152 Si02
#       5
#     8   8   8   8   8
#     4   9  19  36  61  83 116 152 186 233 285 339
#     4   9  20  39  61  81 115 153 184 236 290 330
#     4  10  21  35  60  88 114 150 194 236 279 340
#     4  11  21  36  61  84 114 156 191 234 288 334
#     4   9  19  37  59  85 115 149 191 234 279 342
#
# _framework density 22.677123000000002
#
# number of rings (size 3 to 8) (size 9 to 14) (size 15 to 20)
#    1.200    1.200    0.000    3.600    0.000    4.800 
#    0.000    2.000   22.000    0.000    0.000    0.000 
#    0.000    0.000    0.000    0.000    0.000    0.000 
#
# Total GULP energy -247769.771884 kJ/mol
# GULP energy per Si atom -12388.488594 kJ/mol
# Density = 2.262551 g / cm^3
# Si number density = 22.677123 Si / 1000 Ang^3
#
#
#
# Elastic Constant Matrix: (Units=GPa)
#
#
# Indices 1 2 3 4 5 6 
#
# 1 113.2858 4.8094 50.4068 0.0000 10.6170 0.0000
# 2 4.8094 27.7777 13.6571 0.0000 0.4892 0.0000
# 3 50.4068 13.6571 112.2718 0.0000 19.2270 0.0000
# 4 0.0000 0.0000 0.0000 10.1406 0.0000 4.6673
# 5 10.6170 0.4892 19.2270 0.0000 32.9365 0.0000
# 6 0.0000 0.0000 0.0000 4.6673 0.0000 23.5847
#
#
#
# Elastic Compliance Matrix: (Units=1/GPa)
#
#
# Indices 1 2 3 4 5 6 
#
# 1 0.011054 0.000509 -0.004904 0.000000 -0.000708 0.000000
# 2 0.000509 0.038484 -0.005315 0.000000 0.002367 0.000000
# 3 -0.004904 -0.005315 0.012745 0.000000 -0.005780 0.000000
# 4 0.000000 0.000000 0.000000 0.108496 0.000000 -0.021471
# 5 -0.000708 0.002367 -0.005780 0.000000 0.033929 0.000000
# 6 0.000000 0.000000 0.000000 -0.021471 0.000000 0.046649
#
#
# Mechanical properties :
#
#
# Convention : Reuss Voigt Hill
#
# Bulk Modulus (GPa) = 23.32987 43.45353 33.39170
# Shear Modulus (GPa) = 17.53997 25.62983 21.58490
#
# Velocity S-wave (km/s) = 2.78414 3.36550 3.08853
# Velocity P-wave (km/s) = 4.54372 5.85710 5.24171
#
# Compressibility (1/GPa) = 0.04286351
#
# Stress axis : x y z
#
# Youngs Moduli (GPa) = 90.46656 25.98516 78.46217
#
# Poissons Ratio (x) = -0.01324 0.38474
# Poissons Ratio (y) = -0.04609 0.41706
# Poissons Ratio (z) = 0.44360 0.13812
#
# Static dielectric constant tensor:
#      x y z
#    x 4.318430 0.000000 0.308600 
#    y 0.000000 3.530770 0.000000 
#    z 0.308600 0.000000 4.335880 
# 
# 
# High freq. dielectric constant tensor:
#      x y z
#    x 1.907720 0.000000 0.014920 
#    y 0.000000 1.850310 0.000000 
#    z 0.014920 0.000000 1.892290 
# 
# From -- ./inp_files/268294.got.cif
#   From: 2010.06.25/outbox.cif.g09.slc.cpg/sg15_135_cif.got.tgz:268294.got - 2010.06.28 07:06:18.
