data_PCOD8141987
_publ_section_title
;
Structure prediction by ZEFSAII (Michael W. Deem and Ramdas Pophale) SiO2 
 PCOD8141987
Probable space group: C 2/C
;
_chemical_formula_sum "Si O2"
_cell_formula_units_Z 64
_cell_length_a 8.434683
_cell_length_b 15.384900
_cell_length_c 29.734396
_cell_angle_alpha 90.000000
_cell_angle_beta 53.200897
_cell_angle_gamma 90.000000
_cell_volume 3089.687059
_symmetry_space_group_name_H-M "C 2/C"
_symmetry_group_IT_number 15
_symmetry_cell_setting 'monoclinic'
loop_
_space_group_symop_operation_xyz
x,y,z
-x,y,1/2-z
-x,-y,-z
x,-y,1/2+z
1/2+x,1/2+y,z
1/2-x,1/2+y,1/2-z
1/2-x,1/2-y,-z
1/2+x,1/2-y,1/2+z
loop_
_atom_site_type_symbol
_atom_site_label
_atom_site_fract_x
_atom_site_fract_y
_atom_site_fract_z
Si Si1 0.498773 0.688891 0.491245
Si Si2 0.285913 0.586216 0.115813
Si Si3 0.887843 0.378270 0.489686
Si Si4 0.187588 0.271302 0.190299
Si Si5 0.998325 0.115085 0.171642
Si Si6 0.559984 0.600367 0.908111
Si Si7 0.401848 0.152436 0.220023
Si Si8 0.229850 0.508873 0.913098
O O1 0.681533 0.650197 0.431795
O O2 0.294984 0.646431 0.509816
O O3 0.502128 0.792434 0.486710
O O4 0.520839 0.662098 0.539044
O O5 0.426916 0.620661 0.132081
O O6 0.342023 0.489111 0.091157
O O7 0.055707 0.588472 0.169213
O O8 0.818947 0.430144 0.545012
O O9 0.029695 0.439467 0.434494
O O10 0.275743 0.352702 0.149652
O O11 0.353568 0.233360 0.195939
O O12 0.000000 0.305843 0.250000
O O13 0.114553 0.201319 0.165965
O O14 0.805013 0.100701 0.236009
O O15 0.153743 0.034218 0.149211
O O16 0.368017 0.581210 0.911573
O O17 0.500000 0.186730 0.250000
#
# Coordination Sequence:
#
# PCOD8141987 Si02
#       8
#     8   8   8   8   8   8   8   8
#     4  11  22  39  57  88 122 163 200 239 299 354
#     4  10  21  38  60  88 118 160 198 246 294 352
#     4  10  22  37  58  79 122 158 200 234 295 349
#     4  10  22  39  61  89 117 153 198 242 302 358
#     4   9  18  39  62  82 116 157 192 244 297 356
#     4  11  23  36  58  88 126 153 196 251 289 354
#     4   9  20  39  65  87 113 152 199 246 300 355
#     4  10  21  39  56  88 116 158 194 248 288 348
#
# _framework density 20.714071000000001
#
# number of rings (size 3 to 8) (size 9 to 14) (size 15 to 20)
#    0.000    2.000    2.500    1.125    3.500    4.000 
#    2.250    0.000    0.000   12.000    0.000    0.000 
#    0.000    0.000    0.000    0.000    0.000    0.000 
#
# Total GULP energy -396723.850437 kJ/mol
# GULP energy per Si atom -12397.620326 kJ/mol
# Density = 2.066693 g / cm^3
# Si number density = 20.714071 Si / 1000 Ang^3
#
#
#
# Elastic Constant Matrix: (Units=GPa)
#
#
# Indices 1 2 3 4 5 6 
#
# 1 42.4723 28.1583 22.6419 0.0002 -14.6060 0.0000
# 2 28.1583 89.5509 51.2322 0.0004 -11.9914 0.0002
# 3 22.6419 51.2322 115.8291 0.0007 -14.8992 0.0000
# 4 0.0002 0.0004 0.0007 36.3299 -0.0004 -16.4401
# 5 -14.6060 -11.9914 -14.8992 -0.0004 32.7685 0.0000
# 6 0.0000 0.0002 0.0000 -16.4401 0.0000 -4.6039
#
#
#
# Elastic Compliance Matrix: (Units=1/GPa)
#
#
# Indices 1 2 3 4 5 6 
#
# 1 0.033687 -0.008223 -0.001491 0.000000 0.011328 0.000000
# 2 -0.008223 0.017171 -0.006002 0.000000 -0.000110 0.000000
# 3 -0.001491 -0.006002 0.011908 0.000000 0.002553 0.000000
# 4 0.000000 0.000000 0.000000 0.010522 0.000000 -0.037574
# 5 0.011328 -0.000110 0.002553 0.000000 0.036687 0.000000
# 6 0.000000 0.000000 0.000000 -0.037574 0.000000 -0.083033
#
#
# Mechanical properties :
#
#
# Convention : Reuss Voigt Hill
#
# Bulk Modulus (GPa) = 31.91280 50.21299 41.06289
# Shear Modulus (GPa) = 72.65567 22.62024 47.63796
#
# Velocity S-wave (km/s) = 5.92888 3.30816 4.80081
# Velocity P-wave (km/s) = 7.89358 6.23583 7.11316
#
# Compressibility (1/GPa) = 0.03133539
#
# Stress axis : x y z
#
# Youngs Moduli (GPa) = 29.68527 58.23699 83.97747
#
# Poissons Ratio (x) = 0.47886 0.12520
# Poissons Ratio (y) = 0.24409 0.50402
# Poissons Ratio (z) = 0.04426 0.34953
#
# Static dielectric constant tensor:
#      x y z
#    x 3.819110 0.000000 -0.246220 
#    y 0.000000 3.680230 0.000000 
#    z -0.246220 0.000000 3.943470 
# 
# 
# High freq. dielectric constant tensor:
#      x y z
#    x 1.803260 0.000000 -0.020230 
#    y 0.000000 1.798350 0.000000 
#    z -0.020230 0.000000 1.820330 
# 
# From -- ./inp_files/308262.got.cif
#   From: 2010.06.25/outbox.cif.g09.slc.cpg/sg15_155_cif.got.tgz:308262.got - 2010.06.28 07:06:18.
