data_PCOD8141147
_publ_section_title
;
Structure prediction by ZEFSAII (Michael W. Deem and Ramdas Pophale) SiO2 
 PCOD8141147
Probable space group: C 2/C
;
_chemical_formula_sum "Si O2"
_cell_formula_units_Z 56
_cell_length_a 27.746097
_cell_length_b 12.933588
_cell_length_c 8.154053
_cell_angle_alpha 90.000000
_cell_angle_beta 64.820907
_cell_angle_gamma 90.000000
_cell_volume 2648.101122
_symmetry_space_group_name_H-M "C 2/C"
_symmetry_group_IT_number 15
_symmetry_cell_setting 'monoclinic'
loop_
_space_group_symop_operation_xyz
x,y,z
-x,y,1/2-z
-x,-y,-z
x,-y,1/2+z
1/2+x,1/2+y,z
1/2-x,1/2+y,1/2-z
1/2-x,1/2-y,-z
1/2+x,1/2-y,1/2+z
loop_
_atom_site_type_symbol
_atom_site_label
_atom_site_fract_x
_atom_site_fract_y
_atom_site_fract_z
Si Si1 0.725286 0.395125 0.133414
Si Si2 0.390025 0.360597 0.593835
Si Si3 0.514444 0.227623 0.046730
Si Si4 0.337568 0.545929 0.473171
Si Si5 0.443896 0.939674 0.241088
Si Si6 0.910312 0.356672 0.606997
Si Si7 0.826030 0.283776 0.971844
O O1 0.711406 0.503977 0.067473
O O2 0.689078 0.384019 0.348227
O O3 0.711690 0.311774 0.015260
O O4 0.788363 0.380504 0.082355
O O5 0.453806 0.337468 0.503357
O O6 0.375430 0.456211 0.495066
O O7 0.373302 0.381747 0.805439
O O8 0.363785 0.253488 0.565422
O O9 0.500000 0.194899 0.250000
O O10 0.457616 0.230588 0.033125
O O11 0.552265 0.139345 0.915469
O O12 0.500000 0.951032 0.250000
O O13 0.400624 0.896934 0.435845
O O14 0.427194 0.050206 0.200535
O O15 0.857292 0.309200 0.759456
#
# Coordination Sequence:
#
# PCOD8141147 Si02
#       7
#     8   8   8   8   8   8   8
#     4   9  20  39  58  82 112 148 189 239 289 336
#     4  10  21  38  64  85 114 154 188 238 294 343
#     4  11  20  37  59  83 117 152 190 234 281 344
#     4   9  20  41  62  80 116 150 191 242 295 332
#     4  10  22  35  54  82 117 160 182 225 286 337
#     4  11  21  36  56  83 121 152 191 232 279 346
#     4  10  21  35  60  86 112 149 191 235 286 342
#
# _framework density 21.147228999999999
#
# number of rings (size 3 to 8) (size 9 to 14) (size 15 to 20)
#    0.000    2.000    1.429    3.000    2.000    1.714 
#    0.000    0.714    0.000    0.000    0.000    0.000 
#    0.000    0.000    0.000    0.000    0.000    0.000 
#
# Total GULP energy -347011.879131 kJ/mol
# GULP energy per Si atom -12393.281398 kJ/mol
# Density = 2.109910 g / cm^3
# Si number density = 21.147229 Si / 1000 Ang^3
#
#
#
# Elastic Constant Matrix: (Units=GPa)
#
#
# Indices 1 2 3 4 5 6 
#
# 1 54.0788 29.5964 39.0574 0.0000 -13.0474 0.0000
# 2 29.5964 52.0574 31.7438 0.0000 -10.1988 0.0000
# 3 39.0574 31.7438 129.0302 0.0000 -1.8631 0.0000
# 4 0.0000 0.0000 0.0000 32.8691 0.0000 -5.1012
# 5 -13.0474 -10.1988 -1.8631 0.0000 31.3638 0.0000
# 6 0.0000 0.0000 0.0000 -5.1012 0.0000 14.3768
#
#
#
# Elastic Compliance Matrix: (Units=1/GPa)
#
#
# Indices 1 2 3 4 5 6 
#
# 1 0.032270 -0.012610 -0.006537 0.000000 0.008935 0.000000
# 2 -0.012610 0.029187 -0.003305 0.000000 0.004049 0.000000
# 3 -0.006537 -0.003305 0.010496 0.000000 -0.003171 0.000000
# 4 0.000000 0.000000 0.000000 0.032197 0.000000 0.011424
# 5 0.008935 0.004049 -0.003171 0.000000 0.036729 0.000000
# 6 0.000000 0.000000 0.000000 0.011424 0.000000 0.073610
#
#
# Mechanical properties :
#
#
# Convention : Reuss Voigt Hill
#
# Bulk Modulus (GPa) = 36.96898 48.44017 42.70458
# Shear Modulus (GPa) = 18.62831 24.70655 21.66743
#
# Velocity S-wave (km/s) = 2.97119 3.42177 3.20441
# Velocity P-wave (km/s) = 5.41205 6.21025 5.82484
#
# Compressibility (1/GPa) = 0.02704970
#
# Stress axis : x y z
#
# Youngs Moduli (GPa) = 30.98899 34.26139 95.27303
#
# Poissons Ratio (x) = 0.43203 0.62277
# Poissons Ratio (y) = 0.39076 0.31490
# Poissons Ratio (z) = 0.20257 0.11324
#
# Static dielectric constant tensor:
#      x y z
#    x 3.884140 0.000000 -0.018080 
#    y 0.000000 3.685000 0.000000 
#    z -0.018080 0.000000 4.073110 
# 
# 
# High freq. dielectric constant tensor:
#      x y z
#    x 1.808530 0.000000 0.004990 
#    y 0.000000 1.807300 0.000000 
#    z 0.004990 0.000000 1.841190 
# 
# From -- ./inp_files/69277.got.cif
#   From: 2010.06.25/outbox.cif.g09.slc.cpg/sg15_35_cif.got.tgz:69277.got - 2010.06.28 07:06:18.
