data_PCOD8141191
_publ_section_title
;
Structure prediction by ZEFSAII (Michael W. Deem and Ramdas Pophale) SiO2 
 PCOD8141191
Probable space group: C 2/C
;
_chemical_formula_sum "Si O2"
_cell_formula_units_Z 48
_cell_length_a 10.107277
_cell_length_b 15.053987
_cell_length_c 17.449346
_cell_angle_alpha 90.000000
_cell_angle_beta 55.135514
_cell_angle_gamma 90.000000
_cell_volume 2178.446046
_symmetry_space_group_name_H-M "C 2/C"
_symmetry_group_IT_number 15
_symmetry_cell_setting 'monoclinic'
loop_
_space_group_symop_operation_xyz
x,y,z
-x,y,1/2-z
-x,-y,-z
x,-y,1/2+z
1/2+x,1/2+y,z
1/2-x,1/2+y,1/2-z
1/2-x,1/2-y,-z
1/2+x,1/2-y,1/2+z
loop_
_atom_site_type_symbol
_atom_site_label
_atom_site_fract_x
_atom_site_fract_y
_atom_site_fract_z
Si Si1 0.261475 0.041133 0.543217
Si Si2 0.393277 0.945801 0.354892
Si Si3 0.077551 0.971178 0.396938
Si Si4 0.258574 0.350758 0.883706
Si Si5 0.539067 0.819258 0.428542
Si Si6 0.880713 0.157066 0.182017
O O1 0.350910 0.120971 0.553940
O O2 0.340706 0.022287 0.433185
O O3 0.284814 0.954340 0.588240
O O4 0.070405 0.068719 0.603820
O O5 0.500000 0.985528 0.250000
O O6 0.488316 0.867085 0.365814
O O7 0.228778 0.907075 0.367940
O O8 0.156729 0.057924 0.332092
O O9 0.000000 0.000000 0.500000
O O10 0.430919 0.330630 0.862339
O O11 0.263136 0.326555 0.792704
O O12 0.121513 0.292296 0.970853
O O13 0.646952 0.732398 0.373488
#
# Coordination Sequence:
#
# PCOD8141191 Si02
#       6
#     8   8   8   8   8   8
#     4   9  20  40  62  90 120 164 198 251 308 366
#     4  10  21  35  64  94 116 153 211 250 291 365
#     4   9  20  40  60  87 123 165 200 238 313 372
#     4   9  19  36  58  85 123 162 202 249 299 363
#     4  11  22  38  63  95 121 152 213 260 299 345
#     4  10  21  36  59  91 125 162 199 253 311 357
#
# _framework density 22.034056
#
# number of rings (size 3 to 8) (size 9 to 14) (size 15 to 20)
#    0.000    2.333    0.000    3.500    7.000    0.000 
#    0.000    3.333    0.000    6.000    0.000    0.000 
#    0.000    0.000    0.000    0.000    0.000    0.000 
#
# Total GULP energy -297360.133263 kJ/mol
# GULP energy per Si atom -12390.005553 kJ/mol
# Density = 2.198391 g / cm^3
# Si number density = 22.034056 Si / 1000 Ang^3
#
#
#
# Elastic Constant Matrix: (Units=GPa)
#
#
# Indices 1 2 3 4 5 6 
#
# 1 95.8613 19.5842 37.2565 0.0000 -8.3331 0.0000
# 2 19.5842 35.7562 34.4980 0.0000 8.9745 0.0000
# 3 37.2565 34.4980 160.4360 0.0000 11.0767 0.0000
# 4 0.0000 0.0000 0.0000 21.4595 0.0000 2.3843
# 5 -8.3331 8.9745 11.0767 0.0000 21.8013 0.0000
# 6 0.0000 0.0000 0.0000 2.3843 0.0000 19.9351
#
#
#
# Elastic Compliance Matrix: (Units=1/GPa)
#
#
# Indices 1 2 3 4 5 6 
#
# 1 0.013698 -0.007816 -0.002160 0.000000 0.009551 0.000000
# 2 -0.007816 0.042523 -0.006129 0.000000 -0.017378 0.000000
# 3 -0.002160 -0.006129 0.008224 0.000000 -0.002481 0.000000
# 4 0.000000 0.000000 0.000000 0.047227 0.000000 -0.005649
# 5 0.009551 -0.017378 -0.002481 0.000000 0.057934 0.000000
# 6 0.000000 0.000000 0.000000 -0.005649 0.000000 0.050838
#
#
# Mechanical properties :
#
#
# Convention : Reuss Voigt Hill
#
# Bulk Modulus (GPa) = 31.02141 52.74789 41.88465
# Shear Modulus (GPa) = 18.98265 26.02015 22.50140
#
# Velocity S-wave (km/s) = 2.93834 3.44016 3.19910
# Velocity P-wave (km/s) = 5.06174 6.30641 5.71804
#
# Compressibility (1/GPa) = 0.03223580
#
# Stress axis : x y z
#
# Youngs Moduli (GPa) = 73.00251 23.51665 121.60034
#
# Poissons Ratio (x) = 0.18381 0.26262
# Poissons Ratio (y) = 0.57060 0.74525
# Poissons Ratio (z) = 0.15766 0.14413
#
# Static dielectric constant tensor:
#      x y z
#    x 4.825050 0.000000 -0.481960 
#    y 0.000000 3.519990 0.000000 
#    z -0.481960 0.000000 4.406450 
# 
# 
# High freq. dielectric constant tensor:
#      x y z
#    x 1.861760 0.000000 -0.000470 
#    y 0.000000 1.821920 0.000000 
#    z -0.000470 0.000000 1.880970 
# 
# From -- ./inp_files/238252.got.cif
#   From: 2010.06.25/outbox.cif.g09.slc.cpg/sg15_120_cif.got.tgz:238252.got - 2010.06.28 07:06:18.
