data_PCOD8141319
_publ_section_title
;
Structure prediction by ZEFSAII (Michael W. Deem and Ramdas Pophale) SiO2 
 PCOD8141319
Probable space group: C 2/C
;
_chemical_formula_sum "Si O2"
_cell_formula_units_Z 56
_cell_length_a 16.162077
_cell_length_b 6.002302
_cell_length_c 26.018269
_cell_angle_alpha 90.000000
_cell_angle_beta 95.413689
_cell_angle_gamma 90.000000
_cell_volume 2512.765086
_symmetry_space_group_name_H-M "C 2/C"
_symmetry_group_IT_number 15
_symmetry_cell_setting 'monoclinic'
loop_
_space_group_symop_operation_xyz
x,y,z
-x,y,1/2-z
-x,-y,-z
x,-y,1/2+z
1/2+x,1/2+y,z
1/2-x,1/2+y,1/2-z
1/2-x,1/2-y,-z
1/2+x,1/2-y,1/2+z
loop_
_atom_site_type_symbol
_atom_site_label
_atom_site_fract_x
_atom_site_fract_y
_atom_site_fract_z
Si Si1 0.344140 0.164757 0.725467
Si Si2 0.582158 0.624689 0.618288
Si Si3 0.295072 0.035481 0.323772
Si Si4 0.043208 0.811523 0.534658
Si Si5 0.529858 0.505420 0.303723
Si Si6 0.172607 0.292018 0.855578
Si Si7 0.436912 0.072772 0.063136
O O1 0.277383 0.363128 0.716415
O O2 0.433444 0.252821 0.710369
O O3 0.354322 0.087128 0.785532
O O4 0.311625 0.968926 0.687704
O O5 0.658995 0.778161 0.639505
O O6 0.607485 0.435719 0.577461
O O7 0.550724 0.478564 0.664798
O O8 0.509824 0.776880 0.590775
O O9 0.256007 0.859304 0.362474
O O10 0.087975 0.645887 0.496766
O O11 0.972232 0.679360 0.563191
O O12 0.000000 0.000000 0.500000
O O13 0.500000 0.380641 0.250000
O O14 0.596336 0.362640 0.337245
O O15 0.147655 0.412241 0.907931
#
# Coordination Sequence:
#
# PCOD8141319 Si02
#       7
#     8   8   8   8   8   8   8
#     4  11  22  37  55  78 118 166 201 246 302 360
#     4  10  21  36  59  88 116 151 203 252 308 373
#     4  11  23  37  58  82 120 166 204 243 305 376
#     4   9  18  36  62  88 116 149 193 259 318 371
#     4  10  22  35  56  86 117 151 203 257 299 359
#     4  10  21  38  55  84 119 158 202 250 308 375
#     4   9  19  37  62  88 115 149 198 256 319 370
#
# _framework density 22.286204999999999
#
# number of rings (size 3 to 8) (size 9 to 14) (size 15 to 20)
#    0.000    2.000    1.429    1.714    2.000    6.286 
#    0.000    0.714    0.000    8.571    0.000    0.000 
#    0.000    0.000    0.000    0.000    0.000    0.000 
#
# Total GULP energy -346977.296260 kJ/mol
# GULP energy per Si atom -12392.046295 kJ/mol
# Density = 2.223548 g / cm^3
# Si number density = 22.286205 Si / 1000 Ang^3
#
#
#
# Elastic Constant Matrix: (Units=GPa)
#
#
# Indices 1 2 3 4 5 6 
#
# 1 76.5079 38.7591 45.8298 0.0000 -17.0259 0.0000
# 2 38.7591 106.5606 47.9342 0.0000 -15.1320 0.0000
# 3 45.8298 47.9342 130.5185 0.0000 -22.7365 0.0000
# 4 0.0000 0.0000 0.0000 37.1425 0.0000 -16.3408
# 5 -17.0259 -15.1320 -22.7365 0.0000 27.1905 0.0000
# 6 0.0000 0.0000 0.0000 -16.3408 0.0000 104.9194
#
#
#
# Elastic Compliance Matrix: (Units=1/GPa)
#
#
# Indices 1 2 3 4 5 6 
#
# 1 0.019005 -0.004214 -0.004051 0.000000 0.006167 0.000000
# 2 -0.004214 0.012432 -0.002739 0.000000 0.001989 0.000000
# 3 -0.004051 -0.002739 0.010983 0.000000 0.005122 0.000000
# 4 0.000000 0.000000 0.000000 0.028904 0.000000 0.004502
# 5 0.006167 0.001989 0.005122 0.000000 0.046030 0.000000
# 6 0.000000 0.000000 0.000000 0.004502 0.000000 0.010232
#
#
# Mechanical properties :
#
#
# Convention : Reuss Voigt Hill
#
# Bulk Modulus (GPa) = 48.99709 64.29257 56.64483
# Shear Modulus (GPa) = 31.96966 45.92140 38.94553
#
# Velocity S-wave (km/s) = 3.79159 4.54423 4.18487
# Velocity P-wave (km/s) = 6.41883 7.51296 6.98734
#
# Compressibility (1/GPa) = 0.02040938
#
# Stress axis : x y z
#
# Youngs Moduli (GPa) = 52.61834 80.43773 91.05270
#
# Poissons Ratio (x) = 0.33900 0.36886
# Poissons Ratio (y) = 0.22176 0.24943
# Poissons Ratio (z) = 0.21316 0.22035
#
# Static dielectric constant tensor:
#      x y z
#    x 3.742410 0.000000 -0.303750 
#    y 0.000000 4.246300 0.000000 
#    z -0.303750 0.000000 4.479240 
# 
# 
# High freq. dielectric constant tensor:
#      x y z
#    x 1.842270 0.000000 -0.012750 
#    y 0.000000 1.886650 0.000000 
#    z -0.012750 0.000000 1.882770 
# 
# From -- ./inp_files/312342.got.cif
#   From: 2010.06.25/outbox.cif.g09.slc.cpg/sg15_157_cif.got.tgz:312342.got - 2010.06.28 07:06:18.
