data_PCOD8141592
_publ_section_title
;
Structure prediction by ZEFSAII (Michael W. Deem and Ramdas Pophale) SiO2 
 PCOD8141592
Probable space group: C 2/C
;
_chemical_formula_sum "Si O2"
_cell_formula_units_Z 40
_cell_length_a 12.533621
_cell_length_b 14.629374
_cell_length_c 10.764211
_cell_angle_alpha 90.000000
_cell_angle_beta 107.981704
_cell_angle_gamma 90.000000
_cell_volume 1877.309442
_symmetry_space_group_name_H-M "C 2/C"
_symmetry_group_IT_number 15
_symmetry_cell_setting 'monoclinic'
loop_
_space_group_symop_operation_xyz
x,y,z
-x,y,1/2-z
-x,-y,-z
x,-y,1/2+z
1/2+x,1/2+y,z
1/2-x,1/2+y,1/2-z
1/2-x,1/2-y,-z
1/2+x,1/2-y,1/2+z
loop_
_atom_site_type_symbol
_atom_site_label
_atom_site_fract_x
_atom_site_fract_y
_atom_site_fract_z
Si Si1 0.810966 0.624456 0.431055
Si Si2 0.467352 0.666370 0.596187
Si Si3 0.458920 0.129197 0.094945
Si Si4 0.261937 0.434194 0.093464
Si Si5 0.211295 0.825173 0.148145
O O1 0.729879 0.540361 0.360592
O O2 0.783161 0.714324 0.338252
O O3 0.795274 0.643288 0.571587
O O4 0.940502 0.596817 0.458487
O O5 0.500000 0.665268 0.750000
O O6 0.423855 0.767129 0.546960
O O7 0.367773 0.592494 0.543076
O O8 0.583436 0.644052 0.564782
O O9 0.500000 0.117328 0.250000
O O10 0.348818 0.069341 0.031638
O O11 0.250796 0.367786 0.207729
#
# Coordination Sequence:
#
# PCOD8141592 Si02
#       5
#     8   8   8   8   8
#     4  10  22  39  61  88 125 163 197 261 307 351
#     4   8  17  36  59  85 121 156 195 250 300 358
#     4  10  21  37  59  91 123 156 206 254 297 362
#     4  11  21  36  66  90 116 167 207 240 311 371
#     4   9  21  42  60  85 131 156 200 258 308 361
#
# _framework density 21.307089999999999
#
# number of rings (size 3 to 8) (size 9 to 14) (size 15 to 20)
#    0.000    2.400    0.000    2.400    2.800    1.600 
#    0.000    0.000   17.600    0.000    0.000    0.000 
#    0.000    0.000    0.000    0.000    0.000    0.000 
#
# Total GULP energy -247885.255263 kJ/mol
# GULP energy per Si atom -12394.262763 kJ/mol
# Density = 2.125859 g / cm^3
# Si number density = 21.307090 Si / 1000 Ang^3
#
#
#
# Elastic Constant Matrix: (Units=GPa)
#
#
# Indices 1 2 3 4 5 6 
#
# 1 153.5548 52.2829 34.1692 0.0000 -5.5832 0.0000
# 2 52.2829 127.7070 29.2139 0.0000 10.7748 0.0000
# 3 34.1692 29.2139 67.8142 0.0000 4.4562 0.0000
# 4 0.0000 0.0000 0.0000 20.5917 0.0000 -0.2319
# 5 -5.5832 10.7748 4.4562 0.0000 23.7254 0.0000
# 6 0.0000 0.0000 0.0000 -0.2319 0.0000 37.3799
#
#
#
# Elastic Compliance Matrix: (Units=1/GPa)
#
#
# Indices 1 2 3 4 5 6 
#
# 1 0.008401 -0.003046 -0.003181 0.000000 0.003958 0.000000
# 2 -0.003046 0.010051 -0.002479 0.000000 -0.004816 0.000000
# 3 -0.003181 -0.002479 0.017609 0.000000 -0.002930 0.000000
# 4 0.000000 0.000000 0.000000 0.048567 0.000000 0.000301
# 5 0.003958 -0.004816 -0.002930 0.000000 0.045818 0.000000
# 6 0.000000 0.000000 0.000000 0.000301 0.000000 0.026754
#
#
# Mechanical properties :
#
#
# Convention : Reuss Voigt Hill
#
# Bulk Modulus (GPa) = 53.61839 64.48977 59.05408
# Shear Modulus (GPa) = 27.65074 31.90007 29.77541
#
# Velocity S-wave (km/s) = 3.60630 3.87351 3.74229
# Velocity P-wave (km/s) = 6.52378 7.09492 6.81534
#
# Compressibility (1/GPa) = 0.01865032
#
# Stress axis : x y z
#
# Youngs Moduli (GPa) = 119.03267 99.49648 56.78798
#
# Poissons Ratio (x) = 0.30303 0.18064
# Poissons Ratio (y) = 0.36253 0.14076
# Poissons Ratio (z) = 0.37865 0.24662
#
# Static dielectric constant tensor:
#      x y z
#    x 4.784250 0.000000 -0.101460 
#    y 0.000000 4.083510 0.000000 
#    z -0.101460 0.000000 3.231690 
# 
# 
# High freq. dielectric constant tensor:
#      x y z
#    x 1.851470 0.000000 -0.012850 
#    y 0.000000 1.841920 0.000000 
#    z -0.012850 0.000000 1.788740 
# 
# From -- ./inp_files/85509.got.cif
#   From: 2010.06.25/outbox.cif.g09.slc.cpg/sg15_43_cif.got.tgz:85509.got - 2010.06.28 07:06:18.
