data_PCOD8141977
_publ_section_title
;
Structure prediction by ZEFSAII (Michael W. Deem and Ramdas Pophale) SiO2 
 PCOD8141977
Probable space group: C 2/C
;
_chemical_formula_sum "Si O2"
_cell_formula_units_Z 48
_cell_length_a 26.642726
_cell_length_b 7.507512
_cell_length_c 23.044842
_cell_angle_alpha 90.000000
_cell_angle_beta 149.001712
_cell_angle_gamma 90.000000
_cell_volume 2373.920478
_symmetry_space_group_name_H-M "C 2/C"
_symmetry_group_IT_number 15
_symmetry_cell_setting 'monoclinic'
loop_
_space_group_symop_operation_xyz
x,y,z
-x,y,1/2-z
-x,-y,-z
x,-y,1/2+z
1/2+x,1/2+y,z
1/2-x,1/2+y,1/2-z
1/2-x,1/2-y,-z
1/2+x,1/2-y,1/2+z
loop_
_atom_site_type_symbol
_atom_site_label
_atom_site_fract_x
_atom_site_fract_y
_atom_site_fract_z
Si Si1 0.195921 0.994888 0.641376
Si Si2 0.219947 0.047138 0.536043
Si Si3 0.890501 0.633926 0.622096
Si Si4 0.040594 0.705949 0.471453
Si Si5 0.871490 0.366216 0.888056
Si Si6 0.576969 0.752337 0.877492
O O1 0.240331 0.979361 0.621078
O O2 0.155887 0.194099 0.602744
O O3 0.113320 0.848211 0.572896
O O4 0.278975 0.968456 0.770886
O O5 0.146121 0.212898 0.457170
O O6 0.322854 0.107341 0.611652
O O7 0.165733 0.881313 0.451332
O O8 0.882217 0.451244 0.579104
O O9 0.000000 0.680266 0.750000
O O10 0.078497 0.503670 0.517828
O O11 0.027256 0.770664 0.391526
O O12 0.937224 0.709260 0.400749
O O13 0.500000 0.726488 0.750000
#
# Coordination Sequence:
#
# PCOD8141977 Si02
#       6
#     8   8   8   8   8   8
#     4  11  22  40  61  89 120 155 203 248 304 358
#     4  10  22  39  58  86 122 155 194 250 293 355
#     4  10  21  38  60  86 119 156 197 237 299 357
#     4  10  23  41  62  87 122 160 199 252 300 357
#     4  11  22  40  63  88 121 158 205 249 303 355
#     4  10  21  38  63  89 119 154 198 241 300 361
#
# _framework density 20.219715999999998
#
# number of rings (size 3 to 8) (size 9 to 14) (size 15 to 20)
#    0.000    1.667    1.667    2.500    4.667    0.000 
#    0.000    3.333    0.000    0.000    0.000    0.000 
#    0.000    0.000    0.000    0.000    0.000    0.000 
#
# Total GULP energy -297534.934229 kJ/mol
# GULP energy per Si atom -12397.288926 kJ/mol
# Density = 2.017369 g / cm^3
# Si number density = 20.219716 Si / 1000 Ang^3
#
#
#
# Elastic Constant Matrix: (Units=GPa)
#
#
# Indices 1 2 3 4 5 6 
#
# 1 64.3399 13.8420 39.0229 0.0000 4.4064 0.0000
# 2 13.8420 58.7815 14.2805 -0.0001 5.2129 -0.0004
# 3 39.0229 14.2805 80.0917 0.0000 2.6532 0.0000
# 4 0.0000 -0.0001 0.0000 18.7410 0.0000 -2.1301
# 5 4.4064 5.2129 2.6532 0.0000 29.0652 0.0000
# 6 0.0000 -0.0004 0.0000 -2.1301 0.0000 24.7505
#
#
#
# Elastic Compliance Matrix: (Units=1/GPa)
#
#
# Indices 1 2 3 4 5 6 
#
# 1 0.022594 -0.002597 -0.010479 0.000000 -0.002003 0.000000
# 2 -0.002597 0.018330 -0.001913 0.000000 -0.002719 0.000000
# 3 -0.010479 -0.001913 0.017923 0.000000 0.000296 0.000000
# 4 0.000000 0.000000 0.000000 0.053886 0.000000 0.004638
# 5 -0.002003 -0.002719 0.000296 0.000000 0.035170 0.000000
# 6 0.000000 0.000000 0.000000 0.004638 0.000000 0.040802
#
#
# Mechanical properties :
#
#
# Convention : Reuss Voigt Hill
#
# Bulk Modulus (GPa) = 34.63985 37.50045 36.07015
# Shear Modulus (GPa) = 21.90053 23.58250 22.74151
#
# Velocity S-wave (km/s) = 3.29466 3.41884 3.35732
# Velocity P-wave (km/s) = 5.62512 5.84562 5.73643
#
# Compressibility (1/GPa) = 0.02886849
#
# Stress axis : x y z
#
# Youngs Moduli (GPa) = 44.25948 54.55668 55.79538
#
# Poissons Ratio (x) = 0.14169 0.58468
# Poissons Ratio (y) = 0.11495 0.10672
# Poissons Ratio (z) = 0.46380 0.10435
#
# Static dielectric constant tensor:
#      x y z
#    x 3.578190 0.000000 0.102230 
#    y 0.000000 3.874630 0.000000 
#    z 0.102230 0.000000 3.463610 
# 
# 
# High freq. dielectric constant tensor:
#      x y z
#    x 1.785240 0.000000 0.001630 
#    y 0.000000 1.808620 0.000000 
#    z 0.001630 0.000000 1.783400 
# 
# From -- ./inp_files/257239.got.cif
#   From: 2010.06.25/outbox.cif.g09.slc.cpg/sg15_129_cif.got.tgz:257239.got - 2010.06.28 07:06:18.
