data_PCOD8141681
_publ_section_title
;
Structure prediction by ZEFSAII (Michael W. Deem and Ramdas Pophale) SiO2 
 PCOD8141681
Probable space group: C 2/C
;
_chemical_formula_sum "Si O2"
_cell_formula_units_Z 56
_cell_length_a 9.016671
_cell_length_b 16.649261
_cell_length_c 19.245698
_cell_angle_alpha 90.000000
_cell_angle_beta 74.538795
_cell_angle_gamma 90.000000
_cell_volume 2784.625598
_symmetry_space_group_name_H-M "C 2/C"
_symmetry_group_IT_number 15
_symmetry_cell_setting 'monoclinic'
loop_
_space_group_symop_operation_xyz
x,y,z
-x,y,1/2-z
-x,-y,-z
x,-y,1/2+z
1/2+x,1/2+y,z
1/2-x,1/2+y,1/2-z
1/2-x,1/2-y,-z
1/2+x,1/2-y,1/2+z
loop_
_atom_site_type_symbol
_atom_site_label
_atom_site_fract_x
_atom_site_fract_y
_atom_site_fract_z
Si Si1 0.664550 0.668266 0.904423
Si Si2 0.311846 0.022417 0.094039
Si Si3 0.483170 0.494337 0.085707
Si Si4 0.597640 0.341879 0.842216
Si Si5 0.904910 0.750413 0.523007
Si Si6 0.555373 0.900104 0.051531
Si Si7 0.235752 0.823779 0.680624
O O1 0.609710 0.584575 0.878214
O O2 0.834667 0.653015 0.913597
O O3 0.675904 0.740497 0.847415
O O4 0.539006 0.690484 0.978822
O O5 0.331358 0.100108 0.140513
O O6 0.139526 0.988567 0.110992
O O7 0.430615 0.955021 0.108286
O O8 0.344365 0.042225 0.009366
O O9 0.387181 0.570688 0.124735
O O10 0.500000 0.500000 0.000000
O O11 0.638911 0.274951 0.893473
O O12 0.720533 0.332726 0.765123
O O13 0.427322 0.324607 0.836691
O O14 0.750000 0.750000 0.500000
O O15 0.963999 0.659829 0.512856
#
# Coordination Sequence:
#
# PCOD8141681 Si02
#       7
#     8   8   8   8   8   8   8
#     4  12  21  39  67  93 124 167 216 261 315 375
#     4  10  21  37  61  92 130 163 206 259 321 368
#     4  11  20  36  63  94 122 160 205 263 312 375
#     4  10  22  40  65  90 127 169 208 257 326 377
#     4  12  23  37  65  97 128 158 214 270 315 368
#     4  11  21  35  64  96 122 164 215 263 304 373
#     4  10  21  43  64  89 128 173 210 256 317 393
#
# _framework density 20.110423000000001
#
# number of rings (size 3 to 8) (size 9 to 14) (size 15 to 20)
#    0.000    1.143    5.714    2.143    0.000    0.000 
#    2.571    0.714    3.143    0.000    0.000    0.000 
#    0.000    0.000    0.000    0.000    0.000    0.000 
#
# Total GULP energy -347179.295466 kJ/mol
# GULP energy per Si atom -12399.260552 kJ/mol
# Density = 2.006465 g / cm^3
# Si number density = 20.110423 Si / 1000 Ang^3
#
#
#
# Elastic Constant Matrix: (Units=GPa)
#
#
# Indices 1 2 3 4 5 6 
#
# 1 95.4740 47.2682 27.7723 0.0000 -2.1538 0.0000
# 2 47.2682 116.1523 36.2850 0.0000 -2.8251 0.0000
# 3 27.7723 36.2850 105.9503 0.0000 1.9698 0.0000
# 4 0.0000 0.0000 0.0000 30.3052 0.0000 -6.3069
# 5 -2.1538 -2.8251 1.9698 0.0000 18.6597 0.0000
# 6 0.0000 0.0000 0.0000 -6.3069 0.0000 44.1785
#
#
#
# Elastic Compliance Matrix: (Units=1/GPa)
#
#
# Indices 1 2 3 4 5 6 
#
# 1 0.013451 -0.004862 -0.001880 0.000000 0.001015 0.000000
# 2 -0.004862 0.011460 -0.002677 0.000000 0.001456 0.000000
# 3 -0.001880 -0.002677 0.010881 0.000000 -0.001771 0.000000
# 4 0.000000 0.000000 0.000000 0.034008 0.000000 0.004855
# 5 0.001015 0.001456 -0.001771 0.000000 0.054116 0.000000
# 6 0.000000 0.000000 0.000000 0.004855 0.000000 0.023329
#
#
# Mechanical properties :
#
#
# Convention : Reuss Voigt Hill
#
# Bulk Modulus (GPa) = 58.98383 60.02531 59.50457
# Shear Modulus (GPa) = 29.11500 32.37877 30.74689
#
# Velocity S-wave (km/s) = 3.80907 4.01689 3.91436
# Velocity P-wave (km/s) = 6.98133 7.17123 7.07692
#
# Compressibility (1/GPa) = 0.01695380
#
# Stress axis : x y z
#
# Youngs Moduli (GPa) = 74.34501 87.26205 91.90422
#
# Poissons Ratio (x) = 0.42426 0.17274
# Poissons Ratio (y) = 0.36146 0.24605
# Poissons Ratio (z) = 0.13974 0.23362
#
# Static dielectric constant tensor:
#      x y z
#    x 3.556490 0.000000 -0.153880 
#    y 0.000000 3.866720 0.000000 
#    z -0.153880 0.000000 3.461240 
# 
# 
# High freq. dielectric constant tensor:
#      x y z
#    x 1.775520 0.000000 -0.010800 
#    y 0.000000 1.804850 0.000000 
#    z -0.010800 0.000000 1.753530 
# 
# From -- ./inp_files/190897.got.cif
#   From: 2010.06.25/outbox.cif.g09.slc.cpg/sg15_96_cif.got.tgz:190897.got - 2010.06.28 07:06:18.
