data_PCOD8141374
_publ_section_title
;
Structure prediction by ZEFSAII (Michael W. Deem and Ramdas Pophale) SiO2 
 PCOD8141374
Probable space group: C 2/C
;
_chemical_formula_sum "Si O2"
_cell_formula_units_Z 48
_cell_length_a 8.493324
_cell_length_b 28.848793
_cell_length_c 12.855093
_cell_angle_alpha 90.000000
_cell_angle_beta 44.768477
_cell_angle_gamma 90.000000
_cell_volume 2218.214500
_symmetry_space_group_name_H-M "C 2/C"
_symmetry_group_IT_number 15
_symmetry_cell_setting 'monoclinic'
loop_
_space_group_symop_operation_xyz
x,y,z
-x,y,1/2-z
-x,-y,-z
x,-y,1/2+z
1/2+x,1/2+y,z
1/2-x,1/2+y,1/2-z
1/2-x,1/2-y,-z
1/2+x,1/2-y,1/2+z
loop_
_atom_site_type_symbol
_atom_site_label
_atom_site_fract_x
_atom_site_fract_y
_atom_site_fract_z
Si Si1 0.167091 0.436671 0.416335
Si Si2 0.747332 0.270865 0.614586
Si Si3 0.339461 0.835689 0.039161
Si Si4 0.584446 0.679367 0.867733
Si Si5 0.237833 0.085833 0.856063
Si Si6 0.815224 0.029980 0.419414
O O1 0.143102 0.389999 0.495929
O O2 0.304068 0.432181 0.242392
O O3 0.294244 0.473988 0.429246
O O4 0.916345 0.450366 0.510990
O O5 0.500000 0.291150 0.750000
O O6 0.750000 0.250000 0.500000
O O7 0.800743 0.227591 0.661401
O O8 0.921249 0.311478 0.559450
O O9 0.207223 0.836548 0.207545
O O10 0.182988 0.812218 0.023648
O O11 0.625498 0.636819 0.928852
O O12 0.500000 0.092313 0.750000
O O13 0.133847 0.049485 0.988252
O O14 0.000000 0.046736 0.250000
#
# Coordination Sequence:
#
# PCOD8141374 Si02
#       6
#     8   8   8   8   8   8
#     4   9  21  40  59  90 124 166 214 264 317 379
#     4  12  24  41  67  98 128 165 213 262 321 389
#     4  10  22  41  66  91 128 168 218 264 315 385
#     4  10  21  40  65  96 124 171 214 260 320 388
#     4   9  19  37  64  90 125 170 220 260 310 396
#     4  10  21  36  61  90 124 163 217 268 316 369
#
# _framework density 21.639025
#
# number of rings (size 3 to 8) (size 9 to 14) (size 15 to 20)
#    0.000    2.000    1.667    1.000    9.333    1.333 
#    0.000    0.000    0.000    0.000    0.000    0.000 
#    0.000    0.000    0.000    0.000    0.000    0.000 
#
# Total GULP energy -297400.894731 kJ/mol
# GULP energy per Si atom -12391.703947 kJ/mol
# Density = 2.158977 g / cm^3
# Si number density = 21.639025 Si / 1000 Ang^3
#
#
#
# Elastic Constant Matrix: (Units=GPa)
#
#
# Indices 1 2 3 4 5 6 
#
# 1 73.1065 45.6895 31.8118 0.0000 -13.1146 0.0000
# 2 45.6895 135.1781 42.8188 0.0000 -7.3444 0.0000
# 3 31.8118 42.8188 102.6338 0.0000 -16.2097 0.0000
# 4 0.0000 0.0000 0.0000 20.6389 0.0000 7.0513
# 5 -13.1146 -7.3444 -16.2097 0.0000 32.1403 0.0000
# 6 0.0000 0.0000 0.0000 7.0513 0.0000 15.2107
#
#
#
# Elastic Compliance Matrix: (Units=1/GPa)
#
#
# Indices 1 2 3 4 5 6 
#
# 1 0.019171 -0.005272 -0.002931 0.000000 0.005140 0.000000
# 2 -0.005272 0.009975 -0.002724 0.000000 -0.001246 0.000000
# 3 -0.002931 -0.002724 0.012497 0.000000 0.004484 0.000000
# 4 0.000000 0.000000 0.000000 0.057570 0.000000 -0.026688
# 5 0.005140 -0.001246 0.004484 0.000000 0.035188 0.000000
# 6 0.000000 0.000000 0.000000 -0.026688 0.000000 0.078115
#
#
# Mechanical properties :
#
#
# Convention : Reuss Voigt Hill
#
# Bulk Modulus (GPa) = 50.53540 61.28428 55.90984
# Shear Modulus (GPa) = 20.74986 26.30455 23.52721
#
# Velocity S-wave (km/s) = 3.09999 3.49034 3.30094
# Velocity P-wave (km/s) = 6.01812 6.68027 6.35782
#
# Compressibility (1/GPa) = 0.01978811
#
# Stress axis : x y z
#
# Youngs Moduli (GPa) = 52.16245 100.25291 80.02232
#
# Poissons Ratio (x) = 0.52854 0.23453
# Poissons Ratio (y) = 0.27500 0.21799
# Poissons Ratio (z) = 0.15288 0.27310
#
# Static dielectric constant tensor:
#      x y z
#    x 4.142610 0.000000 -0.131510 
#    y 0.000000 3.727430 0.000000 
#    z -0.131510 0.000000 3.721800 
# 
# 
# High freq. dielectric constant tensor:
#      x y z
#    x 1.856490 0.000000 -0.020920 
#    y 0.000000 1.859020 0.000000 
#    z -0.020920 0.000000 1.825590 
# 
# From -- ./inp_files/139368.got.cif
#   From: 2010.06.25/outbox.cif.g09.slc.cpg/sg15_70_cif.got.tgz:139368.got - 2010.06.28 07:06:18.
