data_PCOD8141119
_publ_section_title
;
Structure prediction by ZEFSAII (Michael W. Deem and Ramdas Pophale) SiO2 
 PCOD8141119
Probable space group: C 2/C
;
_chemical_formula_sum "Si O2"
_cell_formula_units_Z 56
_cell_length_a 8.533712
_cell_length_b 27.039605
_cell_length_c 14.492685
_cell_angle_alpha 90.000000
_cell_angle_beta 57.095709
_cell_angle_gamma 90.000000
_cell_volume 2807.687960
_symmetry_space_group_name_H-M "C 2/C"
_symmetry_group_IT_number 15
_symmetry_cell_setting 'monoclinic'
loop_
_space_group_symop_operation_xyz
x,y,z
-x,y,1/2-z
-x,-y,-z
x,-y,1/2+z
1/2+x,1/2+y,z
1/2-x,1/2+y,1/2-z
1/2-x,1/2-y,-z
1/2+x,1/2-y,1/2+z
loop_
_atom_site_type_symbol
_atom_site_label
_atom_site_fract_x
_atom_site_fract_y
_atom_site_fract_z
Si Si1 0.441689 0.552313 0.482616
Si Si2 0.200320 0.367237 0.141800
Si Si3 0.873684 0.452828 0.563903
Si Si4 0.800327 0.798956 0.268453
Si Si5 0.294501 0.911314 0.774578
Si Si6 0.978328 0.654954 0.984516
Si Si7 0.853808 0.692849 0.213303
O O1 0.500000 0.500000 0.500000
O O2 0.326598 0.583497 0.595490
O O3 0.314627 0.546004 0.433918
O O4 0.638985 0.577754 0.399515
O O5 0.309003 0.328366 0.169901
O O6 0.175975 0.342482 0.048129
O O7 0.000000 0.381701 0.250000
O O8 0.801907 0.453000 0.692360
O O9 0.994162 0.402660 0.509788
O O10 0.000000 0.500000 0.500000
O O11 0.672823 0.826612 0.382248
O O12 0.732709 0.742969 0.264852
O O13 0.000000 0.796015 0.250000
O O14 0.500000 0.908940 0.750000
O O15 0.231957 0.857260 0.756339
O O16 0.941213 0.691618 0.082143
O O17 0.000000 0.691022 0.250000
#
# Coordination Sequence:
#
# PCOD8141119 Si02
#       7
#     8   8   8   8   8   8   8
#     4  11  23  37  59  87 114 151 194 237 292 349
#     4   9  21  41  58  81 118 154 192 238 289 348
#     4  10  21  39  60  81 113 153 191 238 292 345
#     4  10  21  35  58  87 112 148 196 241 286 343
#     4  10  21  38  58  84 117 150 191 239 289 347
#     4   9  20  39  57  80 116 152 188 234 290 345
#     4   9  20  36  57  85 115 150 190 237 291 343
#
# _framework density 19.945236000000001
#
# number of rings (size 3 to 8) (size 9 to 14) (size 15 to 20)
#    0.000    2.286    0.000    1.286    0.000   12.571 
#    0.000   11.429    0.000    0.000    0.000    0.000 
#    0.000    0.000    0.000    0.000    0.000    0.000 
#
# Total GULP energy -346993.295284 kJ/mol
# GULP energy per Si atom -12392.617689 kJ/mol
# Density = 1.989984 g / cm^3
# Si number density = 19.945236 Si / 1000 Ang^3
#
#
#
# Elastic Constant Matrix: (Units=GPa)
#
#
# Indices 1 2 3 4 5 6 
#
# 1 79.9000 44.6392 39.6855 0.0000 -3.0786 0.0000
# 2 44.6392 132.2853 57.2348 0.0000 -7.4539 0.0000
# 3 39.6855 57.2348 111.7479 0.0000 6.3238 0.0000
# 4 0.0000 0.0000 0.0000 26.2465 0.0000 1.8097
# 5 -3.0786 -7.4539 6.3238 0.0000 36.3504 0.0000
# 6 0.0000 0.0000 0.0000 1.8097 0.0000 15.2845
#
#
#
# Elastic Compliance Matrix: (Units=1/GPa)
#
#
# Indices 1 2 3 4 5 6 
#
# 1 0.016711 -0.003806 -0.004061 0.000000 0.001341 0.000000
# 2 -0.003806 0.010888 -0.004376 0.000000 0.002671 0.000000
# 3 -0.004061 -0.004376 0.012829 0.000000 -0.003473 0.000000
# 4 0.000000 0.000000 0.000000 0.038414 0.000000 -0.004548
# 5 0.001341 0.002671 -0.003473 0.000000 0.028776 0.000000
# 6 0.000000 0.000000 0.000000 -0.004548 0.000000 0.065964
#
#
# Mechanical properties :
#
#
# Convention : Reuss Voigt Hill
#
# Bulk Modulus (GPa) = 62.73194 67.45022 65.09108
# Shear Modulus (GPa) = 24.58441 27.73454 26.15948
#
# Velocity S-wave (km/s) = 3.51464 3.73303 3.62548
# Velocity P-wave (km/s) = 6.92753 7.24374 7.08740
#
# Compressibility (1/GPa) = 0.01594084
#
# Stress axis : x y z
#
# Youngs Moduli (GPa) = 59.84089 91.84706 77.95080
#
# Poissons Ratio (x) = 0.34961 0.31655
# Poissons Ratio (y) = 0.22778 0.34110
# Poissons Ratio (z) = 0.24301 0.40190
#
# Static dielectric constant tensor:
#      x y z
#    x 3.712410 0.000000 0.528380 
#    y 0.000000 3.903680 0.000000 
#    z 0.528380 0.000000 4.336190 
# 
# 
# High freq. dielectric constant tensor:
#      x y z
#    x 1.771160 0.000000 0.016410 
#    y 0.000000 1.785310 0.000000 
#    z 0.016410 0.000000 1.781070 
# 
# From -- ./inp_files/138511.got.cif
#   From: 2010.06.25/outbox.cif.g09.slc.cpg/sg15_70_cif.got.tgz:138511.got - 2010.06.28 07:06:18.
