data_PCOD8141967
_publ_section_title
;
Structure prediction by ZEFSAII (Michael W. Deem and Ramdas Pophale) SiO2 
 PCOD8141967
Probable space group: C 2/C
;
_chemical_formula_sum "Si O2"
_cell_formula_units_Z 40
_cell_length_a 14.077577
_cell_length_b 28.419334
_cell_length_c 5.115631
_cell_angle_alpha 90.000000
_cell_angle_beta 115.162637
_cell_angle_gamma 90.000000
_cell_volume 1852.421227
_symmetry_space_group_name_H-M "C 2/C"
_symmetry_group_IT_number 15
_symmetry_cell_setting 'monoclinic'
loop_
_space_group_symop_operation_xyz
x,y,z
-x,y,1/2-z
-x,-y,-z
x,-y,1/2+z
1/2+x,1/2+y,z
1/2-x,1/2+y,1/2-z
1/2-x,1/2-y,-z
1/2+x,1/2-y,1/2+z
loop_
_atom_site_type_symbol
_atom_site_label
_atom_site_fract_x
_atom_site_fract_y
_atom_site_fract_z
Si Si1 0.681838 0.880791 0.972961
Si Si2 0.878337 0.164719 0.600469
Si Si3 0.882842 0.480458 0.799149
Si Si4 0.878043 0.672709 0.591261
Si Si5 0.875847 0.776450 0.597447
O O1 0.621643 0.928222 0.821267
O O2 0.642094 0.840528 0.732133
O O3 0.808619 0.882240 0.077380
O O4 0.657709 0.867139 0.244151
O O5 0.842816 0.185710 0.279233
O O6 0.000000 0.149986 0.750000
O O7 0.847223 0.203456 0.779865
O O8 0.826125 0.514050 0.514265
O O9 0.000000 0.500000 0.000000
O O10 0.823978 0.724130 0.584598
O O11 0.000000 0.679730 0.750000
O O12 0.000000 0.769602 0.750000
#
# Coordination Sequence:
#
# PCOD8141967 Si02
#       5
#     8   8   8   8   8
#     4  12  24  37  61  90 110 159 206 238 303 357
#     4  10  21  38  60  82 119 157 206 248 279 351
#     4  10  23  40  61  82 114 153 182 244 310 376
#     4  11  24  36  56  88 128 155 197 251 281 363
#     4   9  19  37  55  82 122 168 194 238 305 322
#
# _framework density 21.593361999999999
#
# number of rings (size 3 to 8) (size 9 to 14) (size 15 to 20)
#    0.000    1.600    0.000    4.200    8.400    8.000 
#    0.000    0.000    0.000    1.200    0.000    0.000 
#    0.000    0.000    0.000    0.000    0.000    0.000 
#
# Total GULP energy -247837.436356 kJ/mol
# GULP energy per Si atom -12391.871818 kJ/mol
# Density = 2.154421 g / cm^3
# Si number density = 21.593362 Si / 1000 Ang^3
#
#
#
# Elastic Constant Matrix: (Units=GPa)
#
#
# Indices 1 2 3 4 5 6 
#
# 1 66.5272 35.9950 25.4613 0.0000 -6.0488 0.0000
# 2 35.9950 100.4788 19.3856 0.0000 3.6950 0.0000
# 3 25.4613 19.3856 106.6240 0.0000 -29.2617 0.0000
# 4 0.0000 0.0000 0.0000 112.7705 0.0000 48.7204
# 5 -6.0488 3.6950 -29.2617 0.0000 40.3035 0.0000
# 6 0.0000 0.0000 0.0000 48.7204 0.0000 46.7031
#
#
#
# Elastic Compliance Matrix: (Units=1/GPa)
#
#
# Indices 1 2 3 4 5 6 
#
# 1 0.019930 -0.006564 -0.003222 0.000000 0.001254 0.000000
# 2 -0.006564 0.012751 -0.001676 0.000000 -0.003371 0.000000
# 3 -0.003222 -0.001676 0.012941 0.000000 0.009066 0.000000
# 4 0.000000 0.000000 0.000000 0.016143 0.000000 -0.016841
# 5 0.001254 -0.003371 0.009066 0.000000 0.031891 0.000000
# 6 0.000000 0.000000 0.000000 -0.016841 0.000000 0.038980
#
#
# Mechanical properties :
#
#
# Convention : Reuss Voigt Hill
#
# Bulk Modulus (GPa) = 44.05600 48.36820 46.21210
# Shear Modulus (GPa) = 30.65126 52.80795 41.72960
#
# Velocity S-wave (km/s) = 3.77168 4.95063 4.40081
# Velocity P-wave (km/s) = 6.27808 7.42472 6.87535
#
# Compressibility (1/GPa) = 0.02269839
#
# Stress axis : x y z
#
# Youngs Moduli (GPa) = 50.17555 78.42419 77.27553
#
# Poissons Ratio (x) = 0.51479 0.24895
# Poissons Ratio (y) = 0.32936 0.12951
# Poissons Ratio (z) = 0.16165 0.13144
#
# Static dielectric constant tensor:
#      x y z
#    x 0.000000 0.000000 0.000000 
#    y 0.000000 0.000000 0.000000 
#    z 0.000000 0.000000 0.000000 
# 
# 
# High freq. dielectric constant tensor:
#      x y z
#    x 1.854530 0.000000 -0.009930 
#    y 0.000000 1.812130 0.000000 
#    z -0.009930 0.000000 1.876340 
# 
# From -- ./inp_files/8147.got.cif
#   From: 2010.06.25/outbox.cif.g09.slc.cpg/sg15_5_cif.got.tgz:8147.got - 2010.06.28 07:06:18.
