data_PCOD8141822
_publ_section_title
;
Structure prediction by ZEFSAII (Michael W. Deem and Ramdas Pophale) SiO2 
 PCOD8141822
Probable space group: C 2/C
;
_chemical_formula_sum "Si O2"
_cell_formula_units_Z 60
_cell_length_a 6.337376
_cell_length_b 29.174438
_cell_length_c 16.633938
_cell_angle_alpha 90.000000
_cell_angle_beta 105.373486
_cell_angle_gamma 90.000000
_cell_volume 2965.393776
_symmetry_space_group_name_H-M "C 2/C"
_symmetry_group_IT_number 15
_symmetry_cell_setting 'monoclinic'
loop_
_space_group_symop_operation_xyz
x,y,z
-x,y,1/2-z
-x,-y,-z
x,-y,1/2+z
1/2+x,1/2+y,z
1/2-x,1/2+y,1/2-z
1/2-x,1/2-y,-z
1/2+x,1/2-y,1/2+z
loop_
_atom_site_type_symbol
_atom_site_label
_atom_site_fract_x
_atom_site_fract_y
_atom_site_fract_z
Si Si1 0.000000 0.056265 0.250000
Si Si2 0.774926 0.975579 0.883456
Si Si3 0.477950 0.659703 0.925190
Si Si4 0.851311 0.766638 0.160359
Si Si5 0.610176 0.089442 0.112621
Si Si6 0.099257 0.283429 0.433838
Si Si7 0.122228 0.679838 0.441107
Si Si8 0.343550 0.566630 0.974703
O O1 0.130094 0.025097 0.198021
O O2 0.167842 0.089455 0.313349
O O3 0.541153 0.951056 0.868185
O O4 0.738004 0.027821 0.907583
O O5 0.939746 0.950926 0.960310
O O6 0.608268 0.680283 0.861805
O O7 0.251900 0.686714 0.893032
O O8 0.420982 0.606142 0.920438
O O9 0.616687 0.670768 0.021028
O O10 0.587310 0.759942 0.142294
O O11 0.925513 0.729200 0.102136
O O12 0.000000 0.753639 0.250000
O O13 0.489340 0.137706 0.117348
O O14 0.665586 0.082692 0.023401
O O15 0.250000 0.250000 0.500000
O O16 0.980970 0.318692 0.481404
#
# Coordination Sequence:
#
# PCOD8141822 Si02
#       8
#     4   8   8   8   8   8   8   8
#     4  10  24  40  58  90 132 164 190 242 330 370
#     4  10  21  40  61  90 123 155 198 256 303 374
#     4  11  20  40  64  88 118 157 208 260 301 364
#     4  11  25  39  56  92 127 162 201 256 317 370
#     4  11  21  38  63  92 125 158 202 261 308 364
#     4  11  19  39  65  82 115 161 206 248 298 365
#     4  11  21  37  63  91 119 159 205 253 308 369
#     4  10  21  37  66  92 110 156 215 252 304 365
#
# _framework density 20.233398999999999
#
# number of rings (size 3 to 8) (size 9 to 14) (size 15 to 20)
#    0.000    1.333    5.333    1.600    0.000    1.600 
#    3.600    0.000    2.933    0.000    0.000    0.000 
#    0.000    0.000    0.000    0.000    0.000    0.000 
#
# Total GULP energy -371718.617550 kJ/mol
# GULP energy per Si atom -12390.620585 kJ/mol
# Density = 2.018735 g / cm^3
# Si number density = 20.233399 Si / 1000 Ang^3
#
#
#
# Elastic Constant Matrix: (Units=GPa)
#
#
# Indices 1 2 3 4 5 6 
#
# 1 97.4859 27.8986 31.9558 0.0000 18.2985 0.0000
# 2 27.8986 105.3719 18.5508 0.0000 6.9383 0.0000
# 3 31.9558 18.5508 71.7031 0.0000 21.8134 0.0000
# 4 0.0000 0.0000 0.0000 16.2076 0.0000 0.8857
# 5 18.2985 6.9383 21.8134 0.0000 34.1792 0.0000
# 6 0.0000 0.0000 0.0000 0.8857 0.0000 29.9541
#
#
#
# Elastic Compliance Matrix: (Units=1/GPa)
#
#
# Indices 1 2 3 4 5 6 
#
# 1 0.013005 -0.002488 -0.003956 0.000000 -0.003933 0.000000
# 2 -0.002488 0.010425 -0.001675 0.000000 0.000285 0.000000
# 3 -0.003956 -0.001675 0.019104 0.000000 -0.009735 0.000000
# 4 0.000000 0.000000 0.000000 0.061799 0.000000 -0.001827
# 5 -0.003933 0.000285 -0.009735 0.000000 0.037518 0.000000
# 6 0.000000 0.000000 0.000000 -0.001827 0.000000 0.033438
#
#
# Mechanical properties :
#
#
# Convention : Reuss Voigt Hill
#
# Bulk Modulus (GPa) = 38.02742 47.93014 42.97878
# Shear Modulus (GPa) = 24.96352 29.14522 27.05437
#
# Velocity S-wave (km/s) = 3.51633 3.79944 3.66062
# Velocity P-wave (km/s) = 5.94317 6.55651 6.25736
#
# Compressibility (1/GPa) = 0.02629682
#
# Stress axis : x y z
#
# Youngs Moduli (GPa) = 76.89498 95.92307 52.34463
#
# Poissons Ratio (x) = 0.23864 0.20706
# Poissons Ratio (y) = 0.19130 0.08768
# Poissons Ratio (z) = 0.30418 0.16067
#
# Static dielectric constant tensor:
#      x y z
#    x 4.042900 0.000000 0.214010 
#    y 0.000000 3.762660 0.000000 
#    z 0.214010 0.000000 3.476780 
# 
# 
# High freq. dielectric constant tensor:
#      x y z
#    x 1.805040 0.000000 0.017090 
#    y 0.000000 1.780880 0.000000 
#    z 0.017090 0.000000 1.760680 
# 
# From -- ./inp_files/186753.got.cif
#   From: 2010.06.25/outbox.cif.g09.slc.cpg/sg15_94_cif.got.tgz:186753.got - 2010.06.28 07:06:18.
