data_PCOD8141104
_publ_section_title
;
Structure prediction by ZEFSAII (Michael W. Deem and Ramdas Pophale) SiO2 
 PCOD8141104
Probable space group: C 2/C
;
_chemical_formula_sum "Si O2"
_cell_formula_units_Z 52
_cell_length_a 12.021957
_cell_length_b 23.061148
_cell_length_c 10.210838
_cell_angle_alpha 90.000000
_cell_angle_beta 86.769750
_cell_angle_gamma 90.000000
_cell_volume 2826.356258
_symmetry_space_group_name_H-M "C 2/C"
_symmetry_group_IT_number 15
_symmetry_cell_setting 'monoclinic'
loop_
_space_group_symop_operation_xyz
x,y,z
-x,y,1/2-z
-x,-y,-z
x,-y,1/2+z
1/2+x,1/2+y,z
1/2-x,1/2+y,1/2-z
1/2-x,1/2-y,-z
1/2+x,1/2-y,1/2+z
loop_
_atom_site_type_symbol
_atom_site_label
_atom_site_fract_x
_atom_site_fract_y
_atom_site_fract_z
Si Si1 0.500000 0.901446 0.750000
Si Si2 0.500342 0.698039 0.452839
Si Si3 0.824944 0.989986 0.999978
Si Si4 0.017196 0.915432 0.096601
Si Si5 0.077545 0.291362 0.855202
Si Si6 0.180386 0.823957 0.741595
Si Si7 0.770722 0.550846 0.256962
O O1 0.539332 0.859146 0.868073
O O2 0.601717 0.942457 0.707226
O O3 0.527077 0.652889 0.566997
O O4 0.450426 0.758781 0.508474
O O5 0.402256 0.670106 0.374358
O O6 0.613739 0.709322 0.362517
O O7 0.920114 0.942241 0.012938
O O8 0.770909 0.999775 0.145777
O O9 0.739740 0.966953 0.894941
O O10 0.869818 0.051868 0.948323
O O11 0.000000 0.925992 0.250000
O O12 0.208148 0.288375 0.805723
O O13 0.000000 0.260780 0.750000
O O14 0.206873 0.888844 0.788011
#
# Coordination Sequence:
#
# PCOD8141104 Si02
#       7
#     4   8   8   8   8   8   8
#     4   8  22  40  60  74 112 150 204 234 284 328
#     4  11  20  34  59  82 115 149 186 230 291 349
#     4  11  22  33  59  81 120 146 189 225 290 342
#     4  11  21  31  50  89 117 143 175 231 283 351
#     4   9  20  38  55  82 108 148 190 239 273 333
#     4  10  21  35  57  83 112 152 187 231 291 343
#     4  11  20  41  56  85 111 159 187 240 283 341
#
# _framework density 18.398247000000001
#
# number of rings (size 3 to 8) (size 9 to 14) (size 15 to 20)
#    0.462    1.231    4.615    0.923    0.000    1.231 
#    0.000    0.000    0.000    0.000    0.000    0.000 
#    0.000    0.000    0.000    0.000    0.000    0.000 
#
# Total GULP energy -322218.026461 kJ/mol
# GULP energy per Si atom -12393.001018 kJ/mol
# Density = 1.835637 g / cm^3
# Si number density = 18.398247 Si / 1000 Ang^3
#
#
#
# Elastic Constant Matrix: (Units=GPa)
#
#
# Indices 1 2 3 4 5 6 
#
# 1 114.8433 22.0309 34.4025 0.0000 -13.9749 0.0000
# 2 22.0309 57.6644 25.7727 0.0000 -11.6058 0.0000
# 3 34.4025 25.7727 90.8239 0.0000 -2.2367 0.0000
# 4 0.0000 0.0000 0.0000 23.8750 0.0000 -1.1965
# 5 -13.9749 -11.6058 -2.2367 0.0000 19.0868 0.0000
# 6 0.0000 0.0000 0.0000 -1.1965 0.0000 9.3454
#
#
#
# Elastic Compliance Matrix: (Units=1/GPa)
#
#
# Indices 1 2 3 4 5 6 
#
# 1 0.010840 -0.001157 -0.003610 0.000000 0.006810 0.000000
# 2 -0.001157 0.022837 -0.005737 0.000000 0.012367 0.000000
# 3 -0.003610 -0.005737 0.013895 0.000000 -0.004503 0.000000
# 4 0.000000 0.000000 0.000000 0.042155 0.000000 0.005397
# 5 0.006810 0.012367 -0.004503 0.000000 0.064370 0.000000
# 6 0.000000 0.000000 0.000000 0.005397 0.000000 0.107696
#
#
# Mechanical properties :
#
#
# Convention : Reuss Voigt Hill
#
# Bulk Modulus (GPa) = 37.64721 47.52710 42.58716
# Shear Modulus (GPa) = 17.14350 22.53646 19.83998
#
# Velocity S-wave (km/s) = 3.05585 3.50369 3.28741
# Velocity P-wave (km/s) = 5.74089 6.50048 6.13246
#
# Compressibility (1/GPa) = 0.02656239
#
# Stress axis : x y z
#
# Youngs Moduli (GPa) = 92.25505 43.78829 71.96943
#
# Poissons Ratio (x) = 0.05068 0.25979
# Poissons Ratio (y) = 0.10678 0.41292
# Poissons Ratio (z) = 0.33301 0.25123
#
# Static dielectric constant tensor:
#      x y z
#    x 3.371810 0.000000 -0.018160 
#    y 0.000000 3.134020 0.000000 
#    z -0.018160 0.000000 3.228430 
# 
# 
# High freq. dielectric constant tensor:
#      x y z
#    x 1.713020 0.000000 0.001670 
#    y 0.000000 1.696880 0.000000 
#    z 0.001670 0.000000 1.702400 
# 
# From -- ./inp_files/88832.got.cif
#   From: 2010.06.25/outbox.cif.g09.slc.cpg/sg15_45_cif.got.tgz:88832.got - 2010.06.28 07:06:18.
