data_PCOD8141402
_publ_section_title
;
Structure prediction by ZEFSAII (Michael W. Deem and Ramdas Pophale) SiO2 
 PCOD8141402
Probable space group: C 2/C
;
_chemical_formula_sum "Si O2"
_cell_formula_units_Z 64
_cell_length_a 21.033576
_cell_length_b 9.212062
_cell_length_c 19.276347
_cell_angle_alpha 90.000000
_cell_angle_beta 63.466608
_cell_angle_gamma 90.000000
_cell_volume 3341.639529
_symmetry_space_group_name_H-M "C 2/C"
_symmetry_group_IT_number 15
_symmetry_cell_setting 'monoclinic'
loop_
_space_group_symop_operation_xyz
x,y,z
-x,y,1/2-z
-x,-y,-z
x,-y,1/2+z
1/2+x,1/2+y,z
1/2-x,1/2+y,1/2-z
1/2-x,1/2-y,-z
1/2+x,1/2-y,1/2+z
loop_
_atom_site_type_symbol
_atom_site_label
_atom_site_fract_x
_atom_site_fract_y
_atom_site_fract_z
Si Si1 0.929593 0.608668 0.103979
Si Si2 0.411486 0.026316 0.469812
Si Si3 0.319610 0.930152 0.242399
Si Si4 0.310321 0.374779 0.667309
Si Si5 0.929527 0.076776 0.562297
Si Si6 0.315403 0.296180 0.513419
Si Si7 0.326499 0.861375 0.396745
Si Si8 0.835413 0.899553 0.981017
O O1 0.877452 0.543993 0.186913
O O2 0.941467 0.782549 0.105450
O O3 0.004525 0.532334 0.081282
O O4 0.896043 0.569198 0.045430
O O5 0.377502 0.183478 0.498300
O O6 0.375366 0.964716 0.418954
O O7 0.316694 0.777578 0.203724
O O8 0.341862 0.890750 0.309472
O O9 0.244597 0.013103 0.270750
O O10 0.386657 0.454818 0.626306
O O11 0.282854 0.345437 0.602938
O O12 0.886925 0.145520 0.518377
O O13 0.000000 0.000000 0.500000
O O14 0.250000 0.250000 0.500000
O O15 0.351045 0.432204 0.455934
O O16 0.244859 0.885121 0.453592
O O17 0.348350 0.696149 0.406179
#
# Coordination Sequence:
#
# PCOD8141402 Si02
#       8
#     8   8   8   8   8   8   8   8
#     4  11  24  39  66  94 129 169 213 277 329 391
#     4  11  22  41  64  95 120 168 226 263 319 385
#     4  12  24  40  63  95 140 171 210 268 344 401
#     4  11  24  39  59  96 129 170 210 265 328 396
#     4  11  22  42  67  92 126 165 226 275 318 385
#     4  11  19  37  61  91 122 159 216 270 306 366
#     4  11  22  39  62  92 130 169 211 264 321 392
#     4  10  21  36  62  91 121 164 217 261 313 373
#
# _framework density 19.152273999999998
#
# number of rings (size 3 to 8) (size 9 to 14) (size 15 to 20)
#    0.000    1.000    6.250    2.250    1.750    1.500 
#    0.000    1.250    0.000    1.500    0.000    0.000 
#    0.000    0.000    0.000    0.000    0.000    0.000 
#
# Total GULP energy -396680.526592 kJ/mol
# GULP energy per Si atom -12396.266456 kJ/mol
# Density = 1.910868 g / cm^3
# Si number density = 19.152274 Si / 1000 Ang^3
#
#
#
# Elastic Constant Matrix: (Units=GPa)
#
#
# Indices 1 2 3 4 5 6 
#
# 1 86.9947 36.5889 37.2751 0.0000 -4.8553 0.0001
# 2 36.5889 154.6735 65.9539 0.0000 -5.0071 0.0004
# 3 37.2751 65.9539 101.4637 0.0000 -10.9053 0.0000
# 4 0.0000 0.0000 0.0000 38.8213 0.0000 6.0098
# 5 -4.8553 -5.0071 -10.9053 0.0000 32.8293 0.0000
# 6 0.0001 0.0004 0.0000 6.0098 0.0000 27.3704
#
#
#
# Elastic Compliance Matrix: (Units=1/GPa)
#
#
# Indices 1 2 3 4 5 6 
#
# 1 0.013909 -0.001546 -0.004053 0.000000 0.000475 0.000000
# 2 -0.001546 0.009127 -0.005434 0.000000 -0.000642 0.000000
# 3 -0.004053 -0.005434 0.015269 0.000000 0.003644 0.000000
# 4 0.000000 0.000000 0.000000 0.026665 0.000000 -0.005855
# 5 0.000475 -0.000642 0.003644 0.000000 0.031643 0.000000
# 6 0.000000 0.000000 0.000000 -0.005855 0.000000 0.037821
#
#
# Mechanical properties :
#
#
# Convention : Reuss Voigt Hill
#
# Bulk Modulus (GPa) = 61.58692 69.19640 65.39166
# Shear Modulus (GPa) = 30.88052 33.35848 32.11950
#
# Velocity S-wave (km/s) = 4.01979 4.17796 4.09963
# Velocity P-wave (km/s) = 7.33288 7.71244 7.52506
#
# Compressibility (1/GPa) = 0.01623721
#
# Stress axis : x y z
#
# Youngs Moduli (GPa) = 71.89776 109.56164 65.49376
#
# Poissons Ratio (x) = 0.16942 0.26548
# Poissons Ratio (y) = 0.11118 0.35588
# Poissons Ratio (z) = 0.29144 0.59534
#
# Static dielectric constant tensor:
#      x y z
#    x 3.693990 0.000000 0.046520 
#    y 0.000000 4.055060 0.000000 
#    z 0.046520 0.000000 3.373290 
# 
# 
# High freq. dielectric constant tensor:
#      x y z
#    x 1.748890 0.000000 -0.001280 
#    y 0.000000 1.772570 0.000000 
#    z -0.001280 0.000000 1.718270 
# 
# From -- ./inp_files/251879.got.cif
#   From: 2010.06.25/outbox.cif.g09.slc.cpg/sg15_126_cif.got.tgz:251879.got - 2010.06.28 07:06:18.
