data_PCOD8141228
_publ_section_title
;
Structure prediction by ZEFSAII (Michael W. Deem and Ramdas Pophale) SiO2 
 PCOD8141228
Probable space group: C 2/C
;
_chemical_formula_sum "Si O2"
_cell_formula_units_Z 64
_cell_length_a 9.771238
_cell_length_b 13.913647
_cell_length_c 29.963245
_cell_angle_alpha 90.000000
_cell_angle_beta 118.531249
_cell_angle_gamma 90.000000
_cell_volume 3578.897274
_symmetry_space_group_name_H-M "C 2/C"
_symmetry_group_IT_number 15
_symmetry_cell_setting 'monoclinic'
loop_
_space_group_symop_operation_xyz
x,y,z
-x,y,1/2-z
-x,-y,-z
x,-y,1/2+z
1/2+x,1/2+y,z
1/2-x,1/2+y,1/2-z
1/2-x,1/2-y,-z
1/2+x,1/2-y,1/2+z
loop_
_atom_site_type_symbol
_atom_site_label
_atom_site_fract_x
_atom_site_fract_y
_atom_site_fract_z
Si Si1 0.218795 0.614230 0.367086
Si Si2 0.687316 0.895967 0.356019
Si Si3 0.672474 0.248466 0.058098
Si Si4 0.589733 0.117799 0.124463
Si Si5 0.823232 0.238925 0.218777
Si Si6 0.015794 0.231126 0.442381
Si Si7 0.897294 0.599987 0.870288
Si Si8 0.170495 0.768490 0.288597
O O1 0.248467 0.503765 0.358537
O O2 0.380014 0.655815 0.410974
O O3 0.166928 0.667555 0.314037
O O4 0.083743 0.626325 0.382821
O O5 0.796572 0.845954 0.409841
O O6 0.691314 0.839139 0.310094
O O7 0.510219 0.897013 0.345183
O O8 0.592176 0.171879 0.077894
O O9 0.832312 0.203541 0.063273
O O10 0.552384 0.274068 0.000327
O O11 0.718003 0.158370 0.178692
O O12 0.633452 0.008438 0.119696
O O13 0.771642 0.256016 0.260700
O O14 0.000000 0.201464 0.250000
O O15 0.967130 0.340185 0.422676
O O16 0.736348 0.648649 0.830738
O O17 0.000000 0.803206 0.250000
#
# Coordination Sequence:
#
# PCOD8141228 Si02
#       8
#     8   8   8   8   8   8   8   8
#     4  10  21  36  55  79 109 140 177 220 269 312
#     4   9  19  36  56  77 104 143 180 214 258 326
#     4   9  19  37  58  80 107 139 181 218 265 324
#     4  10  21  36  54  81 107 139 182 220 258 321
#     4  11  21  36  57  77 106 145 181 216 262 317
#     4   9  19  37  58  79 108 143 172 221 274 317
#     4   9  19  36  55  76 109 141 174 216 269 316
#     4  11  21  36  53  79 110 139 175 224 265 308
#
# _framework density 17.882604000000001
#
# number of rings (size 3 to 8) (size 9 to 14) (size 15 to 20)
#    0.000    2.250    2.500    0.000    1.750    3.500 
#    2.250    0.000    0.000    0.000    0.000    0.000 
#    0.000    0.000    0.000    0.000    0.000    0.000 
#
# Total GULP energy -396853.178769 kJ/mol
# GULP energy per Si atom -12401.661837 kJ/mol
# Density = 1.784190 g / cm^3
# Si number density = 17.882604 Si / 1000 Ang^3
#
#
#
# Elastic Constant Matrix: (Units=GPa)
#
#
# Indices 1 2 3 4 5 6 
#
# 1 76.5335 33.5362 31.3175 0.0000 3.3470 0.0000
# 2 33.5362 127.9442 32.4707 0.0000 0.2510 0.0000
# 3 31.3175 32.4707 90.6657 0.0000 2.4633 0.0000
# 4 0.0000 0.0000 0.0000 13.8282 0.0000 -1.4968
# 5 3.3470 0.2510 2.4633 0.0000 34.7017 0.0000
# 6 0.0000 0.0000 0.0000 -1.4968 0.0000 25.9026
#
#
#
# Elastic Compliance Matrix: (Units=1/GPa)
#
#
# Indices 1 2 3 4 5 6 
#
# 1 0.016331 -0.003140 -0.004483 0.000000 -0.001234 0.000000
# 2 -0.003140 0.009202 -0.002222 0.000000 0.000394 0.000000
# 3 -0.004483 -0.002222 0.013387 0.000000 -0.000502 0.000000
# 4 0.000000 0.000000 0.000000 0.072771 0.000000 0.004205
# 5 -0.001234 0.000394 -0.000502 0.000000 0.028969 0.000000
# 6 0.000000 0.000000 0.000000 0.004205 0.000000 0.038849
#
#
# Mechanical properties :
#
#
# Convention : Reuss Voigt Hill
#
# Bulk Modulus (GPa) = 52.00048 54.42135 53.21092
# Shear Modulus (GPa) = 24.31806 28.07444 26.19625
#
# Velocity S-wave (km/s) = 3.69165 3.96653 3.83156
# Velocity P-wave (km/s) = 6.87844 7.17471 7.02814
#
# Compressibility (1/GPa) = 0.01923059
#
# Stress axis : x y z
#
# Youngs Moduli (GPa) = 61.23498 108.67090 74.69850
#
# Poissons Ratio (x) = 0.34127 0.33484
# Poissons Ratio (y) = 0.19230 0.16595
# Poissons Ratio (z) = 0.27449 0.24142
#
# Static dielectric constant tensor:
#      x y z
#    x 3.293410 0.000000 0.041120 
#    y 0.000000 3.321320 0.000000 
#    z 0.041120 0.000000 3.342960 
# 
# 
# High freq. dielectric constant tensor:
#      x y z
#    x 1.692460 0.000000 0.002060 
#    y 0.000000 1.687150 0.000000 
#    z 0.002060 0.000000 1.698370 
# 
# From -- ./inp_files/307990.got.cif
#   From: 2010.06.25/outbox.cif.g09.slc.cpg/sg15_154_cif.got.tgz:307990.got - 2010.06.28 07:06:18.
