data_PCOD8141712
_publ_section_title
;
Structure prediction by ZEFSAII (Michael W. Deem and Ramdas Pophale) SiO2 
 PCOD8141712
Probable space group: C 2/C
;
_chemical_formula_sum "Si O2"
_cell_formula_units_Z 48
_cell_length_a 30.090036
_cell_length_b 5.938668
_cell_length_c 26.238113
_cell_angle_alpha 90.000000
_cell_angle_beta 28.142420
_cell_angle_gamma 90.000000
_cell_volume 2211.453774
_symmetry_space_group_name_H-M "C 2/C"
_symmetry_group_IT_number 15
_symmetry_cell_setting 'monoclinic'
loop_
_space_group_symop_operation_xyz
x,y,z
-x,y,1/2-z
-x,-y,-z
x,-y,1/2+z
1/2+x,1/2+y,z
1/2-x,1/2+y,1/2-z
1/2-x,1/2-y,-z
1/2+x,1/2-y,1/2+z
loop_
_atom_site_type_symbol
_atom_site_label
_atom_site_fract_x
_atom_site_fract_y
_atom_site_fract_z
Si Si1 0.895525 0.149644 0.377408
Si Si2 0.752365 0.497281 0.047510
Si Si3 0.220164 0.778843 0.682368
Si Si4 0.331889 0.387522 0.532673
Si Si5 0.959170 0.206440 0.074383
Si Si6 0.388957 0.963730 0.051618
O O1 0.846757 0.397089 0.426101
O O2 0.832407 0.976859 0.407353
O O3 0.000000 0.171061 0.250000
O O4 0.898061 0.055507 0.432976
O O5 0.719592 0.672994 0.123222
O O6 0.770754 0.257242 0.054539
O O7 0.259955 0.521052 0.643826
O O8 0.117456 0.847418 0.805686
O O9 0.284587 0.942218 0.651098
O O10 0.402097 0.231640 0.495664
O O11 0.903765 0.374029 0.093226
O O12 0.039366 0.328253 0.026798
O O13 0.000000 0.000000 0.000000
#
# Coordination Sequence:
#
# PCOD8141712 Si02
#       6
#     8   8   8   8   8   8
#     4  10  21  37  62  90 125 168 211 266 317 386
#     4   9  21  39  58  91 124 163 214 259 322 376
#     4  10  23  40  65  87 127 169 207 267 320 386
#     4  10  21  40  61  90 128 168 210 261 324 379
#     4  11  25  41  63  94 126 165 216 267 320 384
#     4  10  24  39  62  93 123 166 214 263 319 385
#
# _framework density 21.705179999999999
#
# number of rings (size 3 to 8) (size 9 to 14) (size 15 to 20)
#    0.000    2.000    0.000    1.500    4.667   11.333 
#    0.000    0.000    0.000    0.000    0.000    0.000 
#    0.000    0.000    0.000    0.000    0.000    0.000 
#
# Total GULP energy -297447.748191 kJ/mol
# GULP energy per Si atom -12393.656175 kJ/mol
# Density = 2.165578 g / cm^3
# Si number density = 21.705180 Si / 1000 Ang^3
#
#
#
# Elastic Constant Matrix: (Units=GPa)
#
#
# Indices 1 2 3 4 5 6 
#
# 1 71.5988 14.0953 23.2173 -0.0226 -4.1577 0.0187
# 2 14.0953 87.5932 39.7456 -0.0786 4.1739 0.0804
# 3 23.2173 39.7456 158.9428 -0.0201 1.9603 0.0227
# 4 -0.0226 -0.0786 -0.0201 22.0206 -0.0040 1.5074
# 5 -4.1577 4.1739 1.9603 -0.0040 20.9689 -0.0057
# 6 0.0187 0.0804 0.0227 1.5074 -0.0057 40.8939
#
#
#
# Elastic Compliance Matrix: (Units=1/GPa)
#
#
# Indices 1 2 3 4 5 6 
#
# 1 0.015107 -0.001780 -0.001805 0.000008 0.003518 -0.000002
# 2 -0.001780 0.013196 -0.003006 0.000044 -0.002698 -0.000025
# 3 -0.001805 -0.003006 0.007313 -0.000006 -0.000443 0.000003
# 4 0.000008 0.000044 -0.000006 0.045527 0.000002 -0.001678
# 5 0.003518 -0.002698 -0.000443 0.000002 0.048966 0.000011
# 6 -0.000002 -0.000025 0.000003 -0.001678 0.000011 0.024515
#
#
# Mechanical properties :
#
#
# Convention : Reuss Voigt Hill
#
# Bulk Modulus (GPa) = 44.57792 52.47234 48.52513
# Shear Modulus (GPa) = 28.52533 32.84846 30.68690
#
# Velocity S-wave (km/s) = 3.62915 3.89446 3.76414
# Velocity P-wave (km/s) = 6.17604 6.66707 6.42625
#
# Compressibility (1/GPa) = 0.02243263
#
# Stress axis : x y z
#
# Youngs Moduli (GPa) = 66.19582 75.78278 136.75172
#
# Poissons Ratio (x) = 0.13486 0.24685
# Poissons Ratio (y) = 0.11780 0.41114
# Poissons Ratio (z) = 0.11949 0.22784
#
# Static dielectric constant tensor:
#      x y z
#    x 4.110680 -0.000390 0.022160 
#    y -0.000390 4.153350 0.000250 
#    z 0.022160 0.000250 3.635390 
# 
# 
# High freq. dielectric constant tensor:
#      x y z
#    x 1.868590 -0.000010 0.004830 
#    y -0.000010 1.855960 0.000020 
#    z 0.004830 0.000020 1.828010 
# 
# From -- ./inp_files/304010.got.cif
#   From: 2010.06.25/outbox.cif.g09.slc.cpg/sg15_153_cif.got.tgz:304010.got - 2010.06.28 07:06:18.
