data_PCOD8141474
_publ_section_title
;
Structure prediction by ZEFSAII (Michael W. Deem and Ramdas Pophale) SiO2 
 PCOD8141474
Probable space group: C 2/C
;
_chemical_formula_sum "Si O2"
_cell_formula_units_Z 56
_cell_length_a 17.198721
_cell_length_b 29.465769
_cell_length_c 5.180603
_cell_angle_alpha 90.000000
_cell_angle_beta 87.872093
_cell_angle_gamma 90.000000
_cell_volume 2623.582123
_symmetry_space_group_name_H-M "C 2/C"
_symmetry_group_IT_number 15
_symmetry_cell_setting 'monoclinic'
loop_
_space_group_symop_operation_xyz
x,y,z
-x,y,1/2-z
-x,-y,-z
x,-y,1/2+z
1/2+x,1/2+y,z
1/2-x,1/2+y,1/2-z
1/2-x,1/2-y,-z
1/2+x,1/2-y,1/2+z
loop_
_atom_site_type_symbol
_atom_site_label
_atom_site_fract_x
_atom_site_fract_y
_atom_site_fract_z
Si Si1 0.948857 0.258915 0.501065
Si Si2 0.179442 0.396342 0.484916
Si Si3 0.534094 0.948889 0.495025
Si Si4 0.150329 0.170482 0.032810
Si Si5 0.412629 0.479854 0.316061
Si Si6 0.171818 0.661852 0.484281
Si Si7 0.355538 0.386793 0.464171
O O1 0.901848 0.214406 0.422387
O O2 0.888068 0.298394 0.566217
O O3 0.000000 0.273398 0.250000
O O4 0.000000 0.250209 0.750000
O O5 0.127806 0.442750 0.473274
O O6 0.156419 0.360967 0.263410
O O7 0.269740 0.409066 0.451722
O O8 0.160897 0.375097 0.763608
O O9 0.500000 0.923242 0.250000
O O10 0.500000 0.000000 0.500000
O O11 0.500000 0.923505 0.750000
O O12 0.127826 0.134221 0.257449
O O13 0.241354 0.182902 0.042463
O O14 0.131713 0.151283 0.752592
O O15 0.500000 0.497277 0.250000
O O16 0.370618 0.510065 0.546115
O O17 0.414510 0.427486 0.400101
#
# Coordination Sequence:
#
# PCOD8141474 Si02
#       7
#     8   8   8   8   8   8   8
#     4  12  25  39  59  94 124 152 204 249 303 357
#     4  10  21  38  60  86 113 154 210 244 290 359
#     4  10  21  37  54  79 116 153 191 243 302 353
#     4  10  22  41  62  84 124 157 200 245 304 360
#     4  10  21  38  58  86 119 151 189 236 297 361
#     4  10  22  40  62  84 118 164 198 245 298 359
#     4  10  21  39  62  89 113 158 202 245 296 360
#
# _framework density 21.344864000000001
#
# number of rings (size 3 to 8) (size 9 to 14) (size 15 to 20)
#    0.000    1.714    0.000    3.857    0.000    5.143 
#    5.143    5.714    0.000    0.000    0.000    0.000 
#    0.000    0.000    0.000    0.000    0.000    0.000 
#
# Total GULP energy -347071.079100 kJ/mol
# GULP energy per Si atom -12395.395682 kJ/mol
# Density = 2.129628 g / cm^3
# Si number density = 21.344864 Si / 1000 Ang^3
#
#
#
# Elastic Constant Matrix: (Units=GPa)
#
#
# Indices 1 2 3 4 5 6 
#
# 1 55.0583 31.9081 27.1482 0.0000 3.7410 0.0000
# 2 31.9081 69.1122 7.3114 0.0000 0.1652 0.0000
# 3 27.1482 7.3114 144.0285 0.0000 0.7560 0.0000
# 4 0.0000 0.0000 0.0000 19.2000 0.0000 -3.7273
# 5 3.7410 0.1652 0.7560 0.0000 27.3223 0.0000
# 6 0.0000 0.0000 0.0000 -3.7273 0.0000 43.3158
#
#
#
# Elastic Compliance Matrix: (Units=1/GPa)
#
#
# Indices 1 2 3 4 5 6 
#
# 1 0.027838 -0.012357 -0.004601 0.000000 -0.003610 0.000000
# 2 -0.012357 0.020033 0.001304 0.000000 0.001535 0.000000
# 3 -0.004601 0.001304 0.007742 0.000000 0.000408 0.000000
# 4 0.000000 0.000000 0.000000 0.052968 0.000000 0.004558
# 5 -0.003610 0.001535 0.000408 0.000000 0.037074 0.000000
# 6 0.000000 0.000000 0.000000 0.004558 0.000000 0.023478
#
#
# Mechanical properties :
#
#
# Convention : Reuss Voigt Hill
#
# Bulk Modulus (GPa) = 41.14391 44.54826 42.84608
# Shear Modulus (GPa) = 23.97604 31.42303 27.69953
#
# Velocity S-wave (km/s) = 3.35516 3.84103 3.60629
# Velocity P-wave (km/s) = 5.85893 6.37083 6.12023
#
# Compressibility (1/GPa) = 0.02430494
#
# Stress axis : x y z
#
# Youngs Moduli (GPa) = 35.92252 49.91863 129.16614
#
# Poissons Ratio (x) = 0.61684 0.59429
# Poissons Ratio (y) = 0.44389 -0.16846
# Poissons Ratio (z) = 0.16528 -0.06510
#
# Static dielectric constant tensor:
#      x y z
#    x 3.887250 0.000000 0.236830 
#    y 0.000000 3.442500 0.000000 
#    z 0.236830 0.000000 3.163210 
# 
# 
# High freq. dielectric constant tensor:
#      x y z
#    x 1.831420 0.000000 -0.003130 
#    y 0.000000 1.814110 0.000000 
#    z -0.003130 0.000000 1.871530 
# 
# From -- ./inp_files/9069.got.cif
#   From: 2010.06.25/outbox.cif.g09.slc.cpg/sg15_5_cif.got.tgz:9069.got - 2010.06.28 07:06:18.
