data_PCOD8141570
_publ_section_title
;
Structure prediction by ZEFSAII (Michael W. Deem and Ramdas Pophale) SiO2 
 PCOD8141570
Probable space group: C 2/C
;
_chemical_formula_sum "Si O2"
_cell_formula_units_Z 56
_cell_length_a 27.748943
_cell_length_b 17.629024
_cell_length_c 9.490971
_cell_angle_alpha 90.000000
_cell_angle_beta 39.994610
_cell_angle_gamma 90.000000
_cell_volume 2984.036717
_symmetry_space_group_name_H-M "C 2/C"
_symmetry_group_IT_number 15
_symmetry_cell_setting 'monoclinic'
loop_
_space_group_symop_operation_xyz
x,y,z
-x,y,1/2-z
-x,-y,-z
x,-y,1/2+z
1/2+x,1/2+y,z
1/2-x,1/2+y,1/2-z
1/2-x,1/2-y,-z
1/2+x,1/2-y,1/2+z
loop_
_atom_site_type_symbol
_atom_site_label
_atom_site_fract_x
_atom_site_fract_y
_atom_site_fract_z
Si Si1 0.599297 0.273888 0.650230
Si Si2 0.928783 0.553082 0.145844
Si Si3 0.666521 0.997813 0.904634
Si Si4 0.942088 0.273683 0.566268
Si Si5 0.216797 0.348274 0.932302
Si Si6 0.726452 0.624398 0.889895
Si Si7 0.204892 0.248735 0.455817
O O1 0.592031 0.243152 0.509163
O O2 0.657068 0.217933 0.598469
O O3 0.637602 0.358142 0.561061
O O4 0.519971 0.272842 0.909488
O O5 0.887360 0.555135 0.389262
O O6 0.870844 0.521848 0.160039
O O7 0.957411 0.636688 0.041947
O O8 0.000000 0.500000 0.000000
O O9 0.674359 0.923893 0.982313
O O10 0.747738 0.038126 0.699412
O O11 0.884066 0.246507 0.815092
O O12 0.273744 0.326361 0.678906
O O13 0.262175 0.359566 0.972052
O O14 0.776260 0.677792 0.678475
O O15 0.250000 0.250000 0.500000
#
# Coordination Sequence:
#
# PCOD8141570 Si02
#       7
#     8   8   8   8   8   8   8
#     4  10  21  37  59  84 123 157 198 249 301 361
#     4  12  24  38  56  89 130 158 197 249 315 379
#     4  12  23  38  60  86 119 165 201 247 308 368
#     4  11  21  36  61  89 117 157 201 243 306 368
#     4  11  22  39  58  85 122 157 198 259 302 355
#     4  11  23  39  56  88 122 158 206 252 304 355
#     4  11  19  37  61  86 112 154 208 246 290 369
#
# _framework density 18.766524
#
# number of rings (size 3 to 8) (size 9 to 14) (size 15 to 20)
#    0.000    0.857    7.143    3.000    2.000    0.000 
#    0.000    2.857    0.000    0.857    0.000    0.000 
#    0.000    0.000    0.000    0.000    0.000    0.000 
#
# Total GULP energy -347135.642824 kJ/mol
# GULP energy per Si atom -12397.701529 kJ/mol
# Density = 1.872381 g / cm^3
# Si number density = 18.766524 Si / 1000 Ang^3
#
#
#
# Elastic Constant Matrix: (Units=GPa)
#
#
# Indices 1 2 3 4 5 6 
#
# 1 48.1100 18.1137 33.2825 0.0000 -6.2590 0.0000
# 2 18.1137 51.0406 17.5593 0.0000 -14.5338 0.0000
# 3 33.2825 17.5593 125.7998 0.0000 -15.0460 0.0000
# 4 0.0000 0.0000 0.0000 26.8067 0.0000 -6.6841
# 5 -6.2590 -14.5338 -15.0460 0.0000 38.6783 0.0000
# 6 0.0000 0.0000 0.0000 -6.6841 0.0000 32.2688
#
#
#
# Elastic Compliance Matrix: (Units=1/GPa)
#
#
# Indices 1 2 3 4 5 6 
#
# 1 0.028144 -0.008051 -0.006439 0.000000 -0.000976 0.000000
# 2 -0.008051 0.024827 -0.000394 0.000000 0.007873 0.000000
# 3 -0.006439 -0.000394 0.010032 0.000000 0.002713 0.000000
# 4 0.000000 0.000000 0.000000 0.039336 0.000000 0.008148
# 5 -0.000976 0.007873 0.002713 0.000000 0.029710 0.000000
# 6 0.000000 0.000000 0.000000 0.008148 0.000000 0.032677
#
#
# Mechanical properties :
#
#
# Convention : Reuss Voigt Hill
#
# Bulk Modulus (GPa) = 30.08774 40.31794 35.20284
# Shear Modulus (GPa) = 24.32237 29.95042 27.13640
#
# Velocity S-wave (km/s) = 3.60398 3.99927 3.80676
# Velocity P-wave (km/s) = 5.77803 6.54646 6.17421
#
# Compressibility (1/GPa) = 0.03323613
#
# Stress axis : x y z
#
# Youngs Moduli (GPa) = 35.53101 40.27938 99.68015
#
# Poissons Ratio (x) = 0.32428 0.64184
# Poissons Ratio (y) = 0.28605 0.03925
# Poissons Ratio (z) = 0.22879 0.01586
#
# Static dielectric constant tensor:
#      x y z
#    x 3.651530 0.000000 0.193520 
#    y 0.000000 3.504920 0.000000 
#    z 0.193520 0.000000 4.040610 
# 
# 
# High freq. dielectric constant tensor:
#      x y z
#    x 1.726330 0.000000 0.009880 
#    y 0.000000 1.708030 0.000000 
#    z 0.009880 0.000000 1.736040 
# 
# From -- ./inp_files/56079.got.cif
#   From: 2010.06.25/outbox.cif.g09.slc.cpg/sg15_29_cif.got.tgz:56079.got - 2010.06.28 07:06:18.
