data_PCOD8141654
_publ_section_title
;
Structure prediction by ZEFSAII (Michael W. Deem and Ramdas Pophale) SiO2 
 PCOD8141654
Probable space group: C 2/C
;
_chemical_formula_sum "Si O2"
_cell_formula_units_Z 60
_cell_length_a 13.187911
_cell_length_b 28.757334
_cell_length_c 7.776522
_cell_angle_alpha 90.000000
_cell_angle_beta 99.864027
_cell_angle_gamma 90.000000
_cell_volume 2905.641068
_symmetry_space_group_name_H-M "C 2/C"
_symmetry_group_IT_number 15
_symmetry_cell_setting 'monoclinic'
loop_
_space_group_symop_operation_xyz
x,y,z
-x,y,1/2-z
-x,-y,-z
x,-y,1/2+z
1/2+x,1/2+y,z
1/2-x,1/2+y,1/2-z
1/2-x,1/2-y,-z
1/2+x,1/2-y,1/2+z
loop_
_atom_site_type_symbol
_atom_site_label
_atom_site_fract_x
_atom_site_fract_y
_atom_site_fract_z
Si Si1 0.588806 0.035241 0.073654
Si Si2 0.331932 0.700143 0.851658
Si Si3 0.800433 0.658102 0.989925
Si Si4 0.824296 0.929568 0.086927
Si Si5 0.196082 0.695084 0.136597
Si Si6 0.982222 0.632787 0.544674
Si Si7 0.500000 0.364561 0.250000
Si Si8 0.757379 0.493128 0.145230
O O1 0.636212 0.018095 0.266342
O O2 0.538134 0.085819 0.067108
O O3 0.695320 0.037058 0.995170
O O4 0.500000 0.000000 0.000000
O O5 0.251181 0.687626 0.677786
O O6 0.354291 0.754739 0.840097
O O7 0.433975 0.668518 0.857486
O O8 0.293274 0.694053 0.036225
O O9 0.772394 0.604111 0.964560
O O10 0.922866 0.660956 0.008105
O O11 0.766856 0.675277 0.169120
O O12 0.805416 0.957655 0.256389
O O13 0.927546 0.898620 0.117025
O O14 0.825588 0.967691 0.935822
O O15 0.114383 0.665394 0.008404
O O16 0.000000 0.620808 0.750000
#
# Coordination Sequence:
#
# PCOD8141654 Si02
#       8
#     8   8   8   8   8   8   4   8
#     4  11  21  34  58  91 131 172 206 259 324 395
#     4  10  24  47  65  96 129 168 219 277 336 387
#     4  11  22  41  67  96 133 171 216 265 336 400
#     4  10  22  42  62  96 122 177 218 275 326 384
#     4  11  24  42  69  96 132 170 212 270 339 401
#     4  12  22  36  61  98 133 169 211 261 324 405
#     4  10  24  44  74  86 132 168 232 280 330 388
#     4  10  21  37  61  86 133 167 219 264 320 389
#
# _framework density 20.649487000000001
#
# number of rings (size 3 to 8) (size 9 to 14) (size 15 to 20)
#    0.000    1.333    1.333    5.200    3.733    1.600 
#    0.000    2.667    0.000    0.000    0.000    0.000 
#    0.000    0.000    0.000    0.000    0.000    0.000 
#
# Total GULP energy -371835.012631 kJ/mol
# GULP energy per Si atom -12394.500421 kJ/mol
# Density = 2.060249 g / cm^3
# Si number density = 20.649487 Si / 1000 Ang^3
#
#
#
# Elastic Constant Matrix: (Units=GPa)
#
#
# Indices 1 2 3 4 5 6 
#
# 1 89.1411 47.7545 22.3513 0.0000 -0.2777 0.0000
# 2 47.7545 137.4114 33.4157 0.0000 -3.3123 0.0000
# 3 22.3513 33.4157 82.6842 0.0000 -12.6043 0.0000
# 4 0.0000 0.0000 0.0000 31.5057 0.0000 3.8324
# 5 -0.2777 -3.3123 -12.6043 0.0000 25.0337 0.0000
# 6 0.0000 0.0000 0.0000 3.8324 0.0000 34.8553
#
#
#
# Elastic Compliance Matrix: (Units=1/GPa)
#
#
# Indices 1 2 3 4 5 6 
#
# 1 0.014142 -0.004397 -0.002286 0.000000 -0.001576 0.000000
# 2 -0.004397 0.009446 -0.002649 0.000000 -0.000133 0.000000
# 3 -0.002286 -0.002649 0.014867 0.000000 0.007109 0.000000
# 4 0.000000 0.000000 0.000000 0.032171 0.000000 -0.003537
# 5 -0.001576 -0.000133 0.007109 0.000000 0.043491 0.000000
# 6 0.000000 0.000000 0.000000 -0.003537 0.000000 0.029079
#
#
# Mechanical properties :
#
#
# Convention : Reuss Voigt Hill
#
# Bulk Modulus (GPa) = 50.52958 57.36440 53.94699
# Shear Modulus (GPa) = 29.68120 31.99328 30.83724
#
# Velocity S-wave (km/s) = 3.79540 3.94045 3.86860
# Velocity P-wave (km/s) = 6.61286 6.96730 6.79239
#
# Compressibility (1/GPa) = 0.01979039
#
# Stress axis : x y z
#
# Youngs Moduli (GPa) = 70.71169 105.85940 67.26460
#
# Poissons Ratio (x) = 0.46544 0.15378
# Poissons Ratio (y) = 0.31090 0.17821
# Poissons Ratio (z) = 0.16166 0.28046
#
# Static dielectric constant tensor:
#      x y z
#    x 3.586360 0.000000 -0.061970 
#    y 0.000000 3.802100 0.000000 
#    z -0.061970 0.000000 3.935700 
# 
# 
# High freq. dielectric constant tensor:
#      x y z
#    x 1.795390 0.000000 -0.003800 
#    y 0.000000 1.821630 0.000000 
#    z -0.003800 0.000000 1.812900 
# 
# From -- ./inp_files/35269.got.cif
#   From: 2010.06.25/outbox.cif.g09.slc.cpg/sg15_18_cif.got.tgz:35269.got - 2010.06.28 07:06:18.
