data_PCOD8141008
_publ_section_title
;
Structure prediction by ZEFSAII (Michael W. Deem and Ramdas Pophale) SiO2 
 PCOD8141008
Probable space group: C 2/C
;
_chemical_formula_sum "Si O2"
_cell_formula_units_Z 40
_cell_length_a 18.161277
_cell_length_b 17.743495
_cell_length_c 7.623979
_cell_angle_alpha 90.000000
_cell_angle_beta 126.566008
_cell_angle_gamma 90.000000
_cell_volume 1973.219018
_symmetry_space_group_name_H-M "C 2/C"
_symmetry_group_IT_number 15
_symmetry_cell_setting 'monoclinic'
loop_
_space_group_symop_operation_xyz
x,y,z
-x,y,1/2-z
-x,-y,-z
x,-y,1/2+z
1/2+x,1/2+y,z
1/2-x,1/2+y,1/2-z
1/2-x,1/2-y,-z
1/2+x,1/2-y,1/2+z
loop_
_atom_site_type_symbol
_atom_site_label
_atom_site_fract_x
_atom_site_fract_y
_atom_site_fract_z
Si Si1 0.611814 0.924140 0.556249
Si Si2 0.575780 0.848385 0.170121
Si Si3 0.000000 0.212950 0.250000
Si Si4 0.500000 0.539699 0.750000
Si Si5 0.105683 0.912211 0.078994
Si Si6 0.817344 0.416087 0.466733
O O1 0.638300 0.870012 0.429259
O O2 0.504818 0.911588 0.452062
O O3 0.632485 0.008946 0.528274
O O4 0.671337 0.901979 0.810693
O O5 0.534665 0.764955 0.138209
O O6 0.634874 0.848792 0.076122
O O7 0.084584 0.161519 0.433614
O O8 0.417764 0.487784 0.561049
O O9 0.458132 0.592965 0.839601
O O10 0.211002 0.916744 0.275284
#
# Coordination Sequence:
#
# PCOD8141008 Si02
#       6
#     8   8   4   4   8   8
#     4  10  21  34  57  94 124 151 192 244 305 341
#     4  10  23  39  58  84 131 163 189 236 303 361
#     4   9  22  46  56  80 123 170 190 232 305 360
#     4   9  20  40  62  88 113 156 192 256 301 342
#     4  10  21  39  64  87 117 151 203 244 301 349
#     4  12  20  34  63  94 116 153 201 256 286 347
#
# _framework density 20.271443999999999
#
# number of rings (size 3 to 8) (size 9 to 14) (size 15 to 20)
#    0.000    2.000    2.000    2.400    2.800    0.800 
#   10.800    4.000    0.000    0.000    0.000    0.000 
#    0.000    0.000    0.000    0.000    0.000    0.000 
#
# Total GULP energy -247966.144798 kJ/mol
# GULP energy per Si atom -12398.307240 kJ/mol
# Density = 2.022531 g / cm^3
# Si number density = 20.271444 Si / 1000 Ang^3
#
#
#
# Elastic Constant Matrix: (Units=GPa)
#
#
# Indices 1 2 3 4 5 6 
#
# 1 44.1597 34.0430 32.7275 0.0000 3.4752 0.0000
# 2 34.0430 81.2226 29.5529 0.0000 12.8940 0.0000
# 3 32.7275 29.5529 139.6299 0.0000 9.7305 0.0000
# 4 0.0000 0.0000 0.0000 19.6345 0.0000 -4.7179
# 5 3.4752 12.8940 9.7305 0.0000 34.3905 0.0000
# 6 0.0000 0.0000 0.0000 -4.7179 0.0000 11.2301
#
#
#
# Elastic Compliance Matrix: (Units=1/GPa)
#
#
# Indices 1 2 3 4 5 6 
#
# 1 0.037807 -0.014138 -0.006092 0.000000 0.003204 0.000000
# 2 -0.014138 0.019276 -0.000369 0.000000 -0.005694 0.000000
# 3 -0.006092 -0.000369 0.008789 0.000000 -0.001733 0.000000
# 4 0.000000 0.000000 0.000000 0.056649 0.000000 0.023799
# 5 0.003204 -0.005694 -0.001733 0.000000 0.031379 0.000000
# 6 0.000000 0.000000 0.000000 0.023799 0.000000 0.099044
#
#
# Mechanical properties :
#
#
# Convention : Reuss Voigt Hill
#
# Bulk Modulus (GPa) = 40.53143 50.85099 45.69121
# Shear Modulus (GPa) = 16.53611 24.29694 20.41652
#
# Velocity S-wave (km/s) = 2.85920 3.46581 3.17702
# Velocity P-wave (km/s) = 5.56218 6.41524 6.00388
#
# Compressibility (1/GPa) = 0.02467221
#
# Stress axis : x y z
#
# Youngs Moduli (GPa) = 26.44985 51.87837 113.78289
#
# Poissons Ratio (x) = 0.73347 0.69322
# Poissons Ratio (y) = 0.37395 0.04200
# Poissons Ratio (z) = 0.16115 0.01915
#
# Static dielectric constant tensor:
#      x y z
#    x 3.628320 0.000000 -0.302440 
#    y 0.000000 3.445560 0.000000 
#    z -0.302440 0.000000 3.887100 
# 
# 
# High freq. dielectric constant tensor:
#      x y z
#    x 1.784060 0.000000 -0.014160 
#    y 0.000000 1.768320 0.000000 
#    z -0.014160 0.000000 1.800800 
# 
# From -- ./inp_files/56862.got.cif
#   From: 2010.06.25/outbox.cif.g09.slc.cpg/sg15_29_cif.got.tgz:56862.got - 2010.06.28 07:06:18.
