data_PCOD8141430
_publ_section_title
;
Structure prediction by ZEFSAII (Michael W. Deem and Ramdas Pophale) SiO2 
 PCOD8141430
Probable space group: C 2/C
;
_chemical_formula_sum "Si O2"
_cell_formula_units_Z 48
_cell_length_a 15.443777
_cell_length_b 10.664309
_cell_length_c 23.298829
_cell_angle_alpha 90.000000
_cell_angle_beta 33.438047
_cell_angle_gamma 90.000000
_cell_volume 2114.460213
_symmetry_space_group_name_H-M "C 2/C"
_symmetry_group_IT_number 15
_symmetry_cell_setting 'monoclinic'
loop_
_space_group_symop_operation_xyz
x,y,z
-x,y,1/2-z
-x,-y,-z
x,-y,1/2+z
1/2+x,1/2+y,z
1/2-x,1/2+y,1/2-z
1/2-x,1/2-y,-z
1/2+x,1/2-y,1/2+z
loop_
_atom_site_type_symbol
_atom_site_label
_atom_site_fract_x
_atom_site_fract_y
_atom_site_fract_z
Si Si1 0.341740 0.904626 0.704430
Si Si2 0.009127 0.834397 0.596610
Si Si3 0.075191 0.637446 0.769224
Si Si4 0.166032 0.912591 0.002478
Si Si5 0.949648 0.748961 0.337684
Si Si6 0.421102 0.262238 0.063678
O O1 0.153843 0.912348 0.811224
O O2 0.393710 0.785359 0.713975
O O3 0.407779 0.872614 0.603638
O O4 0.424950 0.026906 0.683664
O O5 0.021567 0.751032 0.647350
O O6 0.023518 0.744714 0.532784
O O7 0.148827 0.937139 0.516428
O O8 0.253461 0.672139 0.658682
O O9 0.000000 0.599808 0.750000
O O10 0.146441 0.856646 0.077028
O O11 0.045392 0.855610 0.023822
O O12 0.342482 0.875575 0.885623
O O13 0.000000 0.809280 0.250000
#
# Coordination Sequence:
#
# PCOD8141430 Si02
#       6
#     8   8   8   8   8   8
#     4  10  22  41  63  92 125 165 215 263 313 384
#     4  11  23  41  66  90 130 170 210 259 327 385
#     4  11  25  41  63  94 129 168 210 261 323 385
#     4  10  21  39  62  95 123 168 214 260 319 381
#     4  10  21  36  63  94 126 161 216 268 311 369
#     4  10  22  40  65  92 120 170 218 253 321 381
#
# _framework density 22.700828000000001
#
# number of rings (size 3 to 8) (size 9 to 14) (size 15 to 20)
#    0.000    1.667    1.667    2.000    4.667    2.000 
#    0.000    0.000    0.000    0.000    0.000    0.000 
#    0.000    0.000    0.000    0.000    0.000    0.000 
#
# Total GULP energy -297541.167235 kJ/mol
# GULP energy per Si atom -12397.548635 kJ/mol
# Density = 2.264916 g / cm^3
# Si number density = 22.700828 Si / 1000 Ang^3
#
#
#
# Elastic Constant Matrix: (Units=GPa)
#
#
# Indices 1 2 3 4 5 6 
#
# 1 87.6297 35.6811 30.5825 -0.0001 14.4244 0.0000
# 2 35.6811 90.4209 26.3400 -0.0001 16.5339 0.0000
# 3 30.5825 26.3400 89.6811 -0.0011 29.6844 0.0004
# 4 -0.0001 -0.0001 -0.0011 18.1586 0.0004 0.9897
# 5 14.4244 16.5339 29.6844 0.0004 32.9898 -0.0001
# 6 0.0000 0.0000 0.0004 0.9897 -0.0001 35.0964
#
#
#
# Elastic Compliance Matrix: (Units=1/GPa)
#
#
# Indices 1 2 3 4 5 6 
#
# 1 0.014612 -0.004609 -0.003246 0.000000 -0.001159 0.000000
# 2 -0.004609 0.013946 -0.001250 0.000000 -0.003849 0.000000
# 3 -0.003246 -0.001250 0.017015 0.000001 -0.013265 0.000000
# 4 0.000000 0.000000 0.000001 0.055155 -0.000002 -0.001555
# 5 -0.001159 -0.003849 -0.013265 -0.000002 0.044684 0.000000
# 6 0.000000 0.000000 0.000000 -0.001555 0.000000 0.028537
#
#
# Mechanical properties :
#
#
# Convention : Reuss Voigt Hill
#
# Bulk Modulus (GPa) = 36.54471 50.32653 43.43562
# Shear Modulus (GPa) = 24.84113 28.92418 26.88265
#
# Velocity S-wave (km/s) = 3.31158 3.57339 3.44498
# Velocity P-wave (km/s) = 5.54576 6.26443 5.91602
#
# Compressibility (1/GPa) = 0.02736374
#
# Stress axis : x y z
#
# Youngs Moduli (GPa) = 68.43865 71.70471 58.77078
#
# Poissons Ratio (x) = 0.33046 0.19075
# Poissons Ratio (y) = 0.31540 0.07348
# Poissons Ratio (z) = 0.22213 0.08965
#
# Static dielectric constant tensor:
#      x y z
#    x 4.176860 0.000000 0.065290 
#    y 0.000000 3.834190 0.000000 
#    z 0.065290 0.000000 4.189080 
# 
# 
# High freq. dielectric constant tensor:
#      x y z
#    x 1.896940 0.000000 -0.000790 
#    y 0.000000 1.868460 0.000000 
#    z -0.000790 0.000000 1.905950 
# 
# From -- ./inp_files/243910.got.cif
#   From: 2010.06.25/outbox.cif.g09.slc.cpg/sg15_122_cif.got.tgz:243910.got - 2010.06.28 07:06:18.
