data_PCOD8141714
_publ_section_title
;
Structure prediction by ZEFSAII (Michael W. Deem and Ramdas Pophale) SiO2 
 PCOD8141714
Probable space group: C 2/C
;
_chemical_formula_sum "Si O2"
_cell_formula_units_Z 56
_cell_length_a 10.555106
_cell_length_b 16.274153
_cell_length_c 28.888437
_cell_angle_alpha 90.000000
_cell_angle_beta 145.528634
_cell_angle_gamma 90.000000
_cell_volume 2808.646609
_symmetry_space_group_name_H-M "C 2/C"
_symmetry_group_IT_number 15
_symmetry_cell_setting 'monoclinic'
loop_
_space_group_symop_operation_xyz
x,y,z
-x,y,1/2-z
-x,-y,-z
x,-y,1/2+z
1/2+x,1/2+y,z
1/2-x,1/2+y,1/2-z
1/2-x,1/2-y,-z
1/2+x,1/2-y,1/2+z
loop_
_atom_site_type_symbol
_atom_site_label
_atom_site_fract_x
_atom_site_fract_y
_atom_site_fract_z
Si Si1 0.934472 0.166237 0.504384
Si Si2 0.129852 0.216451 0.248220
Si Si3 0.294737 0.050669 0.133066
Si Si4 0.619824 0.578323 0.737657
Si Si5 0.085664 0.370816 0.354381
Si Si6 0.798565 0.918809 0.796065
Si Si7 0.072092 0.796544 0.392921
O O1 0.821189 0.085080 0.448090
O O2 0.929632 0.154416 0.558774
O O3 0.808648 0.251461 0.454213
O O4 0.186340 0.172138 0.558244
O O5 0.092469 0.165467 0.189847
O O6 0.389079 0.223838 0.340487
O O7 0.000000 0.168553 0.250000
O O8 0.024805 0.307544 0.214507
O O9 0.142651 0.072604 0.132059
O O10 0.534436 0.092559 0.209887
O O11 0.324155 0.952673 0.143333
O O12 0.500000 0.565277 0.750000
O O13 0.609999 0.494836 0.705800
O O14 0.484017 0.645418 0.667220
O O15 0.879871 0.605049 0.826788
#
# Coordination Sequence:
#
# PCOD8141714 Si02
#       7
#     8   8   8   8   8   8   8
#     4  11  20  38  61  93 121 157 201 256 305 359
#     4  11  20  37  60  87 120 160 202 247 296 366
#     4  10  21  37  63  89 122 152 206 256 302 353
#     4  10  22  41  60  85 121 161 202 249 307 363
#     4  10  22  36  63  89 115 161 206 247 301 368
#     4  10  21  37  62  91 114 159 205 254 299 363
#     4  10  22  36  61  88 122 160 199 245 306 367
#
# _framework density 19.938428999999999
#
# number of rings (size 3 to 8) (size 9 to 14) (size 15 to 20)
#    0.000    1.714    2.857    1.714    4.000    2.286 
#    0.000    2.857    0.000    5.143    0.000    0.000 
#    0.000    0.000    0.000    0.000    0.000    0.000 
#
# Total GULP energy -346934.034198 kJ/mol
# GULP energy per Si atom -12390.501221 kJ/mol
# Density = 1.989305 g / cm^3
# Si number density = 19.938429 Si / 1000 Ang^3
#
#
#
# Elastic Constant Matrix: (Units=GPa)
#
#
# Indices 1 2 3 4 5 6 
#
# 1 135.8083 58.5330 40.0045 -0.0001 -8.7557 0.0000
# 2 58.5330 100.9878 36.0420 -0.0001 -4.4287 0.0000
# 3 40.0045 36.0420 84.5679 -0.0010 4.3032 -0.0001
# 4 -0.0001 -0.0001 -0.0010 26.5750 -0.0003 0.1126
# 5 -8.7557 -4.4287 4.3032 -0.0003 26.8038 0.0000
# 6 0.0000 0.0000 -0.0001 0.1126 0.0000 21.2816
#
#
#
# Elastic Compliance Matrix: (Units=1/GPa)
#
#
# Indices 1 2 3 4 5 6 
#
# 1 0.010584 -0.004898 -0.003079 0.000000 0.003142 0.000000
# 2 -0.004898 0.014150 -0.003782 0.000000 0.001345 0.000000
# 3 -0.003079 -0.003782 0.015100 0.000000 -0.004055 0.000000
# 4 0.000000 0.000000 0.000000 0.037630 0.000000 -0.000199
# 5 0.003142 0.001345 -0.004055 0.000000 0.039208 0.000000
# 6 0.000000 0.000000 0.000000 -0.000199 0.000000 0.046990
#
#
# Mechanical properties :
#
#
# Convention : Reuss Voigt Hill
#
# Bulk Modulus (GPa) = 61.29235 65.61367 63.45301
# Shear Modulus (GPa) = 25.95815 27.38436 26.67126
#
# Velocity S-wave (km/s) = 3.61212 3.71002 3.66140
# Velocity P-wave (km/s) = 6.94292 7.16463 7.05465
#
# Compressibility (1/GPa) = 0.01631525
#
# Stress axis : x y z
#
# Youngs Moduli (GPa) = 94.48372 70.67285 66.22671
#
# Poissons Ratio (x) = 0.34613 0.20393
# Poissons Ratio (y) = 0.46275 0.25047
# Poissons Ratio (z) = 0.29093 0.26729
#
# Static dielectric constant tensor:
#      x y z
#    x 3.680190 0.000000 0.238910 
#    y 0.000000 3.547040 0.000000 
#    z 0.238910 0.000000 3.692620 
# 
# 
# High freq. dielectric constant tensor:
#      x y z
#    x 1.769920 0.000000 0.011380 
#    y 0.000000 1.777310 0.000000 
#    z 0.011380 0.000000 1.766270 
# 
# From -- ./inp_files/289767.got.cif
#   From: 2010.06.25/outbox.cif.g09.slc.cpg/sg15_145_cif.got.tgz:289767.got - 2010.06.28 07:06:18.
