data_PCOD8141701
_publ_section_title
;
Structure prediction by ZEFSAII (Michael W. Deem and Ramdas Pophale) SiO2 
 PCOD8141701
Probable space group: C 2/C
;
_chemical_formula_sum "Si O2"
_cell_formula_units_Z 60
_cell_length_a 17.379729
_cell_length_b 24.810754
_cell_length_c 9.102657
_cell_angle_alpha 90.000000
_cell_angle_beta 136.712660
_cell_angle_gamma 90.000000
_cell_volume 2691.276940
_symmetry_space_group_name_H-M "C 2/C"
_symmetry_group_IT_number 15
_symmetry_cell_setting 'monoclinic'
loop_
_space_group_symop_operation_xyz
x,y,z
-x,y,1/2-z
-x,-y,-z
x,-y,1/2+z
1/2+x,1/2+y,z
1/2-x,1/2+y,1/2-z
1/2-x,1/2-y,-z
1/2+x,1/2-y,1/2+z
loop_
_atom_site_type_symbol
_atom_site_label
_atom_site_fract_x
_atom_site_fract_y
_atom_site_fract_z
Si Si1 0.621437 0.535243 0.892213
Si Si2 0.146129 0.114520 0.179216
Si Si3 0.939218 0.646706 0.885308
Si Si4 0.651348 0.729469 0.763371
Si Si5 0.603982 0.613221 0.614808
Si Si6 0.345196 0.813457 0.961541
Si Si7 0.745202 0.933550 0.409995
Si Si8 0.000000 0.703478 0.250000
O O1 0.500000 0.505351 0.750000
O O2 0.628764 0.557426 0.736598
O O3 0.621386 0.588963 0.988032
O O4 0.725964 0.496355 0.080499
O O5 0.216397 0.169106 0.255693
O O6 0.225563 0.073542 0.378576
O O7 0.027763 0.123828 0.096621
O O8 0.874657 0.684968 0.676349
O O9 0.883167 0.586180 0.799460
O O10 0.923870 0.665620 0.035366
O O11 0.070022 0.647327 0.015909
O O12 0.651769 0.665263 0.765321
O O13 0.651462 0.752512 0.595942
O O14 0.546005 0.755710 0.694351
O O15 0.750000 0.750000 0.000000
O O16 0.670818 0.606992 0.556864
#
# Coordination Sequence:
#
# PCOD8141701 Si02
#       8
#     8   8   8   8   8   8   8   4
#     4  10  21  37  62  87 126 162 200 254 314 359
#     4  10  21  38  60  86 122 159 200 253 302 370
#     4   9  20  41  63  86 119 166 205 255 303 373
#     4  11  23  37  60  88 125 163 202 249 304 368
#     4  11  23  37  58  94 125 155 207 249 305 371
#     4   9  20  41  62  85 123 165 207 249 312 358
#     4  11  21  39  60  90 119 159 204 251 308 360
#     4  10  22  40  62  84 122 162 200 254 314 354
#
# _framework density 22.294250000000002
#
# number of rings (size 3 to 8) (size 9 to 14) (size 15 to 20)
#    0.000    1.867    0.000    3.600    4.667    3.200 
#    9.600    2.667    0.000    3.200    0.000    0.000 
#    0.000    0.000    0.000    0.000    0.000    0.000 
#
# Total GULP energy -371648.460579 kJ/mol
# GULP energy per Si atom -12388.282019 kJ/mol
# Density = 2.224351 g / cm^3
# Si number density = 22.294250 Si / 1000 Ang^3
#
#
#
# Elastic Constant Matrix: (Units=GPa)
#
#
# Indices 1 2 3 4 5 6 
#
# 1 66.3239 22.9423 20.8535 0.0000 3.4349 0.0000
# 2 22.9423 98.8128 29.4412 0.0000 5.2944 0.0000
# 3 20.8535 29.4412 82.5902 0.0000 -7.6037 0.0000
# 4 0.0000 0.0000 0.0000 29.3168 0.0000 0.2097
# 5 3.4349 5.2944 -7.6037 0.0000 39.6697 0.0000
# 6 0.0000 0.0000 0.0000 0.2097 0.0000 19.6273
#
#
#
# Elastic Compliance Matrix: (Units=1/GPa)
#
#
# Indices 1 2 3 4 5 6 
#
# 1 0.017263 -0.002870 -0.003500 0.000000 -0.001783 0.000000
# 2 -0.002870 0.012015 -0.003749 0.000000 -0.002074 0.000000
# 3 -0.003500 -0.003749 0.014661 0.000000 0.003614 0.000000
# 4 0.000000 0.000000 0.000000 0.034113 0.000000 -0.000364
# 5 -0.001783 -0.002074 0.003614 0.000000 0.026332 0.000000
# 6 0.000000 0.000000 0.000000 -0.000364 0.000000 0.050953
#
#
# Mechanical properties :
#
#
# Convention : Reuss Voigt Hill
#
# Bulk Modulus (GPa) = 42.19291 43.80009 42.99650
# Shear Modulus (GPa) = 27.25176 29.35542 28.30359
#
# Velocity S-wave (km/s) = 3.50003 3.63261 3.56694
# Velocity P-wave (km/s) = 5.94139 6.10602 6.02427
#
# Compressibility (1/GPa) = 0.02370066
#
# Stress axis : x y z
#
# Youngs Moduli (GPa) = 57.92744 83.23191 68.20895
#
# Poissons Ratio (x) = 0.23886 0.23872
# Poissons Ratio (y) = 0.16624 0.25573
# Poissons Ratio (z) = 0.20274 0.31205
#
# Static dielectric constant tensor:
#      x y z
#    x 4.112640 0.000000 -0.088810 
#    y 0.000000 3.612420 0.000000 
#    z -0.088810 0.000000 4.311410 
# 
# 
# High freq. dielectric constant tensor:
#      x y z
#    x 1.878150 0.000000 -0.011970 
#    y 0.000000 1.850120 0.000000 
#    z -0.011970 0.000000 1.881030 
# 
# From -- ./inp_files/58758.got.cif
#   From: 2010.06.25/outbox.cif.g09.slc.cpg/sg15_30_cif.got.tgz:58758.got - 2010.06.28 07:06:18.
