data_PCOD8141051
_publ_section_title
;
Structure prediction by ZEFSAII (Michael W. Deem and Ramdas Pophale) SiO2 
 PCOD8141051
Probable space group: C 2/C
;
_chemical_formula_sum "Si O2"
_cell_formula_units_Z 64
_cell_length_a 23.287889
_cell_length_b 24.681368
_cell_length_c 8.696588
_cell_angle_alpha 90.000000
_cell_angle_beta 47.524951
_cell_angle_gamma 90.000000
_cell_volume 3686.823574
_symmetry_space_group_name_H-M "C 2/C"
_symmetry_group_IT_number 15
_symmetry_cell_setting 'monoclinic'
loop_
_space_group_symop_operation_xyz
x,y,z
-x,y,1/2-z
-x,-y,-z
x,-y,1/2+z
1/2+x,1/2+y,z
1/2-x,1/2+y,1/2-z
1/2-x,1/2-y,-z
1/2+x,1/2-y,1/2+z
loop_
_atom_site_type_symbol
_atom_site_label
_atom_site_fract_x
_atom_site_fract_y
_atom_site_fract_z
Si Si1 0.238847 0.340029 0.537443
Si Si2 0.373782 0.960255 0.251632
Si Si3 0.018223 0.728550 0.037492
Si Si4 0.162653 0.623143 0.454697
Si Si5 0.334866 0.236417 0.907044
Si Si6 0.647357 0.071095 0.051217
Si Si7 0.977694 0.611236 0.030469
Si Si8 0.138979 0.762644 0.297738
O O1 0.236884 0.367781 0.709290
O O2 0.218086 0.387062 0.452566
O O3 0.174321 0.291876 0.656490
O O4 0.323143 0.315731 0.348896
O O5 0.320244 0.928888 0.471302
O O6 0.361048 0.023355 0.307046
O O7 0.343470 0.951207 0.134996
O O8 0.462417 0.938268 0.109696
O O9 0.000000 0.733242 0.250000
O O10 0.022804 0.667332 0.966531
O O11 0.952574 0.762809 0.067268
O O12 0.101617 0.754306 0.837288
O O13 0.154167 0.672876 0.585647
O O14 0.083360 0.615195 0.499875
O O15 0.250000 0.250000 0.000000
O O16 0.346383 0.267436 0.047161
O O17 0.567043 0.103296 0.225772
#
# Coordination Sequence:
#
# PCOD8141051 Si02
#       8
#     8   8   8   8   8   8   8   8
#     4   9  20  36  56  74 107 145 192 230 290 319
#     4  12  23  33  53  73 111 147 199 228 285 332
#     4  12  23  35  55  84 116 150 196 235 288 342
#     4  10  21  35  53  71 108 148 189 231 284 331
#     4  11  24  35  57  80 111 151 195 236 294 347
#     4  11  22  36  49  79 105 151 192 239 276 339
#     4  11  21  35  50  73 106 152 191 236 275 329
#     4  10  21  37  58  77 112 149 190 238 287 339
#
# _framework density 17.359117000000001
#
# number of rings (size 3 to 8) (size 9 to 14) (size 15 to 20)
#    0.000    1.250    5.000    3.750    7.000    1.000 
#    0.000    0.000    0.000    0.000    0.000    0.000 
#    0.000    1.000    0.750    0.125    0.000    0.000 
#
# Total GULP energy -396636.288148 kJ/mol
# GULP energy per Si atom -12394.884005 kJ/mol
# Density = 1.731961 g / cm^3
# Si number density = 17.359117 Si / 1000 Ang^3
#
#
#
# Elastic Constant Matrix: (Units=GPa)
#
#
# Indices 1 2 3 4 5 6 
#
# 1 95.6876 33.2954 54.8629 0.0000 7.0094 0.0000
# 2 33.2954 70.7614 39.7364 0.0000 -4.6643 0.0000
# 3 54.8629 39.7364 104.2704 0.0000 0.4146 0.0000
# 4 0.0000 0.0000 0.0000 31.2431 0.0000 3.8057
# 5 7.0094 -4.6643 0.4146 0.0000 31.1538 0.0000
# 6 0.0000 0.0000 0.0000 3.8057 0.0000 24.8671
#
#
#
# Elastic Compliance Matrix: (Units=1/GPa)
#
#
# Indices 1 2 3 4 5 6 
#
# 1 0.016116 -0.003947 -0.006959 0.000000 -0.004124 0.000000
# 2 -0.003947 0.019191 -0.005252 0.000000 0.003831 0.000000
# 3 -0.006959 -0.005252 0.015251 0.000000 0.000577 0.000000
# 4 0.000000 0.000000 0.000000 0.032615 0.000000 -0.004992
# 5 -0.004124 0.003831 0.000577 0.000000 0.033593 0.000000
# 6 0.000000 0.000000 0.000000 -0.004992 0.000000 0.040978
#
#
# Mechanical properties :
#
#
# Convention : Reuss Voigt Hill
#
# Bulk Modulus (GPa) = 54.81804 58.50097 56.65950
# Shear Modulus (GPa) = 25.49185 26.97444 26.23315
#
# Velocity S-wave (km/s) = 3.83626 3.94624 3.89164
# Velocity P-wave (km/s) = 7.16030 7.38494 7.27349
#
# Compressibility (1/GPa) = 0.01824217
#
# Stress axis : x y z
#
# Youngs Moduli (GPa) = 62.04901 52.10775 65.56851
#
# Poissons Ratio (x) = 0.20568 0.45630
# Poissons Ratio (y) = 0.24492 0.34436
# Poissons Ratio (z) = 0.43181 0.27367
#
# Static dielectric constant tensor:
#      x y z
#    x 3.058480 0.000000 0.217710 
#    y 0.000000 3.070500 0.000000 
#    z 0.217710 0.000000 3.394090 
# 
# 
# High freq. dielectric constant tensor:
#      x y z
#    x 1.648200 0.000000 0.031610 
#    y 0.000000 1.650580 0.000000 
#    z 0.031610 0.000000 1.672820 
# 
# From -- ./inp_files/59028.got.cif
#   From: 2010.06.25/outbox.cif.g09.slc.cpg/sg15_30_cif.got.tgz:59028.got - 2010.06.28 07:06:18.
