data_PCOD8141238
_publ_section_title
;
Structure prediction by ZEFSAII (Michael W. Deem and Ramdas Pophale) SiO2 
 PCOD8141238
Probable space group: C 2/C
;
_chemical_formula_sum "Si O2"
_cell_formula_units_Z 48
_cell_length_a 19.077253
_cell_length_b 7.297962
_cell_length_c 25.639801
_cell_angle_alpha 90.000000
_cell_angle_beta 134.361455
_cell_angle_gamma 90.000000
_cell_volume 2552.134930
_symmetry_space_group_name_H-M "C 2/C"
_symmetry_group_IT_number 15
_symmetry_cell_setting 'monoclinic'
loop_
_space_group_symop_operation_xyz
x,y,z
-x,y,1/2-z
-x,-y,-z
x,-y,1/2+z
1/2+x,1/2+y,z
1/2-x,1/2+y,1/2-z
1/2-x,1/2-y,-z
1/2+x,1/2-y,1/2+z
loop_
_atom_site_type_symbol
_atom_site_label
_atom_site_fract_x
_atom_site_fract_y
_atom_site_fract_z
Si Si1 0.614507 0.609156 0.685805
Si Si2 0.787415 0.372644 0.589835
Si Si3 0.225928 0.440166 0.794690
Si Si4 0.889520 0.219696 0.244047
Si Si5 0.889194 0.261715 0.129231
Si Si6 0.890760 0.103603 0.572913
O O1 0.662168 0.485068 0.664296
O O2 0.675271 0.792895 0.730121
O O3 0.615201 0.485201 0.737438
O O4 0.501525 0.654288 0.613180
O O5 0.782670 0.377810 0.649851
O O6 0.830001 0.555097 0.584423
O O7 0.860063 0.210649 0.609639
O O8 0.678150 0.338815 0.511139
O O9 0.175399 0.635508 0.758375
O O10 0.849656 0.194208 0.164636
O O11 0.996970 0.307263 0.303985
O O12 0.876461 0.112064 0.077194
#
# Coordination Sequence:
#
# PCOD8141238 Si02
#       6
#     8   8   8   8   8   8
#     4  11  21  35  56  79 109 142 181 222 268 321
#     4  10  21  36  55  80 110 142 178 223 273 323
#     4  11  21  35  56  79 109 142 181 222 268 321
#     4   9  18  32  52  82 103 136 178 226 267 314
#     4   9  17  32  56  78 105 135 180 220 267 319
#     4  10  21  36  55  80 110 142 178 223 273 323
#
# _framework density 18.807784000000002
#
# number of rings (size 3 to 8) (size 9 to 14) (size 15 to 20)
#    0.000    2.000    1.667    2.500    0.000    4.000 
#    0.000    0.000    0.000    1.000    0.000    0.000 
#    0.000    0.000    0.000    0.000    0.000    0.000 
#
# Total GULP energy -297475.552968 kJ/mol
# GULP energy per Si atom -12394.814707 kJ/mol
# Density = 1.876498 g / cm^3
# Si number density = 18.807784 Si / 1000 Ang^3
#
#
#
# Elastic Constant Matrix: (Units=GPa)
#
#
# Indices 1 2 3 4 5 6 
#
# 1 88.8996 23.2019 30.8999 0.0000 22.0691 0.0000
# 2 23.2019 59.8571 24.6323 0.0000 13.8133 0.0001
# 3 30.8999 24.6323 62.1227 0.0000 18.7057 0.0000
# 4 0.0000 0.0000 0.0000 21.0086 0.0000 3.2455
# 5 22.0691 13.8133 18.7057 0.0000 27.1951 0.0000
# 6 0.0000 0.0001 0.0000 3.2455 0.0000 31.7564
#
#
#
# Elastic Compliance Matrix: (Units=1/GPa)
#
#
# Indices 1 2 3 4 5 6 
#
# 1 0.015406 -0.002290 -0.004213 0.000000 -0.008441 0.000000
# 2 -0.002290 0.021090 -0.005748 0.000000 -0.004901 0.000000
# 3 -0.004213 -0.005748 0.023412 0.000000 -0.009765 0.000000
# 4 0.000000 0.000000 0.000000 0.048363 0.000000 -0.004943
# 5 -0.008441 -0.004901 -0.009765 0.000000 0.052827 0.000000
# 6 0.000000 0.000000 0.000000 -0.004943 0.000000 0.031995
#
#
# Mechanical properties :
#
#
# Convention : Reuss Voigt Hill
#
# Bulk Modulus (GPa) = 28.24345 40.92753 34.58549
# Shear Modulus (GPa) = 21.79609 24.80171 23.29890
#
# Velocity S-wave (km/s) = 3.40794 3.63532 3.52346
# Velocity P-wave (km/s) = 5.52584 6.27925 5.91455
#
# Compressibility (1/GPa) = 0.03540644
#
# Stress axis : x y z
#
# Youngs Moduli (GPa) = 64.90856 47.41500 42.71250
#
# Poissons Ratio (x) = 0.10858 0.17997
# Poissons Ratio (y) = 0.14864 0.24551
# Poissons Ratio (z) = 0.27349 0.27254
#
# Static dielectric constant tensor:
#      x y z
#    x 3.500600 0.000000 0.182120 
#    y 0.000000 3.439880 0.000000 
#    z 0.182120 0.000000 3.216360 
# 
# 
# High freq. dielectric constant tensor:
#      x y z
#    x 1.729580 0.000000 0.012170 
#    y 0.000000 1.736740 0.000000 
#    z 0.012170 0.000000 1.711440 
# 
# From -- ./inp_files/246653.got.cif
#   From: 2010.06.25/outbox.cif.g09.slc.cpg/sg15_124_cif.got.tgz:246653.got - 2010.06.28 07:06:18.
