data_PCOD8141230
_publ_section_title
;
Structure prediction by ZEFSAII (Michael W. Deem and Ramdas Pophale) SiO2 
 PCOD8141230
Probable space group: C 2/C
;
_chemical_formula_sum "Si O2"
_cell_formula_units_Z 60
_cell_length_a 20.769969
_cell_length_b 25.425273
_cell_length_c 9.741366
_cell_angle_alpha 90.000000
_cell_angle_beta 37.311828
_cell_angle_gamma 90.000000
_cell_volume 3118.195270
_symmetry_space_group_name_H-M "C 2/C"
_symmetry_group_IT_number 15
_symmetry_cell_setting 'monoclinic'
loop_
_space_group_symop_operation_xyz
x,y,z
-x,y,1/2-z
-x,-y,-z
x,-y,1/2+z
1/2+x,1/2+y,z
1/2-x,1/2+y,1/2-z
1/2-x,1/2-y,-z
1/2+x,1/2-y,1/2+z
loop_
_atom_site_type_symbol
_atom_site_label
_atom_site_fract_x
_atom_site_fract_y
_atom_site_fract_z
Si Si1 0.907282 0.100945 0.613046
Si Si2 0.101581 0.259928 0.262739
Si Si3 0.000000 0.816327 0.750000
Si Si4 0.919450 0.728985 0.264761
Si Si5 0.776309 0.172201 0.011857
Si Si6 0.867264 0.064224 0.200899
Si Si7 0.125631 0.984622 0.531457
Si Si8 0.762953 0.825592 0.843700
O O1 0.952789 0.150479 0.454017
O O2 0.841337 0.064337 0.621003
O O3 0.004581 0.069397 0.517993
O O4 0.826093 0.118441 0.869528
O O5 0.161994 0.226509 0.278992
O O6 0.094458 0.220642 0.145187
O O7 0.985640 0.276314 0.511553
O O8 0.162207 0.312673 0.111530
O O9 0.874809 0.787629 0.352916
O O10 0.818760 0.689865 0.427970
O O11 0.000000 0.713524 0.250000
O O12 0.729854 0.163983 0.242855
O O13 0.829962 0.025658 0.389948
O O14 0.817265 0.121558 0.308662
O O15 0.832329 0.037928 0.114686
O O16 0.000000 0.984423 0.750000
#
# Coordination Sequence:
#
# PCOD8141230 Si02
#       8
#     8   8   4   8   8   8   8   8
#     4  11  20  35  55  82 124 158 197 240 297 368
#     4  11  22  36  56  78 119 166 194 251 290 361
#     4  12  18  34  54  78 118 160 196 234 298 346
#     4  11  22  39  53  82 122 153 201 248 295 347
#     4  11  24  35  57  89 113 163 201 245 295 362
#     4  11  22  37  57  86 123 161 201 249 301 376
#     4  10  21  36  54  84 116 164 198 238 313 368
#     4  11  23  36  57  84 116 160 212 236 305 355
#
# _framework density 19.241900000000001
#
# number of rings (size 3 to 8) (size 9 to 14) (size 15 to 20)
#    0.000    1.067    6.000    2.400    5.600    1.067 
#    0.000    0.000    0.000    0.000    0.000    0.933 
#    2.000    0.000    0.000    0.000    0.000    0.000 
#
# Total GULP energy -371902.314874 kJ/mol
# GULP energy per Si atom -12396.743829 kJ/mol
# Density = 1.919810 g / cm^3
# Si number density = 19.241900 Si / 1000 Ang^3
#
#
#
# Elastic Constant Matrix: (Units=GPa)
#
#
# Indices 1 2 3 4 5 6 
#
# 1 80.2321 17.2111 26.8546 0.0001 9.1539 0.0000
# 2 17.2111 72.5835 39.9973 0.0000 8.4790 0.0000
# 3 26.8546 39.9973 92.8068 0.0001 10.5201 0.0001
# 4 0.0001 0.0000 0.0001 33.1862 0.0000 6.2434
# 5 9.1539 8.4790 10.5201 0.0000 27.1088 0.0000
# 6 0.0000 0.0000 0.0001 6.2434 0.0000 22.3967
#
#
#
# Elastic Compliance Matrix: (Units=1/GPa)
#
#
# Indices 1 2 3 4 5 6 
#
# 1 0.014161 -0.001218 -0.003215 0.000000 -0.003153 0.000000
# 2 -0.001218 0.018371 -0.007281 0.000000 -0.002509 0.000000
# 3 -0.003215 -0.007281 0.015128 0.000000 -0.002508 0.000000
# 4 0.000000 0.000000 0.000000 0.031801 0.000000 -0.008865
# 5 -0.003153 -0.002509 -0.002508 0.000000 0.039711 0.000000
# 6 0.000000 0.000000 0.000000 -0.008865 0.000000 0.047121
#
#
# Mechanical properties :
#
#
# Convention : Reuss Voigt Hill
#
# Bulk Modulus (GPa) = 41.26752 45.97205 43.61978
# Shear Modulus (GPa) = 25.27842 27.30897 26.29369
#
# Velocity S-wave (km/s) = 3.62846 3.77137 3.70060
# Velocity P-wave (km/s) = 6.24880 6.55041 6.40138
#
# Compressibility (1/GPa) = 0.02423213
#
# Stress axis : x y z
#
# Youngs Moduli (GPa) = 70.61629 54.43318 66.10475
#
# Poissons Ratio (x) = 0.06628 0.21256
# Poissons Ratio (y) = 0.08599 0.48129
# Poissons Ratio (z) = 0.22706 0.39631
#
# Static dielectric constant tensor:
#      x y z
#    x 3.463870 0.000000 0.274260 
#    y 0.000000 3.489320 0.000000 
#    z 0.274260 0.000000 3.451160 
# 
# 
# High freq. dielectric constant tensor:
#      x y z
#    x 1.732310 0.000000 0.035710 
#    y 0.000000 1.734920 0.000000 
#    z 0.035710 0.000000 1.733940 
# 
# From -- ./inp_files/59110.got.cif
#   From: 2010.06.25/outbox.cif.g09.slc.cpg/sg15_30_cif.got.tgz:59110.got - 2010.06.28 07:06:18.
