data_PCOD8141297
_publ_section_title
;
Structure prediction by ZEFSAII (Michael W. Deem and Ramdas Pophale) SiO2 
 PCOD8141297
Probable space group: C 2/C
;
_chemical_formula_sum "Si O2"
_cell_formula_units_Z 40
_cell_length_a 8.498310
_cell_length_b 9.942629
_cell_length_c 23.178772
_cell_angle_alpha 90.000000
_cell_angle_beta 90.820681
_cell_angle_gamma 90.000000
_cell_volume 1958.302032
_symmetry_space_group_name_H-M "C 2/C"
_symmetry_group_IT_number 15
_symmetry_cell_setting 'monoclinic'
loop_
_space_group_symop_operation_xyz
x,y,z
-x,y,1/2-z
-x,-y,-z
x,-y,1/2+z
1/2+x,1/2+y,z
1/2-x,1/2+y,1/2-z
1/2-x,1/2-y,-z
1/2+x,1/2-y,1/2+z
loop_
_atom_site_type_symbol
_atom_site_label
_atom_site_fract_x
_atom_site_fract_y
_atom_site_fract_z
Si Si1 0.111034 0.203517 0.892443
Si Si2 0.673974 0.584539 0.380846
Si Si3 0.535771 0.921940 0.684217
Si Si4 0.109934 0.342456 0.521083
Si Si5 0.472928 0.846013 0.403186
O O1 0.063057 0.293051 0.837316
O O2 0.297009 0.210517 0.902922
O O3 0.021093 0.249288 0.949303
O O4 0.064817 0.047873 0.878200
O O5 0.812550 0.556315 0.430955
O O6 0.576521 0.714113 0.394192
O O7 0.775939 0.603105 0.322809
O O8 0.500000 0.950362 0.750000
O O9 0.485057 0.053997 0.648311
O O10 0.250000 0.250000 0.500000
O O11 0.028188 0.413235 0.464858
#
# Coordination Sequence:
#
# PCOD8141297 Si02
#       5
#     8   8   8   8   8
#     4  10  21  36  58  85 112 147 187 227 277 332
#     4   9  21  38  57  86 115 145 183 224 277 336
#     4  10  23  41  56  77 112 149 189 237 279 319
#     4   9  19  35  57  86 121 146 173 224 280 336
#     4  10  21  37  60  86 112 147 186 225 276 336
#
# _framework density 20.425857000000001
#
# number of rings (size 3 to 8) (size 9 to 14) (size 15 to 20)
#    0.000    2.400    0.000    0.600    0.000   20.000 
#    0.000    1.000    0.000    0.000    0.000    0.000 
#    0.000    0.000    0.000    0.000    0.000    0.000 
#
# Total GULP energy -247938.745525 kJ/mol
# GULP energy per Si atom -12396.937276 kJ/mol
# Density = 2.037937 g / cm^3
# Si number density = 20.425857 Si / 1000 Ang^3
#
#
#
# Elastic Constant Matrix: (Units=GPa)
#
#
# Indices 1 2 3 4 5 6 
#
# 1 73.1881 45.3948 48.2756 0.0000 -9.9648 0.0000
# 2 45.3948 116.2053 58.6305 0.0000 5.6729 0.0000
# 3 48.2756 58.6305 160.7134 0.0000 -17.9872 0.0000
# 4 0.0000 0.0000 0.0000 22.2399 0.0000 -0.6305
# 5 -9.9648 5.6729 -17.9872 0.0000 24.5970 0.0000
# 6 0.0000 0.0000 0.0000 -0.6305 0.0000 34.6630
#
#
#
# Elastic Compliance Matrix: (Units=1/GPa)
#
#
# Indices 1 2 3 4 5 6 
#
# 1 0.021103 -0.007240 -0.002782 0.000000 0.008185 0.000000
# 2 -0.007240 0.013823 -0.003870 0.000000 -0.008951 0.000000
# 3 -0.002782 -0.003870 0.009196 0.000000 0.006490 0.000000
# 4 0.000000 0.000000 0.000000 0.044987 0.000000 0.000818
# 5 0.008185 -0.008951 0.006490 0.000000 0.050782 0.000000
# 6 0.000000 0.000000 0.000000 0.000818 0.000000 0.028864
#
#
# Mechanical properties :
#
#
# Convention : Reuss Voigt Hill
#
# Bulk Modulus (GPa) = 61.20230 72.74541 66.97385
# Shear Modulus (GPa) = 24.75419 29.48703 27.12061
#
# Velocity S-wave (km/s) = 3.48502 3.80361 3.64780
# Velocity P-wave (km/s) = 6.79868 7.41496 7.11350
#
# Compressibility (1/GPa) = 0.01633926
#
# Stress axis : x y z
#
# Youngs Moduli (GPa) = 47.38605 72.34196 108.74169
#
# Poissons Ratio (x) = 0.52375 0.30250
# Poissons Ratio (y) = 0.34307 0.42083
# Poissons Ratio (z) = 0.13182 0.27996
#
# Static dielectric constant tensor:
#      x y z
#    x 3.796860 0.000000 -0.000180 
#    y 0.000000 3.822140 0.000000 
#    z -0.000180 0.000000 3.729750 
# 
# 
# High freq. dielectric constant tensor:
#      x y z
#    x 1.806430 0.000000 -0.011550 
#    y 0.000000 1.815330 0.000000 
#    z -0.011550 0.000000 1.785490 
# 
# From -- ./inp_files/229924.got.cif
#   From: 2010.06.25/outbox.cif.g09.slc.cpg/sg15_115_cif.got.tgz:229924.got - 2010.06.28 07:06:18.
