data_PCOD8141424
_publ_section_title
;
Structure prediction by ZEFSAII (Michael W. Deem and Ramdas Pophale) SiO2 
 PCOD8141424
Probable space group: C 2/C
;
_chemical_formula_sum "Si O2"
_cell_formula_units_Z 56
_cell_length_a 28.512361
_cell_length_b 15.998676
_cell_length_c 8.809775
_cell_angle_alpha 90.000000
_cell_angle_beta 140.303602
_cell_angle_gamma 90.000000
_cell_volume 2566.800884
_symmetry_space_group_name_H-M "C 2/C"
_symmetry_group_IT_number 15
_symmetry_cell_setting 'monoclinic'
loop_
_space_group_symop_operation_xyz
x,y,z
-x,y,1/2-z
-x,-y,-z
x,-y,1/2+z
1/2+x,1/2+y,z
1/2-x,1/2+y,1/2-z
1/2-x,1/2-y,-z
1/2+x,1/2-y,1/2+z
loop_
_atom_site_type_symbol
_atom_site_label
_atom_site_fract_x
_atom_site_fract_y
_atom_site_fract_z
Si Si1 0.917597 0.925977 0.486639
Si Si2 0.077761 0.250622 0.374821
Si Si3 0.925342 0.774024 0.980795
Si Si4 0.793888 0.388962 0.790426
Si Si5 0.135557 0.919606 0.478817
Si Si6 0.348499 0.023102 0.157031
Si Si7 0.084688 0.396331 0.948940
O O1 0.895379 0.830585 0.467604
O O2 0.913814 0.932786 0.294242
O O3 0.860613 0.989664 0.428297
O O4 0.000000 0.946242 0.750000
O O5 0.062005 0.219524 0.166379
O O6 0.144462 0.317124 0.542177
O O7 0.000000 0.286235 0.250000
O O8 0.895898 0.860868 0.968689
O O9 0.876267 0.690499 0.897511
O O10 0.000000 0.756362 0.250000
O O11 0.709772 0.369034 0.618435
O O12 0.791460 0.422165 0.611995
O O13 0.807702 0.462431 0.943010
O O14 0.397154 0.087188 0.181313
O O15 0.397275 0.974011 0.399210
O O16 0.000000 0.383457 0.750000
#
# Coordination Sequence:
#
# PCOD8141424 Si02
#       7
#     8   8   8   8   8   8   8
#     4  11  24  45  73 100 131 174 224 283 340 398
#     4  11  25  44  68 102 139 178 227 280 334 398
#     4  11  23  42  67  98 130 169 224 281 336 395
#     4  11  25  43  66  98 139 180 221 275 336 401
#     4  12  25  45  70 102 132 174 222 279 345 404
#     4  10  22  41  59  91 132 175 222 264 323 398
#     4  10  21  36  63  91 123 170 222 275 324 381
#
# _framework density 21.817039999999999
#
# number of rings (size 3 to 8) (size 9 to 14) (size 15 to 20)
#    0.000    1.143    1.429    4.714    6.000    3.429 
#    5.143    0.000    0.000    0.000    0.000    0.000 
#    0.000    0.000    0.000    0.000    0.000    0.000 
#
# Total GULP energy -346908.800845 kJ/mol
# GULP energy per Si atom -12389.600030 kJ/mol
# Density = 2.176738 g / cm^3
# Si number density = 21.817040 Si / 1000 Ang^3
#
#
#
# Elastic Constant Matrix: (Units=GPa)
#
#
# Indices 1 2 3 4 5 6 
#
# 1 136.6835 38.0466 53.2465 0.0000 -20.2710 0.0000
# 2 38.0466 64.1640 12.2229 0.0000 -12.1522 0.0000
# 3 53.2465 12.2229 74.9408 0.0000 -12.4632 0.0000
# 4 0.0000 0.0000 0.0000 -69.9896 0.0000 154.6001
# 5 -20.2710 -12.1522 -12.4632 0.0000 42.1749 0.0000
# 6 0.0000 0.0000 0.0000 154.6001 0.0000 -217.3596
#
#
#
# Elastic Compliance Matrix: (Units=1/GPa)
#
#
# Indices 1 2 3 4 5 6 
#
# 1 0.011928 -0.005298 -0.007268 0.000000 0.002058 0.000000
# 2 -0.005298 0.019127 0.001197 0.000000 0.003318 0.000000
# 3 -0.007268 0.001197 0.018709 0.000000 0.002380 0.000000
# 4 0.000000 0.000000 0.000000 0.025018 0.000000 0.017794
# 5 0.002058 0.003318 0.002380 0.000000 0.026360 0.000000
# 6 0.000000 0.000000 0.000000 0.017794 0.000000 0.008056
#
#
# Mechanical properties :
#
#
# Convention : Reuss Voigt Hill
#
# Bulk Modulus (GPa) = 37.00427 53.64669 45.32548
# Shear Modulus (GPa) = 35.47503 -37.55006 -1.03751
#
# Velocity S-wave (km/s) = 4.03677 -4.15316 -0.69035
# Velocity P-wave (km/s) = 6.22297 1.28236 4.49276
#
# Compressibility (1/GPa) = 0.02702391
#
# Stress axis : x y z
#
# Youngs Moduli (GPa) = 83.83859 52.28158 53.45093
#
# Poissons Ratio (x) = 0.27700 0.38850
# Poissons Ratio (y) = 0.44419 -0.06396
# Poissons Ratio (z) = 0.60937 -0.06256
#
# Static dielectric constant tensor:
#      x y z
#    x -6.626520 0.000000 0.023890 
#    y 0.000000 4.476500 0.000000 
#    z 0.023890 0.000000 3.759380 
# 
# 
# High freq. dielectric constant tensor:
#      x y z
#    x 1.866840 0.000000 -0.022960 
#    y 0.000000 1.869470 0.000000 
#    z -0.022960 0.000000 1.848310 
# 
# From -- ./inp_files/70506.got.cif
#   From: 2010.06.25/outbox.cif.g09.slc.cpg/sg15_36_cif.got.tgz:70506.got - 2010.06.28 07:06:18.
