data_PCOD8141764
_publ_section_title
;
Structure prediction by ZEFSAII (Michael W. Deem and Ramdas Pophale) SiO2 
 PCOD8141764
Probable space group: C 2/C
;
_chemical_formula_sum "Si O2"
_cell_formula_units_Z 52
_cell_length_a 10.678807
_cell_length_b 10.669956
_cell_length_c 27.251870
_cell_angle_alpha 90.000000
_cell_angle_beta 125.473786
_cell_angle_gamma 90.000000
_cell_volume 2528.770227
_symmetry_space_group_name_H-M "C 2/C"
_symmetry_group_IT_number 15
_symmetry_cell_setting 'monoclinic'
loop_
_space_group_symop_operation_xyz
x,y,z
-x,y,1/2-z
-x,-y,-z
x,-y,1/2+z
1/2+x,1/2+y,z
1/2-x,1/2+y,1/2-z
1/2-x,1/2-y,-z
1/2+x,1/2-y,1/2+z
loop_
_atom_site_type_symbol
_atom_site_label
_atom_site_fract_x
_atom_site_fract_y
_atom_site_fract_z
Si Si1 0.764469 0.871204 0.065514
Si Si2 0.470414 0.829328 0.567002
Si Si3 0.582655 0.614283 0.435723
Si Si4 0.789797 0.174639 0.935335
Si Si5 0.197849 0.727874 0.653055
Si Si6 0.500000 0.869398 0.750000
Si Si7 0.498272 0.972620 0.345768
O O1 0.839915 0.739052 0.068883
O O2 0.722756 0.865682 0.113040
O O3 0.885064 0.981692 0.082380
O O4 0.606878 0.890730 0.998976
O O5 0.603241 0.731396 0.582773
O O6 0.538038 0.939078 0.615947
O O7 0.697473 0.714029 0.439137
O O8 0.607671 0.605285 0.500054
O O9 0.407122 0.653659 0.386089
O O10 0.675501 0.072558 0.885953
O O11 0.357062 0.778370 0.709478
O O12 0.115124 0.646622 0.676600
O O13 0.536795 0.956036 0.712157
#
# Coordination Sequence:
#
# PCOD8141764 Si02
#       7
#     8   8   8   8   8   4   8
#     4  11  22  36  64 102 137 167 207 265 332 398
#     4  11  22  36  64 102 136 167 207 263 336 399
#     4  10  21  37  63  98 134 168 206 265 332 398
#     4  10  21  37  63  98 133 167 207 261 338 398
#     4  11  25  45  68  96 130 175 220 272 328 388
#     4  12  28  48  64  92 128 180 232 268 320 380
#     4  11  25  45  68  94 130 173 218 278 322 386
#
# _framework density 20.563355000000001
#
# number of rings (size 3 to 8) (size 9 to 14) (size 15 to 20)
#    0.000    1.231    4.615    0.923    2.154    4.308 
#    0.000    0.000    0.000    0.000    0.000    0.000 
#    0.000    0.000    0.000    0.000    0.000    0.000 
#
# Total GULP energy -322534.582534 kJ/mol
# GULP energy per Si atom -12405.176251 kJ/mol
# Density = 2.051655 g / cm^3
# Si number density = 20.563355 Si / 1000 Ang^3
#
#
#
# Elastic Constant Matrix: (Units=GPa)
#
#
# Indices 1 2 3 4 5 6 
#
# 1 99.0323 37.5402 53.6045 0.0000 0.0334 0.0000
# 2 37.5402 93.6631 50.4793 0.0000 -6.1511 0.0000
# 3 53.6045 50.4793 132.0460 0.0000 -3.5002 0.0000
# 4 0.0000 0.0000 0.0000 -13.5517 0.0000 -0.0517
# 5 0.0334 -6.1511 -3.5002 0.0000 14.1596 0.0000
# 6 0.0000 0.0000 0.0000 -0.0517 0.0000 49.4483
#
#
#
# Elastic Compliance Matrix: (Units=1/GPa)
#
#
# Indices 1 2 3 4 5 6 
#
# 1 0.013720 -0.003310 -0.004372 0.000000 -0.002551 0.000000
# 2 -0.003310 0.014550 -0.004078 0.000000 0.005321 0.000000
# 3 -0.004372 -0.004078 0.010932 0.000000 0.000941 0.000000
# 4 0.000000 0.000000 0.000000 -0.073791 0.000000 -0.000077
# 5 -0.002551 0.005321 0.000941 0.000000 0.073173 0.000000
# 6 0.000000 0.000000 0.000000 -0.000077 0.000000 0.020223
#
#
# Mechanical properties :
#
#
# Convention : Reuss Voigt Hill
#
# Bulk Modulus (GPa) = 63.76512 67.55440 65.65976
# Shear Modulus (GPa) = 57.10806 22.21907 39.66356
#
# Velocity S-wave (km/s) = 5.27561 3.29069 4.39663
# Velocity P-wave (km/s) = 8.25747 6.88196 7.60089
#
# Compressibility (1/GPa) = 0.01568256
#
# Stress axis : x y z
#
# Youngs Moduli (GPa) = 72.88759 68.72696 91.47825
#
# Poissons Ratio (x) = 0.22751 0.39992
# Poissons Ratio (y) = 0.24128 0.37300
# Poissons Ratio (z) = 0.31864 0.28024
#
# Static dielectric constant tensor:
#      x y z
#    x 3.727220 0.000000 0.027110 
#    y 0.000000 3.717500 0.000000 
#    z 0.027110 0.000000 3.587070 
# 
# 
# High freq. dielectric constant tensor:
#      x y z
#    x 1.814250 0.000000 0.001280 
#    y 0.000000 1.813910 0.000000 
#    z 0.001280 0.000000 1.780520 
# 
# From -- ./inp_files/268424.got.cif
#   From: 2010.06.25/outbox.cif.g09.slc.cpg/sg15_135_cif.got.tgz:268424.got - 2010.06.28 07:06:18.
