data_PCOD8141522
_publ_section_title
;
Structure prediction by ZEFSAII (Michael W. Deem and Ramdas Pophale) SiO2 
 PCOD8141522
Probable space group: C 2/C
;
_chemical_formula_sum "Si O2"
_cell_formula_units_Z 48
_cell_length_a 19.408107
_cell_length_b 17.236912
_cell_length_c 15.331452
_cell_angle_alpha 90.000000
_cell_angle_beta 153.478569
_cell_angle_gamma 90.000000
_cell_volume 2290.229621
_symmetry_space_group_name_H-M "C 2/C"
_symmetry_group_IT_number 15
_symmetry_cell_setting 'monoclinic'
loop_
_space_group_symop_operation_xyz
x,y,z
-x,y,1/2-z
-x,-y,-z
x,-y,1/2+z
1/2+x,1/2+y,z
1/2-x,1/2+y,1/2-z
1/2-x,1/2-y,-z
1/2+x,1/2-y,1/2+z
loop_
_atom_site_type_symbol
_atom_site_label
_atom_site_fract_x
_atom_site_fract_y
_atom_site_fract_z
Si Si1 0.000000 0.465873 0.750000
Si Si2 0.045240 0.975962 0.954727
Si Si3 0.137869 0.829042 0.137348
Si Si4 0.386622 0.028276 0.297962
Si Si5 0.325124 0.407848 0.144818
Si Si6 0.500000 0.712330 0.750000
Si Si7 0.985303 0.305257 0.555085
O O1 0.933482 0.513291 0.758162
O O2 0.858257 0.414759 0.552455
O O3 0.060312 0.881243 0.971877
O O4 0.915545 0.008434 0.739340
O O5 0.210188 0.012684 0.118024
O O6 0.000000 0.000000 0.000000
O O7 0.101274 0.872021 0.185942
O O8 0.064427 0.744376 0.066736
O O9 0.320255 0.826139 0.327245
O O10 0.408010 0.120060 0.308501
O O11 0.500000 0.000000 0.500000
O O12 0.355487 0.346667 0.101001
O O13 0.463175 0.763192 0.623359
#
# Coordination Sequence:
#
# PCOD8141522 Si02
#       7
#     4   8   8   8   8   4   8
#     4  12  23  38  64  96 125 172 232 266 335 390
#     4  10  21  41  59  85 129 180 225 264 322 389
#     4  10  22  36  56  89 128 169 218 259 325 392
#     4  12  23  41  64  92 135 174 225 273 323 400
#     4  10  21  37  57  86 130 178 206 264 317 400
#     4  10  23  36  56  94 141 174 204 250 343 416
#     4  11  23  35  57  94 128 177 209 267 331 394
#
# _framework density 20.958597000000001
#
# number of rings (size 3 to 8) (size 9 to 14) (size 15 to 20)
#    0.000    1.333    3.333    2.500    9.333    1.333 
#    0.000    0.000    0.000    0.000    0.000    5.833 
#    0.000    0.000    0.000    0.000    0.000    0.000 
#
# Total GULP energy -297315.694483 kJ/mol
# GULP energy per Si atom -12388.153937 kJ/mol
# Density = 2.091089 g / cm^3
# Si number density = 20.958597 Si / 1000 Ang^3
#
#
#
# Elastic Constant Matrix: (Units=GPa)
#
#
# Indices 1 2 3 4 5 6 
#
# 1 114.3760 36.8822 31.0126 0.0000 21.5724 0.0000
# 2 36.8822 89.1626 40.4878 0.0000 -0.2016 0.0000
# 3 31.0126 40.4878 92.9859 0.0000 18.2351 0.0000
# 4 0.0000 0.0000 0.0000 25.1325 0.0000 3.6611
# 5 21.5724 -0.2016 18.2351 0.0000 38.7500 0.0000
# 6 0.0000 0.0000 0.0000 3.6611 0.0000 29.0868
#
#
#
# Elastic Compliance Matrix: (Units=1/GPa)
#
#
# Indices 1 2 3 4 5 6 
#
# 1 0.011525 -0.004462 -0.000703 0.000000 -0.006108 0.000000
# 2 -0.004462 0.016085 -0.006631 0.000000 0.005688 0.000000
# 3 -0.000703 -0.006631 0.015210 0.000000 -0.006801 0.000000
# 4 0.000000 0.000000 0.000000 0.040532 0.000000 -0.005102
# 5 -0.006108 0.005688 -0.006801 0.000000 0.032437 0.000000
# 6 0.000000 0.000000 0.000000 -0.005102 0.000000 0.035022
#
#
# Mechanical properties :
#
#
# Convention : Reuss Voigt Hill
#
# Bulk Modulus (GPa) = 52.00884 57.03217 54.52050
# Shear Modulus (GPa) = 27.65313 31.13665 29.39489
#
# Velocity S-wave (km/s) = 3.63632 3.85856 3.74909
# Velocity P-wave (km/s) = 6.51915 6.86457 6.69409
#
# Compressibility (1/GPa) = 0.01922750
#
# Stress axis : x y z
#
# Youngs Moduli (GPa) = 86.77156 62.16958 65.74720
#
# Poissons Ratio (x) = 0.27738 0.04623
# Poissons Ratio (y) = 0.38715 0.43598
# Poissons Ratio (z) = 0.06101 0.41226
#
# Static dielectric constant tensor:
#      x y z
#    x 4.114260 0.000000 0.086810 
#    y 0.000000 4.234620 0.000000 
#    z 0.086810 0.000000 3.729340 
# 
# 
# High freq. dielectric constant tensor:
#      x y z
#    x 1.817090 0.000000 0.031280 
#    y 0.000000 1.800870 0.000000 
#    z 0.031280 0.000000 1.815050 
# 
# From -- ./inp_files/48737.got.cif
#   From: 2010.06.25/outbox.cif.g09.slc.cpg/sg15_25_cif.got.tgz:48737.got - 2010.06.28 07:06:18.
