data_PCOD8141057
_publ_section_title
;
Structure prediction by ZEFSAII (Michael W. Deem and Ramdas Pophale) SiO2 
 PCOD8141057
Probable space group: C 2/C
;
_chemical_formula_sum "Si O2"
_cell_formula_units_Z 64
_cell_length_a 20.616880
_cell_length_b 20.574661
_cell_length_c 9.888924
_cell_angle_alpha 90.000000
_cell_angle_beta 118.662742
_cell_angle_gamma 90.000000
_cell_volume 3680.706049
_symmetry_space_group_name_H-M "C 2/C"
_symmetry_group_IT_number 15
_symmetry_cell_setting 'monoclinic'
loop_
_space_group_symop_operation_xyz
x,y,z
-x,y,1/2-z
-x,-y,-z
x,-y,1/2+z
1/2+x,1/2+y,z
1/2-x,1/2+y,1/2-z
1/2-x,1/2-y,-z
1/2+x,1/2-y,1/2+z
loop_
_atom_site_type_symbol
_atom_site_label
_atom_site_fract_x
_atom_site_fract_y
_atom_site_fract_z
Si Si1 0.241654 0.425076 0.741654
Si Si2 0.582315 0.763418 0.311510
Si Si3 0.190069 0.499999 0.440068
Si Si4 0.935194 0.409109 0.284328
Si Si5 0.833487 0.704407 0.333488
Si Si6 0.917684 0.736581 0.146880
Si Si7 0.169587 0.195830 0.169586
Si Si8 0.564806 0.909110 0.913940
O O1 0.241202 0.469809 0.608072
O O2 0.241201 0.469810 0.874329
O O3 0.170633 0.375122 0.670633
O O4 0.316699 0.382191 0.816701
O O5 0.500000 0.735389 0.250000
O O6 0.577599 0.832434 0.233461
O O7 0.623457 0.769420 0.494479
O O8 0.625867 0.713514 0.260965
O O9 0.141035 0.443346 0.327408
O O10 0.141035 0.556651 0.454663
O O11 0.960162 0.428092 0.460162
O O12 0.000000 0.432747 0.250000
O O13 0.876543 0.730580 0.247567
O O14 0.749563 0.732405 0.249563
O O15 0.922398 0.667564 0.078263
O O16 0.000000 0.764608 0.250000
O O17 0.874133 0.786485 0.009232
O O18 0.500000 0.932747 0.750000
#
# Coordination Sequence:
#
# PCOD8141057 Si02
#       8
#     8   8   8   8   8   8   8   8
#     4  10  24  35  59  76 114 147 202 232 290 324
#     4  11  21  35  58  87 119 152 191 238 293 347
#     4  12  21  38  50  80 111 158 196 242 264 344
#     4  11  23  32  51  77 117 156 195 226 283 334
#     4  10  21  35  53  84 113 154 191 233 285 342
#     4  11  21  35  58  87 119 152 191 238 293 347
#     4  10  21  40  57  83 117 154 189 248 287 354
#     4  11  23  32  51  77 117 156 195 226 283 334
#
# _framework density 17.387968000000001
#
# number of rings (size 3 to 8) (size 9 to 14) (size 15 to 20)
#    0.750    0.500    5.000    1.875    7.000    1.000 
#    0.000    1.250    0.000    0.000    0.000    2.625 
#    0.000    0.000    0.000    0.000    0.000    0.000 
#
# Total GULP energy -396810.465449 kJ/mol
# GULP energy per Si atom -12400.327045 kJ/mol
# Density = 1.734839 g / cm^3
# Si number density = 17.387968 Si / 1000 Ang^3
#
#
#
# Elastic Constant Matrix: (Units=GPa)
#
#
# Indices 1 2 3 4 5 6 
#
# 1 111.2371 38.2633 59.1361 0.0000 -8.2367 0.0000
# 2 38.2633 68.9259 43.8774 0.0000 -3.4399 0.0000
# 3 59.1361 43.8774 151.3926 0.0000 -16.3745 0.0000
# 4 0.0000 0.0000 0.0000 20.3308 0.0000 5.5000
# 5 -8.2367 -3.4399 -16.3745 0.0000 37.7571 0.0000
# 6 0.0000 0.0000 0.0000 5.5000 0.0000 29.3028
#
#
#
# Elastic Compliance Matrix: (Units=1/GPa)
#
#
# Indices 1 2 3 4 5 6 
#
# 1 0.012493 -0.004714 -0.003426 0.000000 0.000810 0.000000
# 2 -0.004714 0.019584 -0.003938 0.000000 -0.000952 0.000000
# 3 -0.003426 -0.003938 0.009406 0.000000 0.002973 0.000000
# 4 0.000000 0.000000 0.000000 0.051818 0.000000 -0.009726
# 5 0.000810 -0.000952 0.002973 0.000000 0.027865 0.000000
# 6 0.000000 0.000000 0.000000 -0.009726 0.000000 0.035952
#
#
# Mechanical properties :
#
#
# Convention : Reuss Voigt Hill
#
# Bulk Modulus (GPa) = 57.70870 68.23434 62.97152
# Shear Modulus (GPa) = 26.73108 30.16340 28.44724
#
# Velocity S-wave (km/s) = 3.92514 4.16953 4.04917
# Velocity P-wave (km/s) = 7.33506 7.90616 7.62596
#
# Compressibility (1/GPa) = 0.01732841
#
# Stress axis : x y z
#
# Youngs Moduli (GPa) = 80.04779 51.06136 106.31025
#
# Poissons Ratio (x) = 0.24069 0.36422
# Poissons Ratio (y) = 0.37732 0.41862
# Poissons Ratio (z) = 0.27424 0.20107
#
# Static dielectric constant tensor:
#      x y z
#    x 3.162230 0.000000 -0.107210 
#    y 0.000000 3.044490 0.000000 
#    z -0.107210 0.000000 3.337140 
# 
# 
# High freq. dielectric constant tensor:
#      x y z
#    x 1.657550 0.000000 -0.017550 
#    y 0.000000 1.645710 0.000000 
#    z -0.017550 0.000000 1.686190 
# 
# From -- ./inp_files/63269.got.cif
#   From: 2010.06.25/outbox.cif.g09.slc.cpg/sg15_32_cif.got.tgz:63269.got - 2010.06.28 07:06:18.
