data_PCOD8141505
_publ_section_title
;
Structure prediction by ZEFSAII (Michael W. Deem and Ramdas Pophale) SiO2 
 PCOD8141505
Probable space group: C 2/C
;
_chemical_formula_sum "Si O2"
_cell_formula_units_Z 32
_cell_length_a 9.340416
_cell_length_b 35.679630
_cell_length_c 12.017026
_cell_angle_alpha 90.000000
_cell_angle_beta 156.713563
_cell_angle_gamma 90.000000
_cell_volume 1583.219837
_symmetry_space_group_name_H-M "C 2/C"
_symmetry_group_IT_number 15
_symmetry_cell_setting 'monoclinic'
loop_
_space_group_symop_operation_xyz
x,y,z
-x,y,1/2-z
-x,-y,-z
x,-y,1/2+z
1/2+x,1/2+y,z
1/2-x,1/2+y,1/2-z
1/2-x,1/2-y,-z
1/2+x,1/2-y,1/2+z
loop_
_atom_site_type_symbol
_atom_site_label
_atom_site_fract_x
_atom_site_fract_y
_atom_site_fract_z
Si Si1 0.773412 0.231227 0.198362
Si Si2 0.282265 0.585017 0.353795
Si Si3 0.715737 0.961948 0.141888
Si Si4 0.418160 0.651858 0.067144
O O1 0.000000 0.241781 0.250000
O O2 0.866023 0.258417 0.369293
O O3 0.827429 0.187985 0.270468
O O4 0.572681 0.553115 0.598217
O O5 0.490106 0.621830 0.462380
O O6 0.000000 0.595198 0.250000
O O7 0.064456 0.570171 0.092398
O O8 0.000000 0.970523 0.250000
O O9 0.500000 0.000000 0.000000
O O10 0.500000 0.636291 0.250000
O O11 0.000000 0.663366 0.750000
#
# Coordination Sequence:
#
# PCOD8141505 Si02
#       4
#     8   8   8   8
#     4   9  16  28  47  73 105 136 169 216 266 304
#     4  10  22  39  55  76 110 144 170 208 269 323
#     4  10  21  37  57  79 103 136 175 214 261 314
#     4  11  21  33  54  83 107 136 182 224 258 306
#
# _framework density 20.211974000000001
#
# number of rings (size 3 to 8) (size 9 to 14) (size 15 to 20)
#    0.000    2.000    0.000    6.000    0.000    3.000 
#    0.000    0.000    0.000    1.500    0.000    0.000 
#    0.000    4.000    0.000    0.000    0.000    0.000 
#
# Total GULP energy -198297.654929 kJ/mol
# GULP energy per Si atom -12393.603433 kJ/mol
# Density = 2.016597 g / cm^3
# Si number density = 20.211974 Si / 1000 Ang^3
#
#
#
# Elastic Constant Matrix: (Units=GPa)
#
#
# Indices 1 2 3 4 5 6 
#
# 1 37.0767 45.5858 26.8441 0.0000 -9.1076 0.0000
# 2 45.5858 129.2477 36.9146 0.0000 5.4250 0.0000
# 3 26.8441 36.9146 102.6888 0.0000 -17.5525 0.0000
# 4 0.0000 0.0000 0.0000 20.1804 0.0000 -1.8111
# 5 -9.1076 5.4250 -17.5525 0.0000 20.5526 0.0000
# 6 0.0000 0.0000 0.0000 -1.8111 0.0000 17.5190
#
#
#
# Elastic Compliance Matrix: (Units=1/GPa)
#
#
# Indices 1 2 3 4 5 6 
#
# 1 0.067293 -0.024244 -0.003144 0.000000 0.033534 0.000000
# 2 -0.024244 0.017982 -0.003249 0.000000 -0.018264 0.000000
# 3 -0.003144 -0.003249 0.013625 0.000000 0.011101 0.000000
# 4 0.000000 0.000000 0.000000 0.050017 0.000000 0.005171
# 5 0.033534 -0.018264 0.011101 0.000000 0.077817 0.000000
# 6 0.000000 0.000000 0.000000 0.005171 0.000000 0.057616
#
#
# Mechanical properties :
#
#
# Convention : Reuss Voigt Hill
#
# Bulk Modulus (GPa) = 26.57631 54.18913 40.38272
# Shear Modulus (GPa) = 13.96004 22.29496 18.12750
#
# Velocity S-wave (km/s) = 2.63093 3.32483 2.99803
# Velocity P-wave (km/s) = 4.73354 6.45042 5.65749
#
# Compressibility (1/GPa) = 0.03762750
#
# Stress axis : x y z
#
# Youngs Moduli (GPa) = 14.86048 55.61015 73.39311
#
# Poissons Ratio (x) = 1.34820 0.23075
# Poissons Ratio (y) = 0.36027 0.23842
# Poissons Ratio (z) = 0.04672 0.18065
#
# Static dielectric constant tensor:
#      x y z
#    x 3.762910 0.000000 0.168680 
#    y 0.000000 3.483370 0.000000 
#    z 0.168680 0.000000 4.805680 
# 
# 
# High freq. dielectric constant tensor:
#      x y z
#    x 1.744040 0.000000 -0.027900 
#    y 0.000000 1.790180 0.000000 
#    z -0.027900 0.000000 1.812320 
# 
# From -- ./inp_files/82750.got.cif
#   From: 2010.06.25/outbox.cif.g09.slc.cpg/sg15_42_cif.got.tgz:82750.got - 2010.06.28 07:06:18.
