data_PCOD8141980
_publ_section_title
;
Structure prediction by ZEFSAII (Michael W. Deem and Ramdas Pophale) SiO2 
 PCOD8141980
Probable space group: C 2/C
;
_chemical_formula_sum "Si O2"
_cell_formula_units_Z 56
_cell_length_a 8.317228
_cell_length_b 19.202379
_cell_length_c 26.586049
_cell_angle_alpha 90.000000
_cell_angle_beta 41.152886
_cell_angle_gamma 90.000000
_cell_volume 2794.215440
_symmetry_space_group_name_H-M "C 2/C"
_symmetry_group_IT_number 15
_symmetry_cell_setting 'monoclinic'
loop_
_space_group_symop_operation_xyz
x,y,z
-x,y,1/2-z
-x,-y,-z
x,-y,1/2+z
1/2+x,1/2+y,z
1/2-x,1/2+y,1/2-z
1/2-x,1/2-y,-z
1/2+x,1/2-y,1/2+z
loop_
_atom_site_type_symbol
_atom_site_label
_atom_site_fract_x
_atom_site_fract_y
_atom_site_fract_z
Si Si1 0.233226 0.453174 0.953638
Si Si2 0.817336 0.869832 0.836544
Si Si3 0.010145 0.727357 0.835484
Si Si4 0.000000 0.623278 0.750000
Si Si5 0.823090 0.133305 0.522158
Si Si6 0.500000 0.790118 0.750000
Si Si7 0.805840 0.025755 0.614059
Si Si8 0.625225 0.120194 0.128105
O O1 0.343433 0.423590 0.876097
O O2 0.424968 0.502818 0.935352
O O3 0.185629 0.388103 0.002642
O O4 0.000000 0.500000 0.000000
O O5 0.537330 0.871597 0.883658
O O6 0.000000 0.895892 0.750000
O O7 0.887298 0.792564 0.837164
O O8 0.087471 0.670351 0.775894
O O9 0.255715 0.744095 0.808112
O O10 0.813102 0.699195 0.921930
O O11 0.218467 0.573772 0.680604
O O12 0.816065 0.067350 0.560100
O O13 0.106216 0.152054 0.444958
O O14 0.512701 0.836844 0.796517
O O15 0.632471 0.959447 0.645275
#
# Coordination Sequence:
#
# PCOD8141980 Si02
#       8
#     8   8   8   4   8   4   8   8
#     4  11  23  41  63  96 127 161 210 262 315 372
#     4  12  24  40  65  93 130 165 209 265 307 381
#     4  11  23  43  60  92 125 164 216 248 318 371
#     4  10  21  38  60  86 125 162 196 256 302 370
#     4  10  23  41  65  91 127 168 206 262 310 384
#     4  12  23  38  62  84 123 160 206 264 296 376
#     4  10  21  38  64  91 125 162 202 252 316 370
#     4  11  22  39  63  92 117 162 209 254 319 365
#
# _framework density 20.041404
#
# number of rings (size 3 to 8) (size 9 to 14) (size 15 to 20)
#    0.000    1.143    2.143    5.571    2.000    4.000 
#    0.000    0.000    0.000    0.000    0.000    0.000 
#    0.000    0.000    0.000    0.000    0.000    0.000 
#
# Total GULP energy -347296.489838 kJ/mol
# GULP energy per Si atom -12403.446066 kJ/mol
# Density = 1.999579 g / cm^3
# Si number density = 20.041404 Si / 1000 Ang^3
#
#
#
# Elastic Constant Matrix: (Units=GPa)
#
#
# Indices 1 2 3 4 5 6 
#
# 1 112.7538 34.6709 33.7224 -0.0054 -8.0985 -0.0060
# 2 34.6709 88.4000 44.6565 -0.0259 -4.9848 -0.0063
# 3 33.7224 44.6565 116.2085 -0.0932 12.2159 0.0243
# 4 -0.0054 -0.0259 -0.0932 30.6294 0.0035 -0.5800
# 5 -8.0985 -4.9848 12.2159 0.0035 36.4737 0.0064
# 6 -0.0060 -0.0063 0.0243 -0.5800 0.0064 21.7776
#
#
#
# Elastic Compliance Matrix: (Units=1/GPa)
#
#
# Indices 1 2 3 4 5 6 
#
# 1 0.010625 -0.002868 -0.002268 -0.000008 0.002727 0.000004
# 2 -0.002868 0.015356 -0.005413 -0.000004 0.003275 0.000009
# 3 -0.002268 -0.005413 0.011893 0.000032 -0.005227 -0.000013
# 4 -0.000008 -0.000004 0.000032 0.032665 -0.000016 0.000870
# 5 0.002727 0.003275 -0.005227 -0.000016 0.030220 -0.000002
# 6 0.000004 0.000009 -0.000013 0.000870 -0.000002 0.045942
#
#
# Mechanical properties :
#
#
# Convention : Reuss Voigt Hill
#
# Bulk Modulus (GPa) = 59.60721 60.38466 59.99594
# Shear Modulus (GPa) = 28.83662 31.39699 30.11680
#
# Velocity S-wave (km/s) = 3.79734 3.96233 3.88071
# Velocity P-wave (km/s) = 7.00235 7.15044 7.07678
#
# Compressibility (1/GPa) = 0.01677649
#
# Stress axis : x y z
#
# Youngs Moduli (GPa) = 94.11960 65.12047 84.08363
#
# Poissons Ratio (x) = 0.18675 0.19069
# Poissons Ratio (y) = 0.26991 0.45516
# Poissons Ratio (z) = 0.21345 0.35251
#
# Static dielectric constant tensor:
#      x y z
#    x 3.778630 0.000060 0.189900 
#    y 0.000060 3.732580 0.000010 
#    z 0.189900 0.000010 3.967360 
# 
# 
# High freq. dielectric constant tensor:
#      x y z
#    x 1.786280 0.000000 0.011700 
#    y 0.000000 1.783480 0.000000 
#    z 0.011700 0.000000 1.794400 
# 
# From -- ./inp_files/232833.got.cif
#   From: 2010.06.25/outbox.cif.g09.slc.cpg/sg15_117_cif.got.tgz:232833.got - 2010.06.28 07:06:18.
