data_PCOD8141304
_publ_section_title
;
Structure prediction by ZEFSAII (Michael W. Deem and Ramdas Pophale) SiO2 
 PCOD8141304
Probable space group: C 2/C
;
_chemical_formula_sum "Si O2"
_cell_formula_units_Z 64
_cell_length_a 22.217524
_cell_length_b 16.590457
_cell_length_c 17.742299
_cell_angle_alpha 90.000000
_cell_angle_beta 28.120059
_cell_angle_gamma 90.000000
_cell_volume 3082.338974
_symmetry_space_group_name_H-M "C 2/C"
_symmetry_group_IT_number 15
_symmetry_cell_setting 'monoclinic'
loop_
_space_group_symop_operation_xyz
x,y,z
-x,y,1/2-z
-x,-y,-z
x,-y,1/2+z
1/2+x,1/2+y,z
1/2-x,1/2+y,1/2-z
1/2-x,1/2-y,-z
1/2+x,1/2-y,1/2+z
loop_
_atom_site_type_symbol
_atom_site_label
_atom_site_fract_x
_atom_site_fract_y
_atom_site_fract_z
Si Si1 0.956907 0.195317 0.998794
Si Si2 0.018023 0.202657 0.355444
Si Si3 0.666732 0.170396 0.285817
Si Si4 0.903171 0.498009 0.674237
Si Si5 0.562730 0.874982 0.062735
Si Si6 0.788519 0.919342 0.907698
Si Si7 0.960564 0.024745 0.627515
Si Si8 0.831422 0.923390 0.028809
O O1 0.027556 0.120847 0.879787
O O2 0.056657 0.268848 0.878057
O O3 0.812835 0.206296 0.122069
O O4 0.940449 0.179988 0.105611
O O5 0.028071 0.297002 0.326097
O O6 0.873756 0.168993 0.498584
O O7 0.111550 0.154295 0.198001
O O8 0.648987 0.092166 0.250900
O O9 0.641149 0.140324 0.398946
O O10 0.781761 0.554688 0.787777
O O11 0.000000 0.500000 0.500000
O O12 0.978658 0.543318 0.657990
O O13 0.654336 0.881769 0.032477
O O14 0.779174 0.947589 0.004008
O O15 0.823329 0.990891 0.808478
O O16 0.051748 0.983103 0.587192
O O17 0.000000 0.000000 0.500000
#
# Coordination Sequence:
#
# PCOD8141304 Si02
#       8
#     8   8   8   8   8   8   8   8
#     4  11  20  35  63  93 123 158 214 272 323 370
#     4  10  21  36  58  88 125 167 208 249 301 376
#     4  10  21  38  60  95 124 158 212 277 320 377
#     4  10  23  39  61  86 120 163 208 261 318 376
#     4  10  22  36  59  84 128 167 207 246 317 376
#     4  11  23  39  57  92 127 162 212 254 307 390
#     4  11  19  37  66  86 117 159 210 263 312 370
#     4  11  23  39  61  88 125 163 208 258 312 372
#
# _framework density 20.763452999999998
#
# number of rings (size 3 to 8) (size 9 to 14) (size 15 to 20)
#    0.000    1.500    5.000    1.500    3.500    5.000 
#    2.250    0.000    0.000    0.750    3.250    0.000 
#    0.000    0.000    0.000    0.000    0.000    0.000 
#
# Total GULP energy -396440.032632 kJ/mol
# GULP energy per Si atom -12388.751020 kJ/mol
# Density = 2.071619 g / cm^3
# Si number density = 20.763453 Si / 1000 Ang^3
#
#
#
# Elastic Constant Matrix: (Units=GPa)
#
#
# Indices 1 2 3 4 5 6 
#
# 1 81.7403 63.6221 24.2562 0.0005 -17.9247 -0.0003
# 2 63.6221 120.8306 35.1583 0.0004 -19.2436 -0.0002
# 3 24.2562 35.1583 67.7786 0.0006 -25.0935 -0.0004
# 4 0.0005 0.0004 0.0006 22.3934 -0.0004 -10.8924
# 5 -17.9247 -19.2436 -25.0935 -0.0004 33.5031 0.0002
# 6 -0.0003 -0.0002 -0.0004 -10.8924 0.0002 26.4228
#
#
#
# Elastic Compliance Matrix: (Units=1/GPa)
#
#
# Indices 1 2 3 4 5 6 
#
# 1 0.021629 -0.010439 -0.000362 0.000000 0.005306 0.000000
# 2 -0.010439 0.014940 -0.004019 0.000000 -0.000014 0.000000
# 3 -0.000362 -0.004019 0.022197 0.000000 0.014123 0.000000
# 4 0.000000 0.000000 0.000000 0.055856 0.000000 0.023026
# 5 0.005306 -0.000014 0.014123 0.000000 0.043257 0.000000
# 6 0.000000 0.000000 0.000000 0.023026 0.000000 0.047338
#
#
# Mechanical properties :
#
#
# Convention : Reuss Voigt Hill
#
# Bulk Modulus (GPa) = 34.33176 57.38029 45.85603
# Shear Modulus (GPa) = 20.44452 26.28470 23.36461
#
# Velocity S-wave (km/s) = 3.14130 3.56183 3.35815
# Velocity P-wave (km/s) = 5.45231 6.67912 6.09665
#
# Compressibility (1/GPa) = 0.02912755
#
# Stress axis : x y z
#
# Youngs Moduli (GPa) = 46.23334 66.93645 45.05133
#
# Poissons Ratio (x) = 0.69872 0.01629
# Poissons Ratio (y) = 0.48261 0.18106
# Poissons Ratio (z) = 0.01672 0.26901
#
# Static dielectric constant tensor:
#      x y z
#    x 3.720890 0.000000 -0.292960 
#    y 0.000000 4.170870 0.000000 
#    z -0.292960 0.000000 3.873210 
# 
# 
# High freq. dielectric constant tensor:
#      x y z
#    x 1.790090 0.000000 -0.025910 
#    y 0.000000 1.809940 0.000000 
#    z -0.025910 0.000000 1.807830 
# 
# From -- ./inp_files/216162.got.cif
#   From: 2010.06.25/outbox.cif.g09.slc.cpg/sg15_109_cif.got.tgz:216162.got - 2010.06.28 07:06:18.
