data_PCOD8141949
_publ_section_title
;
Structure prediction by ZEFSAII (Michael W. Deem and Ramdas Pophale) SiO2 
 PCOD8141949
Probable space group: C 2/C
;
_chemical_formula_sum "Si O2"
_cell_formula_units_Z 64
_cell_length_a 11.742351
_cell_length_b 26.824324
_cell_length_c 13.912372
_cell_angle_alpha 90.000000
_cell_angle_beta 43.706574
_cell_angle_gamma 90.000000
_cell_volume 3027.898413
_symmetry_space_group_name_H-M "C 2/C"
_symmetry_group_IT_number 15
_symmetry_cell_setting 'monoclinic'
loop_
_space_group_symop_operation_xyz
x,y,z
-x,y,1/2-z
-x,-y,-z
x,-y,1/2+z
1/2+x,1/2+y,z
1/2-x,1/2+y,1/2-z
1/2-x,1/2-y,-z
1/2+x,1/2-y,1/2+z
loop_
_atom_site_type_symbol
_atom_site_label
_atom_site_fract_x
_atom_site_fract_y
_atom_site_fract_z
Si Si1 0.248127 0.364592 0.664649
Si Si2 0.449785 0.453743 0.467219
Si Si3 0.887663 0.356621 0.955543
Si Si4 0.773645 0.560438 0.665533
Si Si5 0.534849 0.203042 0.521166
Si Si6 0.617668 0.711165 0.265283
Si Si7 0.939660 0.599897 0.891867
Si Si8 0.823832 0.024503 0.392860
O O1 0.346439 0.415922 0.595479
O O2 0.211714 0.341491 0.580573
O O3 0.361784 0.328889 0.661221
O O4 0.073520 0.375963 0.821252
O O5 0.500000 0.500000 0.500000
O O6 0.606783 0.425764 0.325022
O O7 0.336827 0.476376 0.453090
O O8 0.788497 0.400413 0.068887
O O9 0.905736 0.307561 0.012637
O O10 0.771222 0.501721 0.637888
O O11 0.926210 0.564002 0.643511
O O12 0.457291 0.238341 0.647448
O O13 0.703573 0.227588 0.381755
O O14 0.585355 0.150289 0.535165
O O15 0.500000 0.691511 0.250000
O O16 0.000000 0.613887 0.750000
O O17 0.767804 0.570085 0.999819
O O18 0.000000 0.045381 0.250000
#
# Coordination Sequence:
#
# PCOD8141949 Si02
#       8
#     8   8   8   8   8   8   8   8
#     4  10  22  41  66  93 126 165 213 265 321 388
#     4  11  23  38  57  93 130 165 211 259 312 375
#     4   9  20  41  67  93 122 166 213 266 322 379
#     4  10  21  38  59  86 128 166 209 257 312 371
#     4  10  24  43  65  93 124 162 213 264 321 385
#     4  11  24  42  66  92 127 166 208 261 326 387
#     4  11  23  39  61  90 123 164 211 257 310 380
#     4  10  22  38  58  87 126 166 208 257 307 368
#
# _framework density 21.136773999999999
#
# number of rings (size 3 to 8) (size 9 to 14) (size 15 to 20)
#    0.000    1.750    1.250    1.875    0.000   13.000 
#    0.000    0.000    0.000    0.000    0.000    0.000 
#    0.000    0.000    0.000    0.000    0.000    0.000 
#
# Total GULP energy -396746.361834 kJ/mol
# GULP energy per Si atom -12398.323807 kJ/mol
# Density = 2.108867 g / cm^3
# Si number density = 21.136774 Si / 1000 Ang^3
#
#
#
# Elastic Constant Matrix: (Units=GPa)
#
#
# Indices 1 2 3 4 5 6 
#
# 1 116.2719 38.7452 42.7135 0.0000 6.3860 0.0000
# 2 38.7452 84.7526 57.4994 0.0000 -9.8178 0.0000
# 3 42.7135 57.4994 116.3321 0.0000 2.2154 0.0000
# 4 0.0000 0.0000 0.0000 30.5506 0.0000 -3.0897
# 5 6.3860 -9.8178 2.2154 0.0000 29.3901 0.0000
# 6 0.0000 0.0000 0.0000 -3.0897 0.0000 17.6654
#
#
#
# Elastic Compliance Matrix: (Units=1/GPa)
#
#
# Indices 1 2 3 4 5 6 
#
# 1 0.010857 -0.004093 -0.001895 0.000000 -0.003584 0.000000
# 2 -0.004093 0.020673 -0.008876 0.000000 0.008464 0.000000
# 3 -0.001895 -0.008876 0.013748 0.000000 -0.003590 0.000000
# 4 0.000000 0.000000 0.000000 0.033322 0.000000 0.005828
# 5 -0.003584 0.008464 -0.003590 0.000000 0.037902 0.000000
# 6 0.000000 0.000000 0.000000 0.005828 0.000000 0.057627
#
#
# Mechanical properties :
#
#
# Convention : Reuss Voigt Hill
#
# Bulk Modulus (GPa) = 64.31341 66.14140 65.22741
# Shear Modulus (GPa) = 23.91884 27.41446 25.66665
#
# Velocity S-wave (km/s) = 3.36761 3.60530 3.48848
# Velocity P-wave (km/s) = 6.75384 6.97789 6.86678
#
# Compressibility (1/GPa) = 0.01554886
#
# Stress axis : x y z
#
# Youngs Moduli (GPa) = 92.10258 48.37317 72.73989
#
# Poissons Ratio (x) = 0.19798 0.13786
# Poissons Ratio (y) = 0.37696 0.64566
# Poissons Ratio (z) = 0.17456 0.42937
#
# Static dielectric constant tensor:
#      x y z
#    x 3.617180 0.000000 0.001820 
#    y 0.000000 3.441070 0.000000 
#    z 0.001820 0.000000 3.931830 
# 
# 
# High freq. dielectric constant tensor:
#      x y z
#    x 1.841910 0.000000 0.009530 
#    y 0.000000 1.805390 0.000000 
#    z 0.009530 0.000000 1.840530 
# 
# From -- ./inp_files/148757.got.cif
#   From: 2010.06.25/outbox.cif.g09.slc.cpg/sg15_75_cif.got.tgz:148757.got - 2010.06.28 07:06:18.
