data_PCOD8141212
_publ_section_title
;
Structure prediction by ZEFSAII (Michael W. Deem and Ramdas Pophale) SiO2 
 PCOD8141212
Probable space group: C 2/C
;
_chemical_formula_sum "Si O2"
_cell_formula_units_Z 64
_cell_length_a 17.963674
_cell_length_b 20.735736
_cell_length_c 9.166448
_cell_angle_alpha 90.000000
_cell_angle_beta 94.897456
_cell_angle_gamma 90.000000
_cell_volume 3401.944519
_symmetry_space_group_name_H-M "C 2/C"
_symmetry_group_IT_number 15
_symmetry_cell_setting 'monoclinic'
loop_
_space_group_symop_operation_xyz
x,y,z
-x,y,1/2-z
-x,-y,-z
x,-y,1/2+z
1/2+x,1/2+y,z
1/2-x,1/2+y,1/2-z
1/2-x,1/2-y,-z
1/2+x,1/2-y,1/2+z
loop_
_atom_site_type_symbol
_atom_site_label
_atom_site_fract_x
_atom_site_fract_y
_atom_site_fract_z
Si Si1 0.334434 0.774942 0.995926
Si Si2 0.699742 0.927082 0.043889
Si Si3 0.692529 0.336286 0.545998
Si Si4 0.414518 0.907821 0.026846
Si Si5 0.920023 0.791424 0.760205
Si Si6 0.929856 0.335509 0.452666
Si Si7 0.134508 0.512232 0.252355
Si Si8 0.845789 0.272618 0.669236
O O1 0.362322 0.760028 0.839067
O O2 0.250000 0.750000 0.000000
O O3 0.349799 0.852028 0.026189
O O4 0.384403 0.728705 0.102071
O O5 0.784064 0.902336 0.031556
O O6 0.669261 0.941573 0.877438
O O7 0.643247 0.875809 0.109205
O O8 0.701475 0.985526 0.159095
O O9 0.632153 0.343274 0.665117
O O10 0.766412 0.306790 0.631377
O O11 0.655939 0.294780 0.413283
O O12 0.504501 0.876061 0.448839
O O13 0.408589 0.955751 0.165344
O O14 0.415198 0.946972 0.872407
O O15 0.932928 0.726327 0.851928
O O16 0.000000 0.825423 0.750000
O O17 0.914753 0.314491 0.617589
#
# Coordination Sequence:
#
# PCOD8141212 Si02
#       8
#     8   8   8   8   8   8   8   8
#     4  12  23  34  60  86 112 147 199 254 301 343
#     4  10  21  36  53  77 108 156 197 245 278 343
#     4   9  18  36  56  74 114 144 190 232 308 352
#     4  11  23  40  53  83 121 159 209 246 281 344
#     4  11  21  37  55  89 114 152 187 237 309 353
#     4  10  21  36  56  72 118 163 189 234 287 336
#     4  10  24  36  54  79 115 161 213 237 279 335
#     4   9  19  33  53  83 102 150 191 238 293 351
#
# _framework density 18.812771000000001
#
# number of rings (size 3 to 8) (size 9 to 14) (size 15 to 20)
#    0.000    1.750    2.500    3.000    1.750    5.000 
#    0.000    0.000    0.000    0.000    0.000    0.875 
#    0.000    0.000    0.000    0.000    0.000    0.000 
#
# Total GULP energy -396435.979440 kJ/mol
# GULP energy per Si atom -12388.624357 kJ/mol
# Density = 1.876995 g / cm^3
# Si number density = 18.812771 Si / 1000 Ang^3
#
#
#
# Elastic Constant Matrix: (Units=GPa)
#
#
# Indices 1 2 3 4 5 6 
#
# 1 93.8352 39.5746 28.0906 0.0000 -9.9889 0.0000
# 2 39.5746 46.8976 8.7467 0.0000 -9.2277 0.0000
# 3 28.0906 8.7467 94.8303 0.0000 -13.4434 0.0000
# 4 0.0000 0.0000 0.0000 18.9556 0.0000 -8.9732
# 5 -9.9889 -9.2277 -13.4434 0.0000 17.5529 0.0000
# 6 0.0000 0.0000 0.0000 -8.9732 0.0000 28.3981
#
#
#
# Elastic Compliance Matrix: (Units=1/GPa)
#
#
# Indices 1 2 3 4 5 6 
#
# 1 0.017913 -0.014461 -0.004044 0.000000 -0.000506 0.000000
# 2 -0.014461 0.035476 0.002792 0.000000 0.012559 0.000000
# 3 -0.004044 0.002792 0.012752 0.000000 0.008933 0.000000
# 4 0.000000 0.000000 0.000000 0.062034 0.000000 0.019601
# 5 -0.000506 0.012559 0.008933 0.000000 0.070127 0.000000
# 6 0.000000 0.000000 0.000000 0.019601 0.000000 0.041407
#
#
# Mechanical properties :
#
#
# Convention : Reuss Voigt Hill
#
# Bulk Modulus (GPa) = 28.80618 43.15411 35.98015
# Shear Modulus (GPa) = 17.68623 23.59140 20.63881
#
# Velocity S-wave (km/s) = 3.06946 3.54504 3.31579
# Velocity P-wave (km/s) = 5.28275 6.30436 5.81603
#
# Compressibility (1/GPa) = 0.03471477
#
# Stress axis : x y z
#
# Youngs Moduli (GPa) = 55.82678 28.18782 78.41987
#
# Poissons Ratio (x) = 0.40762 0.31713
# Poissons Ratio (y) = 0.80730 -0.21893
# Poissons Ratio (z) = 0.22576 -0.07869
#
# Static dielectric constant tensor:
#      x y z
#    x 3.515910 0.000000 -0.266990 
#    y 0.000000 3.524700 0.000000 
#    z -0.266990 0.000000 3.787470 
# 
# 
# High freq. dielectric constant tensor:
#      x y z
#    x 1.706410 0.000000 -0.018070 
#    y 0.000000 1.703470 0.000000 
#    z -0.018070 0.000000 1.754330 
# 
# From -- ./inp_files/58314.got.cif
#   From: 2010.06.25/outbox.cif.g09.slc.cpg/sg15_30_cif.got.tgz:58314.got - 2010.06.28 07:06:18.
