data_PCOD8141332
_publ_section_title
;
Structure prediction by ZEFSAII (Michael W. Deem and Ramdas Pophale) SiO2 
 PCOD8141332
Probable space group: C 2/C
;
_chemical_formula_sum "Si O2"
_cell_formula_units_Z 64
_cell_length_a 27.525736
_cell_length_b 8.172201
_cell_length_c 14.019700
_cell_angle_alpha 90.000000
_cell_angle_beta 72.471946
_cell_angle_gamma 90.000000
_cell_volume 3007.246984
_symmetry_space_group_name_H-M "C 2/C"
_symmetry_group_IT_number 15
_symmetry_cell_setting 'monoclinic'
loop_
_space_group_symop_operation_xyz
x,y,z
-x,y,1/2-z
-x,-y,-z
x,-y,1/2+z
1/2+x,1/2+y,z
1/2-x,1/2+y,1/2-z
1/2-x,1/2-y,-z
1/2+x,1/2-y,1/2+z
loop_
_atom_site_type_symbol
_atom_site_label
_atom_site_fract_x
_atom_site_fract_y
_atom_site_fract_z
Si Si1 0.701517 0.603257 0.444967
Si Si2 0.175036 0.045908 0.776185
Si Si3 0.785309 0.616953 0.695263
Si Si4 0.114610 0.970950 0.135775
Si Si5 0.440418 0.865516 0.793918
Si Si6 0.895406 0.325643 0.425133
Si Si7 0.626869 0.128067 0.347332
Si Si8 0.784053 0.349565 0.407354
O O1 0.664388 0.524728 0.386986
O O2 0.713337 0.785523 0.404794
O O3 0.669072 0.581685 0.559256
O O4 0.757893 0.526776 0.418452
O O5 0.234396 0.007662 0.716096
O O6 0.132378 0.973655 0.730820
O O7 0.167072 0.239837 0.785753
O O8 0.839381 0.530942 0.663453
O O9 0.784687 0.719211 0.797083
O O10 0.079296 0.809124 0.151124
O O11 0.088141 0.137280 0.111079
O O12 0.500000 0.843536 0.750000
O O13 0.417679 0.897559 0.702939
O O14 0.430351 0.027092 0.864434
O O15 0.898904 0.329473 0.536996
O O16 0.839384 0.362506 0.419231
O O17 0.750000 0.250000 0.500000
#
# Coordination Sequence:
#
# PCOD8141332 Si02
#       8
#     8   8   8   8   8   8   8   8
#     4  11  22  35  60  97 136 182 224 262 329 408
#     4  10  21  36  59  94 140 177 220 266 323 411
#     4  11  22  36  58  95 140 186 223 271 331 399
#     4  11  24  43  69  99 135 180 225 282 342 409
#     4  11  28  51  72 100 133 173 239 303 348 401
#     4  12  23  45  70 100 138 180 228 277 351 417
#     4  11  23  43  67  96 137 178 228 284 340 416
#     4  11  21  36  62  97 141 189 224 263 330 420
#
# _framework density 21.281924
#
# number of rings (size 3 to 8) (size 9 to 14) (size 15 to 20)
#    0.000    1.000    3.750    3.750    3.500    2.500 
#    0.000    0.625    0.000    0.000    0.000    0.000 
#    0.000    0.000    0.000    0.000    0.000    0.000 
#
# Total GULP energy -396465.879383 kJ/mol
# GULP energy per Si atom -12389.558731 kJ/mol
# Density = 2.123349 g / cm^3
# Si number density = 21.281924 Si / 1000 Ang^3
#
#
#
# Elastic Constant Matrix: (Units=GPa)
#
#
# Indices 1 2 3 4 5 6 
#
# 1 71.7926 34.7139 16.2551 0.0000 -12.0166 0.0000
# 2 34.7139 125.6442 38.3148 0.0000 -5.4457 0.0000
# 3 16.2551 38.3148 74.3665 0.0000 5.9191 0.0000
# 4 0.0000 0.0000 0.0000 29.5681 0.0000 -0.3959
# 5 -12.0166 -5.4457 5.9191 0.0000 26.3700 0.0000
# 6 0.0000 0.0000 0.0000 -0.3959 0.0000 22.4144
#
#
#
# Elastic Compliance Matrix: (Units=1/GPa)
#
#
# Indices 1 2 3 4 5 6 
#
# 1 0.017631 -0.003757 -0.002541 0.000000 0.007829 0.000000
# 2 -0.003757 0.010498 -0.004708 0.000000 0.001513 0.000000
# 3 -0.002541 -0.004708 0.016900 0.000000 -0.005924 0.000000
# 4 0.000000 0.000000 0.000000 0.033828 0.000000 0.000597
# 5 0.007829 0.001513 -0.005924 0.000000 0.043132 0.000000
# 6 0.000000 0.000000 0.000000 0.000597 0.000000 0.044625
#
#
# Mechanical properties :
#
#
# Convention : Reuss Voigt Hill
#
# Bulk Modulus (GPa) = 43.44729 50.04119 46.74424
# Shear Modulus (GPa) = 25.47136 27.83847 26.65492
#
# Velocity S-wave (km/s) = 3.46331 3.62066 3.54286
# Velocity P-wave (km/s) = 6.03756 6.40652 6.22477
#
# Compressibility (1/GPa) = 0.02301639
#
# Stress axis : x y z
#
# Youngs Moduli (GPa) = 56.71671 95.25366 59.17310
#
# Poissons Ratio (x) = 0.35787 0.15038
# Poissons Ratio (y) = 0.21309 0.27859
# Poissons Ratio (z) = 0.14414 0.44846
#
# Static dielectric constant tensor:
#      x y z
#    x 2.537180 0.000000 0.644330 
#    y 0.000000 3.964620 0.000000 
#    z 0.644330 0.000000 4.153200 
# 
# 
# High freq. dielectric constant tensor:
#      x y z
#    x 1.800050 0.000000 0.025510 
#    y 0.000000 1.847090 0.000000 
#    z 0.025510 0.000000 1.843290 
# 
# From -- ./inp_files/176557.got.cif
#   From: 2010.06.25/outbox.cif.g09.slc.cpg/sg15_89_cif.got.tgz:176557.got - 2010.06.28 07:06:18.
