data_PCOD8141476
_publ_section_title
;
Structure prediction by ZEFSAII (Michael W. Deem and Ramdas Pophale) SiO2 
 PCOD8141476
Probable space group: C 2/C
;
_chemical_formula_sum "Si O2"
_cell_formula_units_Z 64
_cell_length_a 13.904467
_cell_length_b 18.568535
_cell_length_c 13.907151
_cell_angle_alpha 90.000000
_cell_angle_beta 64.019205
_cell_angle_gamma 90.000000
_cell_volume 3227.760578
_symmetry_space_group_name_H-M "C 2/C"
_symmetry_group_IT_number 15
_symmetry_cell_setting 'monoclinic'
loop_
_space_group_symop_operation_xyz
x,y,z
-x,y,1/2-z
-x,-y,-z
x,-y,1/2+z
1/2+x,1/2+y,z
1/2-x,1/2+y,1/2-z
1/2-x,1/2-y,-z
1/2+x,1/2-y,1/2+z
loop_
_atom_site_type_symbol
_atom_site_label
_atom_site_fract_x
_atom_site_fract_y
_atom_site_fract_z
Si Si1 0.505376 0.457862 0.095616
Si Si2 0.786311 0.300405 0.306276
Si Si3 0.439608 0.174054 0.567241
Si Si4 0.384338 0.971645 0.019932
Si Si5 0.910234 0.415597 0.362095
Si Si6 0.892585 0.829941 0.849058
Si Si7 0.162031 0.988907 0.680194
Si Si8 0.444919 0.688036 0.545689
O O1 0.399480 0.479588 0.201318
O O2 0.613395 0.476058 0.105267
O O3 0.511882 0.373284 0.070115
O O4 0.500000 0.500000 0.000000
O O5 0.848012 0.296133 0.178268
O O6 0.816625 0.373749 0.348673
O O7 0.807589 0.232133 0.365311
O O8 0.660056 0.299624 0.343333
O O9 0.390289 0.115282 0.514414
O O10 0.536968 0.138846 0.584169
O O11 0.483751 0.240272 0.486326
O O12 0.288014 0.992433 0.135170
O O13 0.500000 0.000000 0.000000
O O14 0.358583 0.012247 0.931029
O O15 0.000000 0.443318 0.250000
O O16 0.000000 0.803815 0.750000
O O17 0.852060 0.903261 0.818833
O O18 0.911116 0.838173 0.954192
#
# Coordination Sequence:
#
# PCOD8141476 Si02
#       8
#     8   8   8   8   8   8   8   8
#     4  11  23  41  62  94 123 161 210 257 309 377
#     4  11  21  33  59  91 122 151 190 255 327 362
#     4  10  21  37  54  85 120 153 198 249 301 366
#     4  10  22  39  60  87 125 165 205 247 305 378
#     4   9  18  35  57  85 120 157 191 247 310 368
#     4  12  19  35  59  94 126 147 194 262 320 367
#     4  11  23  41  65  90 127 165 206 259 314 362
#     4  12  22  35  60  89 121 157 200 248 310 375
#
# _framework density 19.827988999999999
#
# number of rings (size 3 to 8) (size 9 to 14) (size 15 to 20)
#    0.000    1.250    5.000    2.250    3.500    0.000 
#    0.000    0.625    2.750    0.000    0.000    0.000 
#    0.000    0.000    0.000    0.000    0.000    0.000 
#
# Total GULP energy -396786.030476 kJ/mol
# GULP energy per Si atom -12399.563452 kJ/mol
# Density = 1.978286 g / cm^3
# Si number density = 19.827989 Si / 1000 Ang^3
#
#
#
# Elastic Constant Matrix: (Units=GPa)
#
#
# Indices 1 2 3 4 5 6 
#
# 1 60.1899 27.7438 35.4857 0.0000 -15.5461 0.0000
# 2 27.7438 137.9217 52.7264 0.0000 2.2875 0.0000
# 3 35.4857 52.7264 98.8157 0.0000 -13.0869 0.0000
# 4 0.0000 0.0000 0.0000 37.1852 0.0000 3.1801
# 5 -15.5461 2.2875 -13.0869 0.0000 29.6686 0.0000
# 6 0.0000 0.0000 0.0000 3.1801 0.0000 14.9851
#
#
#
# Elastic Compliance Matrix: (Units=1/GPa)
#
#
# Indices 1 2 3 4 5 6 
#
# 1 0.023928 -0.002782 -0.005755 0.000000 0.010214 0.000000
# 2 -0.002782 0.009695 -0.004743 0.000000 -0.004298 0.000000
# 3 -0.005755 -0.004743 0.015258 0.000000 0.004080 0.000000
# 4 0.000000 0.000000 0.000000 0.027390 0.000000 -0.005813
# 5 0.010214 -0.004298 0.004080 0.000000 0.041189 0.000000
# 6 0.000000 0.000000 0.000000 -0.005813 0.000000 0.067967
#
#
# Mechanical properties :
#
#
# Convention : Reuss Voigt Hill
#
# Bulk Modulus (GPa) = 44.80504 58.75990 51.78247
# Shear Modulus (GPa) = 22.78673 28.43253 25.60963
#
# Velocity S-wave (km/s) = 3.39369 3.79087 3.59777
# Velocity P-wave (km/s) = 6.16459 6.99000 6.59023
#
# Compressibility (1/GPa) = 0.02231892
#
# Stress axis : x y z
#
# Youngs Moduli (GPa) = 41.79229 103.15002 65.54053
#
# Poissons Ratio (x) = 0.28700 0.37721
# Poissons Ratio (y) = 0.11628 0.31085
# Poissons Ratio (z) = 0.24053 0.48923
#
# Static dielectric constant tensor:
#      x y z
#    x 3.298940 0.000000 -0.199860 
#    y 0.000000 3.859110 0.000000 
#    z -0.199860 0.000000 3.754810 
# 
# 
# High freq. dielectric constant tensor:
#      x y z
#    x 1.743370 0.000000 -0.024970 
#    y 0.000000 1.781980 0.000000 
#    z -0.024970 0.000000 1.775280 
# 
# From -- ./inp_files/155177.got.cif
#   From: 2010.06.25/outbox.cif.g09.slc.cpg/sg15_78_cif.got.tgz:155177.got - 2010.06.28 07:06:18.
