data_PCOD8141680
_publ_section_title
;
Structure prediction by ZEFSAII (Michael W. Deem and Ramdas Pophale) SiO2 
 PCOD8141680
Probable space group: C 2/C
;
_chemical_formula_sum "Si O2"
_cell_formula_units_Z 64
_cell_length_a 9.014687
_cell_length_b 15.133883
_cell_length_c 22.988934
_cell_angle_alpha 90.000000
_cell_angle_beta 79.753507
_cell_angle_gamma 90.000000
_cell_volume 3086.297052
_symmetry_space_group_name_H-M "C 2/C"
_symmetry_group_IT_number 15
_symmetry_cell_setting 'monoclinic'
loop_
_space_group_symop_operation_xyz
x,y,z
-x,y,1/2-z
-x,-y,-z
x,-y,1/2+z
1/2+x,1/2+y,z
1/2-x,1/2+y,1/2-z
1/2-x,1/2-y,-z
1/2+x,1/2-y,1/2+z
loop_
_atom_site_type_symbol
_atom_site_label
_atom_site_fract_x
_atom_site_fract_y
_atom_site_fract_z
Si Si1 0.643416 0.376635 0.376006
Si Si2 0.908140 0.588964 0.514804
Si Si3 0.543044 0.654310 0.386809
Si Si4 0.602200 0.964319 0.359117
Si Si5 0.065042 0.999670 0.182286
Si Si6 0.804582 0.550704 0.405966
Si Si7 0.553259 0.808461 0.184957
Si Si8 0.417996 0.270688 0.007611
O O1 0.516875 0.413956 0.340463
O O2 0.730649 0.454608 0.403455
O O3 0.765358 0.317533 0.331933
O O4 0.568180 0.314167 0.429615
O O5 0.850974 0.588133 0.585112
O O6 0.778275 0.582281 0.474777
O O7 0.000000 0.500000 0.500000
O O8 0.998571 0.677750 0.496422
O O9 0.445544 0.582315 0.359825
O O10 0.718576 0.622897 0.372062
O O11 0.517624 0.748798 0.360337
O O12 0.489840 0.660221 0.457188
O O13 0.757350 0.991767 0.318903
O O14 0.520564 0.903885 0.317484
O O15 0.484368 0.045512 0.379019
O O16 0.000000 0.020905 0.250000
O O17 0.500000 0.768225 0.250000
O O18 0.250000 0.250000 0.000000
#
# Coordination Sequence:
#
# PCOD8141680 Si02
#       8
#     8   8   8   8   8   8   8   8
#     4  10  23  41  63  94 128 166 214 265 324 383
#     4  10  21  37  61  91 129 163 205 254 323 391
#     4  11  24  39  62  94 130 166 214 265 320 389
#     4  10  21  40  63  89 120 169 211 259 319 377
#     4  11  25  43  65  95 128 169 222 266 318 387
#     4   9  22  39  60  91 127 163 205 253 321 391
#     4  11  21  41  64  86 123 172 218 266 317 377
#     4  12  22  38  63  97 131 165 214 267 331 387
#
# _framework density 20.736823999999999
#
# number of rings (size 3 to 8) (size 9 to 14) (size 15 to 20)
#    0.000    1.500    2.500    2.625    7.000    2.500 
#    0.000    0.000    0.000    1.500    0.000    0.000 
#    0.000    0.000    0.000    0.000    0.000    0.000 
#
# Total GULP energy -396648.212207 kJ/mol
# GULP energy per Si atom -12395.256631 kJ/mol
# Density = 2.068963 g / cm^3
# Si number density = 20.736824 Si / 1000 Ang^3
#
#
#
# Elastic Constant Matrix: (Units=GPa)
#
#
# Indices 1 2 3 4 5 6 
#
# 1 100.9290 28.2348 22.0773 0.0000 -18.0599 0.0000
# 2 28.2348 85.3020 30.7994 0.0000 -9.8149 0.0000
# 3 22.0773 30.7994 101.0386 0.0000 -20.5232 0.0000
# 4 0.0000 0.0000 0.0000 22.4944 0.0000 2.3286
# 5 -18.0599 -9.8149 -20.5232 0.0000 29.5260 0.0000
# 6 0.0000 0.0000 0.0000 2.3286 0.0000 27.2152
#
#
#
# Elastic Compliance Matrix: (Units=1/GPa)
#
#
# Indices 1 2 3 4 5 6 
#
# 1 0.011941 -0.003103 -0.000453 0.000000 0.005957 0.000000
# 2 -0.003103 0.014067 -0.003546 0.000000 0.000313 0.000000
# 3 -0.000453 -0.003546 0.012554 0.000000 0.007270 0.000000
# 4 0.000000 0.000000 0.000000 0.044853 0.000000 -0.003838
# 5 0.005957 0.000313 0.007270 0.000000 0.042670 0.000000
# 6 0.000000 0.000000 0.000000 -0.003838 0.000000 0.037073
#
#
# Mechanical properties :
#
#
# Convention : Reuss Voigt Hill
#
# Bulk Modulus (GPa) = 41.05730 49.94363 45.50047
# Shear Modulus (GPa) = 26.95689 29.59100 28.27394
#
# Velocity S-wave (km/s) = 3.60940 3.78163 3.69652
# Velocity P-wave (km/s) = 6.10021 6.57301 6.34102
#
# Compressibility (1/GPa) = 0.02435620
#
# Stress axis : x y z
#
# Youngs Moduli (GPa) = 83.74329 71.08977 79.65625
#
# Poissons Ratio (x) = 0.22063 0.03609
# Poissons Ratio (y) = 0.25990 0.28248
# Poissons Ratio (z) = 0.03794 0.25210
#
# Static dielectric constant tensor:
#      x y z
#    x 3.845500 0.000000 0.163170 
#    y 0.000000 3.691120 0.000000 
#    z 0.163170 0.000000 3.969270 
# 
# 
# High freq. dielectric constant tensor:
#      x y z
#    x 1.810270 0.000000 0.010050 
#    y 0.000000 1.805110 0.000000 
#    z 0.010050 0.000000 1.809930 
# 
# From -- ./inp_files/288728.got.cif
#   From: 2010.06.25/outbox.cif.g09.slc.cpg/sg15_145_cif.got.tgz:288728.got - 2010.06.28 07:06:18.
