data_PCOD8141835
_publ_section_title
;
Structure prediction by ZEFSAII (Michael W. Deem and Ramdas Pophale) SiO2 
 PCOD8141835
Probable space group: C 2/C
;
_chemical_formula_sum "Si O2"
_cell_formula_units_Z 48
_cell_length_a 14.278187
_cell_length_b 16.246310
_cell_length_c 9.956681
_cell_angle_alpha 90.000000
_cell_angle_beta 86.726105
_cell_angle_gamma 90.000000
_cell_volume 2305.860453
_symmetry_space_group_name_H-M "C 2/C"
_symmetry_group_IT_number 15
_symmetry_cell_setting 'monoclinic'
loop_
_space_group_symop_operation_xyz
x,y,z
-x,y,1/2-z
-x,-y,-z
x,-y,1/2+z
1/2+x,1/2+y,z
1/2-x,1/2+y,1/2-z
1/2-x,1/2-y,-z
1/2+x,1/2-y,1/2+z
loop_
_atom_site_type_symbol
_atom_site_label
_atom_site_fract_x
_atom_site_fract_y
_atom_site_fract_z
Si Si1 0.752424 0.286061 0.148899
Si Si2 0.609241 0.582698 0.719015
Si Si3 0.548319 0.099254 0.376215
Si Si4 0.304478 0.516790 0.516908
Si Si5 0.874004 0.566141 0.568479
Si Si6 0.262164 0.179692 0.103863
O O1 0.653927 0.326368 0.202204
O O2 0.830667 0.358354 0.156820
O O3 0.773703 0.210167 0.246856
O O4 0.750000 0.250000 0.000000
O O5 0.500000 0.594205 0.750000
O O6 0.623172 0.537120 0.575752
O O7 0.658243 0.530916 0.835418
O O8 0.500000 0.135521 0.250000
O O9 0.469009 0.097461 0.495019
O O10 0.627614 0.162337 0.411749
O O11 0.595525 0.010060 0.339393
O O12 0.204021 0.468658 0.531118
O O13 0.298180 0.602001 0.436695
O O14 0.250000 0.250000 0.000000
#
# Coordination Sequence:
#
# PCOD8141835 Si02
#       6
#     8   8   8   8   8   8
#     4  11  24  40  64  92 132 173 209 260 331 390
#     4  11  24  43  69  92 127 170 230 265 317 393
#     4  10  21  37  67  92 121 161 221 264 314 379
#     4  10  23  42  68  92 128 171 214 272 328 380
#     4   9  22  38  62  94 122 161 216 268 318 374
#     4  11  23  43  62  92 136 173 202 265 335 384
#
# _framework density 20.816524999999999
#
# number of rings (size 3 to 8) (size 9 to 14) (size 15 to 20)
#    0.000    1.667    1.667    1.500   11.667    3.333 
#    0.000    0.000    0.000    0.000    0.000    0.000 
#    0.000    0.000    0.000    0.000    0.000    0.000 
#
# Total GULP energy -297534.241834 kJ/mol
# GULP energy per Si atom -12397.260076 kJ/mol
# Density = 2.076915 g / cm^3
# Si number density = 20.816525 Si / 1000 Ang^3
#
#
#
# Elastic Constant Matrix: (Units=GPa)
#
#
# Indices 1 2 3 4 5 6 
#
# 1 121.1185 34.9225 20.5072 0.0000 -8.7277 0.0000
# 2 34.9225 87.0462 20.7815 0.0000 -9.2207 0.0000
# 3 20.5072 20.7815 97.9372 0.0000 -0.1672 0.0000
# 4 0.0000 0.0000 0.0000 43.0282 0.0000 -12.2528
# 5 -8.7277 -9.2207 -0.1672 0.0000 27.8674 0.0000
# 6 0.0000 0.0000 0.0000 -12.2528 0.0000 41.9213
#
#
#
# Elastic Compliance Matrix: (Units=1/GPa)
#
#
# Indices 1 2 3 4 5 6 
#
# 1 0.009572 -0.003331 -0.001294 0.000000 0.001888 0.000000
# 2 -0.003331 0.013721 -0.002208 0.000000 0.003483 0.000000
# 3 -0.001294 -0.002208 0.010948 0.000000 -0.001070 0.000000
# 4 0.000000 0.000000 0.000000 0.025351 0.000000 0.007410
# 5 0.001888 0.003483 -0.001070 0.000000 0.037622 0.000000
# 6 0.000000 0.000000 0.000000 0.007410 0.000000 0.026020
#
#
# Mechanical properties :
#
#
# Convention : Reuss Voigt Hill
#
# Bulk Modulus (GPa) = 48.60450 50.94713 49.77582
# Shear Modulus (GPa) = 34.78064 37.88943 36.33504
#
# Velocity S-wave (km/s) = 4.09200 4.27096 4.18244
# Velocity P-wave (km/s) = 6.76207 6.98921 6.87658
#
# Compressibility (1/GPa) = 0.02057423
#
# Stress axis : x y z
#
# Youngs Moduli (GPa) = 104.47066 72.88222 91.33839
#
# Poissons Ratio (x) = 0.24279 0.11821
# Poissons Ratio (y) = 0.34802 0.20167
# Poissons Ratio (z) = 0.13521 0.16092
#
# Static dielectric constant tensor:
#      x y z
#    x 3.926390 0.000000 -0.105730 
#    y 0.000000 3.569670 0.000000 
#    z -0.105730 0.000000 3.814570 
# 
# 
# High freq. dielectric constant tensor:
#      x y z
#    x 1.812560 0.000000 -0.004390 
#    y 0.000000 1.823320 0.000000 
#    z -0.004390 0.000000 1.809710 
# 
# From -- ./inp_files/39615.got.cif
#   From: 2010.06.25/outbox.cif.g09.slc.cpg/sg15_20_cif.got.tgz:39615.got - 2010.06.28 07:06:18.
