data_PCOD8141327
_publ_section_title
;
Structure prediction by ZEFSAII (Michael W. Deem and Ramdas Pophale) SiO2 
 PCOD8141327
Probable space group: C 2/C
;
_chemical_formula_sum "Si O2"
_cell_formula_units_Z 40
_cell_length_a 23.019711
_cell_length_b 9.310154
_cell_length_c 19.425524
_cell_angle_alpha 90.000000
_cell_angle_beta 26.342711
_cell_angle_gamma 90.000000
_cell_volume 1847.385023
_symmetry_space_group_name_H-M "C 2/C"
_symmetry_group_IT_number 15
_symmetry_cell_setting 'monoclinic'
loop_
_space_group_symop_operation_xyz
x,y,z
-x,y,1/2-z
-x,-y,-z
x,-y,1/2+z
1/2+x,1/2+y,z
1/2-x,1/2+y,1/2-z
1/2-x,1/2-y,-z
1/2+x,1/2-y,1/2+z
loop_
_atom_site_type_symbol
_atom_site_label
_atom_site_fract_x
_atom_site_fract_y
_atom_site_fract_z
Si Si1 0.371729 0.973600 0.180280
Si Si2 0.884442 0.579347 0.321794
Si Si3 0.795825 0.227351 0.178687
Si Si4 0.554221 0.399754 0.381999
Si Si5 0.882806 0.079074 0.827192
O O1 0.394489 0.006391 0.236119
O O2 0.260202 0.066155 0.258625
O O3 0.324151 0.807126 0.221783
O O4 0.500000 0.000000 0.000000
O O5 0.880875 0.749755 0.317333
O O6 0.751464 0.522872 0.498084
O O7 0.000000 0.528968 0.250000
O O8 0.689953 0.318191 0.249683
O O9 0.937678 0.216276 0.989628
O O10 0.500000 0.500000 0.500000
O O11 0.585523 0.492717 0.280623
O O12 0.000000 0.027612 0.750000
#
# Coordination Sequence:
#
# PCOD8141327 Si02
#       5
#     8   8   8   8   8
#     4  12  24  41  69 101 133 171 221 271 330 387
#     4  10  22  37  63  93 128 168 213 273 328 377
#     4  12  24  40  66 100 131 166 221 268 326 382
#     4  12  25  40  66  98 129 170 217 266 329 386
#     4  10  21  36  59  92 130 160 213 275 325 378
#
# _framework density 21.652225999999999
#
# number of rings (size 3 to 8) (size 9 to 14) (size 15 to 20)
#    0.000    0.800    6.000    1.200    8.400    0.000 
#    0.000    0.000    0.000    6.000    0.000    0.000 
#    0.000    0.000    0.000    0.000    0.000    0.000 
#
# Total GULP energy -247762.864945 kJ/mol
# GULP energy per Si atom -12388.143247 kJ/mol
# Density = 2.160294 g / cm^3
# Si number density = 21.652226 Si / 1000 Ang^3
#
#
#
# Elastic Constant Matrix: (Units=GPa)
#
#
# Indices 1 2 3 4 5 6 
#
# 1 144.7414 34.2982 116.3282 -0.0001 2.3745 0.0000
# 2 34.2982 45.4780 26.0678 -0.0006 3.6582 0.0002
# 3 116.3282 26.0678 183.0565 -0.0005 6.9667 0.0001
# 4 -0.0001 -0.0006 -0.0005 21.8142 0.0001 1.3316
# 5 2.3745 3.6582 6.9667 0.0001 51.7928 0.0000
# 6 0.0000 0.0002 0.0001 1.3316 0.0000 32.5041
#
#
#
# Elastic Compliance Matrix: (Units=1/GPa)
#
#
# Indices 1 2 3 4 5 6 
#
# 1 0.015850 -0.006792 -0.009143 0.000000 0.000983 0.000000
# 2 -0.006792 0.026933 0.000544 0.000001 -0.001664 0.000000
# 3 -0.009143 0.000544 0.011238 0.000000 -0.001131 0.000000
# 4 0.000000 0.000001 0.000000 0.045957 0.000000 -0.001883
# 5 0.000983 -0.001664 -0.001131 0.000000 0.019532 0.000000
# 6 0.000000 0.000000 0.000000 -0.001883 0.000000 0.030843
#
#
# Mechanical properties :
#
#
# Convention : Reuss Voigt Hill
#
# Bulk Modulus (GPa) = 43.02856 80.74047 61.88451
# Shear Modulus (GPa) = 26.47175 34.32765 30.39970
#
# Velocity S-wave (km/s) = 3.50035 3.98604 3.75106
# Velocity P-wave (km/s) = 6.02099 7.65215 6.88504
#
# Compressibility (1/GPa) = 0.02324038
#
# Stress axis : x y z
#
# Youngs Moduli (GPa) = 63.09115 37.12905 88.98234
#
# Poissons Ratio (x) = 0.25219 0.81352
# Poissons Ratio (y) = 0.42853 -0.04844
# Poissons Ratio (z) = 0.57681 -0.02021
#
# Static dielectric constant tensor:
#      x y z
#    x 4.177280 0.000000 -0.323310 
#    y 0.000000 3.815470 0.000000 
#    z -0.323310 0.000000 4.429580 
# 
# 
# High freq. dielectric constant tensor:
#      x y z
#    x 1.860630 0.000000 -0.018770 
#    y 0.000000 1.803860 0.000000 
#    z -0.018770 0.000000 1.875140 
# 
# From -- ./inp_files/214964.got.cif
#   From: 2010.06.25/outbox.cif.g09.slc.cpg/sg15_108_cif.got.tgz:214964.got - 2010.06.28 07:06:18.
