data_PCOD8141247
_publ_section_title
;
Structure prediction by ZEFSAII (Michael W. Deem and Ramdas Pophale) SiO2 
 PCOD8141247
Probable space group: C 2/C
;
_chemical_formula_sum "Si O2"
_cell_formula_units_Z 56
_cell_length_a 26.840908
_cell_length_b 17.686552
_cell_length_c 8.600882
_cell_angle_alpha 90.000000
_cell_angle_beta 41.578710
_cell_angle_gamma 90.000000
_cell_volume 2709.700891
_symmetry_space_group_name_H-M "C 2/C"
_symmetry_group_IT_number 15
_symmetry_cell_setting 'monoclinic'
loop_
_space_group_symop_operation_xyz
x,y,z
-x,y,1/2-z
-x,-y,-z
x,-y,1/2+z
1/2+x,1/2+y,z
1/2-x,1/2+y,1/2-z
1/2-x,1/2-y,-z
1/2+x,1/2-y,1/2+z
loop_
_atom_site_type_symbol
_atom_site_label
_atom_site_fract_x
_atom_site_fract_y
_atom_site_fract_z
Si Si1 0.153762 0.837549 0.953779
Si Si2 0.023401 0.921615 0.372696
Si Si3 0.752916 0.078877 0.699199
Si Si4 0.895894 0.831544 0.782247
Si Si5 0.316169 0.796470 0.923626
Si Si6 0.793372 0.578871 0.045643
Si Si7 0.086879 0.327808 0.086965
O O1 0.126283 0.823512 0.844474
O O2 0.242004 0.855826 0.743137
O O3 0.112027 0.903037 0.154678
O O4 0.136330 0.759934 0.080573
O O5 0.000000 0.916827 0.250000
O O6 0.981563 0.860974 0.581446
O O7 0.000000 0.000000 0.500000
O O8 0.840488 0.105116 0.487447
O O9 0.714568 0.077630 0.620478
O O10 0.740089 0.998155 0.807477
O O11 0.712029 0.137687 0.902326
O O12 0.894496 0.751980 0.873958
O O13 0.372019 0.833457 0.672170
O O14 0.250000 0.750000 0.000000
O O15 0.879077 0.602343 0.889453
O O16 0.000000 0.340905 0.250000
#
# Coordination Sequence:
#
# PCOD8141247 Si02
#       7
#     8   8   8   8   8   8   8
#     4  10  21  38  63  89 130 170 210 269 309 391
#     4  10  21  36  55  89 128 166 203 250 315 376
#     4  11  23  41  68  94 126 168 215 275 319 387
#     4  10  21  40  61  93 128 170 216 260 331 376
#     4  12  22  40  65  95 124 161 216 259 316 381
#     4  11  23  41  64  95 130 170 221 265 330 380
#     4  12  25  42  65  96 131 172 217 271 319 387
#
# _framework density 20.666488999999999
#
# number of rings (size 3 to 8) (size 9 to 14) (size 15 to 20)
#    0.000    1.143    2.857    3.429    0.000    4.000 
#    0.000    5.000    0.000    0.000    0.000    0.000 
#    0.000    0.000    0.000    0.000    0.000    0.000 
#
# Total GULP energy -346994.287412 kJ/mol
# GULP energy per Si atom -12392.653122 kJ/mol
# Density = 2.061945 g / cm^3
# Si number density = 20.666489 Si / 1000 Ang^3
#
#
#
# Elastic Constant Matrix: (Units=GPa)
#
#
# Indices 1 2 3 4 5 6 
#
# 1 69.2245 37.7015 65.7011 0.0000 -7.4792 0.0000
# 2 37.7015 81.2896 37.4988 0.0000 11.9544 0.0000
# 3 65.7011 37.4988 133.9689 0.0000 9.5175 0.0000
# 4 0.0000 0.0000 0.0000 44.4936 0.0000 7.9521
# 5 -7.4792 11.9544 9.5175 0.0000 36.8643 0.0000
# 6 0.0000 0.0000 0.0000 7.9521 0.0000 30.9314
#
#
#
# Elastic Compliance Matrix: (Units=1/GPa)
#
#
# Indices 1 2 3 4 5 6 
#
# 1 0.039105 -0.012822 -0.016755 0.000000 0.016418 0.000000
# 2 -0.012822 0.018822 0.001669 0.000000 -0.009136 0.000000
# 3 -0.016755 0.001669 0.015784 0.000000 -0.008016 0.000000
# 4 0.000000 0.000000 0.000000 0.023558 0.000000 -0.006056
# 5 0.016418 -0.009136 -0.008016 0.000000 0.035489 0.000000
# 6 0.000000 0.000000 0.000000 -0.006056 0.000000 0.033887
#
#
# Mechanical properties :
#
#
# Convention : Reuss Voigt Hill
#
# Bulk Modulus (GPa) = 55.88404 62.92065 59.40234
# Shear Modulus (GPa) = 21.88882 32.02996 26.95939
#
# Velocity S-wave (km/s) = 3.25798 3.94108 3.61570
# Velocity P-wave (km/s) = 6.42279 7.15691 6.79976
#
# Compressibility (1/GPa) = 0.01789420
#
# Stress axis : x y z
#
# Youngs Moduli (GPa) = 25.57195 53.12898 63.35519
#
# Poissons Ratio (x) = 0.68121 1.06155
# Poissons Ratio (y) = 0.32788 -0.10572
# Poissons Ratio (z) = 0.42847 -0.08866
#
# Static dielectric constant tensor:
#      x y z
#    x 3.767170 0.000000 -0.013750 
#    y 0.000000 3.873460 0.000000 
#    z -0.013750 0.000000 4.298590 
# 
# 
# High freq. dielectric constant tensor:
#      x y z
#    x 1.806050 0.000000 0.015110 
#    y 0.000000 1.805260 0.000000 
#    z 0.015110 0.000000 1.824830 
# 
# From -- ./inp_files/67104.got.cif
#   From: 2010.06.25/outbox.cif.g09.slc.cpg/sg15_34_cif.got.tgz:67104.got - 2010.06.28 07:06:18.
