data_PCOD8141820
_publ_section_title
;
Structure prediction by ZEFSAII (Michael W. Deem and Ramdas Pophale) SiO2 
 PCOD8141820
Probable space group: C 2/C
;
_chemical_formula_sum "Si O2"
_cell_formula_units_Z 52
_cell_length_a 8.872200
_cell_length_b 17.265068
_cell_length_c 23.698528
_cell_angle_alpha 90.000000
_cell_angle_beta 134.783530
_cell_angle_gamma 90.000000
_cell_volume 2576.562137
_symmetry_space_group_name_H-M "C 2/C"
_symmetry_group_IT_number 15
_symmetry_cell_setting 'monoclinic'
loop_
_space_group_symop_operation_xyz
x,y,z
-x,y,1/2-z
-x,-y,-z
x,-y,1/2+z
1/2+x,1/2+y,z
1/2-x,1/2+y,1/2-z
1/2-x,1/2-y,-z
1/2+x,1/2-y,1/2+z
loop_
_atom_site_type_symbol
_atom_site_label
_atom_site_fract_x
_atom_site_fract_y
_atom_site_fract_z
Si Si1 0.366902 0.076878 0.026745
Si Si2 0.394982 0.239837 0.306565
Si Si3 0.467935 0.638310 0.339548
Si Si4 0.288810 0.506578 0.625569
Si Si5 0.889931 0.271106 0.932671
Si Si6 0.833654 0.155891 0.426629
Si Si7 0.500000 0.635273 0.750000
O O1 0.575649 0.027905 0.096232
O O2 0.433205 0.161434 0.021402
O O3 0.228821 0.086865 0.046985
O O4 0.232928 0.030943 0.945261
O O5 0.226041 0.173547 0.246796
O O6 0.362025 0.264565 0.362674
O O7 0.632640 0.209615 0.359656
O O8 0.363108 0.313573 0.257708
O O9 0.527855 0.558541 0.323622
O O10 0.664318 0.697745 0.394273
O O11 0.406347 0.618049 0.387369
O O12 0.334929 0.582163 0.673688
O O13 0.972483 0.205193 0.996351
#
# Coordination Sequence:
#
# PCOD8141820 Si02
#       7
#     8   8   8   8   8   8   4
#     4   9  20  39  60  86 121 166 208 253 309 384
#     4  11  22  40  63  92 124 164 215 258 306 375
#     4  11  23  38  62  95 130 162 205 260 325 372
#     4  10  23  38  61  89 126 165 208 256 324 374
#     4  10  21  37  66  89 123 162 214 255 312 363
#     4  11  20  38  65  91 120 165 213 260 304 370
#     4  12  22  38  66  90 122 164 218 256 308 380
#
# _framework density 20.181930999999999
#
# number of rings (size 3 to 8) (size 9 to 14) (size 15 to 20)
#    0.000    1.538    1.538    4.615    6.462    0.615 
#    2.769    0.000    3.385    0.000    0.000    0.000 
#    0.000    0.000    0.000    0.000    0.000    0.000 
#
# Total GULP energy -322490.096037 kJ/mol
# GULP energy per Si atom -12403.465232 kJ/mol
# Density = 2.013600 g / cm^3
# Si number density = 20.181931 Si / 1000 Ang^3
#
#
#
# Elastic Constant Matrix: (Units=GPa)
#
#
# Indices 1 2 3 4 5 6 
#
# 1 89.5677 24.3525 28.2792 -0.0001 -6.3873 -0.0001
# 2 24.3525 92.0911 38.4215 0.0000 0.6308 0.0000
# 3 28.2792 38.4215 81.8790 -0.0001 8.0997 -0.0001
# 4 -0.0001 0.0000 -0.0001 40.6553 -0.0001 -3.4308
# 5 -6.3873 0.6308 8.0997 -0.0001 18.6461 -0.0001
# 6 -0.0001 0.0000 -0.0001 -3.4308 -0.0001 30.1522
#
#
#
# Elastic Compliance Matrix: (Units=1/GPa)
#
#
# Indices 1 2 3 4 5 6 
#
# 1 0.013539 -0.001741 -0.004518 0.000000 0.006660 0.000000
# 2 -0.001741 0.013830 -0.006043 0.000000 0.001561 0.000000
# 3 -0.004518 -0.006043 0.017494 0.000000 -0.008942 0.000000
# 4 0.000000 0.000000 0.000000 0.024835 0.000000 0.002826
# 5 0.006660 0.001561 -0.008942 0.000000 0.059743 0.000000
# 6 0.000000 0.000000 0.000000 0.002826 0.000000 0.033487
#
#
# Mechanical properties :
#
#
# Convention : Reuss Voigt Hill
#
# Bulk Modulus (GPa) = 49.35969 49.51602 49.43786
# Shear Modulus (GPa) = 25.73544 29.38969 27.56257
#
# Velocity S-wave (km/s) = 3.57483 3.82021 3.69955
# Velocity P-wave (km/s) = 6.44590 6.63677 6.54203
#
# Compressibility (1/GPa) = 0.02025945
#
# Stress axis : x y z
#
# Youngs Moduli (GPa) = 73.85802 72.30899 57.16365
#
# Poissons Ratio (x) = 0.12589 0.25827
# Poissons Ratio (y) = 0.12859 0.34541
# Poissons Ratio (z) = 0.33369 0.43693
#
# Static dielectric constant tensor:
#      x y z
#    x 3.665790 0.000000 -0.078580 
#    y 0.000000 3.575500 0.000000 
#    z -0.078580 0.000000 3.741840 
# 
# 
# High freq. dielectric constant tensor:
#      x y z
#    x 1.784020 0.000000 -0.006540 
#    y 0.000000 1.774380 0.000000 
#    z -0.006540 0.000000 1.801960 
# 
# From -- ./inp_files/190863.got.cif
#   From: 2010.06.25/outbox.cif.g09.slc.cpg/sg15_96_cif.got.tgz:190863.got - 2010.06.28 07:06:18.
