data_PCOD8141372
_publ_section_title
;
Structure prediction by ZEFSAII (Michael W. Deem and Ramdas Pophale) SiO2 
 PCOD8141372
Probable space group: C 2/C
;
_chemical_formula_sum "Si O2"
_cell_formula_units_Z 48
_cell_length_a 11.729026
_cell_length_b 20.208417
_cell_length_c 14.277686
_cell_angle_alpha 90.000000
_cell_angle_beta 42.238746
_cell_angle_gamma 90.000000
_cell_volume 2274.910972
_symmetry_space_group_name_H-M "C 2/C"
_symmetry_group_IT_number 15
_symmetry_cell_setting 'monoclinic'
loop_
_space_group_symop_operation_xyz
x,y,z
-x,y,1/2-z
-x,-y,-z
x,-y,1/2+z
1/2+x,1/2+y,z
1/2-x,1/2+y,1/2-z
1/2-x,1/2-y,-z
1/2+x,1/2-y,1/2+z
loop_
_atom_site_type_symbol
_atom_site_label
_atom_site_fract_x
_atom_site_fract_y
_atom_site_fract_z
Si Si1 0.649294 0.656325 0.598321
Si Si2 0.910934 0.547095 0.396608
Si Si3 0.641424 0.124589 0.378755
Si Si4 0.427432 0.244861 0.509806
Si Si5 0.998102 0.827609 0.642993
Si Si6 0.143489 0.393958 0.087601
O O1 0.500000 0.626519 0.750000
O O2 0.749918 0.591914 0.509104
O O3 0.573348 0.689073 0.551142
O O4 0.747504 0.708625 0.604763
O O5 0.845433 0.472963 0.424935
O O6 0.000000 0.573503 0.250000
O O7 0.049462 0.559060 0.394605
O O8 0.568864 0.194001 0.382420
O O9 0.841867 0.119882 0.234533
O O10 0.590165 0.130994 0.518472
O O11 0.463198 0.265362 0.596106
O O12 0.000000 0.801286 0.750000
O O13 0.170582 0.863547 0.503280
O O14 0.000000 0.371659 0.250000
#
# Coordination Sequence:
#
# PCOD8141372 Si02
#       6
#     8   8   8   8   8   8
#     4  10  21  36  61  90 115 148 191 239 287 341
#     4  10  21  40  60  82 115 150 189 237 289 338
#     4  10  21  38  61  83 112 153 189 232 284 341
#     4  10  21  37  58  87 120 149 187 237 290 341
#     4  10  22  38  59  86 116 153 193 233 285 348
#     4  10  23  40  57  83 116 151 191 236 285 339
#
# _framework density 21.099727000000001
#
# number of rings (size 3 to 8) (size 9 to 14) (size 15 to 20)
#    0.000    2.000    0.000    2.500    0.000   14.000 
#    0.000    7.500    0.000    0.000    0.000    0.000 
#    0.000    0.000    0.000    0.000    0.000    0.000 
#
# Total GULP energy -297472.417982 kJ/mol
# GULP energy per Si atom -12394.684083 kJ/mol
# Density = 2.105170 g / cm^3
# Si number density = 21.099727 Si / 1000 Ang^3
#
#
#
# Elastic Constant Matrix: (Units=GPa)
#
#
# Indices 1 2 3 4 5 6 
#
# 1 105.5448 29.0237 46.5935 0.0034 -0.9742 -0.0028
# 2 29.0237 66.4273 44.1802 0.0065 -0.3754 -0.0047
# 3 46.5935 44.1802 154.3027 0.0103 -16.2423 -0.0106
# 4 0.0034 0.0065 0.0103 60.5623 0.0048 -16.2394
# 5 -0.9742 -0.3754 -16.2423 0.0048 18.5459 -0.0018
# 6 -0.0028 -0.0047 -0.0106 -16.2394 -0.0018 34.2377
#
#
#
# Elastic Compliance Matrix: (Units=1/GPa)
#
#
# Indices 1 2 3 4 5 6 
#
# 1 0.011565 -0.003223 -0.002767 0.000000 -0.001881 0.000000
# 2 -0.003223 0.019877 -0.005170 -0.000001 -0.004295 0.000000
# 3 -0.002767 -0.005170 0.009661 -0.000001 0.008211 0.000002
# 4 0.000000 -0.000001 -0.000001 0.018918 -0.000005 0.008973
# 5 -0.001881 -0.004295 0.008211 -0.000005 0.060926 0.000003
# 6 0.000000 0.000000 0.000002 0.008973 0.000003 0.033464
#
#
# Mechanical properties :
#
#
# Convention : Reuss Voigt Hill
#
# Bulk Modulus (GPa) = 53.24307 62.87442 58.05874
# Shear Modulus (GPa) = 27.32366 36.43435 31.87900
#
# Velocity S-wave (km/s) = 3.60248 4.15995 3.89121
# Velocity P-wave (km/s) = 6.52630 7.27578 6.91121
#
# Compressibility (1/GPa) = 0.01878179
#
# Stress axis : x y z
#
# Youngs Moduli (GPa) = 86.46525 50.31065 103.50905
#
# Poissons Ratio (x) = 0.16216 0.28646
# Poissons Ratio (y) = 0.27869 0.53513
# Poissons Ratio (z) = 0.23929 0.26010
#
# Static dielectric constant tensor:
#      x y z
#    x 4.005930 0.000000 -0.003040 
#    y 0.000000 3.515320 0.000000 
#    z -0.003040 0.000000 3.785870 
# 
# 
# High freq. dielectric constant tensor:
#      x y z
#    x 1.835110 0.000000 -0.000280 
#    y 0.000000 1.812730 0.000000 
#    z -0.000280 0.000000 1.833310 
# 
# From -- ./inp_files/147375.got.cif
#   From: 2010.06.25/outbox.cif.g09.slc.cpg/sg15_74_cif.got.tgz:147375.got - 2010.06.28 07:06:18.
