data_PCOD8141447
_publ_section_title
;
Structure prediction by ZEFSAII (Michael W. Deem and Ramdas Pophale) SiO2 
 PCOD8141447
Probable space group: C 2/C
;
_chemical_formula_sum "Si O2"
_cell_formula_units_Z 56
_cell_length_a 16.914992
_cell_length_b 8.693351
_cell_length_c 21.783965
_cell_angle_alpha 90.000000
_cell_angle_beta 126.429375
_cell_angle_gamma 90.000000
_cell_volume 2577.331470
_symmetry_space_group_name_H-M "C 2/C"
_symmetry_group_IT_number 15
_symmetry_cell_setting 'monoclinic'
loop_
_space_group_symop_operation_xyz
x,y,z
-x,y,1/2-z
-x,-y,-z
x,-y,1/2+z
1/2+x,1/2+y,z
1/2-x,1/2+y,1/2-z
1/2-x,1/2-y,-z
1/2+x,1/2-y,1/2+z
loop_
_atom_site_type_symbol
_atom_site_label
_atom_site_fract_x
_atom_site_fract_y
_atom_site_fract_z
Si Si1 0.063858 0.702199 0.691051
Si Si2 0.645241 0.251184 0.862702
Si Si3 0.091961 0.374893 0.646586
Si Si4 0.742556 0.058836 0.423207
Si Si5 0.733950 0.712445 0.188385
Si Si6 0.796556 0.493672 0.407688
Si Si7 0.615509 0.769440 0.951860
O O1 0.116638 0.702496 0.780972
O O2 0.055646 0.527600 0.664242
O O3 0.128259 0.801189 0.672978
O O4 0.954355 0.773254 0.643782
O O5 0.707003 0.407696 0.893990
O O6 0.711475 0.115473 0.923000
O O7 0.181483 0.296434 0.722592
O O8 0.123862 0.400528 0.590679
O O9 0.001557 0.255561 0.604625
O O10 0.759462 0.076267 0.358127
O O11 0.658960 0.182804 0.405412
O O12 0.841587 0.104820 0.506226
O O13 0.747455 0.877824 0.163029
O O14 0.851704 0.405074 0.486908
#
# Coordination Sequence:
#
# PCOD8141447 Si02
#       7
#     8   8   8   8   8   8   8
#     4  10  21  36  65  95 118 159 212 259 320 374
#     4  11  20  39  66  92 126 163 203 264 323 369
#     4  11  19  39  68  91 123 171 212 260 313 378
#     4  10  21  40  66  89 128 167 217 254 303 383
#     4  10  21  39  67  94 121 162 214 268 306 371
#     4  10  23  39  64  95 131 162 207 269 317 374
#     4  10  22  40  63  94 126 173 218 250 308 385
#
# _framework density 21.727900000000002
#
# number of rings (size 3 to 8) (size 9 to 14) (size 15 to 20)
#    0.000    1.714    4.286    0.429    0.000    1.143 
#    0.000    9.286    0.000    0.000    0.000    0.000 
#    0.000    0.000    0.000    0.000    0.000    0.000 
#
# Total GULP energy -347237.972369 kJ/mol
# GULP energy per Si atom -12401.356156 kJ/mol
# Density = 2.167845 g / cm^3
# Si number density = 21.727900 Si / 1000 Ang^3
#
#
#
# Elastic Constant Matrix: (Units=GPa)
#
#
# Indices 1 2 3 4 5 6 
#
# 1 155.2110 34.7598 48.2025 0.0000 10.4720 0.0000
# 2 34.7598 42.5359 16.1882 0.0000 7.1183 0.0000
# 3 48.2025 16.1882 57.3271 0.0000 3.3194 0.0000
# 4 0.0000 0.0000 0.0000 27.4751 0.0000 3.3554
# 5 10.4720 7.1183 3.3194 0.0000 32.7581 0.0000
# 6 0.0000 0.0000 0.0000 3.3554 0.0000 35.8775
#
#
#
# Elastic Compliance Matrix: (Units=1/GPa)
#
#
# Indices 1 2 3 4 5 6 
#
# 1 0.009772 -0.005230 -0.006664 0.000000 -0.001312 0.000000
# 2 -0.005230 0.029979 -0.003810 0.000000 -0.004456 0.000000
# 3 -0.006664 -0.003810 0.024093 0.000000 0.000517 0.000000
# 4 0.000000 0.000000 0.000000 0.036817 0.000000 -0.003443
# 5 -0.001312 -0.004456 0.000517 0.000000 0.031862 0.000000
# 6 0.000000 0.000000 0.000000 -0.003443 0.000000 0.028195
#
#
# Mechanical properties :
#
#
# Convention : Reuss Voigt Hill
#
# Bulk Modulus (GPa) = 30.82953 50.37501 40.60227
# Shear Modulus (GPa) = 24.63800 29.61704 27.12752
#
# Velocity S-wave (km/s) = 3.37105 3.69601 3.53726
# Velocity P-wave (km/s) = 5.41956 6.43807 5.95065
#
# Compressibility (1/GPa) = 0.03243643
#
# Stress axis : x y z
#
# Youngs Moduli (GPa) = 102.33109 33.35642 41.50586
#
# Poissons Ratio (x) = 0.17445 0.27659
# Poissons Ratio (y) = 0.53519 0.15814
# Poissons Ratio (z) = 0.68193 0.12709
#
# Static dielectric constant tensor:
#      x y z
#    x 4.328660 0.000000 -0.116450 
#    y 0.000000 3.622450 0.000000 
#    z -0.116450 0.000000 3.805910 
# 
# 
# High freq. dielectric constant tensor:
#      x y z
#    x 1.872360 0.000000 -0.009040 
#    y 0.000000 1.829120 0.000000 
#    z -0.009040 0.000000 1.844700 
# 
# From -- ./inp_files/276637.got.cif
#   From: 2010.06.25/outbox.cif.g09.slc.cpg/sg15_139_cif.got.tgz:276637.got - 2010.06.28 07:06:18.
