data_PCOD8141693
_publ_section_title
;
Structure prediction by ZEFSAII (Michael W. Deem and Ramdas Pophale) SiO2 
 PCOD8141693
Probable space group: C 2/C
;
_chemical_formula_sum "Si O2"
_cell_formula_units_Z 56
_cell_length_a 19.314716
_cell_length_b 19.932165
_cell_length_c 11.487648
_cell_angle_alpha 90.000000
_cell_angle_beta 142.721167
_cell_angle_gamma 90.000000
_cell_volume 2678.721347
_symmetry_space_group_name_H-M "C 2/C"
_symmetry_group_IT_number 15
_symmetry_cell_setting 'monoclinic'
loop_
_space_group_symop_operation_xyz
x,y,z
-x,y,1/2-z
-x,-y,-z
x,-y,1/2+z
1/2+x,1/2+y,z
1/2-x,1/2+y,1/2-z
1/2-x,1/2-y,-z
1/2+x,1/2-y,1/2+z
loop_
_atom_site_type_symbol
_atom_site_label
_atom_site_fract_x
_atom_site_fract_y
_atom_site_fract_z
Si Si1 0.672076 0.037530 0.473201
Si Si2 0.094507 0.334768 0.748445
Si Si3 0.766150 0.602807 0.712361
Si Si4 0.120700 0.609222 0.875464
Si Si5 0.634232 0.482320 0.447763
Si Si6 0.232158 0.141382 0.216647
Si Si7 0.149415 0.279710 0.056463
O O1 0.595487 0.090792 0.302110
O O2 0.677905 0.054639 0.616821
O O3 0.798494 0.032290 0.582406
O O4 0.604322 0.969241 0.374157
O O5 0.162397 0.333282 0.719781
O O6 0.965296 0.314670 0.549592
O O7 0.152558 0.283882 0.919968
O O8 0.851908 0.621001 0.722450
O O9 0.657779 0.559649 0.520356
O O10 0.744845 0.675542 0.746932
O O11 0.000000 0.643666 0.750000
O O12 0.225221 0.635579 0.094277
O O13 0.500000 0.473605 0.250000
O O14 0.674999 0.428071 0.598856
O O15 0.143679 0.203087 0.091524
#
# Coordination Sequence:
#
# PCOD8141693 Si02
#       7
#     8   8   8   8   8   8   8
#     4   9  20  38  60  89 118 150 199 256 290 351
#     4   9  20  37  62  89 114 152 200 250 306 331
#     4  10  21  41  55  88 120 157 198 241 292 359
#     4  11  23  36  62  89 122 159 195 243 302 351
#     4  10  22  39  62  86 120 156 199 247 300 348
#     4  11  22  40  58  91 120 152 199 248 294 357
#     4  10  21  37  62  85 119 156 196 248 297 349
#
# _framework density 20.905495999999999
#
# number of rings (size 3 to 8) (size 9 to 14) (size 15 to 20)
#    0.000    2.000    1.429    1.286    6.000    1.714 
#    0.000    0.714    0.000    0.000    0.000    0.000 
#    0.000    0.000    0.000    0.000    0.000    0.000 
#
# Total GULP energy -346961.492991 kJ/mol
# GULP energy per Si atom -12391.481893 kJ/mol
# Density = 2.085791 g / cm^3
# Si number density = 20.905496 Si / 1000 Ang^3
#
#
#
# Elastic Constant Matrix: (Units=GPa)
#
#
# Indices 1 2 3 4 5 6 
#
# 1 74.2309 7.1392 33.9769 0.0000 -8.8569 0.0000
# 2 7.1392 94.4566 35.2790 0.0000 1.8713 0.0000
# 3 33.9769 35.2790 84.7799 0.0000 -9.4772 0.0000
# 4 0.0000 0.0000 0.0000 17.1313 0.0000 0.4419
# 5 -8.8569 1.8713 -9.4772 0.0000 39.9731 0.0000
# 6 0.0000 0.0000 0.0000 0.4419 0.0000 -0.9414
#
#
#
# Elastic Compliance Matrix: (Units=1/GPa)
#
#
# Indices 1 2 3 4 5 6 
#
# 1 0.016817 0.001331 -0.007071 0.000000 0.001987 0.000000
# 2 0.001331 0.012778 -0.006045 0.000000 -0.001737 0.000000
# 3 -0.007071 -0.006045 0.017464 0.000000 0.002857 0.000000
# 4 0.000000 0.000000 0.000000 0.057674 0.000000 0.027070
# 5 0.001987 -0.001737 0.002857 0.000000 0.026216 0.000000
# 6 0.000000 0.000000 0.000000 0.027070 0.000000 -1.049554
#
#
# Mechanical properties :
#
#
# Convention : Reuss Voigt Hill
#
# Bulk Modulus (GPa) = 42.57376 45.13972 43.85674
# Shear Modulus (GPa) = -5.63569 23.03742 8.70087
#
# Velocity S-wave (km/s) = -1.64367 3.32321 2.04231
# Velocity P-wave (km/s) = 4.09962 6.03027 5.15611
#
# Compressibility (1/GPa) = 0.02348865
#
# Stress axis : x y z
#
# Youngs Moduli (GPa) = 59.46246 78.25695 57.26078
#
# Poissons Ratio (x) = -0.10413 0.40491
# Poissons Ratio (y) = -0.07912 0.34613
# Poissons Ratio (z) = 0.42048 0.47305
#
# Static dielectric constant tensor:
#      x y z
#    x 3.762720 0.000000 -0.217640 
#    y 0.000000 4.024960 0.000000 
#    z -0.217640 0.000000 3.589950 
# 
# 
# High freq. dielectric constant tensor:
#      x y z
#    x 1.810840 0.000000 -0.017300 
#    y 0.000000 1.813590 0.000000 
#    z -0.017300 0.000000 1.806570 
# 
# From -- ./inp_files/114107.got.cif
#   From: 2010.06.25/outbox.cif.g09.slc.cpg/sg15_58_cif.got.tgz:114107.got - 2010.06.28 07:06:18.
