data_PCOD8141470
_publ_section_title
;
Structure prediction by ZEFSAII (Michael W. Deem and Ramdas Pophale) SiO2 
 PCOD8141470
Probable space group: C 2/C
;
_chemical_formula_sum "Si O2"
_cell_formula_units_Z 40
_cell_length_a 17.227003
_cell_length_b 27.415080
_cell_length_c 5.040083
_cell_angle_alpha 90.000000
_cell_angle_beta 73.523144
_cell_angle_gamma 90.000000
_cell_volume 2282.579042
_symmetry_space_group_name_H-M "C 2/C"
_symmetry_group_IT_number 15
_symmetry_cell_setting 'monoclinic'
loop_
_space_group_symop_operation_xyz
x,y,z
-x,y,1/2-z
-x,-y,-z
x,-y,1/2+z
1/2+x,1/2+y,z
1/2-x,1/2+y,1/2-z
1/2-x,1/2-y,-z
1/2+x,1/2-y,1/2+z
loop_
_atom_site_type_symbol
_atom_site_label
_atom_site_fract_x
_atom_site_fract_y
_atom_site_fract_z
Si Si1 0.306612 0.797852 0.973860
Si Si2 0.913001 0.168554 0.402311
Si Si3 0.667925 0.631702 0.516403
Si Si4 0.409430 0.782132 0.374245
Si Si5 0.408058 0.532012 0.811570
O O1 0.379289 0.796004 0.694531
O O2 0.250000 0.750000 0.000000
O O3 0.257490 0.848133 0.985211
O O4 0.345956 0.802839 0.224289
O O5 0.893455 0.160868 0.730283
O O6 0.910967 0.224675 0.328970
O O7 0.000000 0.145672 0.250000
O O8 0.150540 0.141149 0.224150
O O9 0.658186 0.574334 0.582125
O O10 0.500000 0.803605 0.250000
O O11 0.500000 0.552582 0.750000
O O12 0.393647 0.511497 0.532156
#
# Coordination Sequence:
#
# PCOD8141470 Si02
#       5
#     8   8   8   8   8
#     4  12  21  36  52  78 110 138 179 227 262 307
#     4  11  20  31  48  74 104 140 182 212 247 309
#     4  12  22  33  54  76 103 140 181 223 264 309
#     4  11  22  36  51  72 108 149 178 210 257 313
#     4  10  21  37  53  73 105 140 177 220 262 308
#
# _framework density 17.524037
#
# number of rings (size 3 to 8) (size 9 to 14) (size 15 to 20)
#    0.000    0.800    4.000    5.400    0.000    4.800 
#    0.000    0.000    0.000    0.000    0.000    0.000 
#    0.000   16.000    0.000    0.000    0.000    0.000 
#
# Total GULP energy -248050.507468 kJ/mol
# GULP energy per Si atom -12402.525373 kJ/mol
# Density = 1.748415 g / cm^3
# Si number density = 17.524037 Si / 1000 Ang^3
#
#
#
# Elastic Constant Matrix: (Units=GPa)
#
#
# Indices 1 2 3 4 5 6 
#
# 1 67.8721 27.7927 6.2143 0.0000 -5.3805 0.0000
# 2 27.7927 68.4578 -0.0503 0.0000 -4.9060 0.0000
# 3 6.2143 -0.0503 71.6516 0.0000 -8.2068 0.0000
# 4 0.0000 0.0000 0.0000 21.2464 0.0000 -7.0344
# 5 -5.3805 -4.9060 -8.2068 0.0000 36.5156 0.0000
# 6 0.0000 0.0000 0.0000 -7.0344 0.0000 21.0920
#
#
#
# Elastic Compliance Matrix: (Units=1/GPa)
#
#
# Indices 1 2 3 4 5 6 
#
# 1 0.017907 -0.007174 -0.001402 0.000000 0.001360 0.000000
# 2 -0.007174 0.017627 0.000805 0.000000 0.001492 0.000000
# 3 -0.001402 0.000805 0.014439 0.000000 0.003147 0.000000
# 4 0.000000 0.000000 0.000000 0.052909 0.000000 0.017646
# 5 0.001360 0.001492 0.003147 0.000000 0.028494 0.000000
# 6 0.000000 0.000000 0.000000 0.017646 0.000000 0.053296
#
#
# Mechanical properties :
#
#
# Convention : Reuss Voigt Hill
#
# Bulk Modulus (GPa) = 29.04223 30.65498 29.84861
# Shear Modulus (GPa) = 23.61926 27.37244 25.49585
#
# Velocity S-wave (km/s) = 3.67525 3.95649 3.81846
# Velocity P-wave (km/s) = 5.88377 6.19701 6.04242
#
# Compressibility (1/GPa) = 0.03443261
#
# Stress axis : x y z
#
# Youngs Moduli (GPa) = 55.84311 56.72962 69.25667
#
# Poissons Ratio (x) = 0.40696 0.09713
# Poissons Ratio (y) = 0.40060 -0.05578
# Poissons Ratio (z) = 0.07832 -0.04569
#
# Static dielectric constant tensor:
#      x y z
#    x 3.310350 0.000000 -0.001980 
#    y 0.000000 2.983640 0.000000 
#    z -0.001980 0.000000 3.414580 
# 
# 
# High freq. dielectric constant tensor:
#      x y z
#    x 1.659500 0.000000 0.009080 
#    y 0.000000 1.639740 0.000000 
#    z 0.009080 0.000000 1.702100 
# 
# From -- ./inp_files/7296.got.cif
#   From: 2010.06.25/outbox.cif.g09.slc.cpg/sg15_4_cif.got.tgz:7296.got - 2010.06.28 07:06:18.
