data_PCOD8141827
_publ_section_title
;
Structure prediction by ZEFSAII (Michael W. Deem and Ramdas Pophale) SiO2 
 PCOD8141827
Probable space group: C 2/C
;
_chemical_formula_sum "Si O2"
_cell_formula_units_Z 64
_cell_length_a 18.291893
_cell_length_b 19.101015
_cell_length_c 17.965679
_cell_angle_alpha 90.000000
_cell_angle_beta 150.686135
_cell_angle_gamma 90.000000
_cell_volume 3073.224946
_symmetry_space_group_name_H-M "C 2/C"
_symmetry_group_IT_number 15
_symmetry_cell_setting 'monoclinic'
loop_
_space_group_symop_operation_xyz
x,y,z
-x,y,1/2-z
-x,-y,-z
x,-y,1/2+z
1/2+x,1/2+y,z
1/2-x,1/2+y,1/2-z
1/2-x,1/2-y,-z
1/2+x,1/2-y,1/2+z
loop_
_atom_site_type_symbol
_atom_site_label
_atom_site_fract_x
_atom_site_fract_y
_atom_site_fract_z
Si Si1 0.823188 0.677020 0.080734
Si Si2 0.287754 0.474515 0.344248
Si Si3 0.019667 0.140165 0.085626
Si Si4 0.887015 0.123724 0.482336
Si Si5 0.507738 0.906233 0.171317
Si Si6 0.740267 0.537042 0.340915
Si Si7 0.090673 0.247666 0.397118
Si Si8 0.626736 0.403270 0.303502
O O1 0.749854 0.652227 0.091836
O O2 0.000000 0.680219 0.250000
O O3 0.750000 0.750000 0.000000
O O4 0.781869 0.629834 0.971472
O O5 0.428892 0.423086 0.466504
O O6 0.342853 0.542141 0.437056
O O7 0.229682 0.497872 0.211136
O O8 0.167910 0.428355 0.282715
O O9 0.919597 0.198081 0.038937
O O10 0.107901 0.168259 0.090721
O O11 0.143994 0.108231 0.250973
O O12 0.054361 0.132016 0.665757
O O13 0.500000 0.931884 0.250000
O O14 0.477321 0.822873 0.140756
O O15 0.394401 0.945912 0.017289
O O16 0.650847 0.485349 0.314918
O O17 0.250000 0.250000 0.500000
O O18 0.000000 0.212058 0.250000
O O19 0.500000 0.390135 0.250000
#
# Coordination Sequence:
#
# PCOD8141827 Si02
#       8
#     8   8   8   8   8   8   8   8
#     4  11  25  46  66  95 136 176 217 278 328 394
#     4  11  22  41  65  95 137 165 217 280 335 396
#     4  11  21  42  71  91 130 178 219 271 339 402
#     4  10  21  42  65 100 128 172 221 267 333 407
#     4  11  26  40  61  93 134 176 219 279 340 395
#     4  11  22  40  63  98 130 168 218 275 337 395
#     4  11  24  45  62  93 131 171 226 277 325 401
#     4  10  21  37  66  94 130 164 221 267 326 399
#
# _framework density 20.825028
#
# number of rings (size 3 to 8) (size 9 to 14) (size 15 to 20)
#    0.000    1.250    2.500    4.500    5.250    1.500 
#    2.250    3.750    0.000    0.000    0.000    0.000 
#    0.000    0.000    0.000    0.000    0.000    0.000 
#
# Total GULP energy -396500.739928 kJ/mol
# GULP energy per Si atom -12390.648123 kJ/mol
# Density = 2.077763 g / cm^3
# Si number density = 20.825028 Si / 1000 Ang^3
#
#
#
# Elastic Constant Matrix: (Units=GPa)
#
#
# Indices 1 2 3 4 5 6 
#
# 1 111.7898 69.1752 52.5448 -0.0110 -2.1175 -0.0056
# 2 69.1752 81.2939 34.2615 0.0157 -5.9152 0.0043
# 3 52.5448 34.2615 139.8867 0.0133 -2.8330 0.0014
# 4 -0.0110 0.0157 0.0133 32.7359 -0.0001 5.4242
# 5 -2.1175 -5.9152 -2.8330 -0.0001 35.7080 -0.0023
# 6 -0.0056 0.0043 0.0014 5.4242 -0.0023 35.6082
#
#
#
# Elastic Compliance Matrix: (Units=1/GPa)
#
#
# Indices 1 2 3 4 5 6 
#
# 1 0.020698 -0.016111 -0.003864 0.000016 -0.001748 0.000003
# 2 -0.016111 0.026403 -0.000346 -0.000017 0.003391 -0.000003
# 3 -0.003864 -0.000346 0.008693 -0.000005 0.000403 0.000000
# 4 0.000016 -0.000017 -0.000005 0.031339 -0.000003 -0.004774
# 5 -0.001748 0.003391 0.000403 -0.000003 0.028495 0.000002
# 6 0.000003 -0.000003 0.000000 -0.004774 0.000002 0.028811
#
#
# Mechanical properties :
#
#
# Convention : Reuss Voigt Hill
#
# Bulk Modulus (GPa) = 66.00176 71.65926 68.83051
# Shear Modulus (GPa) = 26.29745 32.60966 29.45356
#
# Velocity S-wave (km/s) = 3.55742 3.96142 3.76484
# Velocity P-wave (km/s) = 6.97395 7.44370 7.21265
#
# Compressibility (1/GPa) = 0.01515111
#
# Stress axis : x y z
#
# Youngs Moduli (GPa) = 48.31355 37.87406 115.03411
#
# Poissons Ratio (x) = 0.61020 0.44450
# Poissons Ratio (y) = 0.77839 0.03984
# Poissons Ratio (z) = 0.18669 0.01312
#
# Static dielectric constant tensor:
#      x y z
#    x 3.983440 0.000010 -0.024980 
#    y 0.000010 3.613470 0.000190 
#    z -0.024980 0.000190 5.795620 
# 
# 
# High freq. dielectric constant tensor:
#      x y z
#    x 1.823350 0.000000 -0.007250 
#    y 0.000000 1.804480 0.000000 
#    z -0.007250 0.000000 1.828660 
# 
# From -- ./inp_files/211985.got.cif
#   From: 2010.06.25/outbox.cif.g09.slc.cpg/sg15_106_cif.got.tgz:211985.got - 2010.06.28 07:06:18.
