data_PCOD8141027
_publ_section_title
;
Structure prediction by ZEFSAII (Michael W. Deem and Ramdas Pophale) SiO2 
 PCOD8141027
Probable space group: C 2/C
;
_chemical_formula_sum "Si O2"
_cell_formula_units_Z 56
_cell_length_a 19.512651
_cell_length_b 15.855951
_cell_length_c 23.152644
_cell_angle_alpha 90.000000
_cell_angle_beta 23.154399
_cell_angle_gamma 90.000000
_cell_volume 2816.657257
_symmetry_space_group_name_H-M "C 2/C"
_symmetry_group_IT_number 15
_symmetry_cell_setting 'monoclinic'
loop_
_space_group_symop_operation_xyz
x,y,z
-x,y,1/2-z
-x,-y,-z
x,-y,1/2+z
1/2+x,1/2+y,z
1/2-x,1/2+y,1/2-z
1/2-x,1/2-y,-z
1/2+x,1/2-y,1/2+z
loop_
_atom_site_type_symbol
_atom_site_label
_atom_site_fract_x
_atom_site_fract_y
_atom_site_fract_z
Si Si1 0.498556 0.053619 0.559549
Si Si2 0.585873 0.234610 0.459071
Si Si3 0.414868 0.647075 0.171211
Si Si4 0.445544 0.324876 0.225975
Si Si5 0.883158 0.986876 0.784331
Si Si6 0.689252 0.458125 0.851052
Si Si7 0.146251 0.806204 0.958519
O O1 0.472674 0.151532 0.562820
O O2 0.683831 0.042125 0.448937
O O3 0.500000 0.000000 0.500000
O O4 0.344197 0.026447 0.723375
O O5 0.575123 0.303424 0.518863
O O6 0.789484 0.214468 0.298934
O O7 0.519751 0.277905 0.451085
O O8 0.480800 0.574924 0.163540
O O9 0.294246 0.603481 0.216359
O O10 0.500000 0.316208 0.250000
O O11 0.377427 0.418438 0.264207
O O12 0.296620 0.258968 0.327773
O O13 0.603853 0.305048 0.059557
O O14 0.000000 0.982318 0.750000
O O15 0.500000 0.500000 0.000000
O O16 0.712266 0.400409 0.890309
#
# Coordination Sequence:
#
# PCOD8141027 Si02
#       7
#     8   8   8   8   8   8   8
#     4  11  21  38  63  91 123 162 206 255 316 370
#     4  10  21  34  60  90 122 150 200 258 316 362
#     4  10  21  38  56  93 117 159 196 259 309 371
#     4  11  24  40  60  84 123 167 208 251 310 381
#     4  10  22  41  65  85 122 165 210 249 317 380
#     4  11  23  36  61  94 126 157 204 261 310 363
#     4  11  23  36  60  91 121 160 204 257 312 370
#
# _framework density 19.881722
#
# number of rings (size 3 to 8) (size 9 to 14) (size 15 to 20)
#    0.000    1.429    2.857    3.857    8.000    0.000 
#    0.000    2.857    0.000    0.000    0.000    0.000 
#    0.000    0.000    0.000    0.000    0.000    0.000 
#
# Total GULP energy -347145.949481 kJ/mol
# GULP energy per Si atom -12398.069624 kJ/mol
# Density = 1.983647 g / cm^3
# Si number density = 19.881722 Si / 1000 Ang^3
#
#
#
# Elastic Constant Matrix: (Units=GPa)
#
#
# Indices 1 2 3 4 5 6 
#
# 1 69.2183 32.2584 39.9212 -0.0126 10.3862 0.0031
# 2 32.2584 88.8181 31.7511 -0.0028 15.4660 0.0113
# 3 39.9212 31.7511 103.2738 -0.0094 15.7587 0.0218
# 4 -0.0126 -0.0028 -0.0094 38.0705 0.0049 8.4063
# 5 10.3862 15.4660 15.7587 0.0049 30.6685 -0.0077
# 6 0.0031 0.0113 0.0218 8.4063 -0.0077 29.7565
#
#
#
# Elastic Compliance Matrix: (Units=1/GPa)
#
#
# Indices 1 2 3 4 5 6 
#
# 1 0.020560 -0.005032 -0.006212 0.000004 -0.001233 0.000003
# 2 -0.005032 0.014553 -0.001811 0.000001 -0.004704 -0.000005
# 3 -0.006212 -0.001811 0.013217 0.000004 -0.003774 -0.000010
# 4 0.000004 0.000001 0.000004 0.028015 -0.000010 -0.007914
# 5 -0.001233 -0.004704 -0.003774 -0.000010 0.037336 0.000017
# 6 0.000003 -0.000005 -0.000010 -0.007914 0.000017 0.035842
#
#
# Mechanical properties :
#
#
# Convention : Reuss Voigt Hill
#
# Bulk Modulus (GPa) = 45.00598 52.13016 48.56807
# Shear Modulus (GPa) = 27.31634 30.19110 28.75372
#
# Velocity S-wave (km/s) = 3.71069 3.90107 3.80707
# Velocity P-wave (km/s) = 6.40664 6.82409 6.61865
#
# Compressibility (1/GPa) = 0.02221927
#
# Stress axis : x y z
#
# Youngs Moduli (GPa) = 48.63804 68.71346 75.65850
#
# Poissons Ratio (x) = 0.34575 0.47003
# Poissons Ratio (y) = 0.24473 0.13705
# Poissons Ratio (z) = 0.30216 0.12447
#
# Static dielectric constant tensor:
#      x y z
#    x 3.342680 -0.000290 0.180910 
#    y -0.000290 4.027930 0.000280 
#    z 0.180910 0.000280 3.693180 
# 
# 
# High freq. dielectric constant tensor:
#      x y z
#    x 1.738470 0.000000 0.017120 
#    y 0.000000 1.796880 0.000010 
#    z 0.017120 0.000010 1.776580 
# 
# From -- ./inp_files/249236.got.cif
#   From: 2010.06.25/outbox.cif.g09.slc.cpg/sg15_125_cif.got.tgz:249236.got - 2010.06.28 07:06:18.
