data_PCOD8141105
_publ_section_title
;
Structure prediction by ZEFSAII (Michael W. Deem and Ramdas Pophale) SiO2 
 PCOD8141105
Probable space group: C 2/C
;
_chemical_formula_sum "Si O2"
_cell_formula_units_Z 40
_cell_length_a 5.230249
_cell_length_b 26.414548
_cell_length_c 17.794956
_cell_angle_alpha 90.000000
_cell_angle_beta 107.830478
_cell_angle_gamma 90.000000
_cell_volume 2340.368259
_symmetry_space_group_name_H-M "C 2/C"
_symmetry_group_IT_number 15
_symmetry_cell_setting 'monoclinic'
loop_
_space_group_symop_operation_xyz
x,y,z
-x,y,1/2-z
-x,-y,-z
x,-y,1/2+z
1/2+x,1/2+y,z
1/2-x,1/2+y,1/2-z
1/2-x,1/2-y,-z
1/2+x,1/2-y,1/2+z
loop_
_atom_site_type_symbol
_atom_site_label
_atom_site_fract_x
_atom_site_fract_y
_atom_site_fract_z
Si Si1 0.512485 0.110646 0.837347
Si Si2 0.542411 0.614720 0.513475
Si Si3 0.197231 0.718699 0.699011
Si Si4 0.458982 0.272796 0.960880
Si Si5 0.040312 0.557947 0.522815
O O1 0.500000 0.092114 0.750000
O O2 0.820724 0.122557 0.891323
O O3 0.341440 0.161646 0.834902
O O4 0.393921 0.066938 0.881945
O O5 0.459701 0.667175 0.469224
O O6 0.280562 0.579660 0.494365
O O7 0.762433 0.587540 0.479188
O O8 0.500000 0.726838 0.750000
O O9 0.134241 0.760063 0.630873
O O10 0.000000 0.728762 0.750000
O O11 0.250000 0.250000 0.000000
O O12 0.750000 0.250000 0.000000
O O13 0.000000 0.500000 0.500000
#
# Coordination Sequence:
#
# PCOD8141105 Si02
#       5
#     8   8   8   8   8
#     4   9  21  32  57  83 118 136 187 232 297 326
#     4  10  21  35  57  85 108 150 187 238 270 345
#     4  11  23  35  54  85 122 155 187 235 292 345
#     4  12  21  36  57  86 118 155 194 225 285 353
#     4  10  21  37  56  81 109 143 191 240 293 326
#
# _framework density 17.091327
#
# number of rings (size 3 to 8) (size 9 to 14) (size 15 to 20)
#    1.200    0.400    2.000    4.200    8.400    0.000 
#    0.000    0.000    0.000    3.600    0.000    0.000 
#    0.000    0.000    0.000    0.000    0.000    0.000 
#
# Total GULP energy -247881.927224 kJ/mol
# GULP energy per Si atom -12394.096361 kJ/mol
# Density = 1.705243 g / cm^3
# Si number density = 17.091327 Si / 1000 Ang^3
#
#
#
# Elastic Constant Matrix: (Units=GPa)
#
#
# Indices 1 2 3 4 5 6 
#
# 1 149.2813 57.0249 46.3859 0.0000 18.3385 0.0000
# 2 57.0249 136.0837 68.2596 0.0000 7.6948 0.0000
# 3 46.3859 68.2596 101.7160 0.0000 1.7761 0.0000
# 4 0.0000 0.0000 0.0000 32.5159 0.0000 -1.0407
# 5 18.3385 7.6948 1.7761 0.0000 25.7470 0.0000
# 6 0.0000 0.0000 0.0000 -1.0407 0.0000 33.4377
#
#
#
# Elastic Compliance Matrix: (Units=1/GPa)
#
#
# Indices 1 2 3 4 5 6 
#
# 1 0.009010 -0.002182 -0.002547 0.000000 -0.005590 0.000000
# 2 -0.002182 0.011811 -0.006905 0.000000 -0.001499 0.000000
# 3 -0.002547 -0.006905 0.015578 0.000000 0.002803 0.000000
# 4 0.000000 0.000000 0.000000 0.030785 0.000000 0.000958
# 5 -0.005590 -0.001499 0.002803 0.000000 0.043076 0.000000
# 6 0.000000 0.000000 0.000000 0.000958 0.000000 0.029936
#
#
# Mechanical properties :
#
#
# Convention : Reuss Voigt Hill
#
# Bulk Modulus (GPa) = 76.15552 81.15797 78.65675
# Shear Modulus (GPa) = 29.79009 32.70083 31.24546
#
# Velocity S-wave (km/s) = 4.17945 4.37887 4.28032
# Velocity P-wave (km/s) = 8.24288 8.55301 8.39938
#
# Compressibility (1/GPa) = 0.01313102
#
# Stress axis : x y z
#
# Youngs Moduli (GPa) = 110.98221 84.66631 64.19443
#
# Poissons Ratio (x) = 0.18475 0.16351
# Poissons Ratio (y) = 0.24217 0.44326
# Poissons Ratio (z) = 0.28269 0.58461
#
# Static dielectric constant tensor:
#      x y z
#    x 3.378920 0.000000 -0.011790 
#    y 0.000000 3.115990 0.000000 
#    z -0.011790 0.000000 3.165680 
# 
# 
# High freq. dielectric constant tensor:
#      x y z
#    x 1.680120 0.000000 0.005300 
#    y 0.000000 1.644790 0.000000 
#    z 0.005300 0.000000 1.639640 
# 
# From -- ./inp_files/185394.got.cif
#   From: 2010.06.25/outbox.cif.g09.slc.cpg/sg15_93_cif.got.tgz:185394.got - 2010.06.28 07:06:18.
