data_PCOD8141534
_publ_section_title
;
Structure prediction by ZEFSAII (Michael W. Deem and Ramdas Pophale) SiO2 
 PCOD8141534
Probable space group: C 2/C
;
_chemical_formula_sum "Si O2"
_cell_formula_units_Z 32
_cell_length_a 27.404850
_cell_length_b 10.147736
_cell_length_c 14.225904
_cell_angle_alpha 90.000000
_cell_angle_beta 24.437296
_cell_angle_gamma 90.000000
_cell_volume 1636.661938
_symmetry_space_group_name_H-M "C 2/C"
_symmetry_group_IT_number 15
_symmetry_cell_setting 'monoclinic'
loop_
_space_group_symop_operation_xyz
x,y,z
-x,y,1/2-z
-x,-y,-z
x,-y,1/2+z
1/2+x,1/2+y,z
1/2-x,1/2+y,1/2-z
1/2-x,1/2-y,-z
1/2+x,1/2-y,1/2+z
loop_
_atom_site_type_symbol
_atom_site_label
_atom_site_fract_x
_atom_site_fract_y
_atom_site_fract_z
Si Si1 0.384076 0.192456 0.163993
Si Si2 0.258062 0.454945 0.443404
Si Si3 0.872160 0.376263 0.478018
Si Si4 0.627557 0.307203 0.681020
O O1 0.311404 0.320839 0.315220
O O2 0.354671 0.077579 0.291488
O O3 0.333566 0.140955 0.153038
O O4 0.521807 0.232540 0.921958
O O5 0.219253 0.534925 0.419177
O O6 0.361274 0.536127 0.318741
O O7 0.885049 0.230486 0.406883
O O8 0.000000 0.446698 0.250000
O O9 0.750000 0.250000 0.500000
#
# Coordination Sequence:
#
# PCOD8141534 Si02
#       4
#     8   8   8   8
#     4  10  21  37  58  86 117 145 198 231 284 356
#     4  10  21  37  59  84 115 154 183 241 292 333
#     4   9  20  36  55  83 110 150 189 231 282 340
#     4   9  19  36  58  82 111 152 186 232 289 331
#
# _framework density 19.551991000000001
#
# number of rings (size 3 to 8) (size 9 to 14) (size 15 to 20)
#    0.000    2.500    0.000    0.750    3.500    9.000 
#    4.500    0.000    0.000    0.000    0.000    0.000 
#    0.000    0.000    0.000    0.000    0.000    0.000 
#
# Total GULP energy -198216.863865 kJ/mol
# GULP energy per Si atom -12388.553992 kJ/mol
# Density = 1.950749 g / cm^3
# Si number density = 19.551991 Si / 1000 Ang^3
#
#
#
# Elastic Constant Matrix: (Units=GPa)
#
#
# Indices 1 2 3 4 5 6 
#
# 1 94.0755 37.9933 47.3038 0.0000 7.0948 0.0000
# 2 37.9933 84.4183 34.5843 0.0000 9.9442 0.0000
# 3 47.3038 34.5843 112.7034 0.0000 7.7101 0.0000
# 4 0.0000 0.0000 0.0000 28.8645 0.0000 -2.8121
# 5 7.0948 9.9442 7.7101 0.0000 31.9562 0.0000
# 6 0.0000 0.0000 0.0000 -2.8121 0.0000 26.6402
#
#
#
# Elastic Compliance Matrix: (Units=1/GPa)
#
#
# Indices 1 2 3 4 5 6 
#
# 1 0.014996 -0.004697 -0.004804 0.000000 -0.000708 0.000000
# 2 -0.004697 0.015365 -0.002529 0.000000 -0.003128 0.000000
# 3 -0.004804 -0.002529 0.011732 0.000000 -0.000977 0.000000
# 4 0.000000 0.000000 0.000000 0.035005 0.000000 0.003695
# 5 -0.000708 -0.003128 -0.000977 0.000000 0.032659 0.000000
# 6 0.000000 0.000000 0.000000 0.003695 0.000000 0.037927
#
#
# Mechanical properties :
#
#
# Convention : Reuss Voigt Hill
#
# Bulk Modulus (GPa) = 55.45973 58.99553 57.22763
# Shear Modulus (GPa) = 28.12846 28.91323 28.52084
#
# Velocity S-wave (km/s) = 3.79707 3.84967 3.82346
# Velocity P-wave (km/s) = 6.90293 7.07101 6.98747
#
# Compressibility (1/GPa) = 0.01803110
#
# Stress axis : x y z
#
# Youngs Moduli (GPa) = 66.68456 65.08492 85.23563
#
# Poissons Ratio (x) = 0.30574 0.40949
# Poissons Ratio (y) = 0.31325 0.21557
# Poissons Ratio (z) = 0.32036 0.16461
#
# Static dielectric constant tensor:
#      x y z
#    x 4.032410 0.000000 -0.033790 
#    y 0.000000 4.395530 0.000000 
#    z -0.033790 0.000000 3.885980 
# 
# 
# High freq. dielectric constant tensor:
#      x y z
#    x 1.758410 0.000000 0.002670 
#    y 0.000000 1.757130 0.000000 
#    z 0.002670 0.000000 1.762790 
# 
# From -- ./inp_files/83848.got.cif
#   From: 2010.06.25/outbox.cif.g09.slc.cpg/sg15_42_cif.got.tgz:83848.got - 2010.06.28 07:06:18.
