data_PCOD8141344
_publ_section_title
;
Structure prediction by ZEFSAII (Michael W. Deem and Ramdas Pophale) SiO2 
 PCOD8141344
Probable space group: C 2/C
;
_chemical_formula_sum "Si O2"
_cell_formula_units_Z 64
_cell_length_a 14.457494
_cell_length_b 10.490223
_cell_length_c 20.861623
_cell_angle_alpha 90.000000
_cell_angle_beta 77.403472
_cell_angle_gamma 90.000000
_cell_volume 3087.766799
_symmetry_space_group_name_H-M "C 2/C"
_symmetry_group_IT_number 15
_symmetry_cell_setting 'monoclinic'
loop_
_space_group_symop_operation_xyz
x,y,z
-x,y,1/2-z
-x,-y,-z
x,-y,1/2+z
1/2+x,1/2+y,z
1/2-x,1/2+y,1/2-z
1/2-x,1/2-y,-z
1/2+x,1/2-y,1/2+z
loop_
_atom_site_type_symbol
_atom_site_label
_atom_site_fract_x
_atom_site_fract_y
_atom_site_fract_z
Si Si1 0.433724 0.692847 0.506703
Si Si2 0.069593 0.454353 0.793444
Si Si3 0.953096 0.675250 0.612920
Si Si4 0.753679 0.417490 0.122344
Si Si5 0.549185 0.567284 0.310747
Si Si6 0.185785 0.697886 0.365155
Si Si7 0.081409 0.057851 0.567312
Si Si8 0.238372 0.087994 0.765392
O O1 0.462568 0.799864 0.450267
O O2 0.348222 0.744926 0.562346
O O3 0.528282 0.662809 0.532938
O O4 0.394998 0.565529 0.479053
O O5 0.016802 0.562616 0.843450
O O6 0.093976 0.335794 0.835764
O O7 0.164668 0.508407 0.746424
O O8 0.000000 0.401772 0.750000
O O9 0.858113 0.633407 0.588449
O O10 0.933099 0.799129 0.657912
O O11 0.752117 0.571858 0.131279
O O12 0.679473 0.380738 0.078237
O O13 0.725241 0.355702 0.195371
O O14 0.500000 0.588551 0.250000
O O15 0.482121 0.477171 0.362399
O O16 0.651088 0.502981 0.293493
O O17 0.248150 0.799784 0.316352
#
# Coordination Sequence:
#
# PCOD8141344 Si02
#       8
#     8   8   8   8   8   8   8   8
#     4  10  21  39  59  79 120 158 200 239 279 352
#     4  10  24  40  60  90 121 152 191 239 300 354
#     4   9  22  38  59  84 121 155 192 238 291 347
#     4  10  23  36  57  88 118 149 196 243 296 351
#     4  11  19  34  63  89 111 154 192 247 299 334
#     4  10  22  40  60  86 121 157 188 241 293 344
#     4  10  21  37  57  88 111 151 207 241 285 339
#     4  10  21  36  60  88 119 145 194 248 289 345
#
# _framework density 20.726952000000001
#
# number of rings (size 3 to 8) (size 9 to 14) (size 15 to 20)
#    0.000    2.250    2.500    0.375    7.000    6.500 
#    0.000    1.250    0.000    0.000    0.000    0.000 
#    0.000    0.000    0.000    0.000    0.000    0.000 
#
# Total GULP energy -396783.027457 kJ/mol
# GULP energy per Si atom -12399.469608 kJ/mol
# Density = 2.067978 g / cm^3
# Si number density = 20.726952 Si / 1000 Ang^3
#
#
#
# Elastic Constant Matrix: (Units=GPa)
#
#
# Indices 1 2 3 4 5 6 
#
# 1 55.3428 -6.9618 7.9855 0.0000 21.2792 0.0000
# 2 -6.9618 44.0416 24.4093 0.0000 -14.9641 0.0000
# 3 7.9855 24.4093 90.4520 0.0000 -9.9503 0.0000
# 4 0.0000 0.0000 0.0000 27.3024 0.0000 0.5167
# 5 21.2792 -14.9641 -9.9503 0.0000 28.7474 0.0000
# 6 0.0000 0.0000 0.0000 0.5167 0.0000 13.4293
#
#
#
# Elastic Compliance Matrix: (Units=1/GPa)
#
#
# Indices 1 2 3 4 5 6 
#
# 1 0.027124 -0.000612 -0.004650 0.000000 -0.022006 0.000000
# 2 -0.000612 0.031262 -0.006801 0.000000 0.014372 0.000000
# 3 -0.004650 -0.006801 0.013817 0.000000 0.004684 0.000000
# 4 0.000000 0.000000 0.000000 0.036653 0.000000 -0.001410
# 5 -0.022006 0.014372 0.004684 0.000000 0.060177 0.000000
# 6 0.000000 0.000000 0.000000 -0.001410 0.000000 0.074518
#
#
# Mechanical properties :
#
#
# Convention : Reuss Voigt Hill
#
# Bulk Modulus (GPa) = 20.80045 26.74469 23.77257
# Shear Modulus (GPa) = 17.62398 24.85607 21.24002
#
# Velocity S-wave (km/s) = 2.91914 3.46672 3.20465
# Velocity P-wave (km/s) = 4.62808 5.38104 5.01870
#
# Compressibility (1/GPa) = 0.04807588
#
# Stress axis : x y z
#
# Youngs Moduli (GPa) = 36.86705 31.98802 72.37561
#
# Poissons Ratio (x) = 0.01958 0.33657
# Poissons Ratio (y) = 0.02256 0.49224
# Poissons Ratio (z) = 0.17144 0.21756
#
# Static dielectric constant tensor:
#      x y z
#    x 3.612830 0.000000 0.087230 
#    y 0.000000 3.677970 0.000000 
#    z 0.087230 0.000000 3.922120 
# 
# 
# High freq. dielectric constant tensor:
#      x y z
#    x 1.798570 0.000000 0.002500 
#    y 0.000000 1.801630 0.000000 
#    z 0.002500 0.000000 1.816450 
# 
# From -- ./inp_files/243704.got.cif
#   From: 2010.06.25/outbox.cif.g09.slc.cpg/sg15_122_cif.got.tgz:243704.got - 2010.06.28 07:06:18.
