data_PCOD8141687
_publ_section_title
;
Structure prediction by ZEFSAII (Michael W. Deem and Ramdas Pophale) SiO2 
 PCOD8141687
Probable space group: C 2/C
;
_chemical_formula_sum "Si O2"
_cell_formula_units_Z 48
_cell_length_a 11.012861
_cell_length_b 21.589793
_cell_length_c 11.920138
_cell_angle_alpha 90.000000
_cell_angle_beta 130.366641
_cell_angle_gamma 90.000000
_cell_volume 2159.418139
_symmetry_space_group_name_H-M "C 2/C"
_symmetry_group_IT_number 15
_symmetry_cell_setting 'monoclinic'
loop_
_space_group_symop_operation_xyz
x,y,z
-x,y,1/2-z
-x,-y,-z
x,-y,1/2+z
1/2+x,1/2+y,z
1/2-x,1/2+y,1/2-z
1/2-x,1/2-y,-z
1/2+x,1/2-y,1/2+z
loop_
_atom_site_type_symbol
_atom_site_label
_atom_site_fract_x
_atom_site_fract_y
_atom_site_fract_z
Si Si1 0.878168 0.375287 0.271811
Si Si2 0.730310 0.751490 0.699838
Si Si3 0.166395 0.082163 0.097476
Si Si4 0.835997 0.380696 0.914300
Si Si5 0.882518 0.786697 0.011292
Si Si6 0.165251 0.950991 0.013250
O O1 0.804423 0.309539 0.189685
O O2 0.736609 0.424850 0.174033
O O3 0.000000 0.395164 0.250000
O O4 0.971779 0.380779 0.446372
O O5 0.717504 0.808532 0.605234
O O6 0.860567 0.770750 0.868709
O O7 0.559184 0.734637 0.654448
O O8 0.311727 0.096596 0.271330
O O9 0.136922 0.138847 0.993127
O O10 0.200043 0.024414 0.035558
O O11 0.020421 0.066140 0.093578
O O12 0.739446 0.421910 0.945262
O O13 0.750000 0.750000 0.000000
#
# Coordination Sequence:
#
# PCOD8141687 Si02
#       6
#     8   8   8   8   8   8
#     4  10  21  37  61  94 127 160 206 260 323 374
#     4  11  21  40  63  93 127 165 207 267 314 376
#     4  10  22  41  65  89 130 167 212 264 308 381
#     4  10  22  39  64  96 127 164 209 262 323 374
#     4  11  23  41  62  92 126 168 214 257 317 378
#     4  10  21  41  63  95 125 168 213 257 319 374
#
# _framework density 22.228211000000002
#
# number of rings (size 3 to 8) (size 9 to 14) (size 15 to 20)
#    0.000    1.667    3.333    1.000    0.000    6.000 
#    3.000   11.667    0.000    0.000    0.000    0.000 
#    0.000    0.000    0.000    0.000    0.000    0.000 
#
# Total GULP energy -297413.900595 kJ/mol
# GULP energy per Si atom -12392.245858 kJ/mol
# Density = 2.217762 g / cm^3
# Si number density = 22.228211 Si / 1000 Ang^3
#
#
#
# Elastic Constant Matrix: (Units=GPa)
#
#
# Indices 1 2 3 4 5 6 
#
# 1 42.8104 31.4688 6.1834 0.0000 1.2825 0.0000
# 2 31.4688 181.3927 25.4086 0.0000 -1.9771 0.0000
# 3 6.1834 25.4086 79.2474 0.0000 20.6124 0.0000
# 4 0.0000 0.0000 0.0000 28.1400 0.0000 -0.6684
# 5 1.2825 -1.9771 20.6124 0.0000 24.1254 0.0000
# 6 0.0000 0.0000 0.0000 -0.6684 0.0000 29.5734
#
#
#
# Elastic Compliance Matrix: (Units=1/GPa)
#
#
# Indices 1 2 3 4 5 6 
#
# 1 0.026854 -0.004653 -0.000171 0.000000 -0.001663 0.000000
# 2 -0.004653 0.006712 -0.002567 0.000000 0.002991 0.000000
# 3 -0.000171 -0.002567 0.017367 0.000000 -0.015039 0.000000
# 4 0.000000 0.000000 0.000000 0.035556 0.000000 0.000804
# 5 -0.001663 0.002991 -0.015039 0.000000 0.054633 0.000000
# 6 0.000000 0.000000 0.000000 0.000804 0.000000 0.033832
#
#
# Mechanical properties :
#
#
# Convention : Reuss Voigt Hill
#
# Bulk Modulus (GPa) = 27.66168 47.73024 37.69596
# Shear Modulus (GPa) = 24.77882 32.39375 28.58629
#
# Velocity S-wave (km/s) = 3.34240 3.82164 3.59003
# Velocity P-wave (km/s) = 5.23134 6.40255 5.84635
#
# Compressibility (1/GPa) = 0.03615110
#
# Stress axis : x y z
#
# Youngs Moduli (GPa) = 37.23905 148.98130 57.58113
#
# Poissons Ratio (x) = 0.69319 0.00985
# Poissons Ratio (y) = 0.17327 0.14781
# Poissons Ratio (z) = 0.00637 0.38242
#
# Static dielectric constant tensor:
#      x y z
#    x 3.456240 0.000000 0.511320 
#    y 0.000000 4.294180 0.000000 
#    z 0.511320 0.000000 4.701710 
# 
# 
# High freq. dielectric constant tensor:
#      x y z
#    x 1.833540 0.000000 0.026810 
#    y 0.000000 1.888520 0.000000 
#    z 0.026810 0.000000 1.887870 
# 
# From -- ./inp_files/89391.got.cif
#   From: 2010.06.25/outbox.cif.g09.slc.cpg/sg15_45_cif.got.tgz:89391.got - 2010.06.28 07:06:18.
