data_PCOD8141351
_publ_section_title
;
Structure prediction by ZEFSAII (Michael W. Deem and Ramdas Pophale) SiO2 
 PCOD8141351
Probable space group: C 2/C
;
_chemical_formula_sum "Si O2"
_cell_formula_units_Z 64
_cell_length_a 11.764295
_cell_length_b 21.858289
_cell_length_c 26.316899
_cell_angle_alpha 90.000000
_cell_angle_beta 150.856330
_cell_angle_gamma 90.000000
_cell_volume 3295.693601
_symmetry_space_group_name_H-M "C 2/C"
_symmetry_group_IT_number 15
_symmetry_cell_setting 'monoclinic'
loop_
_space_group_symop_operation_xyz
x,y,z
-x,y,1/2-z
-x,-y,-z
x,-y,1/2+z
1/2+x,1/2+y,z
1/2-x,1/2+y,1/2-z
1/2-x,1/2-y,-z
1/2+x,1/2-y,1/2+z
loop_
_atom_site_type_symbol
_atom_site_label
_atom_site_fract_x
_atom_site_fract_y
_atom_site_fract_z
Si Si1 0.453152 0.071398 0.868213
Si Si2 0.963947 0.952353 0.531594
Si Si3 0.727961 0.643798 0.311494
Si Si4 0.353650 0.126120 0.148237
Si Si5 0.737688 0.044813 0.254848
Si Si6 0.486712 0.642161 0.804723
Si Si7 0.048372 0.572464 0.516466
Si Si8 0.054602 0.731944 0.386586
O O1 0.500309 0.091929 0.944529
O O2 0.264928 0.119508 0.772476
O O3 0.320422 0.006855 0.809358
O O4 0.695451 0.067909 0.932369
O O5 0.097942 0.890974 0.568077
O O6 0.075591 0.976422 0.628830
O O7 0.000000 0.000000 0.500000
O O8 0.500000 0.667257 0.250000
O O9 0.657854 0.601191 0.236349
O O10 0.882092 0.606317 0.411971
O O11 0.834934 0.706773 0.332153
O O12 0.500000 0.158427 0.250000
O O13 0.493349 0.065065 0.185252
O O14 0.324568 0.175100 0.093700
O O15 0.500000 0.645965 0.750000
O O16 0.691597 0.593631 0.900361
O O17 0.503493 0.710814 0.831247
O O18 0.000000 0.500000 0.500000
O O19 0.250000 0.750000 0.500000
#
# Coordination Sequence:
#
# PCOD8141351 Si02
#       8
#     8   8   8   8   8   8   8   8
#     4  11  23  36  60  95 131 162 200 261 316 373
#     4  11  22  38  60  92 128 161 209 250 308 384
#     4  11  23  39  65  95 126 163 212 265 315 376
#     4   9  20  39  62  83 114 166 206 247 305 372
#     4  10  21  36  60  90 126 166 201 247 318 384
#     4  10  24  42  61  91 125 168 212 259 322 375
#     4  11  22  38  64  94 129 165 202 258 324 384
#     4  11  22  43  65  85 118 167 219 254 309 382
#
# _framework density 19.419281999999999
#
# number of rings (size 3 to 8) (size 9 to 14) (size 15 to 20)
#    0.000    1.500    3.750    1.125    3.500    1.000 
#    2.250    0.000    0.000    5.250    0.000    0.000 
#    0.000    0.000    0.000    0.000    0.000    0.000 
#
# Total GULP energy -396483.812603 kJ/mol
# GULP energy per Si atom -12390.119144 kJ/mol
# Density = 1.937508 g / cm^3
# Si number density = 19.419282 Si / 1000 Ang^3
#
#
#
# Elastic Constant Matrix: (Units=GPa)
#
#
# Indices 1 2 3 4 5 6 
#
# 1 100.0905 27.9417 51.2362 0.0024 18.7981 0.0005
# 2 27.9417 88.9638 45.7150 0.0025 11.1917 0.0007
# 3 51.2362 45.7150 110.9341 0.0034 9.1238 0.0028
# 4 0.0024 0.0025 0.0034 20.7316 0.0020 -6.6830
# 5 18.7981 11.1917 9.1238 0.0020 42.7839 0.0003
# 6 0.0005 0.0007 0.0028 -6.6830 0.0003 34.6156
#
#
#
# Elastic Compliance Matrix: (Units=1/GPa)
#
#
# Indices 1 2 3 4 5 6 
#
# 1 0.014064 -0.000868 -0.005749 0.000000 -0.004726 0.000000
# 2 -0.000868 0.014586 -0.005422 -0.000001 -0.002278 0.000000
# 3 -0.005749 -0.005422 0.013822 -0.000001 0.000997 -0.000001
# 4 0.000000 -0.000001 -0.000001 0.051437 -0.000002 0.009931
# 5 -0.004726 -0.002278 0.000997 -0.000002 0.025833 -0.000001
# 6 0.000000 0.000000 -0.000001 0.009931 -0.000001 0.030806
#
#
# Mechanical properties :
#
#
# Convention : Reuss Voigt Hill
#
# Bulk Modulus (GPa) = 54.36991 61.08604 57.72797
# Shear Modulus (GPa) = 27.66120 31.29926 29.48023
#
# Velocity S-wave (km/s) = 3.77824 4.01903 3.90050
# Velocity P-wave (km/s) = 6.86237 7.28433 7.07650
#
# Compressibility (1/GPa) = 0.01839253
#
# Stress axis : x y z
#
# Youngs Moduli (GPa) = 71.10388 68.55807 72.34761
#
# Poissons Ratio (x) = 0.05954 0.41593
# Poissons Ratio (y) = 0.06175 0.39230
# Poissons Ratio (z) = 0.40878 0.37175
#
# Static dielectric constant tensor:
#      x y z
#    x 3.695380 0.000000 -0.039260 
#    y 0.000000 3.180690 -0.000010 
#    z -0.039260 -0.000010 3.801430 
# 
# 
# High freq. dielectric constant tensor:
#      x y z
#    x 1.763360 0.000000 -0.006970 
#    y 0.000000 1.739170 0.000000 
#    z -0.006970 0.000000 1.765250 
# 
# From -- ./inp_files/293768.got.cif
#   From: 2010.06.25/outbox.cif.g09.slc.cpg/sg15_147_cif.got.tgz:293768.got - 2010.06.28 07:06:18.
