data_PCOD8141973
_publ_section_title
;
Structure prediction by ZEFSAII (Michael W. Deem and Ramdas Pophale) SiO2 
 PCOD8141973
Probable space group: C 2/C
;
_chemical_formula_sum "Si O2"
_cell_formula_units_Z 64
_cell_length_a 14.039955
_cell_length_b 9.565211
_cell_length_c 23.240863
_cell_angle_alpha 90.000000
_cell_angle_beta 113.736840
_cell_angle_gamma 90.000000
_cell_volume 2857.099123
_symmetry_space_group_name_H-M "C 2/C"
_symmetry_group_IT_number 15
_symmetry_cell_setting 'monoclinic'
loop_
_space_group_symop_operation_xyz
x,y,z
-x,y,1/2-z
-x,-y,-z
x,-y,1/2+z
1/2+x,1/2+y,z
1/2-x,1/2+y,1/2-z
1/2-x,1/2-y,-z
1/2+x,1/2-y,1/2+z
loop_
_atom_site_type_symbol
_atom_site_label
_atom_site_fract_x
_atom_site_fract_y
_atom_site_fract_z
Si Si1 0.424434 0.129771 0.977273
Si Si2 0.677268 0.742631 0.352944
Si Si3 0.935850 0.108443 0.555724
Si Si4 0.967130 0.274825 0.364962
Si Si5 0.792058 0.067935 0.624329
Si Si6 0.601494 0.964283 0.243277
Si Si7 0.760144 0.164099 0.322681
Si Si8 0.660062 0.456503 0.071689
O O1 0.463586 0.221728 0.932936
O O2 0.307433 0.076349 0.941685
O O3 0.428648 0.230533 0.033449
O O4 0.500000 0.000000 0.000000
O O5 0.579379 0.727790 0.371972
O O6 0.706222 0.583452 0.344501
O O7 0.647294 0.828481 0.288284
O O8 0.772743 0.813634 0.410918
O O9 0.894141 0.097167 0.610544
O O10 0.055956 0.061440 0.584491
O O11 0.868239 0.002494 0.499751
O O12 0.934165 0.424436 0.329702
O O13 0.875114 0.169704 0.322378
O O14 0.783715 0.181811 0.673286
O O15 0.500000 0.023925 0.250000
O O16 0.684583 0.088599 0.259009
O O17 0.765632 0.075434 0.383072
#
# Coordination Sequence:
#
# PCOD8141973 Si02
#       8
#     8   8   8   8   8   8   8   8
#     4  11  24  38  57  91 128 160 203 256 308 371
#     4  10  22  39  62  90 120 161 205 250 308 366
#     4  11  22  37  58  88 126 166 207 250 303 366
#     4  10  21  40  63  89 118 159 204 251 303 370
#     4  11  23  37  59  91 126 158 204 252 310 365
#     4   9  21  42  65  86 116 159 208 251 310 370
#     4  10  21  41  62  90 122 158 199 260 306 360
#     4  10  21  38  60  85 126 162 210 242 302 369
#
# _framework density 22.400341999999998
#
# number of rings (size 3 to 8) (size 9 to 14) (size 15 to 20)
#    0.000    1.750    2.500    1.875    3.500    4.500 
#    0.000    5.625    0.000    0.000    0.000    0.000 
#    0.000    0.000    0.000    0.000    0.000    0.000 
#
# Total GULP energy -396750.565627 kJ/mol
# GULP energy per Si atom -12398.455176 kJ/mol
# Density = 2.234936 g / cm^3
# Si number density = 22.400342 Si / 1000 Ang^3
#
#
#
# Elastic Constant Matrix: (Units=GPa)
#
#
# Indices 1 2 3 4 5 6 
#
# 1 81.0091 34.7648 3.7768 0.0000 12.4568 0.0000
# 2 34.7648 133.1253 11.1237 0.0000 15.6591 0.0000
# 3 3.7768 11.1237 25.8279 0.0000 9.2988 0.0000
# 4 0.0000 0.0000 0.0000 29.9913 0.0000 16.6240
# 5 12.4568 15.6591 9.2988 0.0000 28.2515 0.0000
# 6 0.0000 0.0000 0.0000 16.6240 0.0000 36.7579
#
#
#
# Elastic Compliance Matrix: (Units=1/GPa)
#
#
# Indices 1 2 3 4 5 6 
#
# 1 0.014460 -0.003288 0.001068 0.000000 -0.004904 0.000000
# 2 -0.003288 0.008886 -0.002377 0.000000 -0.002693 0.000000
# 3 0.001068 -0.002377 0.044561 0.000000 -0.013820 0.000000
# 4 0.000000 0.000000 0.000000 0.044498 0.000000 -0.020124
# 5 -0.004904 -0.002693 -0.013820 0.000000 0.043600 0.000000
# 6 0.000000 0.000000 0.000000 -0.020124 0.000000 0.036306
#
#
# Mechanical properties :
#
#
# Convention : Reuss Voigt Hill
#
# Bulk Modulus (GPa) = 17.03231 37.69924 27.36577
# Shear Modulus (GPa) = 22.61655 31.68661 27.15158
#
# Velocity S-wave (km/s) = 3.18095 3.76514 3.48531
# Velocity P-wave (km/s) = 4.59471 5.98064 5.33289
#
# Compressibility (1/GPa) = 0.05871194
#
# Stress axis : x y z
#
# Youngs Moduli (GPa) = 69.15687 112.53883 22.44108
#
# Poissons Ratio (x) = 0.37007 -0.02396
# Poissons Ratio (y) = 0.22742 0.05333
# Poissons Ratio (z) = -0.07383 0.26746
#
# Static dielectric constant tensor:
#      x y z
#    x 4.180610 0.000000 0.283390 
#    y 0.000000 4.157670 0.000000 
#    z 0.283390 0.000000 3.857990 
# 
# 
# High freq. dielectric constant tensor:
#      x y z
#    x 1.891810 0.000000 0.011970 
#    y 0.000000 1.884920 0.000000 
#    z 0.011970 0.000000 1.855750 
# 
# From -- ./inp_files/295213.got.cif
#   From: 2010.06.25/outbox.cif.g09.slc.cpg/sg15_148_cif.got.tgz:295213.got - 2010.06.28 07:06:18.
