data_PCOD8141576
_publ_section_title
;
Structure prediction by ZEFSAII (Michael W. Deem and Ramdas Pophale) SiO2 
 PCOD8141576
Probable space group: C 2/C
;
_chemical_formula_sum "Si O2"
_cell_formula_units_Z 48
_cell_length_a 13.610733
_cell_length_b 12.400906
_cell_length_c 14.576149
_cell_angle_alpha 90.000000
_cell_angle_beta 103.644082
_cell_angle_gamma 90.000000
_cell_volume 2390.812934
_symmetry_space_group_name_H-M "C 2/C"
_symmetry_group_IT_number 15
_symmetry_cell_setting 'monoclinic'
loop_
_space_group_symop_operation_xyz
x,y,z
-x,y,1/2-z
-x,-y,-z
x,-y,1/2+z
1/2+x,1/2+y,z
1/2-x,1/2+y,1/2-z
1/2-x,1/2-y,-z
1/2+x,1/2-y,1/2+z
loop_
_atom_site_type_symbol
_atom_site_label
_atom_site_fract_x
_atom_site_fract_y
_atom_site_fract_z
Si Si1 0.409351 0.234607 0.800669
Si Si2 0.220012 0.131656 0.960729
Si Si3 0.908310 0.453486 0.426902
Si Si4 0.321417 0.559818 0.361930
Si Si5 0.187793 0.157897 0.742316
Si Si6 0.388605 0.883649 0.764074
O O1 0.500000 0.223334 0.750000
O O2 0.440120 0.163665 0.895331
O O3 0.393481 0.359137 0.822007
O O4 0.303698 0.184481 0.741027
O O5 0.319887 0.059087 0.980527
O O6 0.172186 0.132996 0.847790
O O7 0.250000 0.250000 0.000000
O O8 0.150999 0.073008 0.023347
O O9 0.867507 0.534253 0.340992
O O10 0.000000 0.500000 0.500000
O O11 0.346459 0.441572 0.328779
O O12 0.203025 0.595139 0.327354
O O13 0.116707 0.259815 0.702258
O O14 0.500000 0.908534 0.750000
#
# Coordination Sequence:
#
# PCOD8141576 Si02
#       6
#     8   8   8   8   8   8
#     4  10  21  37  59  86 118 159 199 246 305 349
#     4  11  19  37  61  89 119 161 197 251 304 367
#     4  11  22  34  59  96 119 150 207 254 307 352
#     4  11  21  40  61  89 123 161 203 249 303 369
#     4  10  23  39  62  88 123 163 206 243 312 365
#     4  11  21  37  60  89 124 157 201 253 302 356
#
# _framework density 20.076853
#
# number of rings (size 3 to 8) (size 9 to 14) (size 15 to 20)
#    0.000    1.333    8.333    1.500    2.333    0.667 
#    0.000    2.500    0.000    3.000    0.000    0.000 
#    0.000    0.000    0.000    0.000    0.000    0.000 
#
# Total GULP energy -297451.207541 kJ/mol
# GULP energy per Si atom -12393.800314 kJ/mol
# Density = 2.003116 g / cm^3
# Si number density = 20.076853 Si / 1000 Ang^3
#
#
#
# Elastic Constant Matrix: (Units=GPa)
#
#
# Indices 1 2 3 4 5 6 
#
# 1 36.9547 11.9565 15.9342 0.0000 -2.6977 0.0000
# 2 11.9565 131.7695 35.2937 0.0000 -15.7743 0.0000
# 3 15.9342 35.2937 76.1902 0.0000 -24.3478 0.0000
# 4 0.0000 0.0000 0.0000 28.9959 0.0000 -7.8356
# 5 -2.6977 -15.7743 -24.3478 0.0000 23.6693 0.0000
# 6 0.0000 0.0000 0.0000 -7.8356 0.0000 26.8340
#
#
#
# Elastic Compliance Matrix: (Units=1/GPa)
#
#
# Indices 1 2 3 4 5 6 
#
# 1 0.030285 -0.001394 -0.007273 0.000000 -0.004958 0.000000
# 2 -0.001394 0.008825 -0.002931 0.000000 0.002707 0.000000
# 3 -0.007273 -0.002931 0.022516 0.000000 0.020379 0.000000
# 4 0.000000 0.000000 0.000000 0.037442 0.000000 0.010933
# 5 -0.004958 0.002707 0.020379 0.000000 0.064451 0.000000
# 6 0.000000 0.000000 0.000000 0.010933 0.000000 0.040459
#
#
# Mechanical properties :
#
#
# Convention : Reuss Voigt Hill
#
# Bulk Modulus (GPa) = 26.02066 41.25367 33.63716
# Shear Modulus (GPa) = 20.83476 28.01517 24.42497
#
# Velocity S-wave (km/s) = 3.22491 3.73955 3.49173
# Velocity P-wave (km/s) = 5.18222 6.26404 5.74863
#
# Compressibility (1/GPa) = 0.03843100
#
# Stress axis : x y z
#
# Youngs Moduli (GPa) = 33.01979 113.31880 44.41192
#
# Poissons Ratio (x) = 0.15792 0.32299
# Poissons Ratio (y) = 0.04602 0.13019
# Poissons Ratio (z) = 0.24014 0.33218
#
# Static dielectric constant tensor:
#      x y z
#    x 3.502740 0.000000 0.149840 
#    y 0.000000 4.043990 0.000000 
#    z 0.149840 0.000000 8.018870 
# 
# 
# High freq. dielectric constant tensor:
#      x y z
#    x 1.765070 0.000000 -0.018190 
#    y 0.000000 1.798100 0.000000 
#    z -0.018190 0.000000 1.769190 
# 
# From -- ./inp_files/152082.got.cif
#   From: 2010.06.25/outbox.cif.g09.slc.cpg/sg15_77_cif.got.tgz:152082.got - 2010.06.28 07:06:18.
