data_PCOD8141132
_publ_section_title
;
Structure prediction by ZEFSAII (Michael W. Deem and Ramdas Pophale) SiO2 
 PCOD8141132
Probable space group: C 2/C
;
_chemical_formula_sum "Si O2"
_cell_formula_units_Z 48
_cell_length_a 31.176747
_cell_length_b 8.289026
_cell_length_c 20.238784
_cell_angle_alpha 90.000000
_cell_angle_beta 150.417618
_cell_angle_gamma 90.000000
_cell_volume 2582.018762
_symmetry_space_group_name_H-M "C 2/C"
_symmetry_group_IT_number 15
_symmetry_cell_setting 'monoclinic'
loop_
_space_group_symop_operation_xyz
x,y,z
-x,y,1/2-z
-x,-y,-z
x,-y,1/2+z
1/2+x,1/2+y,z
1/2-x,1/2+y,1/2-z
1/2-x,1/2-y,-z
1/2+x,1/2-y,1/2+z
loop_
_atom_site_type_symbol
_atom_site_label
_atom_site_fract_x
_atom_site_fract_y
_atom_site_fract_z
Si Si1 0.302556 0.550229 0.133490
Si Si2 0.485473 0.439565 0.405667
Si Si3 0.778860 0.828621 0.224216
Si Si4 0.268668 0.081465 0.603569
Si Si5 0.665800 0.459062 0.585315
Si Si6 0.575192 0.887763 0.630895
O O1 0.406387 0.537325 0.267639
O O2 0.269575 0.417632 0.141458
O O3 0.277567 0.728078 0.122881
O O4 0.259018 0.516337 0.004926
O O5 0.500000 0.500000 0.500000
O O6 0.564371 0.478831 0.462845
O O7 0.470452 0.246734 0.384525
O O8 0.691385 0.728605 0.118975
O O9 0.781348 0.958384 0.284981
O O10 0.864128 0.710692 0.340358
O O11 0.191844 0.035826 0.550657
O O12 0.361155 0.000232 0.741679
O O13 0.500000 0.000000 0.500000
#
# Coordination Sequence:
#
# PCOD8141132 Si02
#       6
#     8   8   8   8   8   8
#     4  10  21  43  61  83 120 162 194 238 300 356
#     4  11  21  37  60  86 119 157 195 245 294 344
#     4  10  22  35  60  87 120 152 197 244 289 352
#     4  10  23  39  63  86 117 158 199 241 295 353
#     4  11  22  36  58  93 114 156 196 247 290 343
#     4  10  21  35  59  89 112 156 196 242 288 354
#
# _framework density 18.590105999999999
#
# number of rings (size 3 to 8) (size 9 to 14) (size 15 to 20)
#    0.000    1.667    3.333    2.000    4.667    6.667 
#    0.000    0.000    0.000    0.000    0.000    0.000 
#    0.000    0.000    0.000    0.000    0.000    0.000 
#
# Total GULP energy -297546.156734 kJ/mol
# GULP energy per Si atom -12397.756531 kJ/mol
# Density = 1.854779 g / cm^3
# Si number density = 18.590106 Si / 1000 Ang^3
#
#
#
# Elastic Constant Matrix: (Units=GPa)
#
#
# Indices 1 2 3 4 5 6 
#
# 1 85.0519 73.7962 34.6141 0.0000 -3.5194 0.0000
# 2 73.7962 74.6084 63.0506 0.0000 -7.0720 0.0000
# 3 34.6141 63.0506 108.9600 0.0000 -3.8987 0.0000
# 4 0.0000 0.0000 0.0000 32.3205 0.0000 -1.3661
# 5 -3.5194 -7.0720 -3.8987 0.0000 26.5435 0.0000
# 6 0.0000 0.0000 0.0000 -1.3661 0.0000 25.9162
#
#
#
# Elastic Compliance Matrix: (Units=1/GPa)
#
#
# Indices 1 2 3 4 5 6 
#
# 1 -0.390470 0.559313 -0.197165 0.000000 0.068286 -0.000001
# 2 0.559313 -0.774318 0.267060 0.000000 -0.092916 0.000001
# 3 -0.197165 0.267060 -0.081542 0.000000 0.033034 0.000000
# 4 0.000000 0.000000 0.000000 0.031009 0.000000 0.001634
# 5 0.068286 -0.092916 0.033034 0.000000 0.026824 0.000000
# 6 -0.000001 0.000001 0.000000 0.001634 0.000000 0.038672
#
#
# Mechanical properties :
#
#
# Convention : Reuss Voigt Hill
#
# Bulk Modulus (GPa) = 82.73141 67.94913 75.34027
# Shear Modulus (GPa) = -2.07968 23.43336 10.67684
#
# Velocity S-wave (km/s) = -1.05884 3.55424 2.39912
# Velocity P-wave (km/s) = 6.56542 7.31260 6.94906
#
# Compressibility (1/GPa) = 0.01208731
#
# Stress axis : x y z
#
# Youngs Moduli (GPa) = -2.56102 -1.29146 -12.26362
#
# Poissons Ratio (x) = 0.72233 -2.41795
# Poissons Ratio (y) = 1.43241 3.27512
# Poissons Ratio (z) = -0.50494 0.34490
#
# Static dielectric constant tensor:
#      x y z
#    x 3.464890 0.000000 0.161050 
#    y 0.000000 3.696210 0.000000 
#    z 0.161050 0.000000 3.433020 
# 
# 
# High freq. dielectric constant tensor:
#      x y z
#    x 1.715920 0.000000 0.008920 
#    y 0.000000 1.741720 0.000000 
#    z 0.008920 0.000000 1.712560 
# 
# From -- ./inp_files/208960.got.cif
#   From: 2010.06.25/outbox.cif.g09.slc.cpg/sg15_105_cif.got.tgz:208960.got - 2010.06.28 07:06:18.
