data_PCOD8141943
_publ_section_title
;
Structure prediction by ZEFSAII (Michael W. Deem and Ramdas Pophale) SiO2 
 PCOD8141943
Probable space group: C 2/C
;
_chemical_formula_sum "Si O2"
_cell_formula_units_Z 40
_cell_length_a 11.749040
_cell_length_b 31.336818
_cell_length_c 8.383522
_cell_angle_alpha 90.000000
_cell_angle_beta 40.517576
_cell_angle_gamma 90.000000
_cell_volume 2005.322093
_symmetry_space_group_name_H-M "C 2/C"
_symmetry_group_IT_number 15
_symmetry_cell_setting 'monoclinic'
loop_
_space_group_symop_operation_xyz
x,y,z
-x,y,1/2-z
-x,-y,-z
x,-y,1/2+z
1/2+x,1/2+y,z
1/2-x,1/2+y,1/2-z
1/2-x,1/2-y,-z
1/2+x,1/2-y,1/2+z
loop_
_atom_site_type_symbol
_atom_site_label
_atom_site_fract_x
_atom_site_fract_y
_atom_site_fract_z
Si Si1 0.863552 0.227777 0.010831
Si Si2 0.708131 0.455882 0.863005
Si Si3 0.456491 0.802117 0.481541
Si Si4 0.317099 0.452917 0.234456
Si Si5 0.019057 0.397335 0.416947
O O1 0.752255 0.198814 0.252745
O O2 0.953671 0.264421 0.018735
O O3 0.750000 0.250000 0.000000
O O4 0.000000 0.201429 0.750000
O O5 0.760528 0.503457 0.755075
O O6 0.854453 0.421925 0.663456
O O7 0.522348 0.444999 0.974833
O O8 0.698590 0.454969 0.061259
O O9 0.500000 0.795036 0.250000
O O10 0.522355 0.848221 0.469052
O O11 0.204146 0.415153 0.279459
O O12 0.000000 0.400883 0.250000
#
# Coordination Sequence:
#
# PCOD8141943 Si02
#       5
#     8   8   8   8   8
#     4   9  19  37  60  85 111 151 189 239 293 350
#     4  10  21  38  59  86 114 158 198 241 295 346
#     4  10  21  39  60  86 118 154 197 239 297 360
#     4  10  21  38  60  84 118 155 198 244 291 350
#     4  11  23  38  58  87 119 155 194 243 291 347
#
# _framework density 19.946919999999999
#
# number of rings (size 3 to 8) (size 9 to 14) (size 15 to 20)
#    0.000    2.000    0.000    3.000    0.000    7.200 
#   10.800    0.000    0.000    0.000    0.000    0.000 
#    0.000    0.000    0.000    0.000    0.000    0.000 
#
# Total GULP energy -247833.697234 kJ/mol
# GULP energy per Si atom -12391.684862 kJ/mol
# Density = 1.990152 g / cm^3
# Si number density = 19.946920 Si / 1000 Ang^3
#
#
#
# Elastic Constant Matrix: (Units=GPa)
#
#
# Indices 1 2 3 4 5 6 
#
# 1 75.9744 38.9684 19.3131 0.0000 -12.2797 0.0000
# 2 38.9684 105.0434 41.1833 0.0000 -7.2934 0.0000
# 3 19.3131 41.1833 126.0609 0.0000 -9.3407 0.0000
# 4 0.0000 0.0000 0.0000 18.4410 0.0000 -3.5315
# 5 -12.2797 -7.2934 -9.3407 0.0000 21.2906 0.0000
# 6 0.0000 0.0000 0.0000 -3.5315 0.0000 30.6647
#
#
#
# Elastic Compliance Matrix: (Units=1/GPa)
#
#
# Indices 1 2 3 4 5 6 
#
# 1 0.017514 -0.005874 -0.000170 0.000000 0.008014 0.000000
# 2 -0.005874 0.012994 -0.003376 0.000000 -0.000418 0.000000
# 3 -0.000170 -0.003376 0.009270 0.000000 0.002812 0.000000
# 4 0.000000 0.000000 0.000000 0.055450 0.000000 0.006386
# 5 0.008014 -0.000418 0.002812 0.000000 0.052682 0.000000
# 6 0.000000 0.000000 0.000000 0.006386 0.000000 0.033346
#
#
# Mechanical properties :
#
#
# Convention : Reuss Voigt Hill
#
# Bulk Modulus (GPa) = 47.76259 56.22313 51.99286
# Shear Modulus (GPa) = 24.14583 27.92020 26.03301
#
# Velocity S-wave (km/s) = 3.48300 3.74535 3.61656
# Velocity P-wave (km/s) = 6.33813 6.85209 6.60011
#
# Compressibility (1/GPa) = 0.02093689
#
# Stress axis : x y z
#
# Youngs Moduli (GPa) = 57.09777 76.96146 107.87416
#
# Poissons Ratio (x) = 0.45207 0.01838
# Poissons Ratio (y) = 0.33539 0.36418
# Poissons Ratio (z) = 0.00973 0.25982
#
# Static dielectric constant tensor:
#      x y z
#    x 3.956480 0.000000 -0.671220 
#    y 0.000000 3.420690 0.000000 
#    z -0.671220 0.000000 5.517420 
# 
# 
# High freq. dielectric constant tensor:
#      x y z
#    x 1.785790 0.000000 0.003270 
#    y 0.000000 1.761340 0.000000 
#    z 0.003270 0.000000 1.802530 
# 
# From -- ./inp_files/34978.got.cif
#   From: 2010.06.25/outbox.cif.g09.slc.cpg/sg15_18_cif.got.tgz:34978.got - 2010.06.28 07:06:18.
