data_PCOD8141204
_publ_section_title
;
Structure prediction by ZEFSAII (Michael W. Deem and Ramdas Pophale) SiO2 
 PCOD8141204
Probable space group: C 2/C
;
_chemical_formula_sum "Si O2"
_cell_formula_units_Z 52
_cell_length_a 21.132822
_cell_length_b 14.633310
_cell_length_c 7.769904
_cell_angle_alpha 90.000000
_cell_angle_beta 91.863450
_cell_angle_gamma 90.000000
_cell_volume 2401.518791
_symmetry_space_group_name_H-M "C 2/C"
_symmetry_group_IT_number 15
_symmetry_cell_setting 'monoclinic'
loop_
_space_group_symop_operation_xyz
x,y,z
-x,y,1/2-z
-x,-y,-z
x,-y,1/2+z
1/2+x,1/2+y,z
1/2-x,1/2+y,1/2-z
1/2-x,1/2-y,-z
1/2+x,1/2-y,1/2+z
loop_
_atom_site_type_symbol
_atom_site_label
_atom_site_fract_x
_atom_site_fract_y
_atom_site_fract_z
Si Si1 0.241721 0.355915 0.962511
Si Si2 0.901595 0.607892 0.082697
Si Si3 0.686916 0.339444 0.848811
Si Si4 0.233031 0.634608 0.837108
Si Si5 0.952201 0.221949 0.096775
Si Si6 0.000000 0.743042 0.250000
Si Si7 0.404594 0.090201 0.682522
O O1 0.172295 0.378580 0.879341
O O2 0.293431 0.391766 0.826865
O O3 0.250000 0.250000 0.000000
O O4 0.252735 0.403724 0.149812
O O5 0.930457 0.510594 0.146563
O O6 0.939629 0.684688 0.186618
O O7 0.911053 0.619703 0.880618
O O8 0.722299 0.243011 0.832787
O O9 0.612205 0.330003 0.862418
O O10 0.713613 0.392051 0.019116
O O11 0.167721 0.587431 0.888844
O O12 0.943733 0.332570 0.083585
O O13 0.000000 0.192316 0.250000
O O14 0.978103 0.193807 0.909836
#
# Coordination Sequence:
#
# PCOD8141204 Si02
#       7
#     8   8   8   8   8   4   8
#     4   9  19  33  53  72  97 128 176 216 266 299
#     4  11  23  35  52  77 104 149 175 217 253 306
#     4   9  18  31  54  71  93 133 173 213 264 299
#     4   8  17  31  49  74  94 126 168 218 256 302
#     4  11  23  37  50  75 108 142 182 216 249 307
#     4  12  26  34  52  70 104 148 186 204 254 300
#     4  10  21  36  50  73 109 138 182 213 252 302
#
# _framework density 21.652963
#
# number of rings (size 3 to 8) (size 9 to 14) (size 15 to 20)
#    0.000    2.154    1.538    1.846   11.846    1.231 
#    0.000    0.000    0.000    0.000    0.000    0.000 
#    0.000    1.231    2.615    0.154    0.000    0.000 
#
# Total GULP energy -322288.897045 kJ/mol
# GULP energy per Si atom -12395.726809 kJ/mol
# Density = 2.160368 g / cm^3
# Si number density = 21.652963 Si / 1000 Ang^3
#
#
#
# Elastic Constant Matrix: (Units=GPa)
#
#
# Indices 1 2 3 4 5 6 
#
# 1 127.8593 -1.5852 88.4736 0.0000 1.1084 0.0000
# 2 -1.5852 6.0705 -0.3934 0.0000 3.0347 0.0000
# 3 88.4736 -0.3934 168.8206 0.0000 -1.6397 0.0000
# 4 0.0000 0.0000 0.0000 15.1912 0.0000 -0.9036
# 5 1.1084 3.0347 -1.6397 0.0000 44.1300 0.0000
# 6 0.0000 0.0000 0.0000 -0.9036 0.0000 4.6514
#
#
#
# Elastic Compliance Matrix: (Units=1/GPa)
#
#
# Indices 1 2 3 4 5 6 
#
# 1 0.012344 0.003189 -0.006469 0.000000 -0.000770 0.000000
# 2 0.003189 0.171432 -0.001387 0.000000 -0.011920 0.000000
# 3 -0.006469 -0.001387 0.009316 0.000000 0.000604 0.000000
# 4 0.000000 0.000000 0.000000 0.066597 0.000000 0.012937
# 5 -0.000770 -0.011920 0.000604 0.000000 0.023522 0.000000
# 6 0.000000 0.000000 0.000000 0.012937 0.000000 0.217501
#
#
# Mechanical properties :
#
#
# Convention : Reuss Voigt Hill
#
# Bulk Modulus (GPa) = 5.44198 52.86007 29.15102
# Shear Modulus (GPa) = 8.75198 27.21154 17.98176
#
# Velocity S-wave (km/s) = 2.01264 3.54886 2.88488
# Velocity P-wave (km/s) = 2.81419 6.42323 4.95871
#
# Compressibility (1/GPa) = 0.18375658
#
# Stress axis : x y z
#
# Youngs Moduli (GPa) = 81.01411 5.83322 107.33957
#
# Poissons Ratio (x) = -0.01860 0.69437
# Poissons Ratio (y) = -0.25833 0.14893
# Poissons Ratio (z) = 0.52407 0.00809
#
# Static dielectric constant tensor:
#      x y z
#    x 3.953880 0.000000 -0.112470 
#    y 0.000000 3.369270 0.000000 
#    z -0.112470 0.000000 4.557670 
# 
# 
# High freq. dielectric constant tensor:
#      x y z
#    x 1.843990 0.000000 -0.003580 
#    y 0.000000 1.783030 0.000000 
#    z -0.003580 0.000000 1.876540 
# 
# From -- ./inp_files/48612.got.cif
#   From: 2010.06.25/outbox.cif.g09.slc.cpg/sg15_25_cif.got.tgz:48612.got - 2010.06.28 07:06:18.
