data_PCOD8141659
_publ_section_title
;
Structure prediction by ZEFSAII (Michael W. Deem and Ramdas Pophale) SiO2 
 PCOD8141659
Probable space group: C 2/C
;
_chemical_formula_sum "Si O2"
_cell_formula_units_Z 40
_cell_length_a 14.761703
_cell_length_b 8.817069
_cell_length_c 29.387457
_cell_angle_alpha 90.000000
_cell_angle_beta 149.092779
_cell_angle_gamma 90.000000
_cell_volume 1964.669423
_symmetry_space_group_name_H-M "C 2/C"
_symmetry_group_IT_number 15
_symmetry_cell_setting 'monoclinic'
loop_
_space_group_symop_operation_xyz
x,y,z
-x,y,1/2-z
-x,-y,-z
x,-y,1/2+z
1/2+x,1/2+y,z
1/2-x,1/2+y,1/2-z
1/2-x,1/2-y,-z
1/2+x,1/2-y,1/2+z
loop_
_atom_site_type_symbol
_atom_site_label
_atom_site_fract_x
_atom_site_fract_y
_atom_site_fract_z
Si Si1 0.612915 0.182351 0.843259
Si Si2 0.409805 0.216193 0.282402
Si Si3 0.260757 0.858388 0.623153
Si Si4 0.547535 0.853212 0.492907
Si Si5 0.895102 0.575490 0.830744
O O1 0.500000 0.217678 0.750000
O O2 0.475757 0.175239 0.825248
O O3 0.728816 0.028619 0.891300
O O4 0.747347 0.318835 0.910724
O O5 0.611410 0.247533 0.353527
O O6 0.320683 0.130892 0.201344
O O7 0.308668 0.372389 0.249835
O O8 0.398554 0.103310 0.320867
O O9 0.066361 0.788485 0.537024
O O10 0.511372 0.888196 0.424809
O O11 0.500000 0.000000 0.500000
#
# Coordination Sequence:
#
# PCOD8141659 Si02
#       5
#     8   8   8   8   8
#     4  11  21  41  63  85 116 166 209 236 289 361
#     4   9  18  35  61  88 111 156 194 247 283 355
#     4   9  18  41  61  80 116 158 203 231 291 361
#     4  11  25  38  58  93 128 151 190 258 305 343
#     4  10  21  37  61  87 123 151 203 240 301 346
#
# _framework density 20.359658
#
# number of rings (size 3 to 8) (size 9 to 14) (size 15 to 20)
#    0.000    2.000    4.000    1.200    2.800    1.600 
#    3.600    4.000    0.000    0.000    0.000    0.000 
#    0.000    0.000    0.000    0.000    0.000    0.000 
#
# Total GULP energy -247964.546594 kJ/mol
# GULP energy per Si atom -12398.227330 kJ/mol
# Density = 2.031332 g / cm^3
# Si number density = 20.359658 Si / 1000 Ang^3
#
#
#
# Elastic Constant Matrix: (Units=GPa)
#
#
# Indices 1 2 3 4 5 6 
#
# 1 100.6540 13.5445 36.1704 0.0000 -17.3849 0.0000
# 2 13.5445 33.5638 17.3395 0.0000 -12.6813 0.0000
# 3 36.1704 17.3395 94.5711 0.0004 -8.6137 0.0001
# 4 0.0000 0.0000 0.0004 21.6153 -0.0001 2.5446
# 5 -17.3849 -12.6813 -8.6137 -0.0001 23.7723 0.0000
# 6 0.0000 0.0000 0.0001 2.5446 0.0000 31.2446
#
#
#
# Elastic Compliance Matrix: (Units=1/GPa)
#
#
# Indices 1 2 3 4 5 6 
#
# 1 0.012791 -0.000055 -0.004170 0.000000 0.007813 0.000000
# 2 -0.000055 0.039964 -0.005551 0.000000 0.019267 0.000000
# 3 -0.004170 -0.005551 0.013071 0.000000 -0.001275 0.000000
# 4 0.000000 0.000000 0.000000 0.046711 0.000000 -0.003804
# 5 0.007813 0.019267 -0.001275 0.000000 0.057596 0.000000
# 6 0.000000 0.000000 0.000000 -0.003804 0.000000 0.032315
#
#
# Mechanical properties :
#
#
# Convention : Reuss Voigt Hill
#
# Bulk Modulus (GPa) = 21.61151 40.32198 30.96674
# Shear Modulus (GPa) = 21.05933 26.10874 23.58403
#
# Velocity S-wave (km/s) = 3.21964 3.58491 3.40718
# Velocity P-wave (km/s) = 4.94564 6.08139 5.54268
#
# Compressibility (1/GPa) = 0.04627163
#
# Stress axis : x y z
#
# Youngs Moduli (GPa) = 78.18271 25.02272 76.50681
#
# Poissons Ratio (x) = 0.00138 0.31905
# Poissons Ratio (y) = 0.00430 0.42472
# Poissons Ratio (z) = 0.32604 0.13891
#
# Static dielectric constant tensor:
#      x y z
#    x 3.840930 0.000000 0.344640 
#    y 0.000000 3.473250 0.000000 
#    z 0.344640 0.000000 3.487350 
# 
# 
# High freq. dielectric constant tensor:
#      x y z
#    x 1.811770 0.000000 0.005430 
#    y 0.000000 1.777290 0.000000 
#    z 0.005430 0.000000 1.783460 
# 
# From -- ./inp_files/150535.got.cif
#   From: 2010.06.25/outbox.cif.g09.slc.cpg/sg15_76_cif.got.tgz:150535.got - 2010.06.28 07:06:18.
