data_PCOD8141769
_publ_section_title
;
Structure prediction by ZEFSAII (Michael W. Deem and Ramdas Pophale) SiO2 
 PCOD8141769
Probable space group: C 2/C
;
_chemical_formula_sum "Si O2"
_cell_formula_units_Z 48
_cell_length_a 29.414184
_cell_length_b 8.998323
_cell_length_c 15.417021
_cell_angle_alpha 90.000000
_cell_angle_beta 144.230709
_cell_angle_gamma 90.000000
_cell_volume 2385.175636
_symmetry_space_group_name_H-M "C 2/C"
_symmetry_group_IT_number 15
_symmetry_cell_setting 'monoclinic'
loop_
_space_group_symop_operation_xyz
x,y,z
-x,y,1/2-z
-x,-y,-z
x,-y,1/2+z
1/2+x,1/2+y,z
1/2-x,1/2+y,1/2-z
1/2-x,1/2-y,-z
1/2+x,1/2-y,1/2+z
loop_
_atom_site_type_symbol
_atom_site_label
_atom_site_fract_x
_atom_site_fract_y
_atom_site_fract_z
Si Si1 0.579794 0.554794 0.582683
Si Si2 0.318961 0.030739 0.922049
Si Si3 0.272591 0.329648 0.447288
Si Si4 0.922432 0.724308 0.576602
Si Si5 0.777426 0.090041 0.569102
Si Si6 0.686870 0.673544 0.171500
O O1 0.500000 0.500000 0.500000
O O2 0.569400 0.697858 0.504477
O O3 0.640507 0.594887 0.752661
O O4 0.608652 0.417323 0.568383
O O5 0.285694 0.004874 0.967702
O O6 0.324423 0.209854 0.924249
O O7 0.256285 0.945959 0.761915
O O8 0.402430 0.952147 0.034767
O O9 0.250000 0.250000 0.500000
O O10 0.352943 0.287357 0.526384
O O11 0.282696 0.503059 0.486207
O O12 0.202941 0.290206 0.274416
O O13 0.000000 0.746875 0.750000
O O14 0.750000 0.250000 0.500000
#
# Coordination Sequence:
#
# PCOD8141769 Si02
#       6
#     8   8   8   8   8   8
#     4  11  24  44  61  92 128 168 213 258 322 390
#     4  10  21  40  60  92 122 162 206 259 308 380
#     4  11  19  38  63  89 121 163 204 254 312 375
#     4  11  24  41  64  87 130 169 210 256 323 378
#     4  11  23  36  64  94 126 154 216 260 310 377
#     4  10  21  37  64  88 123 161 209 250 313 372
#
# _framework density 20.124305
#
# number of rings (size 3 to 8) (size 9 to 14) (size 15 to 20)
#    0.000    1.333    5.000    5.000    7.000    0.000 
#    3.000    0.833    0.000    0.000    0.000    0.000 
#    0.000    0.000    0.000    0.000    0.000    0.000 
#
# Total GULP energy -297401.832752 kJ/mol
# GULP energy per Si atom -12391.743031 kJ/mol
# Density = 2.007850 g / cm^3
# Si number density = 20.124305 Si / 1000 Ang^3
#
#
#
# Elastic Constant Matrix: (Units=GPa)
#
#
# Indices 1 2 3 4 5 6 
#
# 1 69.0002 8.8824 11.6873 0.0000 19.3068 0.0000
# 2 8.8824 103.8430 11.2265 0.0000 12.8924 0.0000
# 3 11.6873 11.2265 67.8021 0.0000 10.7817 0.0000
# 4 0.0000 0.0000 0.0000 25.7069 0.0000 -10.6088
# 5 19.3068 12.8924 10.7817 0.0000 17.6430 0.0000
# 6 0.0000 0.0000 0.0000 -10.6088 0.0000 33.2734
#
#
#
# Elastic Compliance Matrix: (Units=1/GPa)
#
#
# Indices 1 2 3 4 5 6 
#
# 1 0.021016 0.001164 -0.000025 0.000000 -0.023833 0.000000
# 2 0.001164 0.010676 -0.000582 0.000000 -0.008719 0.000000
# 3 -0.000025 -0.000582 0.016368 0.000000 -0.009550 0.000000
# 4 0.000000 0.000000 0.000000 0.044794 0.000000 0.014282
# 5 -0.023833 -0.008719 -0.009550 0.000000 0.094967 0.000000
# 6 0.000000 0.000000 0.000000 0.014282 0.000000 0.034608
#
#
# Mechanical properties :
#
#
# Convention : Reuss Voigt Hill
#
# Bulk Modulus (GPa) = 20.33630 33.80419 27.07025
# Shear Modulus (GPa) = 21.03438 29.24793 25.14116
#
# Velocity S-wave (km/s) = 3.23650 3.81644 3.53837
# Velocity P-wave (km/s) = 4.90855 6.02116 5.49310
#
# Compressibility (1/GPa) = 0.04917314
#
# Stress axis : x y z
#
# Youngs Moduli (GPa) = 47.58337 93.66990 61.09447
#
# Poissons Ratio (x) = -0.10903 0.00156
# Poissons Ratio (y) = -0.05539 0.03554
# Poissons Ratio (z) = 0.00121 0.05449
#
# Static dielectric constant tensor:
#      x y z
#    x 3.644970 0.000000 -0.034430 
#    y 0.000000 4.265510 0.000000 
#    z -0.034430 0.000000 3.581320 
# 
# 
# High freq. dielectric constant tensor:
#      x y z
#    x 1.784120 0.000000 -0.012930 
#    y 0.000000 1.804520 0.000000 
#    z -0.012930 0.000000 1.761750 
# 
# From -- ./inp_files/177003.got.cif
#   From: 2010.06.25/outbox.cif.g09.slc.cpg/sg15_89_cif.got.tgz:177003.got - 2010.06.28 07:06:18.
