data_PCOD8141421
_publ_section_title
;
Structure prediction by ZEFSAII (Michael W. Deem and Ramdas Pophale) SiO2 
 PCOD8141421
Probable space group: C 2/C
;
_chemical_formula_sum "Si O2"
_cell_formula_units_Z 64
_cell_length_a 12.149806
_cell_length_b 24.881333
_cell_length_c 11.762568
_cell_angle_alpha 90.000000
_cell_angle_beta 110.084498
_cell_angle_gamma 90.000000
_cell_volume 3339.621887
_symmetry_space_group_name_H-M "C 2/C"
_symmetry_group_IT_number 15
_symmetry_cell_setting 'monoclinic'
loop_
_space_group_symop_operation_xyz
x,y,z
-x,y,1/2-z
-x,-y,-z
x,-y,1/2+z
1/2+x,1/2+y,z
1/2-x,1/2+y,1/2-z
1/2-x,1/2-y,-z
1/2+x,1/2-y,1/2+z
loop_
_atom_site_type_symbol
_atom_site_label
_atom_site_fract_x
_atom_site_fract_y
_atom_site_fract_z
Si Si1 0.899214 0.728645 0.445369
Si Si2 0.984309 0.437325 0.008028
Si Si3 0.674465 0.317531 0.532582
Si Si4 0.773810 0.373618 0.999099
Si Si5 0.388375 0.865895 0.269042
Si Si6 0.033776 0.830382 0.892353
Si Si7 0.934371 0.650990 0.112176
Si Si8 0.775340 0.781173 0.185149
O O1 0.808899 0.685296 0.463587
O O2 0.921723 0.772398 0.549909
O O3 0.849633 0.761356 0.318938
O O4 0.019245 0.696186 0.460085
O O5 0.056092 0.416581 0.143851
O O6 0.035591 0.409206 0.914546
O O7 0.000000 0.500000 0.000000
O O8 0.846237 0.420901 0.962118
O O9 0.570619 0.350180 0.559333
O O10 0.795424 0.349814 0.578319
O O11 0.689861 0.265384 0.614802
O O12 0.640779 0.300279 0.390595
O O13 0.634071 0.376596 0.933416
O O14 0.797926 0.383291 0.140324
O O15 0.500000 0.835327 0.250000
O O16 0.314743 0.829398 0.326737
O O17 0.000000 0.824335 0.750000
O O18 0.000000 0.665954 0.250000
#
# Coordination Sequence:
#
# PCOD8141421 Si02
#       8
#     8   8   8   8   8   8   8   8
#     4  11  22  35  57  88 128 174 212 254 304 367
#     4  10  23  43  69  93 113 152 211 283 334 365
#     4  11  24  34  55  84 128 172 210 246 306 383
#     4  10  23  39  58  91 128 160 211 264 315 374
#     4  10  21  36  63  89 126 154 207 262 317 377
#     4  12  26  35  55  87 131 178 212 241 304 386
#     4  11  22  38  56  87 123 156 206 262 311 370
#     4  11  20  36  54  87 129 174 212 252 303 381
#
# _framework density 19.163847000000001
#
# number of rings (size 3 to 8) (size 9 to 14) (size 15 to 20)
#    0.000    1.250    3.750    2.625    7.000    1.500 
#    0.000    0.000    0.000    0.750    0.000    0.000 
#    0.000    0.000    0.000    0.000    0.000    0.000 
#
# Total GULP energy -396542.256630 kJ/mol
# GULP energy per Si atom -12391.945520 kJ/mol
# Density = 1.912023 g / cm^3
# Si number density = 19.163847 Si / 1000 Ang^3
#
#
#
# Elastic Constant Matrix: (Units=GPa)
#
#
# Indices 1 2 3 4 5 6 
#
# 1 150.4302 55.1442 39.8987 0.0000 0.3985 0.0000
# 2 55.1442 102.2002 26.8441 0.0000 3.8915 0.0000
# 3 39.8987 26.8441 110.2989 0.0000 2.8991 0.0000
# 4 0.0000 0.0000 0.0000 18.4115 0.0000 -0.7843
# 5 0.3985 3.8915 2.8991 0.0000 25.9013 0.0000
# 6 0.0000 0.0000 0.0000 -0.7843 0.0000 19.6162
#
#
#
# Elastic Compliance Matrix: (Units=1/GPa)
#
#
# Indices 1 2 3 4 5 6 
#
# 1 0.008754 -0.004182 -0.002168 0.000000 0.000736 0.000000
# 2 -0.004182 0.012494 -0.001485 0.000000 -0.001647 0.000000
# 3 -0.002168 -0.001485 0.010235 0.000000 -0.000889 0.000000
# 4 0.000000 0.000000 0.000000 0.054407 0.000000 0.002175
# 5 0.000736 -0.001647 -0.000889 0.000000 0.038944 0.000000
# 6 0.000000 0.000000 0.000000 0.002175 0.000000 0.051065
#
#
# Mechanical properties :
#
#
# Convention : Reuss Voigt Hill
#
# Bulk Modulus (GPa) = 63.23708 67.41146 65.32427
# Shear Modulus (GPa) = 25.40154 28.85529 27.12841
#
# Velocity S-wave (km/s) = 3.64468 3.88456 3.76653
# Velocity P-wave (km/s) = 7.12610 7.44127 7.28539
#
# Compressibility (1/GPa) = 0.01581351
#
# Stress axis : x y z
#
# Youngs Moduli (GPa) = 114.23831 80.04004 97.70153
#
# Poissons Ratio (x) = 0.33471 0.21183
# Poissons Ratio (y) = 0.47772 0.14506
# Poissons Ratio (z) = 0.24768 0.11884
#
# Static dielectric constant tensor:
#      x y z
#    x 3.806800 0.000000 -0.156760 
#    y 0.000000 2.964770 0.000000 
#    z -0.156760 0.000000 3.746540 
# 
# 
# High freq. dielectric constant tensor:
#      x y z
#    x 1.757490 0.000000 -0.009230 
#    y 0.000000 1.677990 0.000000 
#    z -0.009230 0.000000 1.768030 
# 
# From -- ./inp_files/91288.got.cif
#   From: 2010.06.25/outbox.cif.g09.slc.cpg/sg15_46_cif.got.tgz:91288.got - 2010.06.28 07:06:18.
