data_PCOD8141841
_publ_section_title
;
Structure prediction by ZEFSAII (Michael W. Deem and Ramdas Pophale) SiO2 
 PCOD8141841
Probable space group: C 2/C
;
_chemical_formula_sum "Si O2"
_cell_formula_units_Z 56
_cell_length_a 11.507046
_cell_length_b 14.874656
_cell_length_c 16.643660
_cell_angle_alpha 90.000000
_cell_angle_beta 114.027222
_cell_angle_gamma 90.000000
_cell_volume 2601.943435
_symmetry_space_group_name_H-M "C 2/C"
_symmetry_group_IT_number 15
_symmetry_cell_setting 'monoclinic'
loop_
_space_group_symop_operation_xyz
x,y,z
-x,y,1/2-z
-x,-y,-z
x,-y,1/2+z
1/2+x,1/2+y,z
1/2-x,1/2+y,1/2-z
1/2-x,1/2-y,-z
1/2+x,1/2-y,1/2+z
loop_
_atom_site_type_symbol
_atom_site_label
_atom_site_fract_x
_atom_site_fract_y
_atom_site_fract_z
Si Si1 0.724206 0.144558 0.817545
Si Si2 0.262153 0.809563 0.924282
Si Si3 0.052470 0.670011 0.452657
Si Si4 0.641834 0.911975 0.132778
Si Si5 0.621397 0.480387 0.839861
Si Si6 0.927477 0.493591 0.646818
Si Si7 0.492392 0.345496 0.151980
O O1 0.700715 0.245329 0.840562
O O2 0.639650 0.145914 0.713512
O O3 0.685794 0.064785 0.869256
O O4 0.870873 0.130644 0.842395
O O5 0.404749 0.839721 0.939009
O O6 0.169716 0.895908 0.905351
O O7 0.250000 0.750000 0.000000
O O8 0.142718 0.653919 0.555887
O O9 0.107612 0.602906 0.399701
O O10 0.073332 0.767224 0.418468
O O11 0.511720 0.967711 0.097180
O O12 0.758686 0.981744 0.176709
O O13 0.500000 0.455354 0.750000
O O14 0.586692 0.563848 0.887693
O O15 0.000000 0.475984 0.750000
O O16 0.500000 0.322835 0.250000
#
# Coordination Sequence:
#
# PCOD8141841 Si02
#       7
#     8   8   8   8   8   8   8
#     4  10  22  42  68  96 136 173 226 280 329 409
#     4  11  25  43  71 101 135 177 224 283 337 399
#     4  11  23  39  70 100 133 175 226 285 339 396
#     4  11  21  40  69  99 132 174 223 283 336 399
#     4  11  23  43  71  92 137 180 218 261 346 396
#     4  10  21  37  68 100 129 171 228 280 340 398
#     4  10  21  44  66  93 139 179 222 278 339 407
#
# _framework density 21.522375
#
# number of rings (size 3 to 8) (size 9 to 14) (size 15 to 20)
#    0.000    1.429    4.286    1.714    2.000    3.429 
#    0.000    2.857    9.429    0.000    0.000    0.000 
#    0.000    0.000    0.000    0.000    0.000    0.000 
#
# Total GULP energy -346877.741671 kJ/mol
# GULP energy per Si atom -12388.490774 kJ/mol
# Density = 2.147339 g / cm^3
# Si number density = 21.522375 Si / 1000 Ang^3
#
#
#
# Elastic Constant Matrix: (Units=GPa)
#
#
# Indices 1 2 3 4 5 6 
#
# 1 93.1064 56.1841 25.6199 0.0000 -6.5183 0.0000
# 2 56.1841 160.2181 68.4761 0.0000 -2.3102 0.0000
# 3 25.6199 68.4761 103.7026 0.0000 -6.5950 0.0000
# 4 0.0000 0.0000 0.0000 33.7060 0.0000 1.4515
# 5 -6.5183 -2.3102 -6.5950 0.0000 22.9011 0.0000
# 6 0.0000 0.0000 0.0000 1.4515 0.0000 38.7134
#
#
#
# Elastic Compliance Matrix: (Units=1/GPa)
#
#
# Indices 1 2 3 4 5 6 
#
# 1 0.013893 -0.004805 -0.000039 0.000000 0.003458 0.000000
# 2 -0.004805 0.010372 -0.005788 0.000000 -0.001988 0.000000
# 3 -0.000039 -0.005788 0.013687 0.000000 0.003347 0.000000
# 4 0.000000 0.000000 0.000000 0.029716 0.000000 -0.001114
# 5 0.003458 -0.001988 0.003347 0.000000 0.045414 0.000000
# 6 0.000000 0.000000 0.000000 -0.001114 0.000000 0.025873
#
#
# Mechanical properties :
#
#
# Convention : Reuss Voigt Hill
#
# Bulk Modulus (GPa) = 59.92679 73.06526 66.49602
# Shear Modulus (GPa) = 30.16022 32.84722 31.50372
#
# Velocity S-wave (km/s) = 3.74751 3.91089 3.83007
# Velocity P-wave (km/s) = 6.82858 7.37669 7.10792
#
# Compressibility (1/GPa) = 0.01668703
#
# Stress axis : x y z
#
# Youngs Moduli (GPa) = 71.97868 96.41792 73.06065
#
# Poissons Ratio (x) = 0.46330 0.00288
# Poissons Ratio (y) = 0.34587 0.42286
# Poissons Ratio (z) = 0.00284 0.55804
#
# Static dielectric constant tensor:
#      x y z
#    x 4.038960 0.000000 -0.109310 
#    y 0.000000 4.301600 0.000000 
#    z -0.109310 0.000000 3.837920 
# 
# 
# High freq. dielectric constant tensor:
#      x y z
#    x 1.846350 0.000000 -0.005410 
#    y 0.000000 1.848440 0.000000 
#    z -0.005410 0.000000 1.835310 
# 
# From -- ./inp_files/197926.got.cif
#   From: 2010.06.25/outbox.cif.g09.slc.cpg/sg15_99_cif.got.tgz:197926.got - 2010.06.28 07:06:18.
