data_PCOD8141175
_publ_section_title
;
Structure prediction by ZEFSAII (Michael W. Deem and Ramdas Pophale) SiO2 
 PCOD8141175
Probable space group: C 2/C
;
_chemical_formula_sum "Si O2"
_cell_formula_units_Z 60
_cell_length_a 16.653714
_cell_length_b 21.583820
_cell_length_c 12.763504
_cell_angle_alpha 90.000000
_cell_angle_beta 40.332900
_cell_angle_gamma 90.000000
_cell_volume 2969.384007
_symmetry_space_group_name_H-M "C 2/C"
_symmetry_group_IT_number 15
_symmetry_cell_setting 'monoclinic'
loop_
_space_group_symop_operation_xyz
x,y,z
-x,y,1/2-z
-x,-y,-z
x,-y,1/2+z
1/2+x,1/2+y,z
1/2-x,1/2+y,1/2-z
1/2-x,1/2-y,-z
1/2+x,1/2-y,1/2+z
loop_
_atom_site_type_symbol
_atom_site_label
_atom_site_fract_x
_atom_site_fract_y
_atom_site_fract_z
Si Si1 0.594344 0.787150 0.570244
Si Si2 0.140453 0.077982 0.089682
Si Si3 0.130481 0.219774 0.061662
Si Si4 0.000000 0.494270 0.750000
Si Si5 0.268194 0.036461 0.361098
Si Si6 0.278381 0.668412 0.039089
Si Si7 0.338746 0.929631 0.565188
Si Si8 0.907853 0.303695 0.590405
O O1 0.500000 0.812841 0.750000
O O2 0.601661 0.712012 0.570440
O O3 0.723214 0.820864 0.475988
O O4 0.547621 0.803741 0.499637
O O5 0.151078 0.146200 0.030102
O O6 0.211257 0.076537 0.129082
O O7 0.000000 0.058455 0.250000
O O8 0.198961 0.027491 0.953215
O O9 0.000000 0.234505 0.250000
O O10 0.250000 0.250000 0.000000
O O11 0.118667 0.244005 0.954821
O O12 0.892004 0.452718 0.807508
O O13 0.054300 0.535853 0.603597
O O14 0.185683 0.096959 0.472571
O O15 0.305706 0.033524 0.203057
O O16 0.186760 0.695048 0.219467
O O17 0.395155 0.862650 0.529226
#
# Coordination Sequence:
#
# PCOD8141175 Si02
#       8
#     8   8   8   4   8   8   8   8
#     4   9  19  37  58  87 119 152 197 256 307 367
#     4  10  23  43  60  88 127 162 209 256 305 367
#     4  11  24  40  63  91 128 166 205 261 313 370
#     4  10  22  38  58  90 124 152 196 258 304 372
#     4  10  22  38  62  85 121 164 201 246 307 367
#     4   9  20  37  58  88 121 154 202 252 309 369
#     4  10  21  39  60  89 120 156 205 253 310 369
#     4  10  21  35  62  87 115 159 199 254 313 366
#
# _framework density 20.206211
#
# number of rings (size 3 to 8) (size 9 to 14) (size 15 to 20)
#    0.000    2.133    1.333    0.400    7.467    2.133 
#    0.000    5.333    0.000    0.000    0.000    0.000 
#    0.000    0.000    0.000    0.000    0.000    0.000 
#
# Total GULP energy -371866.353453 kJ/mol
# GULP energy per Si atom -12395.545115 kJ/mol
# Density = 2.016022 g / cm^3
# Si number density = 20.206211 Si / 1000 Ang^3
#
#
#
# Elastic Constant Matrix: (Units=GPa)
#
#
# Indices 1 2 3 4 5 6 
#
# 1 91.8678 41.2937 43.0374 -0.0014 9.0687 0.0011
# 2 41.2937 122.2232 49.4565 -0.0004 9.7576 -0.0002
# 3 43.0374 49.4565 59.6628 -0.0011 8.1385 0.0023
# 4 -0.0014 -0.0004 -0.0011 30.1851 0.0006 6.3143
# 5 9.0687 9.7576 8.1385 0.0006 34.0712 -0.0006
# 6 0.0011 -0.0002 0.0023 6.3143 -0.0006 19.0050
#
#
#
# Elastic Compliance Matrix: (Units=1/GPa)
#
#
# Indices 1 2 3 4 5 6 
#
# 1 0.016622 -0.001094 -0.010877 0.000000 -0.001513 0.000000
# 2 -0.001094 0.012425 -0.009370 -0.000001 -0.001029 0.000002
# 3 -0.010877 -0.009370 0.032678 0.000001 -0.002227 -0.000004
# 4 0.000000 -0.000001 0.000001 0.035603 -0.000001 -0.011829
# 5 -0.001513 -0.001029 -0.002227 -0.000001 0.030580 0.000002
# 6 0.000000 0.000002 -0.000004 -0.011829 0.000002 0.056548
#
#
# Mechanical properties :
#
#
# Convention : Reuss Voigt Hill
#
# Bulk Modulus (GPa) = 52.51307 60.14769 56.33038
# Shear Modulus (GPa) = 21.41466 25.98334 23.69900
#
# Velocity S-wave (km/s) = 3.25900 3.58985 3.42842
# Velocity P-wave (km/s) = 6.34085 6.85669 6.60381
#
# Compressibility (1/GPa) = 0.01904288
#
# Stress axis : x y z
#
# Youngs Moduli (GPa) = 60.16224 80.48305 30.60164
#
# Poissons Ratio (x) = 0.08802 0.33286
# Poissons Ratio (y) = 0.06580 0.28674
# Poissons Ratio (z) = 0.65439 0.75414
#
# Static dielectric constant tensor:
#      x y z
#    x 3.961840 0.000000 -0.007220 
#    y 0.000000 3.669180 0.000000 
#    z -0.007220 0.000000 3.486340 
# 
# 
# High freq. dielectric constant tensor:
#      x y z
#    x 1.802380 0.000000 0.005160 
#    y 0.000000 1.792380 0.000000 
#    z 0.005160 0.000000 1.769240 
# 
# From -- ./inp_files/108095.got.cif
#   From: 2010.06.25/outbox.cif.g09.slc.cpg/sg15_55_cif.got.tgz:108095.got - 2010.06.28 07:06:18.
