data_PCOD8141742
_publ_section_title
;
Structure prediction by ZEFSAII (Michael W. Deem and Ramdas Pophale) SiO2 
 PCOD8141742
Probable space group: C 2/C
;
_chemical_formula_sum "Si O2"
_cell_formula_units_Z 44
_cell_length_a 12.899116
_cell_length_b 8.690558
_cell_length_c 18.673863
_cell_angle_alpha 90.000000
_cell_angle_beta 104.945751
_cell_angle_gamma 90.000000
_cell_volume 2022.532594
_symmetry_space_group_name_H-M "C 2/C"
_symmetry_group_IT_number 15
_symmetry_cell_setting 'monoclinic'
loop_
_space_group_symop_operation_xyz
x,y,z
-x,y,1/2-z
-x,-y,-z
x,-y,1/2+z
1/2+x,1/2+y,z
1/2-x,1/2+y,1/2-z
1/2-x,1/2-y,-z
1/2+x,1/2-y,1/2+z
loop_
_atom_site_type_symbol
_atom_site_label
_atom_site_fract_x
_atom_site_fract_y
_atom_site_fract_z
Si Si1 0.092490 0.594712 0.656567
Si Si2 0.079756 0.067309 0.115548
Si Si3 0.864468 0.061059 0.010681
Si Si4 0.821988 0.645028 0.420775
Si Si5 0.500000 0.879462 0.750000
Si Si6 0.686357 0.676956 0.725899
O O1 0.047405 0.761207 0.631043
O O2 0.104021 0.499864 0.585141
O O3 0.003317 0.497601 0.684074
O O4 0.206896 0.619819 0.716181
O O5 0.969017 0.992080 0.068384
O O6 0.123043 0.977307 0.192107
O O7 0.162402 0.050947 0.062393
O O8 0.774012 0.066570 0.053603
O O9 0.883616 0.232490 0.981152
O O10 0.783645 0.722985 0.338940
O O11 0.608568 0.775256 0.765632
#
# Coordination Sequence:
#
# PCOD8141742 Si02
#       6
#     8   8   8   8   4   8
#     4  11  23  39  62  96 120 163 211 258 315 377
#     4  10  21  37  63  88 118 160 212 246 312 378
#     4   9  20  39  59  87 118 167 199 253 310 364
#     4   9  20  39  59  84 127 156 204 261 301 371
#     4  10  24  40  58  90 128 162 198 258 322 360
#     4  10  22  41  60  91 125 162 207 260 318 375
#
# _framework density 21.754902999999999
#
# number of rings (size 3 to 8) (size 9 to 14) (size 15 to 20)
#    0.000    2.182    0.000    2.182    5.091    2.182 
#    3.273    0.000    0.000    0.000    0.000    0.000 
#    0.000    0.000    0.000    0.000    0.000    0.000 
#
# Total GULP energy -272554.815426 kJ/mol
# GULP energy per Si atom -12388.855247 kJ/mol
# Density = 2.170539 g / cm^3
# Si number density = 21.754903 Si / 1000 Ang^3
#
#
#
# Elastic Constant Matrix: (Units=GPa)
#
#
# Indices 1 2 3 4 5 6 
#
# 1 76.7211 9.6122 41.5561 0.0000 -31.1355 0.0000
# 2 9.6122 84.1692 23.9553 0.0000 -30.3794 0.0000
# 3 41.5561 23.9553 68.2082 0.0000 -21.2968 0.0000
# 4 0.0000 0.0000 0.0000 25.4371 0.0000 -2.1251
# 5 -31.1355 -30.3794 -21.2968 0.0000 45.7030 0.0000
# 6 0.0000 0.0000 0.0000 -2.1251 0.0000 32.6974
#
#
#
# Elastic Compliance Matrix: (Units=1/GPa)
#
#
# Indices 1 2 3 4 5 6 
#
# 1 0.025616 0.006424 -0.012968 0.000000 0.015679 0.000000
# 2 0.006424 0.017655 -0.005950 0.000000 0.013340 0.000000
# 3 -0.012968 -0.005950 0.024175 0.000000 -0.001524 0.000000
# 4 0.000000 0.000000 0.000000 0.039527 0.000000 0.002569
# 5 0.015679 0.013340 -0.001524 0.000000 0.040719 0.000000
# 6 0.000000 0.000000 0.000000 0.002569 0.000000 0.030750
#
#
# Mechanical properties :
#
#
# Convention : Reuss Voigt Hill
#
# Bulk Modulus (GPa) = 23.55100 42.14952 32.85026
# Shear Modulus (GPa) = 22.97978 31.03249 27.00613
#
# Velocity S-wave (km/s) = 3.25361 3.78095 3.52715
# Velocity P-wave (km/s) = 4.99637 6.20303 5.63211
#
# Compressibility (1/GPa) = 0.04246104
#
# Stress axis : x y z
#
# Youngs Moduli (GPa) = 39.03790 56.64038 41.36450
#
# Poissons Ratio (x) = -0.36387 0.53640
# Poissons Ratio (y) = -0.25079 0.24610
# Poissons Ratio (z) = 0.50623 0.33698
#
# Static dielectric constant tensor:
#      x y z
#    x 3.747110 0.000000 -0.339030 
#    y 0.000000 4.154970 0.000000 
#    z -0.339030 0.000000 4.022320 
# 
# 
# High freq. dielectric constant tensor:
#      x y z
#    x 1.833890 0.000000 -0.019210 
#    y 0.000000 1.864090 0.000000 
#    z -0.019210 0.000000 1.853840 
# 
# From -- ./inp_files/202640.got.cif
#   From: 2010.06.25/outbox.cif.g09.slc.cpg/sg15_102_cif.got.tgz:202640.got - 2010.06.28 07:06:18.
