data_PCOD8141239
_publ_section_title
;
Structure prediction by ZEFSAII (Michael W. Deem and Ramdas Pophale) SiO2 
 PCOD8141239
Probable space group: C 2/C
;
_chemical_formula_sum "Si O2"
_cell_formula_units_Z 64
_cell_length_a 10.954240
_cell_length_b 17.393815
_cell_length_c 23.987586
_cell_angle_alpha 90.000000
_cell_angle_beta 50.208842
_cell_angle_gamma 90.000000
_cell_volume 3511.890724
_symmetry_space_group_name_H-M "C 2/C"
_symmetry_group_IT_number 15
_symmetry_cell_setting 'monoclinic'
loop_
_space_group_symop_operation_xyz
x,y,z
-x,y,1/2-z
-x,-y,-z
x,-y,1/2+z
1/2+x,1/2+y,z
1/2-x,1/2+y,1/2-z
1/2-x,1/2-y,-z
1/2+x,1/2-y,1/2+z
loop_
_atom_site_type_symbol
_atom_site_label
_atom_site_fract_x
_atom_site_fract_y
_atom_site_fract_z
Si Si1 0.181326 0.316809 0.838442
Si Si2 0.322289 0.829657 0.963389
Si Si3 0.164687 0.477148 0.478939
Si Si4 0.117092 0.945976 0.670428
Si Si5 0.096992 0.180699 0.324584
Si Si6 0.391129 0.802485 0.336065
Si Si7 0.385573 0.597590 0.069107
Si Si8 0.770603 0.944535 0.060678
O O1 0.237352 0.400453 0.843670
O O2 0.248144 0.302196 0.757320
O O3 0.238652 0.249047 0.863424
O O4 0.993412 0.316825 0.886187
O O5 0.196513 0.866831 0.959660
O O6 0.250000 0.750000 0.000000
O O7 0.336690 0.885325 0.012651
O O8 0.312443 0.494308 0.394600
O O9 0.179884 0.520389 0.533850
O O10 0.000000 0.500000 0.500000
O O11 0.000000 0.987604 0.750000
O O12 0.006932 0.885383 0.672164
O O13 0.157874 0.151769 0.366339
O O14 0.989603 0.258118 0.355998
O O15 0.500000 0.814784 0.250000
O O16 0.341751 0.884619 0.374767
O O17 0.321442 0.509540 0.091354
O O18 0.574739 0.599384 0.006840
#
# Coordination Sequence:
#
# PCOD8141239 Si02
#       8
#     8   8   8   8   8   8   8   8
#     4   9  18  36  58  82 109 147 187 234 279 341
#     4  11  23  36  55  80 114 151 186 228 293 339
#     4  11  21  37  60  84 114 145 194 245 278 347
#     4   9  17  35  61  84 106 141 190 236 285 329
#     4   9  18  35  60  81 108 148 192 229 281 346
#     4   9  19  37  60  85 111 144 193 245 281 328
#     4  10  21  36  55  80 112 154 182 228 287 351
#     4  10  21  37  54  84 119 143 188 237 288 337
#
# _framework density 18.223801000000002
#
# number of rings (size 3 to 8) (size 9 to 14) (size 15 to 20)
#    0.000    2.250    2.500    2.250    0.000    2.000 
#    4.500    0.000    5.500    0.000    0.000    0.000 
#    0.000    0.000    0.000    0.000    0.000    0.000 
#
# Total GULP energy -396680.616334 kJ/mol
# GULP energy per Si atom -12396.269260 kJ/mol
# Density = 1.818232 g / cm^3
# Si number density = 18.223801 Si / 1000 Ang^3
#
#
#
# Elastic Constant Matrix: (Units=GPa)
#
#
# Indices 1 2 3 4 5 6 
#
# 1 82.2453 33.2769 27.1325 0.0000 -5.7948 -0.0001
# 2 33.2769 111.3408 55.9030 -0.0001 -2.6870 0.0000
# 3 27.1325 55.9030 84.1943 -0.0003 -5.0775 -0.0001
# 4 0.0000 -0.0001 -0.0003 22.7356 0.0000 0.3441
# 5 -5.7948 -2.6870 -5.0775 0.0000 30.2947 0.0001
# 6 -0.0001 0.0000 -0.0001 0.3441 0.0001 21.9639
#
#
#
# Elastic Compliance Matrix: (Units=1/GPa)
#
#
# Indices 1 2 3 4 5 6 
#
# 1 0.014338 -0.002967 -0.002526 0.000000 0.002056 0.000000
# 2 -0.002967 0.014090 -0.008443 0.000000 -0.000733 0.000000
# 3 -0.002526 -0.008443 0.018409 0.000000 0.001853 0.000000
# 4 0.000000 0.000000 0.000000 0.043994 0.000000 -0.000689
# 5 0.002056 -0.000733 0.001853 0.000000 0.033648 0.000000
# 6 0.000000 0.000000 0.000000 -0.000689 0.000000 0.045540
#
#
# Mechanical properties :
#
#
# Convention : Reuss Voigt Hill
#
# Bulk Modulus (GPa) = 52.73371 56.71170 54.72270
# Shear Modulus (GPa) = 24.48415 25.76337 25.12376
#
# Velocity S-wave (km/s) = 3.66939 3.76403 3.71701
# Velocity P-wave (km/s) = 6.85216 7.07656 6.96526
#
# Compressibility (1/GPa) = 0.01896320
#
# Stress axis : x y z
#
# Youngs Moduli (GPa) = 69.74700 70.97312 54.32000
#
# Poissons Ratio (x) = 0.21058 0.13723
# Poissons Ratio (y) = 0.20694 0.45864
# Poissons Ratio (z) = 0.17621 0.59925
#
# Static dielectric constant tensor:
#      x y z
#    x 3.469140 0.000000 0.193770 
#    y 0.000000 3.690700 0.000000 
#    z 0.193770 0.000000 3.863080 
# 
# 
# High freq. dielectric constant tensor:
#      x y z
#    x 1.707420 0.000000 -0.007040 
#    y 0.000000 1.697530 0.000000 
#    z -0.007040 0.000000 1.700940 
# 
# From -- ./inp_files/199142.got.cif
#   From: 2010.06.25/outbox.cif.g09.slc.cpg/sg15_100_cif.got.tgz:199142.got - 2010.06.28 07:06:18.
