data_PCOD8141795
_publ_section_title
;
Structure prediction by ZEFSAII (Michael W. Deem and Ramdas Pophale) SiO2 
 PCOD8141795
Probable space group: C 2/C
;
_chemical_formula_sum "Si O2"
_cell_formula_units_Z 48
_cell_length_a 16.301676
_cell_length_b 7.285860
_cell_length_c 20.150134
_cell_angle_alpha 90.000000
_cell_angle_beta 74.209717
_cell_angle_gamma 90.000000
_cell_volume 2302.954336
_symmetry_space_group_name_H-M "C 2/C"
_symmetry_group_IT_number 15
_symmetry_cell_setting 'monoclinic'
loop_
_space_group_symop_operation_xyz
x,y,z
-x,y,1/2-z
-x,-y,-z
x,-y,1/2+z
1/2+x,1/2+y,z
1/2-x,1/2+y,1/2-z
1/2-x,1/2-y,-z
1/2+x,1/2-y,1/2+z
loop_
_atom_site_type_symbol
_atom_site_label
_atom_site_fract_x
_atom_site_fract_y
_atom_site_fract_z
Si Si1 0.012489 0.876952 0.355402
Si Si2 0.108388 0.795367 0.595341
Si Si3 0.738487 0.931363 0.858293
Si Si4 0.430539 0.850295 0.535848
Si Si5 0.578131 0.043245 0.192216
Si Si6 0.816955 0.782992 0.246999
O O1 0.028919 0.802868 0.425673
O O2 0.099578 0.898002 0.294030
O O3 0.948315 0.737156 0.334172
O O4 0.971419 0.078211 0.367004
O O5 0.195692 0.894737 0.596783
O O6 0.108585 0.760658 0.517038
O O7 0.105209 0.598088 0.630415
O O8 0.644650 0.958164 0.909524
O O9 0.739714 0.763558 0.805214
O O10 0.761676 0.115141 0.814119
O O11 0.500000 0.000000 0.500000
O O12 0.500000 0.954975 0.250000
O O13 0.654602 0.088639 0.226415
#
# Coordination Sequence:
#
# PCOD8141795 Si02
#       6
#     8   8   8   8   8   8
#     4  10  22  42  66  95 127 168 213 265 314 389
#     4  12  23  40  70  93 127 173 213 262 327 377
#     4  11  24  40  66  95 132 165 213 270 319 376
#     4  11  24  45  63  92 131 173 217 263 316 390
#     4  10  21  37  64  99 128 161 214 262 312 384
#     4  10  22  42  62  98 137 159 214 272 322 384
#
# _framework density 20.842793
#
# number of rings (size 3 to 8) (size 9 to 14) (size 15 to 20)
#    0.000    1.333    3.333    2.000    2.333    1.333 
#    0.000    5.000    0.000    0.000    0.000    0.000 
#    0.000    0.000    0.000    0.000    0.000    0.000 
#
# Total GULP energy -297652.363707 kJ/mol
# GULP energy per Si atom -12402.181821 kJ/mol
# Density = 2.079535 g / cm^3
# Si number density = 20.842793 Si / 1000 Ang^3
#
#
#
# Elastic Constant Matrix: (Units=GPa)
#
#
# Indices 1 2 3 4 5 6 
#
# 1 93.1700 26.4690 41.1953 0.0000 8.6977 0.0000
# 2 26.4690 71.1171 33.9472 0.0001 -10.6055 0.0001
# 3 41.1953 33.9472 111.6987 0.0000 5.8370 0.0000
# 4 0.0000 0.0001 0.0000 39.0638 0.0000 0.5993
# 5 8.6977 -10.6055 5.8370 0.0000 41.3715 0.0000
# 6 0.0000 0.0001 0.0000 0.5993 0.0000 16.9333
#
#
#
# Elastic Compliance Matrix: (Units=1/GPa)
#
#
# Indices 1 2 3 4 5 6 
#
# 1 0.013795 -0.003849 -0.003742 0.000000 -0.003359 0.000000
# 2 -0.003849 0.018597 -0.004557 0.000000 0.006219 0.000000
# 3 -0.003742 -0.004557 0.011825 0.000000 -0.002050 0.000000
# 4 0.000000 0.000000 0.000000 0.025613 0.000000 -0.000906
# 5 -0.003359 0.006219 -0.002050 0.000000 0.026761 0.000000
# 6 0.000000 0.000000 0.000000 -0.000906 0.000000 0.059087
#
#
# Mechanical properties :
#
#
# Convention : Reuss Voigt Hill
#
# Bulk Modulus (GPa) = 50.20223 53.24541 51.72382
# Shear Modulus (GPa) = 26.79316 31.09866 28.94591
#
# Velocity S-wave (km/s) = 3.58926 3.86691 3.73067
# Velocity P-wave (km/s) = 6.42771 6.74826 6.58993
#
# Compressibility (1/GPa) = 0.01991943
#
# Stress axis : x y z
#
# Youngs Moduli (GPa) = 72.49150 53.77297 84.56607
#
# Poissons Ratio (x) = 0.20696 0.31648
# Poissons Ratio (y) = 0.27900 0.38540
# Poissons Ratio (z) = 0.27129 0.24507
#
# Static dielectric constant tensor:
#      x y z
#    x 3.965800 0.000000 0.257830 
#    y 0.000000 3.431670 0.000000 
#    z 0.257830 0.000000 3.868090 
# 
# 
# High freq. dielectric constant tensor:
#      x y z
#    x 1.828070 0.000000 0.016930 
#    y 0.000000 1.798910 0.000000 
#    z 0.016930 0.000000 1.824000 
# 
# From -- ./inp_files/275854.got.cif
#   From: 2010.06.25/outbox.cif.g09.slc.cpg/sg15_138_cif.got.tgz:275854.got - 2010.06.28 07:06:18.
