data_PCOD8141709
_publ_section_title
;
Structure prediction by ZEFSAII (Michael W. Deem and Ramdas Pophale) SiO2 
 PCOD8141709
Probable space group: C 2/C
;
_chemical_formula_sum "Si O2"
_cell_formula_units_Z 60
_cell_length_a 19.673238
_cell_length_b 12.278353
_cell_length_c 11.848806
_cell_angle_alpha 90.000000
_cell_angle_beta 88.089672
_cell_angle_gamma 90.000000
_cell_volume 2860.547159
_symmetry_space_group_name_H-M "C 2/C"
_symmetry_group_IT_number 15
_symmetry_cell_setting 'monoclinic'
loop_
_space_group_symop_operation_xyz
x,y,z
-x,y,1/2-z
-x,-y,-z
x,-y,1/2+z
1/2+x,1/2+y,z
1/2-x,1/2+y,1/2-z
1/2-x,1/2-y,-z
1/2+x,1/2-y,1/2+z
loop_
_atom_site_type_symbol
_atom_site_label
_atom_site_fract_x
_atom_site_fract_y
_atom_site_fract_z
Si Si1 0.865878 0.062638 0.657747
Si Si2 0.229884 0.819646 0.169121
Si Si3 0.658040 0.912971 0.185164
Si Si4 0.036883 0.340865 0.045252
Si Si5 0.253598 0.584539 0.076670
Si Si6 0.053239 0.516005 0.338644
Si Si7 0.454847 0.396512 0.967603
Si Si8 0.500000 0.520879 0.250000
O O1 0.833972 0.145669 0.749641
O O2 0.879263 0.108633 0.529190
O O3 0.821306 0.953026 0.641954
O O4 0.944979 0.050636 0.686703
O O5 0.295455 0.832533 0.244494
O O6 0.223584 0.693786 0.134492
O O7 0.231947 0.895102 0.056772
O O8 0.600600 0.840622 0.127839
O O9 0.699742 0.985796 0.092308
O O10 0.624951 0.995851 0.275899
O O11 0.009580 0.220808 0.016158
O O12 0.973510 0.405655 0.100483
O O13 0.064794 0.391923 0.929241
O O14 0.000000 0.559670 0.250000
O O15 0.450976 0.406328 0.832188
O O16 0.500000 0.500000 0.000000
#
# Coordination Sequence:
#
# PCOD8141709 Si02
#       8
#     8   8   8   8   8   8   8   4
#     4  10  22  42  61  92 126 162 212 261 317 379
#     4  10  22  40  63  87 123 169 207 264 323 379
#     4  10  21  37  62  90 120 163 209 262 319 374
#     4  10  21  38  61  92 125 161 217 255 316 380
#     4  10  22  40  61  90 125 163 215 261 321 387
#     4   9  20  38  60  90 125 164 206 264 312 373
#     4  10  23  39  60  92 125 164 204 256 311 376
#     4  10  22  40  64  86 130 164 206 260 314 384
#
# _framework density 20.975009
#
# number of rings (size 3 to 8) (size 9 to 14) (size 15 to 20)
#    0.000    2.133    0.000    1.600    6.533    1.067 
#    4.800   10.667    0.000    0.000    0.000    0.000 
#    0.000    0.000    0.000    0.000    0.000    0.000 
#
# Total GULP energy -371691.756057 kJ/mol
# GULP energy per Si atom -12389.725202 kJ/mol
# Density = 2.092727 g / cm^3
# Si number density = 20.975009 Si / 1000 Ang^3
#
#
#
# Elastic Constant Matrix: (Units=GPa)
#
#
# Indices 1 2 3 4 5 6 
#
# 1 77.9992 21.4943 33.2595 0.0000 -17.0800 0.0000
# 2 21.4943 103.0907 42.9645 0.0000 5.6371 0.0000
# 3 33.2595 42.9645 123.5357 0.0000 -34.3262 0.0000
# 4 0.0000 0.0000 0.0000 21.9531 0.0000 3.2029
# 5 -17.0800 5.6371 -34.3262 0.0000 36.4427 0.0000
# 6 0.0000 0.0000 0.0000 3.2029 0.0000 13.6440
#
#
#
# Elastic Compliance Matrix: (Units=1/GPa)
#
#
# Indices 1 2 3 4 5 6 
#
# 1 0.015672 -0.003076 -0.001323 0.000000 0.006575 0.000000
# 2 -0.003076 0.013647 -0.006644 0.000000 -0.009811 0.000000
# 3 -0.001323 -0.006644 0.014730 0.000000 0.014283 0.000000
# 4 0.000000 0.000000 0.000000 0.047167 0.000000 -0.011072
# 5 0.006575 -0.009811 0.014283 0.000000 0.045493 0.000000
# 6 0.000000 0.000000 0.000000 -0.011072 0.000000 0.075891
#
#
# Mechanical properties :
#
#
# Convention : Reuss Voigt Hill
#
# Bulk Modulus (GPa) = 45.52929 55.56245 50.54587
# Shear Modulus (GPa) = 20.66047 28.20180 24.43114
#
# Velocity S-wave (km/s) = 3.14188 3.67078 3.41658
# Velocity P-wave (km/s) = 5.90893 6.67184 6.30194
#
# Compressibility (1/GPa) = 0.02196388
#
# Stress axis : x y z
#
# Youngs Moduli (GPa) = 63.80782 73.27549 67.88653
#
# Poissons Ratio (x) = 0.22539 0.08979
# Poissons Ratio (y) = 0.19627 0.45106
# Poissons Ratio (z) = 0.08439 0.48687
#
# Static dielectric constant tensor:
#      x y z
#    x 3.707030 0.000000 -0.369380 
#    y 0.000000 3.598610 0.000000 
#    z -0.369380 0.000000 4.487680 
# 
# 
# High freq. dielectric constant tensor:
#      x y z
#    x 1.809720 0.000000 -0.018870 
#    y 0.000000 1.804640 0.000000 
#    z -0.018870 0.000000 1.847670 
# 
# From -- ./inp_files/111645.got.cif
#   From: 2010.06.25/outbox.cif.g09.slc.cpg/sg15_56_cif.got.tgz:111645.got - 2010.06.28 07:06:18.
