data_PCOD8141900
_publ_section_title
;
Structure prediction by ZEFSAII (Michael W. Deem and Ramdas Pophale) SiO2 
 PCOD8141900
Probable space group: C 2/C
;
_chemical_formula_sum "Si O2"
_cell_formula_units_Z 48
_cell_length_a 19.533332
_cell_length_b 8.526721
_cell_length_c 14.369058
_cell_angle_alpha 90.000000
_cell_angle_beta 98.810131
_cell_angle_gamma 90.000000
_cell_volume 2365.005253
_symmetry_space_group_name_H-M "C 2/C"
_symmetry_group_IT_number 15
_symmetry_cell_setting 'monoclinic'
loop_
_space_group_symop_operation_xyz
x,y,z
-x,y,1/2-z
-x,-y,-z
x,-y,1/2+z
1/2+x,1/2+y,z
1/2-x,1/2+y,1/2-z
1/2-x,1/2-y,-z
1/2+x,1/2-y,1/2+z
loop_
_atom_site_type_symbol
_atom_site_label
_atom_site_fract_x
_atom_site_fract_y
_atom_site_fract_z
Si Si1 0.676038 0.862262 0.389021
Si Si2 0.576687 0.898382 0.935206
Si Si3 0.927089 0.079401 0.459627
Si Si4 0.926717 0.428875 0.878078
Si Si5 0.075687 0.737981 0.725131
Si Si6 0.826633 0.191063 0.921379
O O1 0.630150 0.736522 0.320519
O O2 0.753617 0.866557 0.361471
O O3 0.686408 0.808515 0.496656
O O4 0.638356 0.035083 0.381231
O O5 0.504928 0.884940 0.861713
O O6 0.591857 0.728767 0.981321
O O7 0.567514 0.032649 0.011053
O O8 0.925452 0.122051 0.349655
O O9 0.866554 0.959058 0.468344
O O10 0.000000 0.000000 0.500000
O O11 0.898149 0.577553 0.816985
O O12 0.873799 0.282604 0.854334
O O13 0.000000 0.717189 0.750000
#
# Coordination Sequence:
#
# PCOD8141900 Si02
#       6
#     8   8   8   8   8   8
#     4  10  21  38  59  82 114 151 199 238 284 353
#     4   9  17  33  57  80 105 147 188 222 276 355
#     4  11  21  35  59  86 118 151 187 239 302 349
#     4   9  17  33  56  78 105 146 191 220 276 351
#     4  11  21  35  58  84 111 151 199 242 280 341
#     4  10  21  38  58  83 115 154 185 239 303 348
#
# _framework density 20.295939000000001
#
# number of rings (size 3 to 8) (size 9 to 14) (size 15 to 20)
#    0.000    2.000    3.333    1.000    0.000    2.000 
#    0.000    4.167    0.000    0.000    0.000    0.000 
#    0.000    0.000    0.000    0.000    0.000    0.000 
#
# Total GULP energy -297437.812074 kJ/mol
# GULP energy per Si atom -12393.242170 kJ/mol
# Density = 2.024974 g / cm^3
# Si number density = 20.295939 Si / 1000 Ang^3
#
#
#
# Elastic Constant Matrix: (Units=GPa)
#
#
# Indices 1 2 3 4 5 6 
#
# 1 183.0779 52.0589 13.6157 0.0000 15.5883 0.0000
# 2 52.0589 93.0967 -0.3650 0.0000 -5.7579 0.0000
# 3 13.6157 -0.3650 37.8292 0.0000 7.1513 0.0000
# 4 0.0000 0.0000 0.0000 25.5302 0.0000 -2.8879
# 5 15.5883 -5.7579 7.1513 0.0000 21.5413 0.0000
# 6 0.0000 0.0000 0.0000 -2.8879 0.0000 32.3623
#
#
#
# Elastic Compliance Matrix: (Units=1/GPa)
#
#
# Indices 1 2 3 4 5 6 
#
# 1 0.007370 -0.004500 -0.001558 0.000000 -0.006019 0.000000
# 2 -0.004500 0.013677 0.000475 0.000000 0.006754 0.000000
# 3 -0.001558 0.000475 0.028555 0.000000 -0.008225 0.000000
# 4 0.000000 0.000000 0.000000 0.039569 0.000000 0.003531
# 5 -0.006019 0.006754 -0.008225 0.000000 0.055314 0.000000
# 6 0.000000 0.000000 0.000000 0.003531 0.000000 0.031215
#
#
# Mechanical properties :
#
#
# Convention : Reuss Voigt Hill
#
# Bulk Modulus (GPa) = 26.01749 49.40254 37.71002
# Shear Modulus (GPa) = 25.04026 32.46637 28.75331
#
# Velocity S-wave (km/s) = 3.51630 4.00390 3.76799
# Velocity P-wave (km/s) = 5.41597 6.76527 6.12787
#
# Compressibility (1/GPa) = 0.03843568
#
# Stress axis : x y z
#
# Youngs Moduli (GPa) = 135.68533 73.11400 35.02024
#
# Poissons Ratio (x) = 0.32898 0.05457
# Poissons Ratio (y) = 0.61053 -0.01662
# Poissons Ratio (z) = 0.21144 -0.03470
#
# Static dielectric constant tensor:
#      x y z
#    x 4.025390 0.000000 0.051250 
#    y 0.000000 3.627130 0.000000 
#    z 0.051250 0.000000 3.571220 
# 
# 
# High freq. dielectric constant tensor:
#      x y z
#    x 1.796340 0.000000 0.008420 
#    y 0.000000 1.778150 0.000000 
#    z 0.008420 0.000000 1.768820 
# 
# From -- ./inp_files/159726.got.cif
#   From: 2010.06.25/outbox.cif.g09.slc.cpg/sg15_80_cif.got.tgz:159726.got - 2010.06.28 07:06:18.
