data_PCOD8141837
_publ_section_title
;
Structure prediction by ZEFSAII (Michael W. Deem and Ramdas Pophale) SiO2 
 PCOD8141837
Probable space group: C 2/C
;
_chemical_formula_sum "Si O2"
_cell_formula_units_Z 48
_cell_length_a 14.240584
_cell_length_b 11.840022
_cell_length_c 15.062320
_cell_angle_alpha 90.000000
_cell_angle_beta 69.969538
_cell_angle_gamma 90.000000
_cell_volume 2386.018937
_symmetry_space_group_name_H-M "C 2/C"
_symmetry_group_IT_number 15
_symmetry_cell_setting 'monoclinic'
loop_
_space_group_symop_operation_xyz
x,y,z
-x,y,1/2-z
-x,-y,-z
x,-y,1/2+z
1/2+x,1/2+y,z
1/2-x,1/2+y,1/2-z
1/2-x,1/2-y,-z
1/2+x,1/2-y,1/2+z
loop_
_atom_site_type_symbol
_atom_site_label
_atom_site_fract_x
_atom_site_fract_y
_atom_site_fract_z
Si Si1 0.252642 0.563314 0.174578
Si Si2 0.695196 0.562508 0.544476
Si Si3 0.887168 0.627873 0.818494
Si Si4 0.382670 0.382715 0.799364
Si Si5 0.906553 0.725610 0.336271
Si Si6 0.412507 0.971167 0.962864
O O1 0.185142 0.452594 0.216166
O O2 0.333018 0.569260 0.226260
O O3 0.181872 0.674543 0.196483
O O4 0.308210 0.551662 0.061350
O O5 0.645863 0.453397 0.604708
O O6 0.635781 0.674089 0.590536
O O7 0.810191 0.572390 0.542187
O O8 0.846632 0.754824 0.826220
O O9 0.883709 0.586308 0.921282
O O10 0.000000 0.616797 0.750000
O O11 0.500000 0.389028 0.750000
O O12 0.950149 0.625345 0.383456
O O13 0.000000 0.772956 0.250000
O O14 0.500000 0.000000 0.000000
#
# Coordination Sequence:
#
# PCOD8141837 Si02
#       6
#     8   8   8   8   8   8
#     4  10  22  40  64  90 126 164 211 265 308 370
#     4  10  23  41  60  93 133 161 211 254 323 383
#     4   9  21  40  61  90 123 158 213 257 310 379
#     4  11  25  40  63  92 126 174 206 260 323 375
#     4  10  21  39  63  95 125 162 212 259 319 382
#     4  10  21  37  67  94 122 162 211 269 313 372
#
# _framework density 20.117193
#
# number of rings (size 3 to 8) (size 9 to 14) (size 15 to 20)
#    0.000    2.333    0.000    4.500    7.000    7.333 
#    0.000    1.667    0.000    0.000    0.000    0.000 
#    0.000    0.000    0.000    0.000    0.000    0.000 
#
# Total GULP energy -297544.357304 kJ/mol
# GULP energy per Si atom -12397.681554 kJ/mol
# Density = 2.007140 g / cm^3
# Si number density = 20.117193 Si / 1000 Ang^3
#
#
#
# Elastic Constant Matrix: (Units=GPa)
#
#
# Indices 1 2 3 4 5 6 
#
# 1 110.3821 42.1625 45.0963 0.0000 19.0865 0.0000
# 2 42.1625 128.1049 45.5609 0.0000 1.7619 0.0000
# 3 45.0963 45.5609 93.8608 0.0000 -9.7172 0.0000
# 4 0.0000 0.0000 0.0000 24.7011 0.0000 -13.1089
# 5 19.0865 1.7619 -9.7172 0.0000 37.3515 0.0000
# 6 0.0000 0.0000 0.0000 -13.1089 0.0000 26.5944
#
#
#
# Elastic Compliance Matrix: (Units=1/GPa)
#
#
# Indices 1 2 3 4 5 6 
#
# 1 0.014137 -0.002163 -0.006659 0.000000 -0.008854 0.000000
# 2 -0.002163 0.009870 -0.003788 0.000000 -0.000346 0.000000
# 3 -0.006659 -0.003788 0.016507 0.000000 0.007876 0.000000
# 4 0.000000 0.000000 0.000000 0.054826 0.000000 0.027025
# 5 -0.008854 -0.000346 0.007876 0.000000 0.033363 0.000000
# 6 0.000000 0.000000 0.000000 0.027025 0.000000 0.050923
#
#
# Mechanical properties :
#
#
# Convention : Reuss Voigt Hill
#
# Bulk Modulus (GPa) = 65.37929 66.44303 65.91116
# Shear Modulus (GPa) = 23.81587 31.03126 27.42357
#
# Velocity S-wave (km/s) = 3.44445 3.93176 3.69615
# Velocity P-wave (km/s) = 6.95621 7.32880 7.14493
#
# Compressibility (1/GPa) = 0.01529536
#
# Stress axis : x y z
#
# Youngs Moduli (GPa) = 70.73535 101.32002 60.57872
#
# Poissons Ratio (x) = 0.21913 0.40341
# Poissons Ratio (y) = 0.15298 0.22944
# Poissons Ratio (z) = 0.47104 0.38375
#
# Static dielectric constant tensor:
#      x y z
#    x 3.683980 0.000000 -0.204850 
#    y 0.000000 3.843260 0.000000 
#    z -0.204850 0.000000 3.669640 
# 
# 
# High freq. dielectric constant tensor:
#      x y z
#    x 1.781340 0.000000 -0.014110 
#    y 0.000000 1.793250 0.000000 
#    z -0.014110 0.000000 1.780800 
# 
# From -- ./inp_files/151846.got.cif
#   From: 2010.06.25/outbox.cif.g09.slc.cpg/sg15_76_cif.got.tgz:151846.got - 2010.06.28 07:06:18.
