data_PCOD8141881
_publ_section_title
;
Structure prediction by ZEFSAII (Michael W. Deem and Ramdas Pophale) SiO2 
 PCOD8141881
Probable space group: C 2/C
;
_chemical_formula_sum "Si O2"
_cell_formula_units_Z 48
_cell_length_a 11.931348
_cell_length_b 21.878767
_cell_length_c 9.863311
_cell_angle_alpha 90.000000
_cell_angle_beta 79.213637
_cell_angle_gamma 90.000000
_cell_volume 2529.258953
_symmetry_space_group_name_H-M "C 2/C"
_symmetry_group_IT_number 15
_symmetry_cell_setting 'monoclinic'
loop_
_space_group_symop_operation_xyz
x,y,z
-x,y,1/2-z
-x,-y,-z
x,-y,1/2+z
1/2+x,1/2+y,z
1/2-x,1/2+y,1/2-z
1/2-x,1/2-y,-z
1/2+x,1/2-y,1/2+z
loop_
_atom_site_type_symbol
_atom_site_label
_atom_site_fract_x
_atom_site_fract_y
_atom_site_fract_z
Si Si1 0.134734 0.745511 0.109800
Si Si2 0.397439 0.736691 0.579894
Si Si3 0.275947 0.851741 0.499714
Si Si4 0.919099 0.388177 0.930644
Si Si5 0.837157 0.440704 0.696859
Si Si6 0.374664 0.075103 0.727876
O O1 0.157952 0.768092 0.257171
O O2 0.080365 0.678518 0.134408
O O3 0.031665 0.781507 0.057494
O O4 0.250000 0.750000 0.000000
O O5 0.377002 0.804486 0.520131
O O6 0.339241 0.686335 0.497430
O O7 0.249623 0.901007 0.625092
O O8 0.307843 0.888088 0.356838
O O9 0.828453 0.425103 0.858282
O O10 0.039461 0.422766 0.893628
O O11 0.878644 0.382463 0.094369
O O12 0.812432 0.512875 0.692816
O O13 0.500000 0.056673 0.750000
#
# Coordination Sequence:
#
# PCOD8141881 Si02
#       6
#     8   8   8   8   8   8
#     4  11  20  37  60  85 111 158 197 239 297 358
#     4  10  21  38  57  81 125 155 189 242 300 352
#     4  11  21  35  54  82 119 157 182 242 303 347
#     4  11  19  32  48  80 115 149 191 240 290 350
#     4  11  19  33  52  75 120 158 182 242 309 336
#     4  12  20  29  51  86 116 152 203 236 288 365
#
# _framework density 18.977892000000001
#
# number of rings (size 3 to 8) (size 9 to 14) (size 15 to 20)
#    0.000    1.000    6.667    3.500    0.000    0.000 
#    0.000    2.500    0.000    0.000    0.000   21.000 
#    0.000    0.000    0.000    0.000    0.000    0.000 
#
# Total GULP energy -297483.189175 kJ/mol
# GULP energy per Si atom -12395.132882 kJ/mol
# Density = 1.893470 g / cm^3
# Si number density = 18.977892 Si / 1000 Ang^3
#
#
#
# Elastic Constant Matrix: (Units=GPa)
#
#
# Indices 1 2 3 4 5 6 
#
# 1 75.0249 23.2688 36.8911 0.0000 -0.3197 0.0000
# 2 23.2688 86.0566 24.0305 0.0000 9.2521 0.0000
# 3 36.8911 24.0305 109.7217 0.0000 9.7625 0.0000
# 4 0.0000 0.0000 0.0000 35.1685 0.0000 7.6583
# 5 -0.3197 9.2521 9.7625 0.0000 28.4775 0.0000
# 6 0.0000 0.0000 0.0000 7.6583 0.0000 20.4218
#
#
#
# Elastic Compliance Matrix: (Units=1/GPa)
#
#
# Indices 1 2 3 4 5 6 
#
# 1 0.016989 -0.003468 -0.005229 0.000000 0.003110 0.000000
# 2 -0.003468 0.013372 -0.001416 0.000000 -0.003898 0.000000
# 3 -0.005229 -0.001416 0.011497 0.000000 -0.003540 0.000000
# 4 0.000000 0.000000 0.000000 0.030963 0.000000 -0.011611
# 5 0.003110 -0.003898 -0.003540 0.000000 0.037630 0.000000
# 6 0.000000 0.000000 0.000000 -0.011611 0.000000 0.053322
#
#
# Mechanical properties :
#
#
# Convention : Reuss Voigt Hill
#
# Bulk Modulus (GPa) = 46.22659 48.79823 47.51241
# Shear Modulus (GPa) = 26.14916 29.25442 27.70179
#
# Velocity S-wave (km/s) = 3.71600 3.93045 3.82473
# Velocity P-wave (km/s) = 6.54389 6.80933 6.67793
#
# Compressibility (1/GPa) = 0.02163257
#
# Stress axis : x y z
#
# Youngs Moduli (GPa) = 58.86140 74.78094 86.97698
#
# Poissons Ratio (x) = 0.25932 0.45483
# Poissons Ratio (y) = 0.20412 0.12315
# Poissons Ratio (z) = 0.30781 0.10589
#
# Static dielectric constant tensor:
#      x y z
#    x 3.144740 0.000000 0.433220 
#    y 0.000000 3.442810 0.000000 
#    z 0.433220 0.000000 3.721420 
# 
# 
# High freq. dielectric constant tensor:
#      x y z
#    x 1.682800 0.000000 0.030060 
#    y 0.000000 1.735420 0.000000 
#    z 0.030060 0.000000 1.755130 
# 
# From -- ./inp_files/88480.got.cif
#   From: 2010.06.25/outbox.cif.g09.slc.cpg/sg15_45_cif.got.tgz:88480.got - 2010.06.28 07:06:18.
