data_PCOD8141656
_publ_section_title
;
Structure prediction by ZEFSAII (Michael W. Deem and Ramdas Pophale) SiO2 
 PCOD8141656
Probable space group: C 2/C
;
_chemical_formula_sum "Si O2"
_cell_formula_units_Z 48
_cell_length_a 21.344330
_cell_length_b 10.425373
_cell_length_c 12.720471
_cell_angle_alpha 90.000000
_cell_angle_beta 117.736439
_cell_angle_gamma 90.000000
_cell_volume 2505.351065
_symmetry_space_group_name_H-M "C 2/C"
_symmetry_group_IT_number 15
_symmetry_cell_setting 'monoclinic'
loop_
_space_group_symop_operation_xyz
x,y,z
-x,y,1/2-z
-x,-y,-z
x,-y,1/2+z
1/2+x,1/2+y,z
1/2-x,1/2+y,1/2-z
1/2-x,1/2-y,-z
1/2+x,1/2-y,1/2+z
loop_
_atom_site_type_symbol
_atom_site_label
_atom_site_fract_x
_atom_site_fract_y
_atom_site_fract_z
Si Si1 0.131760 0.889928 0.414641
Si Si2 0.088267 0.635872 0.457731
Si Si3 0.257268 0.901045 0.353298
Si Si4 0.067116 0.747439 0.662374
Si Si5 0.300494 0.365024 0.813545
Si Si6 0.500000 0.440468 0.750000
Si Si7 0.500000 0.048782 0.750000
O O1 0.103318 0.744451 0.381664
O O2 0.202300 0.914691 0.404201
O O3 0.152042 0.913168 0.551677
O O4 0.069843 0.979116 0.325204
O O5 0.163157 0.572122 0.546281
O O6 0.051253 0.697783 0.532094
O O7 0.036031 0.532546 0.369573
O O8 0.249669 0.755598 0.302711
O O9 0.243332 0.012069 0.257363
O O10 0.145505 0.809495 0.732179
O O11 0.010368 0.854986 0.653025
O O12 0.061185 0.631609 0.741357
#
# Coordination Sequence:
#
# PCOD8141656 Si02
#       7
#     8   8   8   8   8   4   4
#     4  10  21  37  61  87 117 159 200 250 302 360
#     4  10  22  38  61  87 122 158 200 246 306 360
#     4  10  21  41  60  87 123 159 203 253 302 360
#     4   9  21  38  59  83 126 152 194 255 297 355
#     4  10  21  40  59  89 119 163 201 254 302 358
#     4  11  19  38  62  88 119 155 202 248 304 355
#     4  11  21  40  60  92 115 161 200 248 306 363
#
# _framework density 19.158989999999999
#
# number of rings (size 3 to 8) (size 9 to 14) (size 15 to 20)
#    0.000    2.333    1.667    3.000    0.000    8.000 
#    9.000    1.667    0.000    0.000    0.000    0.000 
#    0.000    0.000    0.000    0.000    0.000    0.000 
#
# Total GULP energy -297457.068863 kJ/mol
# GULP energy per Si atom -12394.044536 kJ/mol
# Density = 1.911538 g / cm^3
# Si number density = 19.158990 Si / 1000 Ang^3
#
#
#
# Elastic Constant Matrix: (Units=GPa)
#
#
# Indices 1 2 3 4 5 6 
#
# 1 116.6908 41.8388 51.7034 0.0000 -3.4870 0.0000
# 2 41.8388 110.1407 71.8433 0.0000 8.1343 0.0000
# 3 51.7034 71.8433 88.1815 0.0000 1.2037 0.0000
# 4 0.0000 0.0000 0.0000 16.1031 0.0000 -0.1389
# 5 -3.4870 8.1343 1.2037 0.0000 18.1936 0.0000
# 6 0.0000 0.0000 0.0000 -0.1389 0.0000 26.0729
#
#
#
# Elastic Compliance Matrix: (Units=1/GPa)
#
#
# Indices 1 2 3 4 5 6 
#
# 1 0.011714 -0.000328 -0.006640 0.000000 0.002831 0.000000
# 2 -0.000328 0.020504 -0.016402 0.000000 -0.008145 0.000000
# 3 -0.006640 -0.016402 0.028539 0.000000 0.004172 0.000000
# 4 0.000000 0.000000 0.000000 0.062103 0.000000 0.000331
# 5 0.002831 -0.008145 0.004172 0.000000 0.058872 0.000000
# 6 0.000000 0.000000 0.000000 0.000331 0.000000 0.038356
#
#
# Mechanical properties :
#
#
# Convention : Reuss Voigt Hill
#
# Bulk Modulus (GPa) = 71.33400 71.75378 71.54389
# Shear Modulus (GPa) = 18.41634 22.04910 20.23272
#
# Velocity S-wave (km/s) = 3.10375 3.39610 3.25321
# Velocity P-wave (km/s) = 7.08222 7.27400 7.17875
#
# Compressibility (1/GPa) = 0.01401856
#
# Stress axis : x y z
#
# Youngs Moduli (GPa) = 85.37028 48.77143 35.03971
#
# Poissons Ratio (x) = 0.01598 0.23265
# Poissons Ratio (y) = 0.02798 0.57471
# Poissons Ratio (z) = 0.56684 0.79993
#
# Static dielectric constant tensor:
#      x y z
#    x 3.656470 0.000000 -0.165240 
#    y 0.000000 3.724350 0.000000 
#    z -0.165240 0.000000 3.238800 
# 
# 
# High freq. dielectric constant tensor:
#      x y z
#    x 1.758160 0.000000 -0.012740 
#    y 0.000000 1.754480 0.000000 
#    z -0.012740 0.000000 1.720490 
# 
# From -- ./inp_files/110553.got.cif
#   From: 2010.06.25/outbox.cif.g09.slc.cpg/sg15_56_cif.got.tgz:110553.got - 2010.06.28 07:06:18.
