data_PCOD8141951
_publ_section_title
;
Structure prediction by ZEFSAII (Michael W. Deem and Ramdas Pophale) SiO2 
 PCOD8141951
Probable space group: C 2/C
;
_chemical_formula_sum "Si O2"
_cell_formula_units_Z 40
_cell_length_a 6.859708
_cell_length_b 23.912317
_cell_length_c 12.518882
_cell_angle_alpha 90.000000
_cell_angle_beta 67.967896
_cell_angle_gamma 90.000000
_cell_volume 1903.532510
_symmetry_space_group_name_H-M "C 2/C"
_symmetry_group_IT_number 15
_symmetry_cell_setting 'monoclinic'
loop_
_space_group_symop_operation_xyz
x,y,z
-x,y,1/2-z
-x,-y,-z
x,-y,1/2+z
1/2+x,1/2+y,z
1/2-x,1/2+y,1/2-z
1/2-x,1/2-y,-z
1/2+x,1/2-y,1/2+z
loop_
_atom_site_type_symbol
_atom_site_label
_atom_site_fract_x
_atom_site_fract_y
_atom_site_fract_z
Si Si1 0.500000 0.206279 0.250000
Si Si2 0.000000 0.883187 0.250000
Si Si3 0.063200 0.358218 0.952602
Si Si4 0.423157 0.561427 0.385352
Si Si5 0.795774 0.054810 0.976573
Si Si6 0.353747 0.204867 0.680085
O O1 0.454152 0.167089 0.160321
O O2 0.293053 0.242679 0.318918
O O3 0.030054 0.920706 0.139595
O O4 0.204728 0.847185 0.237436
O O5 0.300227 0.379763 0.921934
O O6 0.921474 0.413281 0.993639
O O7 0.003491 0.310042 0.049422
O O8 0.500000 0.551193 0.250000
O O9 0.627675 0.564030 0.418101
O O10 0.271219 0.510728 0.454732
O O11 0.500000 0.219883 0.750000
#
# Coordination Sequence:
#
# PCOD8141951 Si02
#       6
#     4   4   8   8   8   8
#     4  11  24  40  60  88 120 154 200 251 292 340
#     4   9  18  38  60  86 124 152 196 241 288 346
#     4  11  23  40  61  87 119 156 196 243 295 348
#     4  11  22  37  60  89 120 157 195 236 291 352
#     4  10  21  38  59  87 121 157 192 239 289 351
#     4  10  22  39  62  88 115 158 200 244 294 347
#
# _framework density 21.013563999999999
#
# number of rings (size 3 to 8) (size 9 to 14) (size 15 to 20)
#    0.000    1.600    1.000    3.600    0.000    3.200 
#    0.000    0.000    0.000    0.000    0.000    0.000 
#    0.000    0.000    0.000    0.000    0.000    0.000 
#
# Total GULP energy -248063.360468 kJ/mol
# GULP energy per Si atom -12403.168023 kJ/mol
# Density = 2.096574 g / cm^3
# Si number density = 21.013564 Si / 1000 Ang^3
#
#
#
# Elastic Constant Matrix: (Units=GPa)
#
#
# Indices 1 2 3 4 5 6 
#
# 1 70.9959 26.2837 30.8371 0.0000 5.5486 0.0000
# 2 26.2837 76.0248 25.3109 0.0000 -1.7103 0.0000
# 3 30.8371 25.3109 126.9183 0.0000 13.6839 0.0000
# 4 0.0000 0.0000 0.0000 2.5234 0.0000 -0.4094
# 5 5.5486 -1.7103 13.6839 0.0000 24.6039 0.0000
# 6 0.0000 0.0000 0.0000 -0.4094 0.0000 29.1801
#
#
#
# Elastic Compliance Matrix: (Units=1/GPa)
#
#
# Indices 1 2 3 4 5 6 
#
# 1 0.017464 -0.005120 -0.002935 0.000000 -0.002662 0.000000
# 2 -0.005120 0.015762 -0.002278 0.000000 0.003518 0.000000
# 3 -0.002935 -0.002278 0.009566 0.000000 -0.004817 0.000000
# 4 0.000000 0.000000 0.000000 0.397189 0.000000 0.005573
# 5 -0.002662 0.003518 -0.004817 0.000000 0.044168 0.000000
# 6 0.000000 0.000000 0.000000 0.005573 0.000000 0.034348
#
#
# Mechanical properties :
#
#
# Convention : Reuss Voigt Hill
#
# Bulk Modulus (GPa) = 45.20066 48.75583 46.97824
# Shear Modulus (GPa) = 9.14849 24.02864 16.58856
#
# Velocity S-wave (km/s) = 2.08879 3.38521 2.81271
# Velocity P-wave (km/s) = 5.23205 6.20741 5.74048
#
# Compressibility (1/GPa) = 0.02212357
#
# Stress axis : x y z
#
# Youngs Moduli (GPa) = 57.26121 63.44555 104.53799
#
# Poissons Ratio (x) = 0.32487 0.30682
# Poissons Ratio (y) = 0.29320 0.23818
# Poissons Ratio (z) = 0.16806 0.14456
#
# Static dielectric constant tensor:
#      x y z
#    x 3.642700 0.000000 -0.082590 
#    y 0.000000 3.827830 0.000000 
#    z -0.082590 0.000000 3.876280 
# 
# 
# High freq. dielectric constant tensor:
#      x y z
#    x 1.817060 0.000000 0.003420 
#    y 0.000000 1.829780 0.000000 
#    z 0.003420 0.000000 1.830890 
# 
# From -- ./inp_files/73123.got.cif
#   From: 2010.06.25/outbox.cif.g09.slc.cpg/sg15_37_cif.got.tgz:73123.got - 2010.06.28 07:06:18.
