data_PCOD8141165
_publ_section_title
;
Structure prediction by ZEFSAII (Michael W. Deem and Ramdas Pophale) SiO2 
 PCOD8141165
Probable space group: C 2/C
;
_chemical_formula_sum "Si O2"
_cell_formula_units_Z 48
_cell_length_a 31.297698
_cell_length_b 8.352701
_cell_length_c 20.282451
_cell_angle_alpha 90.000000
_cell_angle_beta 151.175414
_cell_angle_gamma 90.000000
_cell_volume 2556.369426
_symmetry_space_group_name_H-M "C 2/C"
_symmetry_group_IT_number 15
_symmetry_cell_setting 'monoclinic'
loop_
_space_group_symop_operation_xyz
x,y,z
-x,y,1/2-z
-x,-y,-z
x,-y,1/2+z
1/2+x,1/2+y,z
1/2-x,1/2+y,1/2-z
1/2-x,1/2-y,-z
1/2+x,1/2-y,1/2+z
loop_
_atom_site_type_symbol
_atom_site_label
_atom_site_fract_x
_atom_site_fract_y
_atom_site_fract_z
Si Si1 0.019589 0.391992 0.463201
Si Si2 0.036696 0.040193 0.871087
Si Si3 0.826163 0.815487 0.374402
Si Si4 0.562839 0.906585 0.895743
Si Si5 0.435733 0.436931 0.855012
Si Si6 0.250407 0.530869 0.163642
O O1 0.114409 0.299881 0.592515
O O2 0.018632 0.505599 0.398205
O O3 0.000000 0.500000 0.500000
O O4 0.944284 0.254854 0.358152
O O5 0.000000 0.992928 0.750000
O O6 0.957956 0.027327 0.817504
O O7 0.074095 0.218980 0.924259
O O8 0.113173 0.917226 0.994187
O O9 0.759076 0.715146 0.328432
O O10 0.764725 0.928353 0.248523
O O11 0.500000 0.943161 0.750000
O O12 0.659834 0.972330 0.007320
O O13 0.334171 0.484095 0.729374
O O14 0.500000 0.500000 0.000000
#
# Coordination Sequence:
#
# PCOD8141165 Si02
#       6
#     8   8   8   8   8   8
#     4  10  21  35  61  89 117 157 196 248 299 359
#     4  10  21  42  64  86 123 164 197 248 309 358
#     4  10  22  35  59  91 119 157 199 252 294 363
#     4  10  23  42  62  84 121 163 201 246 305 360
#     4  11  21  38  61  91 123 155 203 251 297 355
#     4  11  22  37  62  90 123 156 204 247 301 353
#
# _framework density 18.776629
#
# number of rings (size 3 to 8) (size 9 to 14) (size 15 to 20)
#    0.000    1.667    3.333    2.000    4.667    6.000 
#    0.000    6.667    0.000    0.000    0.000    0.000 
#    0.000    0.000    0.000    0.000    0.000    0.000 
#
# Total GULP energy -297585.075400 kJ/mol
# GULP energy per Si atom -12399.378142 kJ/mol
# Density = 1.873389 g / cm^3
# Si number density = 18.776629 Si / 1000 Ang^3
#
#
#
# Elastic Constant Matrix: (Units=GPa)
#
#
# Indices 1 2 3 4 5 6 
#
# 1 126.2618 36.8280 62.3577 0.0000 -0.0323 0.0000
# 2 36.8280 91.2127 46.5243 0.0000 -4.4944 0.0000
# 3 62.3577 46.5243 115.2144 0.0000 3.6118 0.0000
# 4 0.0000 0.0000 0.0000 28.3520 0.0000 -3.0702
# 5 -0.0323 -4.4944 3.6118 0.0000 30.7159 0.0000
# 6 0.0000 0.0000 0.0000 -3.0702 0.0000 32.1754
#
#
#
# Elastic Compliance Matrix: (Units=1/GPa)
#
#
# Indices 1 2 3 4 5 6 
#
# 1 0.011037 -0.001744 -0.005281 0.000000 0.000377 0.000000
# 2 -0.001744 0.014307 -0.004917 0.000000 0.002670 0.000000
# 3 -0.005281 -0.004917 0.013596 0.000000 -0.002324 0.000000
# 4 0.000000 0.000000 0.000000 0.035639 0.000000 0.003401
# 5 0.000377 0.002670 -0.002324 0.000000 0.033221 0.000000
# 6 0.000000 0.000000 0.000000 0.003401 0.000000 0.031404
#
#
# Mechanical properties :
#
#
# Convention : Reuss Voigt Hill
#
# Bulk Modulus (GPa) = 66.41941 69.34545 67.88243
# Shear Modulus (GPa) = 29.74283 30.71392 30.22837
#
# Velocity S-wave (km/s) = 3.98431 4.04883 4.01670
# Velocity P-wave (km/s) = 7.52440 7.67264 7.59888
#
# Compressibility (1/GPa) = 0.01505584
#
# Stress axis : x y z
#
# Youngs Moduli (GPa) = 90.60337 69.89527 73.54969
#
# Poissons Ratio (x) = 0.12190 0.38843
# Poissons Ratio (y) = 0.15801 0.36165
# Poissons Ratio (z) = 0.47850 0.34368
#
# Static dielectric constant tensor:
#      x y z
#    x 3.534130 0.000000 0.102400 
#    y 0.000000 3.787180 0.000000 
#    z 0.102400 0.000000 3.300580 
# 
# 
# High freq. dielectric constant tensor:
#      x y z
#    x 1.727680 0.000000 0.007490 
#    y 0.000000 1.752350 0.000000 
#    z 0.007490 0.000000 1.714220 
# 
# From -- ./inp_files/213756.got.cif
#   From: 2010.06.25/outbox.cif.g09.slc.cpg/sg15_107_cif.got.tgz:213756.got - 2010.06.28 07:06:18.
