data_PCOD8141385
_publ_section_title
;
Structure prediction by ZEFSAII (Michael W. Deem and Ramdas Pophale) SiO2 
 PCOD8141385
Probable space group: C 2/C
;
_chemical_formula_sum "Si O2"
_cell_formula_units_Z 44
_cell_length_a 17.653875
_cell_length_b 10.854696
_cell_length_c 9.386525
_cell_angle_alpha 90.000000
_cell_angle_beta 87.576188
_cell_angle_gamma 90.000000
_cell_volume 1797.106577
_symmetry_space_group_name_H-M "C 2/C"
_symmetry_group_IT_number 15
_symmetry_cell_setting 'monoclinic'
loop_
_space_group_symop_operation_xyz
x,y,z
-x,y,1/2-z
-x,-y,-z
x,-y,1/2+z
1/2+x,1/2+y,z
1/2-x,1/2+y,1/2-z
1/2-x,1/2-y,-z
1/2+x,1/2-y,1/2+z
loop_
_atom_site_type_symbol
_atom_site_label
_atom_site_fract_x
_atom_site_fract_y
_atom_site_fract_z
Si Si1 0.649777 0.063500 0.339343
Si Si2 0.411945 0.560470 0.249957
Si Si3 0.500000 0.932227 0.250000
Si Si4 0.690812 0.145850 0.045618
Si Si5 0.425109 0.253359 0.967106
Si Si6 0.576944 0.348467 0.050285
O O1 0.705648 0.089607 0.201419
O O2 0.636221 0.190281 0.425572
O O3 0.568767 0.017473 0.292187
O O4 0.692897 0.962677 0.430546
O O5 0.500000 0.595702 0.250000
O O6 0.376339 0.663678 0.359430
O O7 0.397366 0.423171 0.310701
O O8 0.385433 0.579817 0.089196
O O9 0.525775 0.850766 0.115077
O O10 0.608227 0.210095 0.056386
O O11 0.750000 0.250000 0.000000
O O12 0.485032 0.340950 0.049195
#
# Coordination Sequence:
#
# PCOD8141385 Si02
#       6
#     8   8   4   8   8   8
#     4  12  25  45  73 104 138 179 238 293 363 409
#     4  10  21  36  61  98 145 173 212 265 344 415
#     4  12  18  40  70 112 142 172 214 306 358 422
#     4  12  29  49  70  96 138 186 244 288 338 426
#     4  11  19  37  67 106 139 176 218 289 357 411
#     4  11  23  40  64  99 144 180 224 278 346 414
#
# _framework density 24.483799999999999
#
# number of rings (size 3 to 8) (size 9 to 14) (size 15 to 20)
#    0.000    0.727    6.364    3.818    5.091    1.455 
#    0.000    0.909    0.000    0.000    0.000    0.000 
#    0.000    0.000    0.000    0.000    0.000    0.000 
#
# Total GULP energy -272841.002295 kJ/mol
# GULP energy per Si atom -12401.863741 kJ/mol
# Density = 2.442807 g / cm^3
# Si number density = 24.483800 Si / 1000 Ang^3
#
#
#
# Elastic Constant Matrix: (Units=GPa)
#
#
# Indices 1 2 3 4 5 6 
#
# 1 27.5268 14.2617 23.4833 0.0000 -10.0761 0.0000
# 2 14.2617 123.6874 78.0549 0.0000 -2.8931 0.0000
# 3 23.4833 78.0549 163.7589 0.0000 -9.5243 0.0000
# 4 0.0000 0.0000 0.0000 56.0917 0.0000 -5.6521
# 5 -10.0761 -2.8931 -9.5243 0.0000 22.2953 0.0000
# 6 0.0000 0.0000 0.0000 -5.6521 0.0000 32.4153
#
#
#
# Elastic Compliance Matrix: (Units=1/GPa)
#
#
# Indices 1 2 3 4 5 6 
#
# 1 0.048760 -0.002105 -0.004843 0.000000 0.019694 0.000000
# 2 -0.002105 0.011671 -0.005361 0.000000 -0.001727 0.000000
# 3 -0.004843 -0.005361 0.009423 0.000000 0.001141 0.000000
# 4 0.000000 0.000000 0.000000 0.018147 0.000000 0.003164
# 5 0.019694 -0.001727 0.001141 0.000000 0.054016 0.000000
# 6 0.000000 0.000000 0.000000 0.003164 0.000000 0.031401
#
#
# Mechanical properties :
#
#
# Convention : Reuss Voigt Hill
#
# Bulk Modulus (GPa) = 22.10738 60.73032 41.41885
# Shear Modulus (GPa) = 23.46147 35.43868 29.45008
#
# Velocity S-wave (km/s) = 3.09891 3.80864 3.47196
# Velocity P-wave (km/s) = 4.67475 6.64824 5.74685
#
# Compressibility (1/GPa) = 0.04523377
#
# Stress axis : x y z
#
# Youngs Moduli (GPa) = 20.50864 85.68568 106.12453
#
# Poissons Ratio (x) = 0.18037 0.51401
# Poissons Ratio (y) = 0.04317 0.56897
# Poissons Ratio (z) = 0.09933 0.45939
#
# Static dielectric constant tensor:
#      x y z
#    x 3.785320 0.000000 0.042840 
#    y 0.000000 4.561790 0.000000 
#    z 0.042840 0.000000 4.961780 
# 
# 
# High freq. dielectric constant tensor:
#      x y z
#    x 1.911670 0.000000 -0.002020 
#    y 0.000000 1.988880 0.000000 
#    z -0.002020 0.000000 1.992560 
# 
# From -- ./inp_files/54422.got.cif
#   From: 2010.06.25/outbox.cif.g09.slc.cpg/sg15_28_cif.got.tgz:54422.got - 2010.06.28 07:06:18.
