data_PCOD8141833
_publ_section_title
;
Structure prediction by ZEFSAII (Michael W. Deem and Ramdas Pophale) SiO2 
 PCOD8141833
Probable space group: C 2/C
;
_chemical_formula_sum "Si O2"
_cell_formula_units_Z 52
_cell_length_a 16.129936
_cell_length_b 8.798946
_cell_length_c 17.945297
_cell_angle_alpha 90.000000
_cell_angle_beta 97.497446
_cell_angle_gamma 90.000000
_cell_volume 2525.137674
_symmetry_space_group_name_H-M "C 2/C"
_symmetry_group_IT_number 15
_symmetry_cell_setting 'monoclinic'
loop_
_space_group_symop_operation_xyz
x,y,z
-x,y,1/2-z
-x,-y,-z
x,-y,1/2+z
1/2+x,1/2+y,z
1/2-x,1/2+y,1/2-z
1/2-x,1/2-y,-z
1/2+x,1/2-y,1/2+z
loop_
_atom_site_type_symbol
_atom_site_label
_atom_site_fract_x
_atom_site_fract_y
_atom_site_fract_z
Si Si1 0.500000 0.403318 0.750000
Si Si2 0.033018 0.110059 0.894577
Si Si3 0.888019 0.020046 0.458891
Si Si4 0.328907 0.755906 0.276642
Si Si5 0.575531 0.944500 0.915860
Si Si6 0.416151 0.857522 0.418852
Si Si7 0.763708 0.516072 0.655805
O O1 0.521958 0.514926 0.819604
O O2 0.581136 0.301323 0.743106
O O3 0.041639 0.287293 0.878273
O O4 0.112312 0.043572 0.951411
O O5 0.953732 0.106854 0.940935
O O6 0.920574 0.174762 0.423489
O O7 0.798087 0.961705 0.421440
O O8 0.347729 0.880975 0.344754
O O9 0.270544 0.620622 0.298285
O O10 0.272191 0.834345 0.207113
O O11 0.646184 0.989375 0.867186
O O12 0.505183 0.074323 0.905138
O O13 0.611268 0.926547 0.004565
#
# Coordination Sequence:
#
# PCOD8141833 Si02
#       7
#     4   8   8   8   8   8   8
#     4  12  22  42  64  88 120 172 204 254 312 374
#     4  10  21  37  67  88 119 166 210 243 296 381
#     4   9  20  42  62  85 127 163 205 251 308 369
#     4  11  25  41  64  85 131 159 206 254 325 361
#     4  10  22  37  68  93 124 158 219 247 305 369
#     4   9  19  42  62  91 121 172 200 251 303 386
#     4  11  24  42  60  95 124 161 200 269 312 363
#
# _framework density 20.592936999999999
#
# number of rings (size 3 to 8) (size 9 to 14) (size 15 to 20)
#    0.000    1.846    3.077    0.923    2.154    8.000 
#    0.000    0.769    0.000    0.000    0.000    0.000 
#    0.000    0.000    0.000    0.000    0.000    0.000 
#
# Total GULP energy -322220.881014 kJ/mol
# GULP energy per Si atom -12393.110808 kJ/mol
# Density = 2.054607 g / cm^3
# Si number density = 20.592937 Si / 1000 Ang^3
#
#
#
# Elastic Constant Matrix: (Units=GPa)
#
#
# Indices 1 2 3 4 5 6 
#
# 1 78.1973 31.8979 41.7057 0.0000 0.0945 0.0000
# 2 31.8979 51.8919 52.2045 0.0000 14.8263 0.0000
# 3 41.7057 52.2045 110.1193 0.0000 17.6279 0.0000
# 4 0.0000 0.0000 0.0000 29.4306 0.0000 8.6371
# 5 0.0945 14.8263 17.6279 0.0000 39.8993 0.0000
# 6 0.0000 0.0000 0.0000 8.6371 0.0000 25.1335
#
#
#
# Elastic Compliance Matrix: (Units=1/GPa)
#
#
# Indices 1 2 3 4 5 6 
#
# 1 0.018362 -0.009370 -0.003296 0.000000 0.004894 0.000000
# 2 -0.009370 0.043222 -0.015468 0.000000 -0.009205 0.000000
# 3 -0.003296 -0.015468 0.018015 0.000000 -0.002204 0.000000
# 4 0.000000 0.000000 0.000000 0.037789 0.000000 -0.012986
# 5 0.004894 -0.009205 -0.002204 0.000000 0.029445 0.000000
# 6 0.000000 0.000000 0.000000 -0.012986 0.000000 0.044250
#
#
# Mechanical properties :
#
#
# Convention : Reuss Voigt Hill
#
# Bulk Modulus (GPa) = 42.86091 54.64721 48.75406
# Shear Modulus (GPa) = 19.59797 26.51937 23.05867
#
# Velocity S-wave (km/s) = 3.08828 3.59247 3.34988
# Velocity P-wave (km/s) = 5.79442 6.61833 6.22003
#
# Compressibility (1/GPa) = 0.02333128
#
# Stress axis : x y z
#
# Youngs Moduli (GPa) = 54.45979 23.13660 55.50941
#
# Poissons Ratio (x) = 0.21679 0.18295
# Poissons Ratio (y) = 0.51029 0.85862
# Poissons Ratio (z) = 0.17949 0.35788
#
# Static dielectric constant tensor:
#      x y z
#    x 3.612720 0.000000 0.212740 
#    y 0.000000 3.638420 0.000000 
#    z 0.212740 0.000000 4.260320 
# 
# 
# High freq. dielectric constant tensor:
#      x y z
#    x 1.790500 0.000000 0.005760 
#    y 0.000000 1.796090 0.000000 
#    z 0.005760 0.000000 1.824950 
# 
# From -- ./inp_files/209183.got.cif
#   From: 2010.06.25/outbox.cif.g09.slc.cpg/sg15_105_cif.got.tgz:209183.got - 2010.06.28 07:06:18.
