data_PCOD8141572
_publ_section_title
;
Structure prediction by ZEFSAII (Michael W. Deem and Ramdas Pophale) SiO2 
 PCOD8141572
Probable space group: C 2/C
;
_chemical_formula_sum "Si O2"
_cell_formula_units_Z 48
_cell_length_a 12.502911
_cell_length_b 15.039749
_cell_length_c 21.408924
_cell_angle_alpha 90.000000
_cell_angle_beta 138.393413
_cell_angle_gamma 90.000000
_cell_volume 2673.145594
_symmetry_space_group_name_H-M "C 2/C"
_symmetry_group_IT_number 15
_symmetry_cell_setting 'monoclinic'
loop_
_space_group_symop_operation_xyz
x,y,z
-x,y,1/2-z
-x,-y,-z
x,-y,1/2+z
1/2+x,1/2+y,z
1/2-x,1/2+y,1/2-z
1/2-x,1/2-y,-z
1/2+x,1/2-y,1/2+z
loop_
_atom_site_type_symbol
_atom_site_label
_atom_site_fract_x
_atom_site_fract_y
_atom_site_fract_z
Si Si1 0.417735 0.219517 0.855199
Si Si2 0.835341 0.777916 0.951541
Si Si3 0.903537 0.633251 0.071583
Si Si4 0.656410 0.258721 0.145266
Si Si5 0.870198 0.834652 0.643038
Si Si6 0.908622 0.546595 0.517460
O O1 0.274694 0.191904 0.745055
O O2 0.547092 0.283679 0.878539
O O3 0.343879 0.273231 0.880909
O O4 0.494792 0.129416 0.913291
O O5 0.809657 0.679597 0.971517
O O6 0.002485 0.817382 0.055341
O O7 0.684370 0.839974 0.902371
O O8 0.088709 0.668555 0.149762
O O9 0.894597 0.527131 0.065008
O O10 0.749403 0.234750 0.122468
O O11 0.770864 0.921165 0.578246
O O12 0.000000 0.868549 0.750000
O O13 0.000000 0.500000 0.500000
#
# Coordination Sequence:
#
# PCOD8141572 Si02
#       6
#     8   8   8   8   8   8
#     4  11  21  34  65  81 109 163 188 220 298 345
#     4   9  18  37  56  78 115 153 181 227 290 341
#     4   9  19  36  55  82 121 138 182 251 273 325
#     4   9  18  36  58  82 111 147 196 227 271 348
#     4  10  21  37  59  86 115 148 193 236 276 351
#     4  12  19  36  61  88 110 147 194 242 281 319
#
# _framework density 17.956372999999999
#
# number of rings (size 3 to 8) (size 9 to 14) (size 15 to 20)
#    1.000    1.000    5.000    0.500    0.000    0.667 
#    3.000    0.833   11.000    0.000    0.000    0.000 
#    0.000    0.000    0.000    0.000    0.000    0.000 
#
# Total GULP energy -297358.614038 kJ/mol
# GULP energy per Si atom -12389.942252 kJ/mol
# Density = 1.791550 g / cm^3
# Si number density = 17.956373 Si / 1000 Ang^3
#
#
#
# Elastic Constant Matrix: (Units=GPa)
#
#
# Indices 1 2 3 4 5 6 
#
# 1 135.3104 38.8309 19.2679 0.0000 -17.8925 0.0000
# 2 38.8309 82.6225 20.0107 0.0000 -8.1624 0.0000
# 3 19.2679 20.0107 42.2659 0.0000 -8.9834 0.0000
# 4 0.0000 0.0000 0.0000 15.9093 0.0000 0.1317
# 5 -17.8925 -8.1624 -8.9834 0.0000 19.3606 0.0000
# 6 0.0000 0.0000 0.0000 0.1317 0.0000 23.1186
#
#
#
# Elastic Compliance Matrix: (Units=1/GPa)
#
#
# Indices 1 2 3 4 5 6 
#
# 1 0.009450 -0.003481 -0.001238 0.000000 0.006692 0.000000
# 2 -0.003481 0.015118 -0.005436 0.000000 0.000635 0.000000
# 3 -0.001238 -0.005436 0.028920 0.000000 0.009983 0.000000
# 4 0.000000 0.000000 0.000000 0.062859 0.000000 -0.000358
# 5 0.006692 0.000635 0.009983 0.000000 0.062736 0.000000
# 6 0.000000 0.000000 0.000000 -0.000358 0.000000 0.043257
#
#
# Mechanical properties :
#
#
# Convention : Reuss Voigt Hill
#
# Bulk Modulus (GPa) = 30.13947 46.26866 38.20406
# Shear Modulus (GPa) = 19.70755 23.81698 21.76227
#
# Velocity S-wave (km/s) = 3.31648 3.64590 3.48509
# Velocity P-wave (km/s) = 5.61130 6.59899 6.12509
#
# Compressibility (1/GPa) = 0.03317908
#
# Stress axis : x y z
#
# Youngs Moduli (GPa) = 105.81510 66.14471 34.57856
#
# Poissons Ratio (x) = 0.23022 0.04281
# Poissons Ratio (y) = 0.36830 0.18797
# Poissons Ratio (z) = 0.13100 0.35957
#
# Static dielectric constant tensor:
#      x y z
#    x 3.556000 0.000000 0.083410 
#    y 0.000000 3.072600 0.000000 
#    z 0.083410 0.000000 3.414780 
# 
# 
# High freq. dielectric constant tensor:
#      x y z
#    x 1.713070 0.000000 0.005130 
#    y 0.000000 1.651620 0.000000 
#    z 0.005130 0.000000 1.686310 
# 
# From -- ./inp_files/238487.got.cif
#   From: 2010.06.25/outbox.cif.g09.slc.cpg/sg15_120_cif.got.tgz:238487.got - 2010.06.28 07:06:18.
