data_PCOD8141920
_publ_section_title
;
Structure prediction by ZEFSAII (Michael W. Deem and Ramdas Pophale) SiO2 
 PCOD8141920
Probable space group: C 2/C
;
_chemical_formula_sum "Si O2"
_cell_formula_units_Z 60
_cell_length_a 11.104579
_cell_length_b 15.663102
_cell_length_c 17.991778
_cell_angle_alpha 90.000000
_cell_angle_beta 76.034709
_cell_angle_gamma 90.000000
_cell_volume 3036.851722
_symmetry_space_group_name_H-M "C 2/C"
_symmetry_group_IT_number 15
_symmetry_cell_setting 'monoclinic'
loop_
_space_group_symop_operation_xyz
x,y,z
-x,y,1/2-z
-x,-y,-z
x,-y,1/2+z
1/2+x,1/2+y,z
1/2-x,1/2+y,1/2-z
1/2-x,1/2-y,-z
1/2+x,1/2-y,1/2+z
loop_
_atom_site_type_symbol
_atom_site_label
_atom_site_fract_x
_atom_site_fract_y
_atom_site_fract_z
Si Si1 0.735619 0.855537 0.419073
Si Si2 0.285565 0.539609 0.368718
Si Si3 0.357001 0.678593 0.748422
Si Si4 0.023529 0.937282 0.928466
Si Si5 0.729189 0.493037 0.295941
Si Si6 0.000000 0.556329 0.250000
Si Si7 0.603660 0.174411 0.356377
Si Si8 0.562611 0.725282 0.508112
O O1 0.776328 0.819764 0.334121
O O2 0.606695 0.810649 0.459287
O O3 0.830945 0.830869 0.469326
O O4 0.718441 0.957514 0.415827
O O5 0.421097 0.548534 0.381389
O O6 0.306745 0.532396 0.277850
O O7 0.197394 0.621528 0.395089
O O8 0.500000 0.666593 0.750000
O O9 0.315100 0.605051 0.697093
O O10 0.325401 0.769022 0.715529
O O11 0.158562 0.955961 0.872097
O O12 0.005577 0.839427 0.956638
O O13 0.000000 0.000000 0.000000
O O14 0.878374 0.498653 0.283363
O O15 0.013513 0.611998 0.323238
O O16 0.532958 0.243947 0.415935
#
# Coordination Sequence:
#
# PCOD8141920 Si02
#       8
#     8   8   8   8   8   4   8   8
#     4  10  21  38  58  91 119 159 210 257 301 372
#     4  10  23  42  61  90 126 165 207 256 315 370
#     4  11  19  38  67  88 120 164 216 251 306 373
#     4  12  23  39  63  96 126 166 208 257 321 378
#     4  10  23  40  66  92 124 162 214 266 309 381
#     4  10  22  40  64  92 118 170 216 258 324 368
#     4  11  22  39  63  90 125 167 210 256 314 380
#     4  11  23  35  62  91 123 158 207 258 311 367
#
# _framework density 19.757303
#
# number of rings (size 3 to 8) (size 9 to 14) (size 15 to 20)
#    0.000    1.333    3.333    2.800    7.467    1.067 
#    0.000    6.667    0.000    0.000    0.000    0.000 
#    0.000    0.000    0.000    0.000    0.000    0.000 
#
# Total GULP energy -371980.879224 kJ/mol
# GULP energy per Si atom -12399.362641 kJ/mol
# Density = 1.971233 g / cm^3
# Si number density = 19.757303 Si / 1000 Ang^3
#
#
#
# Elastic Constant Matrix: (Units=GPa)
#
#
# Indices 1 2 3 4 5 6 
#
# 1 103.8525 46.2806 30.2158 0.0000 1.7296 0.0000
# 2 46.2806 123.1292 26.7291 0.0000 1.3967 0.0000
# 3 30.2158 26.7291 69.9186 0.0000 -2.5619 0.0000
# 4 0.0000 0.0000 0.0000 33.8329 0.0000 -4.1705
# 5 1.7296 1.3967 -2.5619 0.0000 18.9387 0.0000
# 6 0.0000 0.0000 0.0000 -4.1705 0.0000 -0.0754
#
#
#
# Elastic Compliance Matrix: (Units=1/GPa)
#
#
# Indices 1 2 3 4 5 6 
#
# 1 0.012519 -0.003821 -0.004001 0.000000 -0.001403 0.000000
# 2 -0.003821 0.010046 -0.002215 0.000000 -0.000692 0.000000
# 3 -0.004001 -0.002215 0.016982 0.000000 0.002826 0.000000
# 4 0.000000 0.000000 0.000000 0.003780 0.000000 -0.209112
# 5 -0.001403 -0.000692 0.002826 0.000000 0.053363 0.000000
# 6 0.000000 0.000000 0.000000 -0.209112 0.000000 -1.696413
#
#
# Mechanical properties :
#
#
# Convention : Reuss Voigt Hill
#
# Bulk Modulus (GPa) = 51.35097 55.92792 53.63945
# Shear Modulus (GPa) = -3.17832 23.45090 10.13629
#
# Velocity S-wave (km/s) = -1.26971 3.44895 2.26750
# Velocity P-wave (km/s) = 4.88853 6.65051 5.83639
#
# Compressibility (1/GPa) = 0.01947383
#
# Stress axis : x y z
#
# Youngs Moduli (GPa) = 79.87639 99.53787 58.88742
#
# Poissons Ratio (x) = 0.38035 0.23560
# Poissons Ratio (y) = 0.30522 0.13041
# Poissons Ratio (z) = 0.31958 0.22044
#
# Static dielectric constant tensor:
#      x y z
#    x 3.591000 0.000000 0.053560 
#    y 0.000000 3.868700 0.000000 
#    z 0.053560 0.000000 3.728140 
# 
# 
# High freq. dielectric constant tensor:
#      x y z
#    x 1.749490 0.000000 -0.001630 
#    y 0.000000 1.778990 0.000000 
#    z -0.001630 0.000000 1.775830 
# 
# From -- ./inp_files/197831.got.cif
#   From: 2010.06.25/outbox.cif.g09.slc.cpg/sg15_99_cif.got.tgz:197831.got - 2010.06.28 07:06:18.
