data_PCOD8141904
_publ_section_title
;
Structure prediction by ZEFSAII (Michael W. Deem and Ramdas Pophale) SiO2 
 PCOD8141904
Probable space group: C 2/C
;
_chemical_formula_sum "Si O2"
_cell_formula_units_Z 64
_cell_length_a 11.317161
_cell_length_b 28.242852
_cell_length_c 9.151598
_cell_angle_alpha 90.000000
_cell_angle_beta 94.159609
_cell_angle_gamma 90.000000
_cell_volume 2917.410065
_symmetry_space_group_name_H-M "C 2/C"
_symmetry_group_IT_number 15
_symmetry_cell_setting 'monoclinic'
loop_
_space_group_symop_operation_xyz
x,y,z
-x,y,1/2-z
-x,-y,-z
x,-y,1/2+z
1/2+x,1/2+y,z
1/2-x,1/2+y,1/2-z
1/2-x,1/2-y,-z
1/2+x,1/2-y,1/2+z
loop_
_atom_site_type_symbol
_atom_site_label
_atom_site_fract_x
_atom_site_fract_y
_atom_site_fract_z
Si Si1 0.724068 0.303918 0.684827
Si Si2 0.770802 0.993743 0.191942
Si Si3 0.198505 0.654402 0.019746
Si Si4 0.631154 0.795293 0.230877
Si Si5 0.849742 0.933469 0.464852
Si Si6 0.199856 0.441220 0.916227
Si Si7 0.072762 0.348561 0.952197
Si Si8 0.934995 0.885861 0.897095
O O1 0.700650 0.248419 0.666547
O O2 0.858243 0.310439 0.640575
O O3 0.627376 0.334418 0.582458
O O4 0.714111 0.322976 0.851365
O O5 0.846143 0.959718 0.307488
O O6 0.675645 0.021465 0.284573
O O7 0.690120 0.962940 0.076525
O O8 0.853145 0.027993 0.097746
O O9 0.202929 0.687605 0.878297
O O10 0.236833 0.601092 0.981381
O O11 0.067176 0.655416 0.075758
O O12 0.500000 0.775662 0.250000
O O13 0.618575 0.840073 0.121517
O O14 0.967202 0.900267 0.472935
O O15 0.105138 0.400071 0.896348
O O16 0.333600 0.424992 0.895395
O O17 0.000000 0.887461 0.750000
#
# Coordination Sequence:
#
# PCOD8141904 Si02
#       8
#     8   8   8   8   8   8   8   8
#     4  11  21  38  63  88 118 152 200 242 289 358
#     4  10  22  37  59  89 118 154 204 248 289 358
#     4  11  22  39  63  86 118 157 197 240 296 350
#     4  10  22  38  62  91 118 151 194 246 296 348
#     4  11  22  39  59  88 121 158 200 244 300 346
#     4  10  21  38  58  84 118 154 198 243 298 349
#     4  10  22  41  61  84 119 161 192 238 301 351
#     4  11  20  36  60  85 116 160 189 239 304 350
#
# _framework density 21.937266000000001
#
# number of rings (size 3 to 8) (size 9 to 14) (size 15 to 20)
#    0.000    1.500    2.500    3.000    0.000    3.500 
#    0.000    3.750    2.750    0.000    0.000    0.000 
#    0.000    0.000    0.000    0.000    0.000    0.000 
#
# Total GULP energy -396695.539291 kJ/mol
# GULP energy per Si atom -12396.735603 kJ/mol
# Density = 2.188734 g / cm^3
# Si number density = 21.937266 Si / 1000 Ang^3
#
#
#
# Elastic Constant Matrix: (Units=GPa)
#
#
# Indices 1 2 3 4 5 6 
#
# 1 66.1424 45.8706 22.4744 0.0000 -2.5023 0.0000
# 2 45.8706 87.3387 8.1686 0.0000 -1.6473 0.0000
# 3 22.4744 8.1686 77.5708 0.0000 2.1282 0.0000
# 4 0.0000 0.0000 0.0000 31.6295 0.0000 0.6506
# 5 -2.5023 -1.6473 2.1282 0.0000 24.9682 0.0000
# 6 0.0000 0.0000 0.0000 0.6506 0.0000 13.8500
#
#
#
# Elastic Compliance Matrix: (Units=1/GPa)
#
#
# Indices 1 2 3 4 5 6 
#
# 1 0.026628 -0.013345 -0.006373 0.000000 0.002331 0.000000
# 2 -0.013345 0.018270 0.001951 0.000000 -0.000298 0.000000
# 3 -0.006373 0.001951 0.014581 0.000000 -0.001753 0.000000
# 4 0.000000 0.000000 0.000000 0.031647 0.000000 -0.001487
# 5 0.002331 -0.000298 -0.001753 0.000000 0.040414 0.000000
# 6 0.000000 0.000000 0.000000 -0.001487 0.000000 0.072272
#
#
# Mechanical properties :
#
#
# Convention : Reuss Voigt Hill
#
# Bulk Modulus (GPa) = 41.76538 42.67547 42.22042
# Shear Modulus (GPa) = 20.21608 24.39210 22.30409
#
# Velocity S-wave (km/s) = 3.03898 3.33814 3.19207
# Velocity P-wave (km/s) = 5.60301 5.86116 5.73354
#
# Compressibility (1/GPa) = 0.02394328
#
# Stress axis : x y z
#
# Youngs Moduli (GPa) = 37.55513 54.73343 68.58387
#
# Poissons Ratio (x) = 0.73041 0.43711
# Poissons Ratio (y) = 0.50117 -0.13378
# Poissons Ratio (z) = 0.23935 -0.10676
#
# Static dielectric constant tensor:
#      x y z
#    x 3.844000 0.000000 -0.018370 
#    y 0.000000 3.983480 0.000000 
#    z -0.018370 0.000000 4.088020 
# 
# 
# High freq. dielectric constant tensor:
#      x y z
#    x 1.842230 0.000000 -0.005200 
#    y 0.000000 1.862730 0.000000 
#    z -0.005200 0.000000 1.868900 
# 
# From -- ./inp_files/35691.got.cif
#   From: 2010.06.25/outbox.cif.g09.slc.cpg/sg15_18_cif.got.tgz:35691.got - 2010.06.28 07:06:18.
