data_PCOD8141551
_publ_section_title
;
Structure prediction by ZEFSAII (Michael W. Deem and Ramdas Pophale) SiO2 
 PCOD8141551
Probable space group: C 2/C
;
_chemical_formula_sum "Si O2"
_cell_formula_units_Z 40
_cell_length_a 25.581635
_cell_length_b 7.695723
_cell_length_c 8.961808
_cell_angle_alpha 90.000000
_cell_angle_beta 102.000226
_cell_angle_gamma 90.000000
_cell_volume 1725.748047
_symmetry_space_group_name_H-M "C 2/C"
_symmetry_group_IT_number 15
_symmetry_cell_setting 'monoclinic'
loop_
_space_group_symop_operation_xyz
x,y,z
-x,y,1/2-z
-x,-y,-z
x,-y,1/2+z
1/2+x,1/2+y,z
1/2-x,1/2+y,1/2-z
1/2-x,1/2-y,-z
1/2+x,1/2-y,1/2+z
loop_
_atom_site_type_symbol
_atom_site_label
_atom_site_fract_x
_atom_site_fract_y
_atom_site_fract_z
Si Si1 0.843443 0.663593 0.227810
Si Si2 0.943546 0.735659 0.748222
Si Si3 0.091004 0.539466 0.497198
Si Si4 0.664639 0.560387 0.323777
Si Si5 0.731943 0.600297 0.101289
O O1 0.882606 0.598006 0.376960
O O2 0.788795 0.548597 0.209480
O O3 0.837663 0.868422 0.247577
O O4 0.865415 0.642816 0.072677
O O5 0.941559 0.677699 0.921059
O O6 0.945544 0.567620 0.640447
O O7 0.893442 0.858515 0.676771
O O8 0.000000 0.834417 0.750000
O O9 0.693651 0.672133 0.211272
O O10 0.701537 0.555323 0.494668
O O11 0.750000 0.750000 0.000000
#
# Coordination Sequence:
#
# PCOD8141551 Si02
#       5
#     8   8   8   8   8
#     4  10  21  40  62  91 125 160 197 251 309 371
#     4  11  23  42  63  88 122 164 209 260 305 352
#     4  10  22  40  63  90 122 160 204 248 311 378
#     4  11  22  39  62  93 123 159 212 254 295 364
#     4  10  21  37  58  88 124 157 190 245 309 361
#
# _framework density 23.178355
#
# number of rings (size 3 to 8) (size 9 to 14) (size 15 to 20)
#    0.000    1.600    0.000    5.400    0.000    4.800 
#    0.000   23.000    0.000    0.000    0.000    0.000 
#    0.000    0.000    0.000    0.000    0.000    0.000 
#
# Total GULP energy -247824.653652 kJ/mol
# GULP energy per Si atom -12391.232683 kJ/mol
# Density = 2.312560 g / cm^3
# Si number density = 23.178355 Si / 1000 Ang^3
#
#
#
# Elastic Constant Matrix: (Units=GPa)
#
#
# Indices 1 2 3 4 5 6 
#
# 1 185.2723 30.8267 47.6185 0.0000 -20.9508 0.0000
# 2 30.8267 57.4394 16.2220 0.0000 -4.5050 0.0000
# 3 47.6185 16.2220 106.8267 0.0000 -15.5594 0.0000
# 4 0.0000 0.0000 0.0000 33.3874 0.0000 2.1972
# 5 -20.9508 -4.5050 -15.5594 0.0000 24.4246 0.0000
# 6 0.0000 0.0000 0.0000 2.1972 0.0000 27.4235
#
#
#
# Elastic Compliance Matrix: (Units=1/GPa)
#
#
# Indices 1 2 3 4 5 6 
#
# 1 0.006842 -0.002779 -0.002037 0.000000 0.004059 0.000000
# 2 -0.002779 0.019387 -0.001688 0.000000 0.000117 0.000000
# 3 -0.002037 -0.001688 0.011271 0.000000 0.005122 0.000000
# 4 0.000000 0.000000 0.000000 0.030110 0.000000 -0.002412
# 5 0.004059 0.000117 0.005122 0.000000 0.047708 0.000000
# 6 0.000000 0.000000 0.000000 -0.002412 0.000000 0.036658
#
#
# Mechanical properties :
#
#
# Convention : Reuss Voigt Hill
#
# Bulk Modulus (GPa) = 40.82817 59.87472 50.35144
# Shear Modulus (GPa) = 28.87684 34.03851 31.45768
#
# Velocity S-wave (km/s) = 3.53349 3.83632 3.68802
# Velocity P-wave (km/s) = 5.85666 6.74621 6.31711
#
# Compressibility (1/GPa) = 0.02449289
#
# Stress axis : x y z
#
# Youngs Moduli (GPa) = 146.15006 51.58134 88.72126
#
# Poissons Ratio (x) = 0.14332 0.18071
# Poissons Ratio (y) = 0.40608 0.14980
# Poissons Ratio (z) = 0.29768 0.08709
#
# Static dielectric constant tensor:
#      x y z
#    x 4.637940 0.000000 -0.085680 
#    y 0.000000 3.737770 0.000000 
#    z -0.085680 0.000000 4.546360 
# 
# 
# High freq. dielectric constant tensor:
#      x y z
#    x 1.918130 0.000000 -0.008090 
#    y 0.000000 1.883430 0.000000 
#    z -0.008090 0.000000 1.940480 
# 
# From -- ./inp_files/59932.got.cif
#   From: 2010.06.25/outbox.cif.g09.slc.cpg/sg15_30_cif.got.tgz:59932.got - 2010.06.28 07:06:18.
