data_PCOD8141035
_publ_section_title
;
Structure prediction by ZEFSAII (Michael W. Deem and Ramdas Pophale) SiO2 
 PCOD8141035
Probable space group: C 2/C
;
_chemical_formula_sum "Si O2"
_cell_formula_units_Z 52
_cell_length_a 5.171106
_cell_length_b 28.125337
_cell_length_c 20.824083
_cell_angle_alpha 90.000000
_cell_angle_beta 55.890664
_cell_angle_gamma 90.000000
_cell_volume 2507.616522
_symmetry_space_group_name_H-M "C 2/C"
_symmetry_group_IT_number 15
_symmetry_cell_setting 'monoclinic'
loop_
_space_group_symop_operation_xyz
x,y,z
-x,y,1/2-z
-x,-y,-z
x,-y,1/2+z
1/2+x,1/2+y,z
1/2-x,1/2+y,1/2-z
1/2-x,1/2-y,-z
1/2+x,1/2-y,1/2+z
loop_
_atom_site_type_symbol
_atom_site_label
_atom_site_fract_x
_atom_site_fract_y
_atom_site_fract_z
Si Si1 0.401007 0.198609 0.336040
Si Si2 0.340422 0.639652 0.613374
Si Si3 0.500000 0.345592 0.750000
Si Si4 0.636181 0.578683 0.138758
Si Si5 0.269905 0.306486 0.340881
Si Si6 0.660397 0.387509 0.939874
Si Si7 0.000000 0.433608 0.250000
Si Si8 0.500000 0.504140 0.750000
O O1 0.500000 0.183843 0.250000
O O2 0.264660 0.251057 0.359660
O O3 0.157038 0.164100 0.405309
O O4 0.743178 0.189297 0.319159
O O5 0.619832 0.666476 0.610919
O O6 0.476195 0.615357 0.531556
O O7 0.221027 0.598455 0.675763
O O8 0.073165 0.677484 0.632348
O O9 0.591521 0.382617 0.794510
O O10 0.528865 0.576038 0.079571
O O11 0.596741 0.526959 0.175101
O O12 0.994446 0.593714 0.096002
O O13 0.500000 0.317195 0.250000
O O14 0.793131 0.464250 0.230115
#
# Coordination Sequence:
#
# PCOD8141035 Si02
#       8
#     8   8   4   8   8   8   4   4
#     4  10  21  34  61  92 128 166 213 256 307 355
#     4  12  25  44  63  88 128 170 214 255 304 361
#     4   9  18  33  60  86 130 158 202 249 310 377
#     4  10  21  40  63  97 123 156 195 255 323 380
#     4  11  23  39  63  89 122 171 223 262 287 353
#     4  11  23  40  64  95 132 165 197 253 318 375
#     4  12  24  45  64  91 116 171 212 255 302 376
#     4  11  24  42  74  95 122 155 208 252 316 383
#
# _framework density 20.736823999999999
#
# number of rings (size 3 to 8) (size 9 to 14) (size 15 to 20)
#    0.000    1.231    3.077    2.769    4.308    1.231 
#    0.000    4.615    0.000    0.000    0.000    0.000 
#    0.000    0.000    0.000    0.000    0.000    0.000 
#
# Total GULP energy -322253.616137 kJ/mol
# GULP energy per Si atom -12394.369851 kJ/mol
# Density = 2.068963 g / cm^3
# Si number density = 20.736824 Si / 1000 Ang^3
#
#
#
# Elastic Constant Matrix: (Units=GPa)
#
#
# Indices 1 2 3 4 5 6 
#
# 1 105.1230 36.5056 15.2710 0.0000 12.1789 0.0000
# 2 36.5056 98.7422 35.4785 0.0000 1.0343 0.0000
# 3 15.2710 35.4785 111.0295 0.0000 18.8068 0.0000
# 4 0.0000 0.0000 0.0000 -7.2788 0.0000 7.8573
# 5 12.1789 1.0343 18.8068 0.0000 29.4568 0.0000
# 6 0.0000 0.0000 0.0000 7.8573 0.0000 24.5477
#
#
#
# Elastic Compliance Matrix: (Units=1/GPa)
#
#
# Indices 1 2 3 4 5 6 
#
# 1 0.011549 -0.004467 0.000696 0.000000 -0.005063 0.000000
# 2 -0.004467 0.013293 -0.004336 0.000000 0.004149 0.000000
# 3 0.000696 -0.004336 0.011571 0.000000 -0.007523 0.000000
# 4 0.000000 0.000000 0.000000 -0.102105 0.000000 0.032682
# 5 -0.005063 0.004149 -0.007523 0.000000 0.040699 0.000000
# 6 0.000000 0.000000 0.000000 0.032682 0.000000 0.030276
#
#
# Mechanical properties :
#
#
# Convention : Reuss Voigt Hill
#
# Bulk Modulus (GPa) = 49.50478 54.37832 51.94155
# Shear Modulus (GPa) = 177.12119 24.52112 100.82116
#
# Velocity S-wave (km/s) = 9.25199 3.44247 6.98032
# Velocity P-wave (km/s) = 11.74977 6.48697 9.49047
#
# Compressibility (1/GPa) = 0.02020007
#
# Stress axis : x y z
#
# Youngs Moduli (GPa) = 86.58537 75.22530 86.42533
#
# Poissons Ratio (x) = 0.33604 -0.06019
# Poissons Ratio (y) = 0.38678 0.37475
# Poissons Ratio (z) = -0.06031 0.32618
#
# Static dielectric constant tensor:
#      x y z
#    x 4.438170 0.000000 -0.191490 
#    y 0.000000 3.704810 0.000000 
#    z -0.191490 0.000000 3.907490 
# 
# 
# High freq. dielectric constant tensor:
#      x y z
#    x 1.827380 0.000000 0.006600 
#    y 0.000000 1.806870 0.000000 
#    z 0.006600 0.000000 1.800410 
# 
# From -- ./inp_files/185821.got.cif
#   From: 2010.06.25/outbox.cif.g09.slc.cpg/sg15_93_cif.got.tgz:185821.got - 2010.06.28 07:06:18.
