data_PCOD8141970
_publ_section_title
;
Structure prediction by ZEFSAII (Michael W. Deem and Ramdas Pophale) SiO2 
 PCOD8141970
Probable space group: C 2/C
;
_chemical_formula_sum "Si O2"
_cell_formula_units_Z 40
_cell_length_a 15.370460
_cell_length_b 25.957520
_cell_length_c 5.181441
_cell_angle_alpha 90.000000
_cell_angle_beta 79.505741
_cell_angle_gamma 90.000000
_cell_volume 2032.707106
_symmetry_space_group_name_H-M "C 2/C"
_symmetry_group_IT_number 15
_symmetry_cell_setting 'monoclinic'
loop_
_space_group_symop_operation_xyz
x,y,z
-x,y,1/2-z
-x,-y,-z
x,-y,1/2+z
1/2+x,1/2+y,z
1/2-x,1/2+y,1/2-z
1/2-x,1/2-y,-z
1/2+x,1/2-y,1/2+z
loop_
_atom_site_type_symbol
_atom_site_label
_atom_site_fract_x
_atom_site_fract_y
_atom_site_fract_z
Si Si1 0.000000 0.258260 0.250000
Si Si2 0.500000 0.965898 0.750000
Si Si3 0.243325 0.144194 0.447877
Si Si4 0.191467 0.464949 0.623494
Si Si5 0.191557 0.698826 0.571375
Si Si6 0.458575 0.660265 0.022331
O O1 0.912095 0.292306 0.322418
O O2 0.009440 0.220189 0.491815
O O3 0.593968 0.936395 0.683567
O O4 0.500000 0.000000 0.500000
O O5 0.241680 0.082087 0.450461
O O6 0.268835 0.166545 0.712299
O O7 0.146047 0.161147 0.420597
O O8 0.307013 0.165576 0.190502
O O9 0.206079 0.504843 0.382418
O O10 0.250000 0.750000 0.500000
O O11 0.500000 0.632742 0.750000
O O12 0.500000 0.631077 0.250000
#
# Coordination Sequence:
#
# PCOD8141970 Si02
#       6
#     4   4   8   8   8   8
#     4  10  24  36  61  84 128 168 196 249 300 358
#     4   8  16  32  55  80 110 150 186 235 302 360
#     4  12  24  40  64  91 122 162 207 254 302 367
#     4  10  21  39  62  86 117 154 199 252 303 356
#     4  12  24  39  59  91 128 161 207 246 299 362
#     4  10  21  38  60  84 115 166 204 235 304 368
#
# _framework density 19.678191999999999
#
# number of rings (size 3 to 8) (size 9 to 14) (size 15 to 20)
#    0.600    0.800    2.000    4.200    2.800    1.600 
#    0.000    2.000    0.000    3.600    0.000    0.000 
#    0.000    0.000    0.000    0.000    0.000    0.000 
#
# Total GULP energy -247773.489136 kJ/mol
# GULP energy per Si atom -12388.674457 kJ/mol
# Density = 1.963340 g / cm^3
# Si number density = 19.678192 Si / 1000 Ang^3
#
#
#
# Elastic Constant Matrix: (Units=GPa)
#
#
# Indices 1 2 3 4 5 6 
#
# 1 102.5742 19.6249 18.9256 0.0000 -2.6759 0.0000
# 2 19.6249 80.5040 28.0514 0.0000 3.9817 0.0000
# 3 18.9256 28.0514 139.3499 0.0000 6.6178 0.0000
# 4 0.0000 0.0000 0.0000 26.0420 0.0000 2.8627
# 5 -2.6759 3.9817 6.6178 0.0000 22.5987 0.0000
# 6 0.0000 0.0000 0.0000 2.8627 0.0000 0.2519
#
#
#
# Elastic Compliance Matrix: (Units=1/GPa)
#
#
# Indices 1 2 3 4 5 6 
#
# 1 0.010428 -0.002272 -0.001051 0.000000 0.001943 0.000000
# 2 -0.002272 0.013910 -0.002396 0.000000 -0.002018 0.000000
# 3 -0.001051 -0.002396 0.007897 0.000000 -0.002015 0.000000
# 4 0.000000 0.000000 0.000000 -0.154027 0.000000 1.750483
# 5 0.001943 -0.002018 -0.002015 0.000000 0.045426 0.000000
# 6 0.000000 0.000000 0.000000 1.750483 0.000000-15.923919
#
#
# Mechanical properties :
#
#
# Convention : Reuss Voigt Hill
#
# Bulk Modulus (GPa) = 48.08251 50.62578 49.35414
# Shear Modulus (GPa) = -0.31285 26.83360 13.26037
#
# Velocity S-wave (km/s) = -0.39916 3.69673 2.59870
# Velocity P-wave (km/s) = 4.92697 6.63353 5.84289
#
# Compressibility (1/GPa) = 0.02079758
#
# Stress axis : x y z
#
# Youngs Moduli (GPa) = 95.89228 71.88969 126.63184
#
# Poissons Ratio (x) = 0.16333 0.13312
# Poissons Ratio (y) = 0.21787 0.30338
# Poissons Ratio (z) = 0.10080 0.17223
#
# Static dielectric constant tensor:
#      x y z
#    x 3.789250 0.000000 0.015170 
#    y 0.000000 3.210780 0.000000 
#    z 0.015170 0.000000 3.850520 
# 
# 
# High freq. dielectric constant tensor:
#      x y z
#    x 1.774340 0.000000 0.004710 
#    y 0.000000 1.726440 0.000000 
#    z 0.004710 0.000000 1.790780 
# 
# From -- ./inp_files/7306.got.cif
#   From: 2010.06.25/outbox.cif.g09.slc.cpg/sg15_4_cif.got.tgz:7306.got - 2010.06.28 07:06:18.
