data_PCOD8141285
_publ_section_title
;
Structure prediction by ZEFSAII (Michael W. Deem and Ramdas Pophale) SiO2 
 PCOD8141285
Probable space group: C 2/C
;
_chemical_formula_sum "Si O2"
_cell_formula_units_Z 32
_cell_length_a 25.633322
_cell_length_b 10.787466
_cell_length_c 8.971509
_cell_angle_alpha 90.000000
_cell_angle_beta 146.457886
_cell_angle_gamma 90.000000
_cell_volume 1370.759388
_symmetry_space_group_name_H-M "C 2/C"
_symmetry_group_IT_number 15
_symmetry_cell_setting 'monoclinic'
loop_
_space_group_symop_operation_xyz
x,y,z
-x,y,1/2-z
-x,-y,-z
x,-y,1/2+z
1/2+x,1/2+y,z
1/2-x,1/2+y,1/2-z
1/2-x,1/2-y,-z
1/2+x,1/2-y,1/2+z
loop_
_atom_site_type_symbol
_atom_site_label
_atom_site_fract_x
_atom_site_fract_y
_atom_site_fract_z
Si Si1 0.362254 0.494057 0.910081
Si Si2 0.422254 0.668855 0.810816
Si Si3 0.778922 0.672090 0.804277
Si Si4 0.125083 0.248592 0.239733
O O1 0.412794 0.611560 0.952548
O O2 0.261095 0.540824 0.733849
O O3 0.343912 0.387194 0.747524
O O4 0.428300 0.442412 0.201932
O O5 0.332567 0.756228 0.564550
O O6 0.515759 0.753265 0.023608
O O7 0.851688 0.653305 0.837209
O O8 0.692060 0.761987 0.543664
#
# Coordination Sequence:
#
# PCOD8141285 Si02
#       4
#     8   8   8   8
#     4  11  20  36  60  94 116 151 197 247 298 349
#     4  11  23  37  63  92 120 154 197 249 297 351
#     4  10  21  36  57  90 124 152 193 245 303 346
#     4  10  22  38  60  90 120 155 193 252 297 346
#
# _framework density 23.344723999999999
#
# number of rings (size 3 to 8) (size 9 to 14) (size 15 to 20)
#    0.000    1.500    2.500    4.500    3.500    0.000 
#    0.000    0.000    0.000   24.000    0.000    0.000 
#    0.000    0.000    0.000    0.000    0.000    0.000 
#
# Total GULP energy -198305.736249 kJ/mol
# GULP energy per Si atom -12394.108516 kJ/mol
# Density = 2.329159 g / cm^3
# Si number density = 23.344724 Si / 1000 Ang^3
#
#
#
# Elastic Constant Matrix: (Units=GPa)
#
#
# Indices 1 2 3 4 5 6 
#
# 1 59.2391 7.5273 14.8616 0.0000 28.7342 0.0000
# 2 7.5273 23.4389 10.3510 0.0000 12.5759 0.0000
# 3 14.8616 10.3510 121.8177 0.0000 26.1884 0.0000
# 4 0.0000 0.0000 0.0000 28.6568 0.0000 13.7992
# 5 28.7342 12.5759 26.1884 0.0000 30.9016 0.0000
# 6 0.0000 0.0000 0.0000 13.7992 0.0000 44.6491
#
#
#
# Elastic Compliance Matrix: (Units=1/GPa)
#
#
# Indices 1 2 3 4 5 6 
#
# 1 0.032621 0.007471 0.003130 0.000000 -0.036026 0.000000
# 2 0.007471 0.056296 0.000885 0.000000 -0.030608 0.000000
# 3 0.003130 0.000885 0.010339 0.000000 -0.012033 0.000000
# 4 0.000000 0.000000 0.000000 0.040997 0.000000 -0.012671
# 5 -0.036026 -0.030608 -0.012033 0.000000 0.088514 0.000000
# 6 0.000000 0.000000 0.000000 -0.012671 0.000000 0.026313
#
#
# Mechanical properties :
#
#
# Convention : Reuss Voigt Hill
#
# Bulk Modulus (GPa) = 8.18137 29.99729 19.08933
# Shear Modulus (GPa) = 18.32508 32.29187 25.30848
#
# Velocity S-wave (km/s) = 2.80478 3.72326 3.29617
# Velocity P-wave (km/s) = 3.74183 5.60010 4.76248
#
# Compressibility (1/GPa) = 0.12222890
#
# Stress axis : x y z
#
# Youngs Moduli (GPa) = 30.65521 17.76316 96.72384
#
# Poissons Ratio (x) = -0.13271 -0.30279
# Poissons Ratio (y) = -0.22903 -0.08560
# Poissons Ratio (z) = -0.09596 -0.01572
#
# Static dielectric constant tensor:
#      x y z
#    x 4.491370 0.000000 -0.002530 
#    y 0.000000 3.861880 0.000000 
#    z -0.002530 0.000000 4.116510 
# 
# 
# High freq. dielectric constant tensor:
#      x y z
#    x 1.930390 0.000000 -0.001970 
#    y 0.000000 1.864150 0.000000 
#    z -0.001970 0.000000 1.932050 
# 
# From -- ./inp_files/62041.got.cif
#   From: 2010.06.25/outbox.cif.g09.slc.cpg/sg15_32_cif.got.tgz:62041.got - 2010.06.28 07:06:18.
