data_PCOD8141268
_publ_section_title
;
Structure prediction by ZEFSAII (Michael W. Deem and Ramdas Pophale) SiO2 
 PCOD8141268
Probable space group: C 2/C
;
_chemical_formula_sum "Si O2"
_cell_formula_units_Z 36
_cell_length_a 17.008410
_cell_length_b 21.858867
_cell_length_c 17.435804
_cell_angle_alpha 90.000000
_cell_angle_beta 163.141543
_cell_angle_gamma 90.000000
_cell_volume 1879.939493
_symmetry_space_group_name_H-M "C 2/C"
_symmetry_group_IT_number 15
_symmetry_cell_setting 'monoclinic'
loop_
_space_group_symop_operation_xyz
x,y,z
-x,y,1/2-z
-x,-y,-z
x,-y,1/2+z
1/2+x,1/2+y,z
1/2-x,1/2+y,1/2-z
1/2-x,1/2-y,-z
1/2+x,1/2-y,1/2+z
loop_
_atom_site_type_symbol
_atom_site_label
_atom_site_fract_x
_atom_site_fract_y
_atom_site_fract_z
Si Si1 0.064010 0.605709 0.091348
Si Si2 0.893318 0.941133 0.443271
Si Si3 0.329707 0.209176 0.966332
Si Si4 0.500000 0.622823 0.750000
Si Si5 0.297125 0.034065 0.129637
O O1 0.368405 0.609744 0.339425
O O2 0.053918 0.561423 0.156264
O O3 0.877478 0.581925 0.849265
O O4 0.959875 0.673053 0.016599
O O5 0.826349 0.966642 0.466200
O O6 0.000000 0.000000 0.500000
O O7 0.268517 0.162996 0.980120
O O8 0.030430 0.235702 0.671702
O O9 0.435334 0.581645 0.614635
O O10 0.500000 0.023621 0.250000
#
# Coordination Sequence:
#
# PCOD8141268 Si02
#       5
#     8   8   8   4   8
#     4  11  22  40  53  78 110 151 194 238 273 322
#     4  10  21  36  57  76 108 150 190 228 283 333
#     4  12  24  38  56  78 111 156 199 235 269 317
#     4  12  24  36  52  84 124 150 190 226 276 330
#     4  11  22  34  57  82 117 152 189 223 281 345
#
# _framework density 19.149553000000001
#
# number of rings (size 3 to 8) (size 9 to 14) (size 15 to 20)
#    0.000    0.889    2.222    8.667    3.111    0.000 
#    0.000    0.000    0.000    0.000    0.000    0.000 
#    0.000   17.778    0.000    0.000    0.000    0.000 
#
# Total GULP energy -223104.524297 kJ/mol
# GULP energy per Si atom -12394.695794 kJ/mol
# Density = 1.910597 g / cm^3
# Si number density = 19.149553 Si / 1000 Ang^3
#
#
#
# Elastic Constant Matrix: (Units=GPa)
#
#
# Indices 1 2 3 4 5 6 
#
# 1 97.8620 54.0757 37.9482 0.0151 18.0595 0.0089
# 2 54.0757 74.0466 37.4550 0.0065 0.6505 -0.0050
# 3 37.9482 37.4550 109.3986 -0.1821 9.7879 -0.0439
# 4 0.0151 0.0065 -0.1821 33.2045 -0.0396 15.4427
# 5 18.0595 0.6505 9.7879 -0.0396 25.0404 -0.0067
# 6 0.0089 -0.0050 -0.0439 15.4427 -0.0067 30.2058
#
#
#
# Elastic Compliance Matrix: (Units=1/GPa)
#
#
# Indices 1 2 3 4 5 6 
#
# 1 0.021815 -0.015298 -0.000992 -0.000031 -0.014948 0.000002
# 2 -0.015298 0.027143 -0.005088 -0.000018 0.012317 0.000013
# 3 -0.000992 -0.005088 0.011556 0.000070 -0.003669 -0.000020
# 4 -0.000031 -0.000018 0.000070 0.039512 0.000053 -0.020200
# 5 -0.014948 0.012317 -0.003669 0.000053 0.051830 -0.000014
# 6 0.000002 0.000013 -0.000020 -0.020200 -0.000014 0.043434
#
#
# Mechanical properties :
#
#
# Convention : Reuss Voigt Hill
#
# Bulk Modulus (GPa) = 56.31902 60.02946 58.17424
# Shear Modulus (GPa) = 20.49473 27.81204 24.15338
#
# Velocity S-wave (km/s) = 3.27501 3.81512 3.55534
# Velocity P-wave (km/s) = 6.61626 7.12900 6.87741
#
# Compressibility (1/GPa) = 0.01775599
#
# Stress axis : x y z
#
# Youngs Moduli (GPa) = 45.83974 36.84217 86.53869
#
# Poissons Ratio (x) = 0.56362 0.08586
# Poissons Ratio (y) = 0.70127 0.44034
# Poissons Ratio (z) = 0.04548 0.18746
#
# Static dielectric constant tensor:
#      x y z
#    x 4.383150 -0.002280 0.598540 
#    y -0.002280 6.782270 -0.001070 
#    z 0.598540 -0.001070 3.807700 
# 
# 
# High freq. dielectric constant tensor:
#      x y z
#    x 1.722520 0.000000 0.021380 
#    y 0.000000 1.716440 0.000000 
#    z 0.021380 0.000000 1.762400 
# 
# From -- ./inp_files/156869.got.cif
#   From: 2010.06.25/outbox.cif.g09.slc.cpg/sg15_79_cif.got.tgz:156869.got - 2010.06.28 07:06:18.
