data_PCOD8141153
_publ_section_title
;
Structure prediction by ZEFSAII (Michael W. Deem and Ramdas Pophale) SiO2 
 PCOD8141153
Probable space group: C 2/C
;
_chemical_formula_sum "Si O2"
_cell_formula_units_Z 56
_cell_length_a 20.444419
_cell_length_b 17.867525
_cell_length_c 14.386765
_cell_angle_alpha 90.000000
_cell_angle_beta 31.787867
_cell_angle_gamma 90.000000
_cell_volume 2768.395563
_symmetry_space_group_name_H-M "C 2/C"
_symmetry_group_IT_number 15
_symmetry_cell_setting 'monoclinic'
loop_
_space_group_symop_operation_xyz
x,y,z
-x,y,1/2-z
-x,-y,-z
x,-y,1/2+z
1/2+x,1/2+y,z
1/2-x,1/2+y,1/2-z
1/2-x,1/2-y,-z
1/2+x,1/2-y,1/2+z
loop_
_atom_site_type_symbol
_atom_site_label
_atom_site_fract_x
_atom_site_fract_y
_atom_site_fract_z
Si Si1 0.770619 0.343369 0.629055
Si Si2 0.426124 0.930162 0.743596
Si Si3 0.998638 0.622069 0.971645
Si Si4 0.607426 0.239658 0.195893
Si Si5 0.701863 0.073106 0.590900
Si Si6 0.881188 0.810520 0.957783
Si Si7 0.487429 0.710949 0.014753
O O1 0.857061 0.362901 0.611457
O O2 0.784719 0.405924 0.532850
O O3 0.798135 0.263805 0.545303
O O4 0.632650 0.342210 0.838387
O O5 0.500000 0.946017 0.750000
O O6 0.506238 0.937252 0.549572
O O7 0.387014 0.845222 0.778061
O O8 0.302134 0.982457 0.895254
O O9 0.067683 0.592803 0.796363
O O10 0.059103 0.702768 0.922914
O O11 0.500000 0.251137 0.250000
O O12 0.568719 0.297544 0.323432
O O13 0.750000 0.250000 0.000000
O O14 0.809833 0.112840 0.519346
O O15 0.000000 0.800799 0.750000
O O16 0.921533 0.816660 0.014891
#
# Coordination Sequence:
#
# PCOD8141153 Si02
#       7
#     8   8   8   8   8   8   8
#     4  11  20  35  61  92 127 160 207 256 312 375
#     4  10  23  41  61  90 123 159 215 259 311 366
#     4  10  21  35  60  89 121 161 206 255 304 359
#     4  10  24  43  69  94 118 160 217 279 322 366
#     4  12  21  36  59  88 129 169 197 252 310 382
#     4  11  21  34  55  90 130 166 203 245 313 380
#     4  10  21  36  61  90 123 158 206 257 309 372
#
# _framework density 20.228324000000001
#
# number of rings (size 3 to 8) (size 9 to 14) (size 15 to 20)
#    0.000    1.429    2.857    3.857    6.000    1.143 
#    0.000    0.714    0.000    1.714    0.000    0.000 
#    0.000    0.000    0.000    0.000    0.000    0.000 
#
# Total GULP energy -346942.853264 kJ/mol
# GULP energy per Si atom -12390.816188 kJ/mol
# Density = 2.018228 g / cm^3
# Si number density = 20.228324 Si / 1000 Ang^3
#
#
#
# Elastic Constant Matrix: (Units=GPa)
#
#
# Indices 1 2 3 4 5 6 
#
# 1 109.3625 28.3905 48.3608 -0.0002 15.9711 -0.0001
# 2 28.3905 53.0509 28.8040 -0.0001 5.1607 -0.0001
# 3 48.3608 28.8040 140.7095 -0.0004 13.8863 -0.0001
# 4 -0.0002 -0.0001 -0.0004 27.8537 0.0002 -3.8950
# 5 15.9711 5.1607 13.8863 0.0002 34.0748 0.0001
# 6 -0.0001 -0.0001 -0.0001 -3.8950 0.0001 10.5205
#
#
#
# Elastic Compliance Matrix: (Units=1/GPa)
#
#
# Indices 1 2 3 4 5 6 
#
# 1 0.012159 -0.004579 -0.002863 0.000000 -0.003839 0.000000
# 2 -0.004579 0.023006 -0.003129 0.000000 -0.000063 0.000000
# 3 -0.002863 -0.003129 0.008911 0.000000 -0.001816 0.000000
# 4 0.000000 0.000000 0.000000 0.037862 0.000000 0.014018
# 5 -0.003839 -0.000063 -0.001816 0.000000 0.031896 -0.000001
# 6 0.000000 0.000000 0.000000 0.014018 -0.000001 0.100242
#
#
# Mechanical properties :
#
#
# Convention : Reuss Voigt Hill
#
# Bulk Modulus (GPa) = 43.60610 57.13706 50.37158
# Shear Modulus (GPa) = 20.58781 27.66098 24.12440
#
# Velocity S-wave (km/s) = 3.19371 3.70190 3.45716
# Velocity P-wave (km/s) = 5.93325 6.82492 6.39465
#
# Compressibility (1/GPa) = 0.02293257
#
# Stress axis : x y z
#
# Youngs Moduli (GPa) = 82.24189 43.46768 112.22690
#
# Poissons Ratio (x) = 0.19905 0.32128
# Poissons Ratio (y) = 0.37661 0.35119
# Poissons Ratio (z) = 0.23544 0.13602
#
# Static dielectric constant tensor:
#      x y z
#    x -2.959400 0.000020 2.788400 
#    y 0.000020 3.626120 -0.000010 
#    z 2.788400 -0.000010 2.778510 
# 
# 
# High freq. dielectric constant tensor:
#      x y z
#    x 1.796570 0.000000 0.016060 
#    y 0.000000 1.767170 0.000000 
#    z 0.016060 0.000000 1.787320 
# 
# From -- ./inp_files/98403.got.cif
#   From: 2010.06.25/outbox.cif.g09.slc.cpg/sg15_50_cif.got.tgz:98403.got - 2010.06.28 07:06:18.
