data_PCOD8141398
_publ_section_title
;
Structure prediction by ZEFSAII (Michael W. Deem and Ramdas Pophale) SiO2 
 PCOD8141398
Probable space group: C 2/C
;
_chemical_formula_sum "Si O2"
_cell_formula_units_Z 48
_cell_length_a 9.814959
_cell_length_b 19.345361
_cell_length_c 27.702440
_cell_angle_alpha 90.000000
_cell_angle_beta 151.997135
_cell_angle_gamma 90.000000
_cell_volume 2469.639041
_symmetry_space_group_name_H-M "C 2/C"
_symmetry_group_IT_number 15
_symmetry_cell_setting 'monoclinic'
loop_
_space_group_symop_operation_xyz
x,y,z
-x,y,1/2-z
-x,-y,-z
x,-y,1/2+z
1/2+x,1/2+y,z
1/2-x,1/2+y,1/2-z
1/2-x,1/2-y,-z
1/2+x,1/2-y,1/2+z
loop_
_atom_site_type_symbol
_atom_site_label
_atom_site_fract_x
_atom_site_fract_y
_atom_site_fract_z
Si Si1 0.604002 0.135895 0.732591
Si Si2 0.985327 0.078622 0.982115
Si Si3 0.203024 0.070354 0.949007
Si Si4 0.177040 0.591273 0.022907
Si Si5 0.175835 0.683782 0.655689
Si Si6 0.170843 0.838238 0.634110
O O1 0.500000 0.172239 0.750000
O O2 0.348362 0.084352 0.637783
O O3 0.628571 0.193511 0.698514
O O4 0.902279 0.092345 0.829459
O O5 0.196490 0.095113 0.002520
O O6 0.082829 0.128003 0.055870
O O7 0.000000 0.000000 0.000000
O O8 0.248874 0.988507 0.960926
O O9 0.476736 0.105634 0.007140
O O10 0.482866 0.631888 0.120238
O O11 0.022065 0.622324 0.926780
O O12 0.500000 0.658146 0.750000
O O13 0.112863 0.756488 0.609941
O O14 0.500000 0.854571 0.750000
#
# Coordination Sequence:
#
# PCOD8141398 Si02
#       6
#     8   8   8   8   8   8
#     4  10  21  36  62  90 120 157 203 254 299 367
#     4  11  21  38  61  90 121 162 202 249 304 366
#     4  10  22  37  60  95 122 153 206 255 315 346
#     4  11  21  39  61  89 125 160 198 260 299 363
#     4  11  21  41  62  90 121 165 207 244 304 374
#     4  11  25  39  63  87 123 168 208 246 301 367
#
# _framework density 19.436039000000001
#
# number of rings (size 3 to 8) (size 9 to 14) (size 15 to 20)
#    0.000    1.333    5.000    0.500    2.333    0.000 
#    0.000    5.000    0.000    0.000    0.000    0.000 
#    0.000    0.000    0.000    0.000    0.000    0.000 
#
# Total GULP energy -297416.259592 kJ/mol
# GULP energy per Si atom -12392.344150 kJ/mol
# Density = 1.939180 g / cm^3
# Si number density = 19.436039 Si / 1000 Ang^3
#
#
#
# Elastic Constant Matrix: (Units=GPa)
#
#
# Indices 1 2 3 4 5 6 
#
# 1 171.4597 39.8847 62.1641 0.0071 6.4338 0.0005
# 2 39.8847 74.0301 36.5305 0.0026 -7.2855 0.0061
# 3 62.1641 36.5305 101.6262 -0.0026 13.6505 0.0216
# 4 0.0071 0.0026 -0.0026 17.5895 -0.0002 0.0015
# 5 6.4338 -7.2855 13.6505 -0.0002 39.7352 0.0057
# 6 0.0005 0.0061 0.0216 0.0015 0.0057 16.2981
#
#
#
# Elastic Compliance Matrix: (Units=1/GPa)
#
#
# Indices 1 2 3 4 5 6 
#
# 1 0.007794 -0.002315 -0.003888 -0.000003 -0.000351 0.000006
# 2 -0.002315 0.018239 -0.005912 -0.000003 0.005750 -0.000001
# 3 -0.003888 -0.005912 0.015101 0.000005 -0.005642 -0.000016
# 4 -0.000003 -0.000003 0.000005 0.056852 -0.000001 -0.000005
# 5 -0.000351 0.005750 -0.005642 -0.000001 0.028216 -0.000005
# 6 0.000006 -0.000001 -0.000016 -0.000005 -0.000005 0.061357
#
#
# Mechanical properties :
#
#
# Convention : Reuss Voigt Hill
#
# Bulk Modulus (GPa) = 59.16127 69.36384 64.26255
# Shear Modulus (GPa) = 22.99661 28.62702 25.81181
#
# Velocity S-wave (km/s) = 3.44349 3.84198 3.64818
# Velocity P-wave (km/s) = 6.80553 7.44626 7.13309
#
# Compressibility (1/GPa) = 0.01690295
#
# Stress axis : x y z
#
# Youngs Moduli (GPa) = 128.31123 54.82904 66.21874
#
# Poissons Ratio (x) = 0.12692 0.25746
# Poissons Ratio (y) = 0.29701 0.39151
# Poissons Ratio (z) = 0.49889 0.32417
#
# Static dielectric constant tensor:
#      x y z
#    x 4.179570 -0.000010 0.215230 
#    y -0.000010 3.325420 -0.000020 
#    z 0.215230 -0.000020 3.743690 
# 
# 
# High freq. dielectric constant tensor:
#      x y z
#    x 1.779470 0.000000 0.017520 
#    y 0.000000 1.735930 0.000000 
#    z 0.017520 0.000000 1.760550 
# 
# From -- ./inp_files/135919.got.cif
#   From: 2010.06.25/outbox.cif.g09.slc.cpg/sg15_68_cif.got.tgz:135919.got - 2010.06.28 07:06:18.
