data_PCOD8141423
_publ_section_title
;
Structure prediction by ZEFSAII (Michael W. Deem and Ramdas Pophale) SiO2 
 PCOD8141423
Probable space group: C 2/C
;
_chemical_formula_sum "Si O2"
_cell_formula_units_Z 48
_cell_length_a 8.916677
_cell_length_b 29.863279
_cell_length_c 17.464716
_cell_angle_alpha 90.000000
_cell_angle_beta 149.113996
_cell_angle_gamma 90.000000
_cell_volume 2387.261978
_symmetry_space_group_name_H-M "C 2/C"
_symmetry_group_IT_number 15
_symmetry_cell_setting 'monoclinic'
loop_
_space_group_symop_operation_xyz
x,y,z
-x,y,1/2-z
-x,-y,-z
x,-y,1/2+z
1/2+x,1/2+y,z
1/2-x,1/2+y,1/2-z
1/2-x,1/2-y,-z
1/2+x,1/2-y,1/2+z
loop_
_atom_site_type_symbol
_atom_site_label
_atom_site_fract_x
_atom_site_fract_y
_atom_site_fract_z
Si Si1 0.533055 0.243166 0.174937
Si Si2 0.812591 0.506607 0.599968
Si Si3 0.256338 0.171730 0.705913
Si Si4 0.140005 0.582584 0.670142
Si Si5 0.692763 0.066723 0.520452
Si Si6 0.398977 0.147274 0.123450
O O1 0.500000 0.254383 0.250000
O O2 0.772597 0.278393 0.249290
O O3 0.608797 0.190426 0.198216
O O4 0.250000 0.250000 0.000000
O O5 0.500000 0.500000 0.500000
O O6 0.895727 0.479200 0.559761
O O7 0.000000 0.486482 0.750000
O O8 0.897592 0.558405 0.617803
O O9 0.500000 0.168487 0.750000
O O10 0.347519 0.136052 0.811603
O O11 0.942531 0.161514 0.529731
O O12 0.068419 0.570245 0.551303
O O13 0.458486 0.564921 0.831737
O O14 0.545220 0.108652 0.413128
O O15 0.500000 0.128461 0.250000
#
# Coordination Sequence:
#
# PCOD8141423 Si02
#       6
#     8   8   8   8   8   8
#     4   9  19  35  61  90 120 157 207 251 303 368
#     4  12  23  40  63  90 123 158 203 254 303 363
#     4  10  21  36  63  90 120 158 204 254 299 361
#     4  10  22  38  60  93 121 159 208 247 299 368
#     4  10  21  38  64  87 122 161 203 251 298 362
#     4   9  19  38  62  88 120 158 203 246 303 363
#
# _framework density 20.106715999999999
#
# number of rings (size 3 to 8) (size 9 to 14) (size 15 to 20)
#    0.000    2.000    1.667    1.500    9.333    0.000 
#    0.000    7.500    0.000    0.000    0.000    0.000 
#    0.000    0.000    0.000    0.000    0.000    0.000 
#
# Total GULP energy -297327.192379 kJ/mol
# GULP energy per Si atom -12388.633016 kJ/mol
# Density = 2.006095 g / cm^3
# Si number density = 20.106716 Si / 1000 Ang^3
#
#
#
# Elastic Constant Matrix: (Units=GPa)
#
#
# Indices 1 2 3 4 5 6 
#
# 1 98.3919 46.0806 46.8666 0.0000 -14.2152 0.0000
# 2 46.0806 125.2989 37.7711 0.0000 -7.8153 0.0000
# 3 46.8666 37.7711 77.1570 0.0000 -22.6306 0.0000
# 4 0.0000 0.0000 0.0000 29.1729 0.0000 -2.4151
# 5 -14.2152 -7.8153 -22.6306 0.0000 41.9926 0.0000
# 6 0.0000 0.0000 0.0000 -2.4151 0.0000 31.8665
#
#
#
# Elastic Compliance Matrix: (Units=1/GPa)
#
#
# Indices 1 2 3 4 5 6 
#
# 1 0.015415 -0.003355 -0.007570 0.000000 0.000514 0.000000
# 2 -0.003355 0.010119 -0.003203 0.000000 -0.000978 0.000000
# 3 -0.007570 -0.003203 0.021617 0.000000 0.008491 0.000000
# 4 0.000000 0.000000 0.000000 0.034495 0.000000 0.002614
# 5 0.000514 -0.000978 0.008491 0.000000 0.028382 0.000000
# 6 0.000000 0.000000 0.000000 0.002614 0.000000 0.031579
#
#
# Mechanical properties :
#
#
# Convention : Reuss Voigt Hill
#
# Bulk Modulus (GPa) = 52.92272 62.47605 57.69939
# Shear Modulus (GPa) = 28.38315 31.94839 30.16577
#
# Velocity S-wave (km/s) = 3.76124 3.99048 3.87755
# Velocity P-wave (km/s) = 6.72611 7.23682 6.98613
#
# Compressibility (1/GPa) = 0.01889548
#
# Stress axis : x y z
#
# Youngs Moduli (GPa) = 64.87280 98.82191 46.25951
#
# Poissons Ratio (x) = 0.33155 0.35019
# Poissons Ratio (y) = 0.21765 0.14816
# Poissons Ratio (z) = 0.49109 0.31651
#
# Static dielectric constant tensor:
#      x y z
#    x 3.515240 0.000000 -0.342430 
#    y 0.000000 4.090900 0.000000 
#    z -0.342430 0.000000 3.647590 
# 
# 
# High freq. dielectric constant tensor:
#      x y z
#    x 1.770660 0.000000 -0.029920 
#    y 0.000000 1.799300 0.000000 
#    z -0.029920 0.000000 1.775580 
# 
# From -- ./inp_files/194165.got.cif
#   From: 2010.06.25/outbox.cif.g09.slc.cpg/sg15_98_cif.got.tgz:194165.got - 2010.06.28 07:06:18.
