data_PCOD8141117
_publ_section_title
;
Structure prediction by ZEFSAII (Michael W. Deem and Ramdas Pophale) SiO2 
 PCOD8141117
Probable space group: C 2/C
;
_chemical_formula_sum "Si O2"
_cell_formula_units_Z 64
_cell_length_a 13.740169
_cell_length_b 27.795844
_cell_length_c 9.355149
_cell_angle_alpha 90.000000
_cell_angle_beta 76.552404
_cell_angle_gamma 90.000000
_cell_volume 3474.956206
_symmetry_space_group_name_H-M "C 2/C"
_symmetry_group_IT_number 15
_symmetry_cell_setting 'monoclinic'
loop_
_space_group_symop_operation_xyz
x,y,z
-x,y,1/2-z
-x,-y,-z
x,-y,1/2+z
1/2+x,1/2+y,z
1/2-x,1/2+y,1/2-z
1/2-x,1/2-y,-z
1/2+x,1/2-y,1/2+z
loop_
_atom_site_type_symbol
_atom_site_label
_atom_site_fract_x
_atom_site_fract_y
_atom_site_fract_z
Si Si1 0.919114 0.130473 0.886798
Si Si2 0.270494 0.699398 0.561365
Si Si3 0.102432 0.622188 0.906440
Si Si4 0.616862 0.120695 0.563702
Si Si5 0.249006 0.201418 0.591756
Si Si6 0.272287 0.449687 0.339306
Si Si7 0.779007 0.048112 0.501377
Si Si8 0.939382 0.128792 0.411328
O O1 0.841068 0.172293 0.948866
O O2 0.865024 0.085180 0.834262
O O3 0.000000 0.151651 0.750000
O O4 0.973697 0.113770 0.010230
O O5 0.250000 0.750000 0.500000
O O6 0.184892 0.667343 0.515461
O O7 0.267361 0.706656 0.732949
O O8 0.377261 0.675611 0.485094
O O9 0.100300 0.621685 0.737553
O O10 0.148500 0.670774 0.959776
O O11 0.169065 0.575781 0.928162
O O12 0.985994 0.620531 0.993368
O O13 0.674913 0.073124 0.492100
O O14 0.250000 0.250000 0.500000
O O15 0.288928 0.497917 0.420009
O O16 0.275565 0.461097 0.171189
O O17 0.869215 0.082254 0.419522
O O18 0.000000 0.142815 0.250000
#
# Coordination Sequence:
#
# PCOD8141117 Si02
#       8
#     8   8   8   8   8   8   8   8
#     4  11  20  41  58  76 116 156 183 227 283 336
#     4  10  21  38  55  85 116 144 188 239 280 328
#     4   8  16  35  56  80 106 149 188 222 279 334
#     4   8  16  35  58  74 111 149 183 229 276 334
#     4  10  21  36  59  84 113 149 190 228 280 344
#     4  10  21  35  58  83 114 147 186 232 279 337
#     4  10  21  37  55  85 112 146 188 232 282 334
#     4  11  24  39  58  83 113 151 191 232 285 339
#
# _framework density 18.417497999999998
#
# number of rings (size 3 to 8) (size 9 to 14) (size 15 to 20)
#    0.000    2.250    2.500    1.500    3.500    2.500 
#    2.250    0.000    0.000    1.500    0.000    0.000 
#    0.000    0.000    0.000    0.000    0.000    0.000 
#
# Total GULP energy -396553.387058 kJ/mol
# GULP energy per Si atom -12392.293346 kJ/mol
# Density = 1.837558 g / cm^3
# Si number density = 18.417498 Si / 1000 Ang^3
#
#
#
# Elastic Constant Matrix: (Units=GPa)
#
#
# Indices 1 2 3 4 5 6 
#
# 1 141.7603 54.3852 37.5996 0.0000 0.1563 0.0000
# 2 54.3852 139.4519 41.9283 0.0000 -0.7209 0.0000
# 3 37.5996 41.9283 76.8067 0.0000 -5.3648 0.0000
# 4 0.0000 0.0000 0.0000 33.7265 0.0000 8.8651
# 5 0.1563 -0.7209 -5.3648 0.0000 19.1137 0.0000
# 6 0.0000 0.0000 0.0000 8.8651 0.0000 11.1218
#
#
#
# Elastic Compliance Matrix: (Units=1/GPa)
#
#
# Indices 1 2 3 4 5 6 
#
# 1 0.008828 -0.002545 -0.003003 0.000000 -0.001011 0.000000
# 2 -0.002545 0.009332 -0.003899 0.000000 -0.000721 0.000000
# 3 -0.003003 -0.003899 0.016942 0.000000 0.004633 0.000000
# 4 0.000000 0.000000 0.000000 0.037509 0.000000 -0.029899
# 5 -0.001011 -0.000721 0.004633 0.000000 0.053600 0.000000
# 6 0.000000 0.000000 0.000000 -0.029899 0.000000 0.113746
#
#
# Mechanical properties :
#
#
# Convention : Reuss Voigt Hill
#
# Bulk Modulus (GPa) = 61.69758 69.53834 65.61796
# Shear Modulus (GPa) = 18.92125 27.73279 23.32702
#
# Velocity S-wave (km/s) = 3.20871 3.88465 3.56275
# Velocity P-wave (km/s) = 6.87749 7.61310 7.25463
#
# Compressibility (1/GPa) = 0.01620809
#
# Stress axis : x y z
#
# Youngs Moduli (GPa) = 113.27298 107.15765 59.02648
#
# Poissons Ratio (x) = 0.27275 0.17725
# Poissons Ratio (y) = 0.28831 0.23013
# Poissons Ratio (z) = 0.34015 0.41777
#
# Static dielectric constant tensor:
#      x y z
#    x 3.994280 0.000000 0.022280 
#    y 0.000000 3.366070 0.000000 
#    z 0.022280 0.000000 3.818270 
# 
# 
# High freq. dielectric constant tensor:
#      x y z
#    x 1.731550 0.000000 0.002200 
#    y 0.000000 1.711210 0.000000 
#    z 0.002200 0.000000 1.692540 
# 
# From -- ./inp_files/43524.got.cif
#   From: 2010.06.25/outbox.cif.g09.slc.cpg/sg15_22_cif.got.tgz:43524.got - 2010.06.28 07:06:18.
