data_PCOD8141725
_publ_section_title
;
Structure prediction by ZEFSAII (Michael W. Deem and Ramdas Pophale) SiO2 
 PCOD8141725
Probable space group: C 2/C
;
_chemical_formula_sum "Si O2"
_cell_formula_units_Z 52
_cell_length_a 16.206562
_cell_length_b 18.955118
_cell_length_c 8.268415
_cell_angle_alpha 90.000000
_cell_angle_beta 99.433689
_cell_angle_gamma 90.000000
_cell_volume 2505.683186
_symmetry_space_group_name_H-M "C 2/C"
_symmetry_group_IT_number 15
_symmetry_cell_setting 'monoclinic'
loop_
_space_group_symop_operation_xyz
x,y,z
-x,y,1/2-z
-x,-y,-z
x,-y,1/2+z
1/2+x,1/2+y,z
1/2-x,1/2+y,1/2-z
1/2-x,1/2-y,-z
1/2+x,1/2-y,1/2+z
loop_
_atom_site_type_symbol
_atom_site_label
_atom_site_fract_x
_atom_site_fract_y
_atom_site_fract_z
Si Si1 0.800641 0.398706 0.047067
Si Si2 0.336099 0.576377 0.496108
Si Si3 0.866875 0.923737 0.380268
Si Si4 0.040427 0.314665 0.428172
Si Si5 0.500000 0.890578 0.750000
Si Si6 0.512847 0.653324 0.076171
Si Si7 0.828863 0.461565 0.714050
O O1 0.702749 0.379069 0.038682
O O2 0.859730 0.329577 0.060812
O O3 0.822482 0.453845 0.197231
O O4 0.812784 0.446400 0.894657
O O5 0.374691 0.503773 0.442370
O O6 0.338956 0.578357 0.687911
O O7 0.390472 0.642135 0.443634
O O8 0.239966 0.582862 0.409650
O O9 0.956490 0.888018 0.429112
O O10 0.010205 0.346364 0.588486
O O11 0.016713 0.233581 0.432452
O O12 0.000000 0.347021 0.250000
O O13 0.420514 0.938721 0.688617
O O14 0.500000 0.620695 0.250000
#
# Coordination Sequence:
#
# PCOD8141725 Si02
#       7
#     8   8   8   8   4   8   8
#     4  10  21  38  61  94 127 159 205 259 312 376
#     4  11  22  38  63  95 124 158 206 261 315 371
#     4  11  22  37  65  92 125 160 205 261 311 375
#     4  10  25  40  63  87 128 170 211 255 309 381
#     4  10  24  40  64  92 128 160 208 264 306 384
#     4  11  23  42  61  85 124 170 209 254 306 374
#     4  10  21  37  62  94 122 162 198 263 317 359
#
# _framework density 20.752821000000001
#
# number of rings (size 3 to 8) (size 9 to 14) (size 15 to 20)
#    0.000    1.538    0.000    6.462    7.538    1.846 
#    0.000    2.308    0.000    0.000    0.000    0.000 
#    0.000    0.000    0.000    0.000    0.000    0.000 
#
# Total GULP energy -322279.742578 kJ/mol
# GULP energy per Si atom -12395.374715 kJ/mol
# Density = 2.070559 g / cm^3
# Si number density = 20.752821 Si / 1000 Ang^3
#
#
#
# Elastic Constant Matrix: (Units=GPa)
#
#
# Indices 1 2 3 4 5 6 
#
# 1 140.6911 44.5221 24.0851 0.0000 7.6768 0.0000
# 2 44.5221 69.4901 11.0650 0.0000 5.2080 0.0000
# 3 24.0851 11.0650 72.7914 0.0000 -4.2530 0.0000
# 4 0.0000 0.0000 0.0000 23.2821 0.0000 3.1406
# 5 7.6768 5.2080 -4.2530 0.0000 36.5787 0.0000
# 6 0.0000 0.0000 0.0000 3.1406 0.0000 37.6414
#
#
#
# Elastic Compliance Matrix: (Units=1/GPa)
#
#
# Indices 1 2 3 4 5 6 
#
# 1 0.009325 -0.005494 -0.002335 0.000000 -0.001446 0.000000
# 2 -0.005494 0.018193 -0.001039 0.000000 -0.001558 0.000000
# 3 -0.002335 -0.001039 0.014806 0.000000 0.002359 0.000000
# 4 0.000000 0.000000 0.000000 0.043440 0.000000 -0.003624
# 5 -0.001446 -0.001558 0.002359 0.000000 0.028138 0.000000
# 6 0.000000 0.000000 0.000000 -0.003624 0.000000 0.026869
#
#
# Mechanical properties :
#
#
# Convention : Reuss Voigt Hill
#
# Bulk Modulus (GPa) = 40.66907 49.14631 44.90769
# Shear Modulus (GPa) = 29.99347 33.05382 31.52364
#
# Velocity S-wave (km/s) = 3.80580 3.99524 3.90167
# Velocity P-wave (km/s) = 6.24112 6.70938 6.47948
#
# Compressibility (1/GPa) = 0.02458871
#
# Stress axis : x y z
#
# Youngs Moduli (GPa) = 107.23757 54.96650 67.53960
#
# Poissons Ratio (x) = 0.30201 0.15769
# Poissons Ratio (y) = 0.58921 0.07014
# Poissons Ratio (z) = 0.25037 0.05709
#
# Static dielectric constant tensor:
#      x y z
#    x 4.091340 0.000000 -0.007190 
#    y 0.000000 1.801650 0.000000 
#    z -0.007190 0.000000 4.085100 
# 
# 
# High freq. dielectric constant tensor:
#      x y z
#    x 1.826080 0.000000 -0.003370 
#    y 0.000000 1.778160 0.000000 
#    z -0.003370 0.000000 1.835300 
# 
# From -- ./inp_files/40886.got.cif
#   From: 2010.06.25/outbox.cif.g09.slc.cpg/sg15_21_cif.got.tgz:40886.got - 2010.06.28 07:06:18.
