data_PCOD8141155
_publ_section_title
;
Structure prediction by ZEFSAII (Michael W. Deem and Ramdas Pophale) SiO2 
 PCOD8141155
Probable space group: C 2/C
;
_chemical_formula_sum "Si O2"
_cell_formula_units_Z 64
_cell_length_a 18.889124
_cell_length_b 11.797207
_cell_length_c 15.221171
_cell_angle_alpha 90.000000
_cell_angle_beta 102.649997
_cell_angle_gamma 90.000000
_cell_volume 3309.534983
_symmetry_space_group_name_H-M "C 2/C"
_symmetry_group_IT_number 15
_symmetry_cell_setting 'monoclinic'
loop_
_space_group_symop_operation_xyz
x,y,z
-x,y,1/2-z
-x,-y,-z
x,-y,1/2+z
1/2+x,1/2+y,z
1/2-x,1/2+y,1/2-z
1/2-x,1/2-y,-z
1/2+x,1/2-y,1/2+z
loop_
_atom_site_type_symbol
_atom_site_label
_atom_site_fract_x
_atom_site_fract_y
_atom_site_fract_z
Si Si1 0.652497 0.833805 0.411766
Si Si2 0.523172 0.022847 0.907703
Si Si3 0.274046 0.391865 0.566402
Si Si4 0.697219 0.291315 0.613439
Si Si5 0.123972 0.615350 0.703304
Si Si6 0.324433 0.363251 0.077804
Si Si7 0.201718 0.395532 0.722344
Si Si8 0.924078 0.688136 0.190728
O O1 0.578075 0.873238 0.435894
O O2 0.666283 0.703063 0.440364
O O3 0.719623 0.909035 0.468686
O O4 0.640456 0.848068 0.305837
O O5 0.455385 0.058911 0.828273
O O6 0.566264 0.917601 0.874198
O O7 0.500000 0.000000 0.000000
O O8 0.317422 0.505598 0.603980
O O9 0.226633 0.342995 0.635985
O O10 0.631568 0.223675 0.642043
O O11 0.665988 0.363307 0.524758
O O12 0.753423 0.200643 0.591077
O O13 0.733916 0.378910 0.690509
O O14 0.187386 0.526873 0.696972
O O15 0.394685 0.300567 0.135362
O O16 0.127930 0.343129 0.741750
O O17 0.000000 0.726124 0.250000
#
# Coordination Sequence:
#
# PCOD8141155 Si02
#       8
#     8   8   8   8   8   8   8   8
#     4  11  24  39  60  92 125 163 206 265 312 362
#     4  12  24  39  65  94 126 162 204 260 317 368
#     4  11  23  41  61  88 126 166 207 256 316 368
#     4  10  21  35  60  90 119 157 205 254 302 373
#     4  12  20  38  62  91 125 155 208 256 317 364
#     4  10  22  37  59  88 122 162 204 249 305 373
#     4  11  20  36  60  89 124 155 200 257 313 363
#     4  11  22  39  59  92 125 158 203 257 307 373
#
# _framework density 19.338063999999999
#
# number of rings (size 3 to 8) (size 9 to 14) (size 15 to 20)
#    0.000    1.000    5.000    2.625    3.500    0.000 
#    0.000    1.250    0.000    1.500    0.000    0.000 
#    0.000    0.000    0.000    0.000    0.000    0.000 
#
# Total GULP energy -396713.971500 kJ/mol
# GULP energy per Si atom -12397.311609 kJ/mol
# Density = 1.929405 g / cm^3
# Si number density = 19.338064 Si / 1000 Ang^3
#
#
#
# Elastic Constant Matrix: (Units=GPa)
#
#
# Indices 1 2 3 4 5 6 
#
# 1 91.3635 57.0710 48.4717 0.0000 0.0541 0.0000
# 2 57.0710 97.3999 38.4405 0.0000 8.9757 0.0000
# 3 48.4717 38.4405 121.5549 0.0000 3.0258 0.0000
# 4 0.0000 0.0000 0.0000 27.5781 0.0000 5.2367
# 5 0.0541 8.9757 3.0258 0.0000 33.3216 0.0000
# 6 0.0000 0.0000 0.0000 5.2367 0.0000 35.3859
#
#
#
# Elastic Compliance Matrix: (Units=1/GPa)
#
#
# Indices 1 2 3 4 5 6 
#
# 1 0.019685 -0.009929 -0.004786 0.000000 0.003077 0.000000
# 2 -0.009929 0.017011 -0.001310 0.000000 -0.004447 0.000000
# 3 -0.004786 -0.001310 0.010564 0.000000 -0.000599 0.000000
# 4 0.000000 0.000000 0.000000 0.037309 0.000000 -0.005521
# 5 0.003077 -0.004447 -0.000599 0.000000 0.031258 0.000000
# 6 0.000000 0.000000 0.000000 -0.005521 0.000000 0.029077
#
#
# Mechanical properties :
#
#
# Convention : Reuss Voigt Hill
#
# Bulk Modulus (GPa) = 65.74194 66.47608 66.10901
# Shear Modulus (GPa) = 27.46879 30.34615 28.90747
#
# Velocity S-wave (km/s) = 3.77298 3.96567 3.87052
# Velocity P-wave (km/s) = 7.28357 7.44440 7.36442
#
# Compressibility (1/GPa) = 0.01521099
#
# Stress axis : x y z
#
# Youngs Moduli (GPa) = 50.80027 58.78396 94.65715
#
# Poissons Ratio (x) = 0.58366 0.45306
# Poissons Ratio (y) = 0.50439 0.12398
# Poissons Ratio (z) = 0.24315 0.07699
#
# Static dielectric constant tensor:
#      x y z
#    x 5.366550 0.000000 0.373130 
#    y 0.000000 3.479910 0.000000 
#    z 0.373130 0.000000 3.832790 
# 
# 
# High freq. dielectric constant tensor:
#      x y z
#    x 1.738410 0.000000 -0.006380 
#    y 0.000000 1.737880 0.000000 
#    z -0.006380 0.000000 1.770990 
# 
# From -- ./inp_files/167645.got.cif
#   From: 2010.06.25/outbox.cif.g09.slc.cpg/sg15_84_cif.got.tgz:167645.got - 2010.06.28 07:06:18.
