data_PCOD8141118
_publ_section_title
;
Structure prediction by ZEFSAII (Michael W. Deem and Ramdas Pophale) SiO2 
 PCOD8141118
Probable space group: C 2/C
;
_chemical_formula_sum "Si O2"
_cell_formula_units_Z 56
_cell_length_a 20.901469
_cell_length_b 10.214735
_cell_length_c 13.880179
_cell_angle_alpha 90.000000
_cell_angle_beta 82.347920
_cell_angle_gamma 90.000000
_cell_volume 2937.069538
_symmetry_space_group_name_H-M "C 2/C"
_symmetry_group_IT_number 15
_symmetry_cell_setting 'monoclinic'
loop_
_space_group_symop_operation_xyz
x,y,z
-x,y,1/2-z
-x,-y,-z
x,-y,1/2+z
1/2+x,1/2+y,z
1/2-x,1/2+y,1/2-z
1/2-x,1/2-y,-z
1/2+x,1/2-y,1/2+z
loop_
_atom_site_type_symbol
_atom_site_label
_atom_site_fract_x
_atom_site_fract_y
_atom_site_fract_z
Si Si1 0.830425 0.846735 0.501791
Si Si2 0.663133 0.364708 0.504175
Si Si3 0.206196 0.670381 0.152166
Si Si4 0.124208 0.563494 0.721604
Si Si5 0.564170 0.857006 0.050550
Si Si6 0.261458 0.755112 0.338717
Si Si7 0.417422 0.887060 0.061507
O O1 0.819232 0.804054 0.392722
O O2 0.763396 0.877050 0.570195
O O3 0.870948 0.735581 0.549736
O O4 0.865552 0.987682 0.491524
O O5 0.603111 0.267623 0.504521
O O6 0.703750 0.344399 0.594520
O O7 0.708991 0.342139 0.403913
O O8 0.145201 0.573213 0.168795
O O9 0.228626 0.679057 0.257828
O O10 0.071574 0.634044 0.664211
O O11 0.187938 0.649340 0.720827
O O12 0.091521 0.551666 0.831357
O O13 0.490657 0.838259 0.033143
O O14 0.596656 0.990118 0.004100
#
# Coordination Sequence:
#
# PCOD8141118 Si02
#       7
#     8   8   8   8   8   8   8
#     4  11  23  36  58  92 120 151 195 245 297 358
#     4  10  22  38  58  88 122 155 196 240 303 359
#     4  11  22  34  58  90 123 148 191 245 303 352
#     4  11  20  37  61  89 113 155 200 245 289 357
#     4  10  23  41  61  85 116 163 206 241 290 353
#     4  10  21  35  58  85 123 157 184 237 308 362
#     4  11  22  41  63  85 117 159 207 248 288 348
#
# _framework density 19.066623
#
# number of rings (size 3 to 8) (size 9 to 14) (size 15 to 20)
#    0.000    1.429    4.286    1.286    2.000    0.571 
#    0.000    0.000    0.000    0.000    3.714    0.000 
#    0.000    0.000    0.000    0.000    0.000    0.000 
#
# Total GULP energy -347127.638179 kJ/mol
# GULP energy per Si atom -12397.415649 kJ/mol
# Density = 1.902323 g / cm^3
# Si number density = 19.066623 Si / 1000 Ang^3
#
#
#
# Elastic Constant Matrix: (Units=GPa)
#
#
# Indices 1 2 3 4 5 6 
#
# 1 52.7302 42.2940 14.1471 0.0000 -1.5843 0.0000
# 2 42.2940 126.9037 18.4932 0.0000 -1.2499 0.0000
# 3 14.1471 18.4932 70.1346 0.0000 7.9809 0.0000
# 4 0.0000 0.0000 0.0000 19.5514 0.0000 4.4078
# 5 -1.5843 -1.2499 7.9809 0.0000 18.1097 0.0000
# 6 0.0000 0.0000 0.0000 4.4078 0.0000 19.5001
#
#
#
# Elastic Compliance Matrix: (Units=1/GPa)
#
#
# Indices 1 2 3 4 5 6 
#
# 1 0.026721 -0.008353 -0.003567 0.000000 0.003333 0.000000
# 2 -0.008353 0.010850 -0.001240 0.000000 0.000565 0.000000
# 3 -0.003567 -0.001240 0.016161 0.000000 -0.007520 0.000000
# 4 0.000000 0.000000 0.000000 0.053894 0.000000 -0.012182
# 5 0.003333 0.000565 -0.007520 0.000000 0.058863 0.000000
# 6 0.000000 0.000000 0.000000 -0.012182 0.000000 0.054035
#
#
# Mechanical properties :
#
#
# Convention : Reuss Voigt Hill
#
# Bulk Modulus (GPa) = 36.48071 44.40411 40.44241
# Shear Modulus (GPa) = 19.53262 23.08785 21.31024
#
# Velocity S-wave (km/s) = 3.20416 3.48358 3.34679
# Velocity P-wave (km/s) = 5.73269 6.28649 6.01596
#
# Compressibility (1/GPa) = 0.02741175
#
# Stress axis : x y z
#
# Youngs Moduli (GPa) = 37.42328 92.16457 61.87927
#
# Poissons Ratio (x) = 0.76985 0.22071
# Poissons Ratio (y) = 0.31260 0.07675
# Poissons Ratio (z) = 0.13348 0.11432
#
# Static dielectric constant tensor:
#      x y z
#    x 3.335180 0.000000 0.019120 
#    y 0.000000 3.442280 0.000000 
#    z 0.019120 0.000000 3.462230 
# 
# 
# High freq. dielectric constant tensor:
#      x y z
#    x 1.727510 0.000000 0.003730 
#    y 0.000000 1.736860 0.000000 
#    z 0.003730 0.000000 1.751700 
# 
# From -- ./inp_files/166643.got.cif
#   From: 2010.06.25/outbox.cif.g09.slc.cpg/sg15_84_cif.got.tgz:166643.got - 2010.06.28 07:06:18.
