data_PCOD8141561
_publ_section_title
;
Structure prediction by ZEFSAII (Michael W. Deem and Ramdas Pophale) SiO2 
 PCOD8141561
Probable space group: C 2/C
;
_chemical_formula_sum "Si O2"
_cell_formula_units_Z 44
_cell_length_a 7.563262
_cell_length_b 12.435512
_cell_length_c 21.745703
_cell_angle_alpha 90.000000
_cell_angle_beta 74.033638
_cell_angle_gamma 90.000000
_cell_volume 1966.350515
_symmetry_space_group_name_H-M "C 2/C"
_symmetry_group_IT_number 15
_symmetry_cell_setting 'monoclinic'
loop_
_space_group_symop_operation_xyz
x,y,z
-x,y,1/2-z
-x,-y,-z
x,-y,1/2+z
1/2+x,1/2+y,z
1/2-x,1/2+y,1/2-z
1/2-x,1/2-y,-z
1/2+x,1/2-y,1/2+z
loop_
_atom_site_type_symbol
_atom_site_label
_atom_site_fract_x
_atom_site_fract_y
_atom_site_fract_z
Si Si1 0.231389 0.902468 0.158668
Si Si2 0.487014 0.656383 0.989932
Si Si3 0.296183 0.430425 0.743350
Si Si4 0.500000 0.235327 0.250000
Si Si5 0.945520 0.014099 0.105715
Si Si6 0.916510 0.384273 0.023653
O O1 0.094841 0.804838 0.187370
O O2 0.402852 0.867017 0.099506
O O3 0.126502 0.989092 0.127231
O O4 0.287520 0.962847 0.216151
O O5 0.502116 0.614118 0.057868
O O6 0.536905 0.783820 0.985529
O O7 0.618704 0.588587 0.930658
O O8 0.281508 0.628970 0.987836
O O9 0.500000 0.402997 0.750000
O O10 0.290689 0.452899 0.670248
O O11 0.157208 0.333088 0.769433
O O12 0.000000 0.500000 0.000000
#
# Coordination Sequence:
#
# PCOD8141561 Si02
#       6
#     8   8   8   4   8   8
#     4  10  21  40  60  92 133 164 219 282 322 397
#     4   9  19  35  61  83 121 174 211 267 332 387
#     4  10  22  41  63  95 131 170 220 274 336 405
#     4  12  22  42  72  92 134 182 206 284 346 384
#     4   9  17  38  60  84 126 167 211 271 328 386
#     4  10  21  37  58  92 127 167 228 269 324 405
#
# _framework density 22.376476
#
# number of rings (size 3 to 8) (size 9 to 14) (size 15 to 20)
#    0.000    2.182    2.727    1.091    0.000    5.818 
#    1.636   13.636    0.000    0.000    0.000    0.000 
#    0.000    0.000    0.000    0.000    0.000    0.000 
#
# Total GULP energy -272557.943444 kJ/mol
# GULP energy per Si atom -12388.997429 kJ/mol
# Density = 2.232555 g / cm^3
# Si number density = 22.376476 Si / 1000 Ang^3
#
#
#
# Elastic Constant Matrix: (Units=GPa)
#
#
# Indices 1 2 3 4 5 6 
#
# 1 45.2401 37.7249 23.1583 0.0000 -4.2275 0.0000
# 2 37.7249 189.2071 72.2561 0.0000 -6.7201 0.0000
# 3 23.1583 72.2561 157.7527 0.0000 -1.8905 0.0000
# 4 0.0000 0.0000 0.0000 31.1597 0.0000 -5.6567
# 5 -4.2275 -6.7201 -1.8905 0.0000 23.4171 0.0000
# 6 0.0000 0.0000 0.0000 -5.6567 0.0000 30.8037
#
#
#
# Elastic Compliance Matrix: (Units=1/GPa)
#
#
# Indices 1 2 3 4 5 6 
#
# 1 0.027204 -0.004596 -0.001847 0.000000 0.003443 0.000000
# 2 -0.004596 0.007243 -0.002630 0.000000 0.001036 0.000000
# 3 -0.001847 -0.002630 0.007809 0.000000 -0.000458 0.000000
# 4 0.000000 0.000000 0.000000 0.033199 0.000000 0.006097
# 5 0.003443 0.001036 -0.000458 0.000000 0.043586 0.000000
# 6 0.000000 0.000000 0.000000 0.006097 0.000000 0.033583
#
#
# Mechanical properties :
#
#
# Convention : Reuss Voigt Hill
#
# Bulk Modulus (GPa) = 41.47794 73.16427 57.32111
# Shear Modulus (GPa) = 27.96268 34.34680 31.15474
#
# Velocity S-wave (km/s) = 3.53887 3.92210 3.73540
# Velocity P-wave (km/s) = 5.93926 7.29920 6.65406
#
# Compressibility (1/GPa) = 0.02410920
#
# Stress axis : x y z
#
# Youngs Moduli (GPa) = 36.75866 138.06444 128.04939
#
# Poissons Ratio (x) = 0.63461 0.23651
# Poissons Ratio (y) = 0.16896 0.33681
# Poissons Ratio (z) = 0.06789 0.36316
#
# Static dielectric constant tensor:
#      x y z
#    x 3.551840 0.000000 -0.057020 
#    y 0.000000 4.272560 0.000000 
#    z -0.057020 0.000000 4.909920 
# 
# 
# High freq. dielectric constant tensor:
#      x y z
#    x 1.833580 0.000000 0.005520 
#    y 0.000000 1.887720 0.000000 
#    z 0.005520 0.000000 1.898480 
# 
# From -- ./inp_files/230141.got.cif
#   From: 2010.06.25/outbox.cif.g09.slc.cpg/sg15_116_cif.got.tgz:230141.got - 2010.06.28 07:06:18.
