data_PCOD8141765
_publ_section_title
;
Structure prediction by ZEFSAII (Michael W. Deem and Ramdas Pophale) SiO2 
 PCOD8141765
Probable space group: C 2/C
;
_chemical_formula_sum "Si O2"
_cell_formula_units_Z 32
_cell_length_a 9.330155
_cell_length_b 12.274561
_cell_length_c 9.454170
_cell_angle_alpha 90.000000
_cell_angle_beta 92.308833
_cell_angle_gamma 90.000000
_cell_volume 1081.846214
_symmetry_space_group_name_H-M "C 2/C"
_symmetry_group_IT_number 15
_symmetry_cell_setting 'monoclinic'
loop_
_space_group_symop_operation_xyz
x,y,z
-x,y,1/2-z
-x,-y,-z
x,-y,1/2+z
1/2+x,1/2+y,z
1/2-x,1/2+y,1/2-z
1/2-x,1/2-y,-z
1/2+x,1/2-y,1/2+z
loop_
_atom_site_type_symbol
_atom_site_label
_atom_site_fract_x
_atom_site_fract_y
_atom_site_fract_z
Si Si1 0.388896 0.105028 0.504106
Si Si2 0.566775 0.706069 0.904882
Si Si3 0.405069 0.404760 0.623976
Si Si4 0.698008 0.084642 0.678067
O O1 0.523716 0.186307 0.493820
O O2 0.246095 0.156071 0.423084
O O3 0.366689 0.095484 0.670702
O O4 0.412309 0.984417 0.427588
O O5 0.500000 0.724952 0.750000
O O6 0.741551 0.696852 0.890924
O O7 0.501780 0.599465 0.985251
O O8 0.500000 0.345251 0.750000
O O9 0.353459 0.520914 0.686959
#
# Coordination Sequence:
#
# PCOD8141765 Si02
#       4
#     8   8   8   8
#     4  10  24  40  66 103 137 179 229 282 345 406
#     4  12  21  40  69  98 137 179 228 286 340 407
#     4  10  21  37  63  99 134 177 229 276 341 410
#     4  10  21  38  67  96 134 180 224 281 343 402
#
# _framework density 29.579066000000001
#
# number of rings (size 3 to 8) (size 9 to 14) (size 15 to 20)
#    1.500    0.000    2.500    3.750    0.000    0.000 
#    0.000    5.000    0.000    0.000    0.000    0.000 
#    0.000    0.000    0.000    0.000    0.000    0.000 
#
# Total GULP energy -198222.626247 kJ/mol
# GULP energy per Si atom -12388.914140 kJ/mol
# Density = 2.951174 g / cm^3
# Si number density = 29.579066 Si / 1000 Ang^3
#
#
#
# Elastic Constant Matrix: (Units=GPa)
#
#
# Indices 1 2 3 4 5 6 
#
# 1 219.9675 64.7724 125.0875 0.0000 9.4628 0.0000
# 2 64.7724 83.5588 92.3289 0.0000 -17.3745 0.0000
# 3 125.0875 92.3289 243.4713 0.0000 -33.2664 0.0000
# 4 0.0000 0.0000 0.0000 41.1167 0.0000 -22.9243
# 5 9.4628 -17.3745 -33.2664 0.0000 66.1610 0.0000
# 6 0.0000 0.0000 0.0000 -22.9243 0.0000 38.2360
#
#
#
# Elastic Compliance Matrix: (Units=1/GPa)
#
#
# Indices 1 2 3 4 5 6 
#
# 1 0.007328 -0.002949 -0.003109 0.000000 -0.003386 0.000000
# 2 -0.002949 0.021943 -0.006401 0.000000 0.002966 0.000000
# 3 -0.003109 -0.006401 0.008551 0.000000 0.003063 0.000000
# 4 0.000000 0.000000 0.000000 0.036533 0.000000 0.021903
# 5 -0.003386 0.002966 0.003063 0.000000 0.017918 0.000000
# 6 0.000000 0.000000 0.000000 0.021903 0.000000 0.039285
#
#
# Mechanical properties :
#
#
# Convention : Reuss Voigt Hill
#
# Bulk Modulus (GPa) = 77.49895 123.48613 100.49254
# Shear Modulus (GPa) = 31.09879 46.75668 38.92773
#
# Velocity S-wave (km/s) = 3.24601 3.98016 3.63169
# Velocity P-wave (km/s) = 6.34872 7.93478 7.18564
#
# Compressibility (1/GPa) = 0.01290340
#
# Stress axis : x y z
#
# Youngs Moduli (GPa) = 136.45592 45.57264 116.95096
#
# Poissons Ratio (x) = 0.13440 0.36364
# Poissons Ratio (y) = 0.40242 0.74858
# Poissons Ratio (z) = 0.42429 0.29170
#
# Static dielectric constant tensor:
#      x y z
#    x 6.398860 0.000000 -0.132910 
#    y 0.000000 5.261770 0.000000 
#    z -0.132910 0.000000 5.078680 
# 
# 
# High freq. dielectric constant tensor:
#      x y z
#    x 2.258950 0.000000 0.011140 
#    y 0.000000 2.199580 0.000000 
#    z 0.011140 0.000000 2.219180 
# 
# From -- ./inp_files/27630.got.cif
#   From: 2010.06.25/outbox.cif.g09.slc.cpg/sg15_14_cif.got.tgz:27630.got - 2010.06.28 07:06:18.
