data_PCOD8141445
_publ_section_title
;
Structure prediction by ZEFSAII (Michael W. Deem and Ramdas Pophale) SiO2 
 PCOD8141445
Probable space group: C 2/C
;
_chemical_formula_sum "Si O2"
_cell_formula_units_Z 56
_cell_length_a 25.505496
_cell_length_b 10.056851
_cell_length_c 13.801264
_cell_angle_alpha 90.000000
_cell_angle_beta 40.530645
_cell_angle_gamma 90.000000
_cell_volume 2300.545846
_symmetry_space_group_name_H-M "C 2/C"
_symmetry_group_IT_number 15
_symmetry_cell_setting 'monoclinic'
loop_
_space_group_symop_operation_xyz
x,y,z
-x,y,1/2-z
-x,-y,-z
x,-y,1/2+z
1/2+x,1/2+y,z
1/2-x,1/2+y,1/2-z
1/2-x,1/2-y,-z
1/2+x,1/2-y,1/2+z
loop_
_atom_site_type_symbol
_atom_site_label
_atom_site_fract_x
_atom_site_fract_y
_atom_site_fract_z
Si Si1 0.664048 0.405098 0.945370
Si Si2 0.201883 0.631726 0.403019
Si Si3 0.282693 0.950128 0.414841
Si Si4 0.463847 0.794615 0.572877
Si Si5 0.937209 0.151460 0.425806
Si Si6 0.340761 0.211790 0.396322
Si Si7 0.113807 0.559940 0.903970
O O1 0.723944 0.362073 0.776027
O O2 0.703722 0.479143 0.982855
O O3 0.590715 0.499241 0.015882
O O4 0.634018 0.263483 0.031589
O O5 0.236516 0.642274 0.464556
O O6 0.142603 0.757619 0.475850
O O7 0.158457 0.489121 0.439581
O O8 0.324982 0.878494 0.263317
O O9 0.346772 0.053221 0.373764
O O10 0.484383 0.695366 0.456002
O O11 0.402191 0.722218 0.732512
O O12 0.545763 0.828887 0.516882
O O13 0.424201 0.926171 0.585272
O O14 0.000000 0.165067 0.250000
O O15 0.250000 0.250000 0.500000
#
# Coordination Sequence:
#
# PCOD8141445 Si02
#       7
#     8   8   8   8   8   8   8
#     4  10  23  37  60  92 122 159 226 250 305 401
#     4  10  21  36  65  90 123 166 208 268 322 368
#     4   9  18  35  62  88 120 152 204 274 312 359
#     4   9  17  33  61  79 122 161 194 257 323 364
#     4  11  23  39  61  90 129 171 205 257 327 388
#     4   9  18  35  59  83 113 162 213 255 306 372
#     4   8  16  33  54  98 117 145 207 259 311 385
#
# _framework density 24.34205
#
# number of rings (size 3 to 8) (size 9 to 14) (size 15 to 20)
#    0.000    2.571    0.000    3.429    6.000    1.714 
#    0.000    2.143    0.000    0.000    0.000    0.000 
#    0.000    0.000    0.000    0.000    0.000    0.000 
#
# Total GULP energy -346883.492846 kJ/mol
# GULP energy per Si atom -12388.696173 kJ/mol
# Density = 2.428665 g / cm^3
# Si number density = 24.342050 Si / 1000 Ang^3
#
#
#
# Elastic Constant Matrix: (Units=GPa)
#
#
# Indices 1 2 3 4 5 6 
#
# 1 61.5606 3.4797 27.4242 -0.0001 19.3125 0.0001
# 2 3.4797 55.7924 23.6505 -0.0002 -0.5625 0.0002
# 3 27.4242 23.6505 174.8544 0.0000 2.9984 0.0000
# 4 -0.0001 -0.0002 0.0000 33.0416 0.0001 4.2190
# 5 19.3125 -0.5625 2.9984 0.0001 22.7112 -0.0001
# 6 0.0001 0.0002 0.0000 4.2190 -0.0001 34.1401
#
#
#
# Elastic Compliance Matrix: (Units=1/GPa)
#
#
# Indices 1 2 3 4 5 6 
#
# 1 0.024047 -0.000263 -0.003393 0.000000 -0.020007 0.000000
# 2 -0.000263 0.019032 -0.002551 0.000000 0.001032 0.000000
# 3 -0.003393 -0.002551 0.006563 0.000000 0.001956 0.000000
# 4 0.000000 0.000000 0.000000 0.030750 0.000000 -0.003800
# 5 -0.020007 0.001032 0.001956 0.000000 0.060812 0.000000
# 6 0.000000 0.000000 0.000000 -0.003800 0.000000 0.029761
#
#
# Mechanical properties :
#
#
# Convention : Reuss Voigt Hill
#
# Bulk Modulus (GPa) = 26.86157 44.59066 35.72612
# Shear Modulus (GPa) = 25.53803 33.82211 29.68007
#
# Velocity S-wave (km/s) = 3.24254 3.73158 3.49562
# Velocity P-wave (km/s) = 5.00777 6.07654 5.56786
#
# Compressibility (1/GPa) = 0.03722790
#
# Stress axis : x y z
#
# Youngs Moduli (GPa) = 41.58516 52.54420 152.37789
#
# Poissons Ratio (x) = 0.01383 0.51700
# Poissons Ratio (y) = 0.01095 0.38865
# Poissons Ratio (z) = 0.14109 0.13402
#
# Static dielectric constant tensor:
#      x y z
#    x 4.521720 0.000000 0.219460 
#    y 0.000000 4.599070 0.000000 
#    z 0.219460 0.000000 4.474920 
# 
# 
# High freq. dielectric constant tensor:
#      x y z
#    x 1.956850 0.000000 0.017790 
#    y 0.000000 1.956730 0.000000 
#    z 0.017790 0.000000 1.967870 
# 
# From -- ./inp_files/181545.got.cif
#   From: 2010.06.25/outbox.cif.g09.slc.cpg/sg15_91_cif.got.tgz:181545.got - 2010.06.28 07:06:18.
