data_PCOD8141785
_publ_section_title
;
Structure prediction by ZEFSAII (Michael W. Deem and Ramdas Pophale) SiO2 
 PCOD8141785
Probable space group: C 2/C
;
_chemical_formula_sum "Si O2"
_cell_formula_units_Z 56
_cell_length_a 21.782028
_cell_length_b 15.046215
_cell_length_c 19.220871
_cell_angle_alpha 90.000000
_cell_angle_beta 154.690699
_cell_angle_gamma 90.000000
_cell_volume 2693.019214
_symmetry_space_group_name_H-M "C 2/C"
_symmetry_group_IT_number 15
_symmetry_cell_setting 'monoclinic'
loop_
_space_group_symop_operation_xyz
x,y,z
-x,y,1/2-z
-x,-y,-z
x,-y,1/2+z
1/2+x,1/2+y,z
1/2-x,1/2+y,1/2-z
1/2-x,1/2-y,-z
1/2+x,1/2-y,1/2+z
loop_
_atom_site_type_symbol
_atom_site_label
_atom_site_fract_x
_atom_site_fract_y
_atom_site_fract_z
Si Si1 0.493438 0.268302 0.557356
Si Si2 0.228509 0.642651 0.832328
Si Si3 0.005814 0.290023 0.600541
Si Si4 0.636806 0.952828 0.106364
Si Si5 0.397577 0.497486 0.585306
Si Si6 0.414702 0.535483 0.347586
Si Si7 0.709768 0.690560 0.025324
O O1 0.338904 0.275703 0.435322
O O2 0.571906 0.187436 0.678998
O O3 0.481495 0.252119 0.462757
O O4 0.577469 0.359475 0.654948
O O5 0.235047 0.587174 0.767822
O O6 0.274331 0.576621 0.941783
O O7 0.164615 0.311169 0.789407
O O8 0.915339 0.380531 0.502738
O O9 0.931312 0.227203 0.580860
O O10 0.743589 0.017582 0.174269
O O11 0.500000 0.000000 0.000000
O O12 0.500000 0.458674 0.750000
O O13 0.505919 0.515957 0.633146
O O14 0.321958 0.589511 0.530953
O O15 0.500000 0.500000 0.500000
O O16 0.750000 0.750000 0.000000
#
# Coordination Sequence:
#
# PCOD8141785 Si02
#       7
#     8   8   8   8   8   8   8
#     4  10  21  37  64  94 127 162 214 273 334 383
#     4  10  22  40  61  98 124 169 212 271 328 385
#     4  11  24  37  63  91 130 166 215 267 332 388
#     4  11  23  37  62  97 129 161 215 273 331 383
#     4  11  24  43  68  89 132 175 222 269 332 401
#     4  11  22  39  66  95 128 174 219 271 334 395
#     4  12  26  42  61  92 131 182 217 264 322 409
#
# _framework density 20.794505000000001
#
# number of rings (size 3 to 8) (size 9 to 14) (size 15 to 20)
#    0.000    1.143    2.857    4.714   10.000    0.000 
#    0.000    2.857    0.000    0.000    0.000    0.000 
#    0.000    0.000    0.000    0.000    0.000    0.000 
#
# Total GULP energy -347138.713713 kJ/mol
# GULP energy per Si atom -12397.811204 kJ/mol
# Density = 2.074718 g / cm^3
# Si number density = 20.794505 Si / 1000 Ang^3
#
#
#
# Elastic Constant Matrix: (Units=GPa)
#
#
# Indices 1 2 3 4 5 6 
#
# 1 60.1499 21.3761 28.8264 0.0013 -7.2316 0.0009
# 2 21.3761 84.9664 37.9377 0.0021 -10.2626 0.0015
# 3 28.8264 37.9377 106.4162 0.0016 -0.8784 0.0013
# 4 0.0013 0.0021 0.0016 45.1131 0.0013 7.4233
# 5 -7.2316 -10.2626 -0.8784 0.0013 29.7662 0.0011
# 6 0.0009 0.0015 0.0013 7.4233 0.0011 35.8880
#
#
#
# Elastic Compliance Matrix: (Units=1/GPa)
#
#
# Indices 1 2 3 4 5 6 
#
# 1 0.020173 -0.002595 -0.004508 0.000000 0.003873 0.000000
# 2 -0.002595 0.015015 -0.004614 -0.000001 0.004410 0.000000
# 3 -0.004508 -0.004614 0.012244 0.000000 -0.002324 0.000000
# 4 0.000000 -0.000001 0.000000 0.022948 -0.000001 -0.004747
# 5 0.003873 0.004410 -0.002324 -0.000001 0.035988 -0.000001
# 6 0.000000 0.000000 0.000000 -0.004747 -0.000001 0.028846
#
#
# Mechanical properties :
#
#
# Convention : Reuss Voigt Hill
#
# Bulk Modulus (GPa) = 41.66688 47.53477 44.60082
# Shear Modulus (GPa) = 30.00389 33.04631 31.52510
#
# Velocity S-wave (km/s) = 3.80264 3.99078 3.89785
# Velocity P-wave (km/s) = 6.27384 6.64410 6.46162
#
# Compressibility (1/GPa) = 0.02399988
#
# Stress axis : x y z
#
# Youngs Moduli (GPa) = 49.57091 66.60103 81.67503
#
# Poissons Ratio (x) = 0.17281 0.36816
# Poissons Ratio (y) = 0.12862 0.37681
# Poissons Ratio (z) = 0.22344 0.30727
#
# Static dielectric constant tensor:
#      x y z
#    x 3.539160 0.000000 0.209740 
#    y 0.000000 3.942520 0.000000 
#    z 0.209740 0.000000 3.987670 
# 
# 
# High freq. dielectric constant tensor:
#      x y z
#    x 1.785700 0.000000 0.011950 
#    y 0.000000 1.819950 0.000000 
#    z 0.011950 0.000000 1.830350 
# 
# From -- ./inp_files/215777.got.cif
#   From: 2010.06.25/outbox.cif.g09.slc.cpg/sg15_108_cif.got.tgz:215777.got - 2010.06.28 07:06:18.
