data_PCOD8141016
_publ_section_title
;
Structure prediction by ZEFSAII (Michael W. Deem and Ramdas Pophale) SiO2 
 PCOD8141016
Probable space group: C 2/C
;
_chemical_formula_sum "Si O2"
_cell_formula_units_Z 48
_cell_length_a 10.191408
_cell_length_b 19.030729
_cell_length_c 10.795701
_cell_angle_alpha 90.000000
_cell_angle_beta 88.568377
_cell_angle_gamma 90.000000
_cell_volume 2093.171804
_symmetry_space_group_name_H-M "C 2/C"
_symmetry_group_IT_number 15
_symmetry_cell_setting 'monoclinic'
loop_
_space_group_symop_operation_xyz
x,y,z
-x,y,1/2-z
-x,-y,-z
x,-y,1/2+z
1/2+x,1/2+y,z
1/2-x,1/2+y,1/2-z
1/2-x,1/2-y,-z
1/2+x,1/2-y,1/2+z
loop_
_atom_site_type_symbol
_atom_site_label
_atom_site_fract_x
_atom_site_fract_y
_atom_site_fract_z
Si Si1 0.964304 0.216696 0.994264
Si Si2 0.724633 0.231308 0.190554
Si Si3 0.282886 0.418735 0.728969
Si Si4 0.964306 0.070969 0.432918
Si Si5 0.918419 0.521895 0.878757
Si Si6 0.112743 0.678794 0.645299
O O1 0.842168 0.221598 0.090557
O O2 0.036474 0.140591 0.980138
O O3 0.072906 0.273460 0.030273
O O4 0.909835 0.238983 0.862193
O O5 0.700173 0.153180 0.244762
O O6 0.758542 0.286897 0.297174
O O7 0.422986 0.406880 0.664419
O O8 0.323189 0.442830 0.867981
O O9 0.205905 0.472577 0.642754
O O10 0.000000 0.000000 0.500000
O O11 0.861259 0.599726 0.901990
O O12 0.000000 0.516833 0.750000
O O13 0.000000 0.500000 0.000000
O O14 0.000000 0.677005 0.750000
#
# Coordination Sequence:
#
# PCOD8141016 Si02
#       6
#     8   8   8   8   8   8
#     4   9  16  29  52  82 110 142 195 248 295 337
#     4   9  16  29  54  80 108 145 191 251 290 340
#     4  10  21  38  57  85 120 155 197 247 306 357
#     4  10  21  34  58  87 118 153 193 246 305 366
#     4  11  25  40  63  90 123 162 202 252 301 360
#     4   9  17  32  53  82 112 142 197 249 290 339
#
# _framework density 22.931705999999998
#
# number of rings (size 3 to 8) (size 9 to 14) (size 15 to 20)
#    0.000    2.333    1.667    1.000    4.667    2.667 
#    0.000    0.000    0.000    6.000    0.000    0.000 
#    0.000    0.000    0.000    0.000    0.000    0.000 
#
# Total GULP energy -297375.777658 kJ/mol
# GULP energy per Si atom -12390.657402 kJ/mol
# Density = 2.287951 g / cm^3
# Si number density = 22.931706 Si / 1000 Ang^3
#
#
#
# Elastic Constant Matrix: (Units=GPa)
#
#
# Indices 1 2 3 4 5 6 
#
# 1 33.2470 33.2734 49.8966 0.0000 40.9056 0.0000
# 2 33.2734 236.2899 99.6148 0.0000 59.5212 0.0000
# 3 49.8966 99.6148 157.8066 0.0000 75.4795 0.0000
# 4 0.0000 0.0000 0.0000 40.9827 0.0000 8.2967
# 5 40.9056 59.5212 75.4795 0.0000 61.9539 0.0000
# 6 0.0000 0.0000 0.0000 8.2967 0.0000 26.3487
#
#
#
# Elastic Compliance Matrix: (Units=1/GPa)
#
#
# Indices 1 2 3 4 5 6 
#
# 1 0.166095 0.005984 -0.002615 0.000000 -0.112228 0.000000
# 2 0.005984 0.006170 -0.002545 0.000000 -0.006778 0.000000
# 3 -0.002615 -0.002545 0.016236 0.000000 -0.015609 0.000000
# 4 0.000000 0.000000 0.000000 0.026062 0.000000 -0.008206
# 5 -0.112228 -0.006778 -0.015609 0.000000 0.115770 0.000000
# 6 0.000000 0.000000 0.000000 -0.008206 0.000000 0.040537
#
#
# Mechanical properties :
#
#
# Convention : Reuss Voigt Hill
#
# Bulk Modulus (GPa) = 5.25905 88.10144 46.68024
# Shear Modulus (GPa) = 11.55794 42.16096 26.85945
#
# Velocity S-wave (km/s) = 2.24746 4.29248 3.42611
# Velocity P-wave (km/s) = 3.00552 7.94164 6.00428
#
# Compressibility (1/GPa) = 0.19014842
#
# Stress axis : x y z
#
# Youngs Moduli (GPa) = 6.02066 162.08465 61.59184
#
# Poissons Ratio (x) = -0.96992 0.16109
# Poissons Ratio (y) = -0.03603 0.15672
# Poissons Ratio (z) = 0.01575 0.41243
#
# Static dielectric constant tensor:
#      x y z
#    x 3.858930 0.000000 0.430150 
#    y 0.000000 4.285440 0.000000 
#    z 0.430150 0.000000 4.230980 
# 
# 
# High freq. dielectric constant tensor:
#      x y z
#    x 1.882600 0.000000 0.027330 
#    y 0.000000 1.915350 0.000000 
#    z 0.027330 0.000000 1.904580 
# 
# From -- ./inp_files/87856.got.cif
#   From: 2010.06.25/outbox.cif.g09.slc.cpg/sg15_44_cif.got.tgz:87856.got - 2010.06.28 07:06:18.
