data_PCOD8141479
_publ_section_title
;
Structure prediction by ZEFSAII (Michael W. Deem and Ramdas Pophale) SiO2 
 PCOD8141479
Probable space group: C 2/C
;
_chemical_formula_sum "Si O2"
_cell_formula_units_Z 56
_cell_length_a 19.169914
_cell_length_b 17.631887
_cell_length_c 12.205501
_cell_angle_alpha 90.000000
_cell_angle_beta 44.540026
_cell_angle_gamma 90.000000
_cell_volume 2893.642587
_symmetry_space_group_name_H-M "C 2/C"
_symmetry_group_IT_number 15
_symmetry_cell_setting 'monoclinic'
loop_
_space_group_symop_operation_xyz
x,y,z
-x,y,1/2-z
-x,-y,-z
x,-y,1/2+z
1/2+x,1/2+y,z
1/2-x,1/2+y,1/2-z
1/2-x,1/2-y,-z
1/2+x,1/2-y,1/2+z
loop_
_atom_site_type_symbol
_atom_site_label
_atom_site_fract_x
_atom_site_fract_y
_atom_site_fract_z
Si Si1 0.892842 0.077530 0.405472
Si Si2 0.757071 0.799085 0.383391
Si Si3 0.617887 0.913360 0.622720
Si Si4 0.754172 0.450372 0.603288
Si Si5 0.276447 0.853816 0.780557
Si Si6 0.387212 0.424762 0.157791
Si Si7 0.070300 0.089424 0.583652
O O1 0.870432 0.105037 0.553187
O O2 0.000000 0.111025 0.250000
O O3 0.802658 0.100665 0.425137
O O4 0.891565 0.985927 0.397004
O O5 0.750000 0.750000 0.500000
O O6 0.655939 0.850187 0.491208
O O7 0.782159 0.738050 0.259783
O O8 0.845547 0.860689 0.287558
O O9 0.500000 0.918132 0.750000
O O10 0.661618 0.996216 0.544081
O O11 0.652437 0.889133 0.705925
O O12 0.804383 0.392891 0.634218
O O13 0.672288 0.496974 0.763879
O O14 0.161275 0.860947 0.943232
O O15 0.504042 0.436211 0.052665
O O16 0.000000 0.133893 0.750000
#
# Coordination Sequence:
#
# PCOD8141479 Si02
#       7
#     8   8   8   8   8   8   8
#     4  11  19  30  52  86 114 134 170 215 275 340
#     4   9  21  37  54  79 107 142 182 223 279 332
#     4  10  21  37  55  75 105 138 186 232 269 314
#     4  11  19  34  54  79 108 141 179 228 267 325
#     4  11  21  35  53  79 108 142 179 220 276 324
#     4  11  19  33  54  81 113 143 172 223 279 331
#     4  11  17  29  54  83 113 131 166 214 276 328
#
# _framework density 19.35277
#
# number of rings (size 3 to 8) (size 9 to 14) (size 15 to 20)
#    0.000    1.429    5.714    3.000    0.000    3.429 
#    0.000    0.714    0.000    0.857    0.000    0.000 
#    0.000    0.000    0.000    0.000    0.000    0.000 
#
# Total GULP energy -346984.617321 kJ/mol
# GULP energy per Si atom -12392.307761 kJ/mol
# Density = 1.930872 g / cm^3
# Si number density = 19.352770 Si / 1000 Ang^3
#
#
#
# Elastic Constant Matrix: (Units=GPa)
#
#
# Indices 1 2 3 4 5 6 
#
# 1 122.0146 17.8429 32.1523 0.0000 -1.5868 0.0000
# 2 17.8429 47.1722 -4.6783 0.0000 -0.4656 0.0000
# 3 32.1523 -4.6783 49.9467 0.0000 -4.7407 0.0000
# 4 0.0000 0.0000 0.0000 19.0830 0.0000 7.2177
# 5 -1.5868 -0.4656 -4.7407 0.0000 39.4205 0.0000
# 6 0.0000 0.0000 0.0000 7.2177 0.0000 15.4858
#
#
#
# Elastic Compliance Matrix: (Units=1/GPa)
#
#
# Indices 1 2 3 4 5 6 
#
# 1 0.010879 -0.004865 -0.007508 0.000000 -0.000522 0.000000
# 2 -0.004865 0.023583 0.005410 0.000000 0.000733 0.000000
# 3 -0.007508 0.005410 0.025631 0.000000 0.002844 0.000000
# 4 0.000000 0.000000 0.000000 0.063618 0.000000 -0.029651
# 5 -0.000522 0.000733 0.002844 0.000000 0.025697 0.000000
# 6 0.000000 0.000000 0.000000 -0.029651 0.000000 0.078395
#
#
# Mechanical properties :
#
#
# Convention : Reuss Voigt Hill
#
# Bulk Modulus (GPa) = 21.66049 34.41859 28.03954
# Shear Modulus (GPa) = 19.44634 26.38563 22.91599
#
# Velocity S-wave (km/s) = 3.17335 3.69643 3.44484
# Velocity P-wave (km/s) = 4.96424 6.00347 5.50841
#
# Compressibility (1/GPa) = 0.04616702
#
# Stress axis : x y z
#
# Youngs Moduli (GPa) = 91.92131 42.40385 39.01474
#
# Poissons Ratio (x) = 0.20628 0.29293
# Poissons Ratio (y) = 0.44717 -0.21107
# Poissons Ratio (z) = 0.69017 -0.22941
#
# Static dielectric constant tensor:
#      x y z
#    x 3.593760 0.000000 0.120700 
#    y 0.000000 3.615410 0.000000 
#    z 0.120700 0.000000 3.480150 
# 
# 
# High freq. dielectric constant tensor:
#      x y z
#    x 1.749390 0.000000 0.005220 
#    y 0.000000 1.721180 0.000000 
#    z 0.005220 0.000000 1.744450 
# 
# From -- ./inp_files/107269.got.cif
#   From: 2010.06.25/outbox.cif.g09.slc.cpg/sg15_54_cif.got.tgz:107269.got - 2010.06.28 07:06:18.
