data_PCOD8141778
_publ_section_title
;
Structure prediction by ZEFSAII (Michael W. Deem and Ramdas Pophale) SiO2 
 PCOD8141778
Probable space group: C 2/C
;
_chemical_formula_sum "Si O2"
_cell_formula_units_Z 56
_cell_length_a 11.824042
_cell_length_b 13.875514
_cell_length_c 17.920188
_cell_angle_alpha 90.000000
_cell_angle_beta 115.217370
_cell_angle_gamma 90.000000
_cell_volume 2659.874842
_symmetry_space_group_name_H-M "C 2/C"
_symmetry_group_IT_number 15
_symmetry_cell_setting 'monoclinic'
loop_
_space_group_symop_operation_xyz
x,y,z
-x,y,1/2-z
-x,-y,-z
x,-y,1/2+z
1/2+x,1/2+y,z
1/2-x,1/2+y,1/2-z
1/2-x,1/2-y,-z
1/2+x,1/2-y,1/2+z
loop_
_atom_site_type_symbol
_atom_site_label
_atom_site_fract_x
_atom_site_fract_y
_atom_site_fract_z
Si Si1 0.405241 0.218753 0.930756
Si Si2 0.878167 0.021743 0.607312
Si Si3 0.003256 0.425958 0.932032
Si Si4 0.147708 0.052177 0.627496
Si Si5 0.356631 0.672277 0.016032
Si Si6 0.757682 0.888023 0.944025
Si Si7 0.793986 0.456691 0.312127
O O1 0.508377 0.286913 0.921467
O O2 0.282063 0.279734 0.920994
O O3 0.366884 0.137638 0.860930
O O4 0.479251 0.178256 0.024685
O O5 0.832162 0.920137 0.560624
O O6 0.800800 0.105580 0.542600
O O7 0.836512 0.027180 0.681392
O O8 0.023464 0.044135 0.641745
O O9 0.116386 0.429698 0.903199
O O10 0.879003 0.447086 0.848708
O O11 0.000000 0.500000 0.000000
O O12 0.145740 0.144159 0.572524
O O13 0.265090 0.057623 0.716799
O O14 0.153206 0.956492 0.579402
O O15 0.250000 0.750000 0.000000
#
# Coordination Sequence:
#
# PCOD8141778 Si02
#       7
#     8   8   8   8   8   8   8
#     4  11  21  41  66  95 124 164 225 260 310 386
#     4  11  20  44  67  88 127 176 211 253 323 401
#     4  10  21  37  64  92 124 165 209 258 319 388
#     4  11  24  43  63  93 137 170 210 267 338 374
#     4  11  23  40  69  96 122 169 225 266 307 388
#     4  11  20  40  67  91 123 168 218 261 310 394
#     4  11  25  41  65  96 134 168 209 271 334 375
#
# _framework density 21.053621
#
# number of rings (size 3 to 8) (size 9 to 14) (size 15 to 20)
#    0.000    1.143    5.714    2.571    6.000    0.571 
#    5.143    0.000    0.000    0.000    0.000    0.000 
#    0.000    0.000    0.000    0.000    0.000    0.000 
#
# Total GULP energy -347056.705198 kJ/mol
# GULP energy per Si atom -12394.882329 kJ/mol
# Density = 2.100570 g / cm^3
# Si number density = 21.053621 Si / 1000 Ang^3
#
#
#
# Elastic Constant Matrix: (Units=GPa)
#
#
# Indices 1 2 3 4 5 6 
#
# 1 108.8702 27.7402 11.9576 0.0000 4.5237 0.0000
# 2 27.7402 92.4549 21.8593 0.0000 2.6382 0.0000
# 3 11.9576 21.8593 85.0604 0.0000 5.3430 0.0000
# 4 0.0000 0.0000 0.0000 18.3442 0.0000 7.0966
# 5 4.5237 2.6382 5.3430 0.0000 22.8961 0.0000
# 6 0.0000 0.0000 0.0000 7.0966 0.0000 39.2763
#
#
#
# Elastic Compliance Matrix: (Units=1/GPa)
#
#
# Indices 1 2 3 4 5 6 
#
# 1 0.010034 -0.002828 -0.000588 0.000000 -0.001519 0.000000
# 2 -0.002828 0.012322 -0.002755 0.000000 -0.000218 0.000000
# 3 -0.000588 -0.002755 0.012706 0.000000 -0.002531 0.000000
# 4 0.000000 0.000000 0.000000 0.058610 0.000000 -0.010590
# 5 -0.001519 -0.000218 -0.002531 0.000000 0.044591 0.000000
# 6 0.000000 0.000000 0.000000 -0.010590 0.000000 0.027374
#
#
# Mechanical properties :
#
#
# Convention : Reuss Voigt Hill
#
# Bulk Modulus (GPa) = 44.01685 45.49996 44.75841
# Shear Modulus (GPa) = 26.94633 31.09189 29.01911
#
# Velocity S-wave (km/s) = 3.58144 3.84708 3.71663
# Velocity P-wave (km/s) = 6.16885 6.43364 6.30263
#
# Compressibility (1/GPa) = 0.02271857
#
# Stress axis : x y z
#
# Youngs Moduli (GPa) = 99.66541 81.15373 78.70196
#
# Poissons Ratio (x) = 0.22951 0.04630
# Poissons Ratio (y) = 0.28186 0.21686
# Poissons Ratio (z) = 0.05863 0.22361
#
# Static dielectric constant tensor:
#      x y z
#    x 3.988880 0.000000 0.046360 
#    y 0.000000 3.876470 0.000000 
#    z 0.046360 0.000000 3.522760 
# 
# 
# High freq. dielectric constant tensor:
#      x y z
#    x 1.841290 0.000000 0.000430 
#    y 0.000000 1.826240 0.000000 
#    z 0.000430 0.000000 1.790800 
# 
# From -- ./inp_files/198428.got.cif
#   From: 2010.06.25/outbox.cif.g09.slc.cpg/sg15_100_cif.got.tgz:198428.got - 2010.06.28 07:06:18.
