data_PCOD8141348
_publ_section_title
;
Structure prediction by ZEFSAII (Michael W. Deem and Ramdas Pophale) SiO2 
 PCOD8141348
Probable space group: C 2/C
;
_chemical_formula_sum "Si O2"
_cell_formula_units_Z 64
_cell_length_a 11.796771
_cell_length_b 21.168609
_cell_length_c 12.027347
_cell_angle_alpha 90.000000
_cell_angle_beta 82.106135
_cell_angle_gamma 90.000000
_cell_volume 2975.023430
_symmetry_space_group_name_H-M "C 2/C"
_symmetry_group_IT_number 15
_symmetry_cell_setting 'monoclinic'
loop_
_space_group_symop_operation_xyz
x,y,z
-x,y,1/2-z
-x,-y,-z
x,-y,1/2+z
1/2+x,1/2+y,z
1/2-x,1/2+y,1/2-z
1/2-x,1/2-y,-z
1/2+x,1/2-y,1/2+z
loop_
_atom_site_type_symbol
_atom_site_label
_atom_site_fract_x
_atom_site_fract_y
_atom_site_fract_z
Si Si1 0.376629 0.851188 0.299830
Si Si2 0.145314 0.205161 0.801805
Si Si3 0.869252 0.613346 0.258505
Si Si4 0.413094 0.521046 0.357415
Si Si5 0.723523 0.017830 0.726154
Si Si6 0.150143 0.280088 0.588310
Si Si7 0.407804 0.180113 0.046125
Si Si8 0.425403 0.422172 0.076863
O O1 0.500000 0.824788 0.250000
O O2 0.277371 0.810706 0.255896
O O3 0.363197 0.923140 0.256199
O O4 0.363517 0.842517 0.433314
O O5 0.098081 0.229952 0.687497
O O6 0.145433 0.254771 0.902267
O O7 0.078990 0.143857 0.857537
O O8 0.849292 0.542547 0.303028
O O9 0.796827 0.661748 0.346468
O O10 0.850827 0.624871 0.129832
O O11 0.000000 0.634570 0.250000
O O12 0.500000 0.543261 0.250000
O O13 0.285771 0.503618 0.332199
O O14 0.455983 0.455553 0.406687
O O15 0.414068 0.579804 0.444337
O O16 0.820961 0.032691 0.624661
O O17 0.250000 0.250000 0.500000
O O18 0.046335 0.308733 0.528209
#
# Coordination Sequence:
#
# PCOD8141348 Si02
#       8
#     8   8   8   8   8   8   8   8
#     4  11  23  40  59  94 128 154 206 264 304 361
#     4  10  21  39  66  88 119 167 209 245 320 381
#     4   9  20  40  59  84 122 160 204 246 303 371
#     4   9  19  39  59  85 132 159 201 261 304 364
#     4  10  21  36  60  89 119 166 200 243 316 370
#     4  10  21  42  63  92 120 158 208 263 306 367
#     4  10  22  41  64  84 125 166 204 256 310 369
#     4   9  20  39  60  93 123 158 209 258 307 365
#
# _framework density 21.512435
#
# number of rings (size 3 to 8) (size 9 to 14) (size 15 to 20)
#    0.000    2.250    0.000    2.625    3.500    5.000 
#   18.000    3.750    0.000    0.000    0.000    0.000 
#    0.000    0.000    0.000    0.000    0.000    0.000 
#
# Total GULP energy -396429.948120 kJ/mol
# GULP energy per Si atom -12388.435879 kJ/mol
# Density = 2.146347 g / cm^3
# Si number density = 21.512435 Si / 1000 Ang^3
#
#
#
# Elastic Constant Matrix: (Units=GPa)
#
#
# Indices 1 2 3 4 5 6 
#
# 1 43.9155 5.8279 -1.3221 0.0000 -1.2414 0.0000
# 2 5.8279 98.2654 26.9676 0.0000 -9.0198 0.0000
# 3 -1.3221 26.9676 89.3749 0.0000 6.2552 0.0000
# 4 0.0000 0.0000 0.0000 28.8864 0.0000 -1.7828
# 5 -1.2414 -9.0198 6.2552 0.0000 29.2381 0.0000
# 6 0.0000 0.0000 0.0000 -1.7828 0.0000 23.5832
#
#
#
# Elastic Compliance Matrix: (Units=1/GPa)
#
#
# Indices 1 2 3 4 5 6 
#
# 1 0.023010 -0.001550 0.000785 0.000000 0.000331 0.000000
# 2 -0.001550 0.011733 -0.003870 0.000000 0.004382 0.000000
# 3 0.000785 -0.003870 0.012639 0.000000 -0.003864 0.000000
# 4 0.000000 0.000000 0.000000 0.034781 0.000000 0.002629
# 5 0.000331 0.004382 -0.003864 0.000000 0.036394 0.000000
# 6 0.000000 0.000000 0.000000 0.002629 0.000000 0.042602
#
#
# Mechanical properties :
#
#
# Convention : Reuss Voigt Hill
#
# Bulk Modulus (GPa) = 26.23873 32.72252 29.48062
# Shear Modulus (GPa) = 27.30293 29.68039 28.49166
#
# Velocity S-wave (km/s) = 3.56641 3.71844 3.64322
# Velocity P-wave (km/s) = 5.40208 5.80342 5.60635
#
# Compressibility (1/GPa) = 0.03811160
#
# Stress axis : x y z
#
# Youngs Moduli (GPa) = 43.46010 85.23259 79.12313
#
# Poissons Ratio (x) = 0.13208 -0.06210
# Poissons Ratio (y) = 0.06735 0.30619
# Poissons Ratio (z) = -0.03411 0.32983
#
# Static dielectric constant tensor:
#      x y z
#    x 3.839980 0.000000 0.091130 
#    y 0.000000 3.772210 0.000000 
#    z 0.091130 0.000000 3.909850 
# 
# 
# High freq. dielectric constant tensor:
#      x y z
#    x 1.841510 0.000000 0.004360 
#    y 0.000000 1.836090 0.000000 
#    z 0.004360 0.000000 1.840730 
# 
# From -- ./inp_files/90805.got.cif
#   From: 2010.06.25/outbox.cif.g09.slc.cpg/sg15_46_cif.got.tgz:90805.got - 2010.06.28 07:06:18.
