data_PCOD8141136
_publ_section_title
;
Structure prediction by ZEFSAII (Michael W. Deem and Ramdas Pophale) SiO2 
 PCOD8141136
Probable space group: C 2/C
;
_chemical_formula_sum "Si O2"
_cell_formula_units_Z 64
_cell_length_a 26.392250
_cell_length_b 21.548390
_cell_length_c 11.171633
_cell_angle_alpha 90.000000
_cell_angle_beta 30.886300
_cell_angle_gamma 90.000000
_cell_volume 3261.442163
_symmetry_space_group_name_H-M "C 2/C"
_symmetry_group_IT_number 15
_symmetry_cell_setting 'monoclinic'
loop_
_space_group_symop_operation_xyz
x,y,z
-x,y,1/2-z
-x,-y,-z
x,-y,1/2+z
1/2+x,1/2+y,z
1/2-x,1/2+y,1/2-z
1/2-x,1/2-y,-z
1/2+x,1/2-y,1/2+z
loop_
_atom_site_type_symbol
_atom_site_label
_atom_site_fract_x
_atom_site_fract_y
_atom_site_fract_z
Si Si1 0.788554 0.075621 0.666865
Si Si2 0.111647 0.618803 0.486354
Si Si3 0.930094 0.939794 0.655040
Si Si4 0.252679 0.950481 0.623446
Si Si5 0.606114 0.027147 0.298217
Si Si6 0.441078 0.345335 0.991640
Si Si7 0.856472 0.723489 0.266966
Si Si8 0.897648 0.366362 0.887758
O O1 0.861559 0.061429 0.410634
O O2 0.845126 0.112614 0.658816
O O3 0.752322 0.007832 0.776808
O O4 0.693405 0.121185 0.834077
O O5 0.187247 0.608489 0.443923
O O6 0.115114 0.552803 0.413226
O O7 0.151136 0.672280 0.321046
O O8 0.000000 0.634984 0.750000
O O9 0.858859 0.931379 0.684954
O O10 0.999604 0.880340 0.524058
O O11 0.000000 0.000000 0.500000
O O12 0.311892 0.973462 0.385028
O O13 0.618112 0.080235 0.176601
O O14 0.500000 0.000000 0.500000
O O15 0.500000 0.335155 0.750000
O O16 0.425014 0.278359 0.081298
O O17 0.750000 0.750000 0.500000
O O18 0.894484 0.697674 0.318347
O O19 0.000000 0.370083 0.750000
#
# Coordination Sequence:
#
# PCOD8141136 Si02
#       8
#     8   8   8   8   8   8   8   8
#     4  10  21  38  62  88 126 166 199 242 311 379
#     4  11  23  38  60  91 124 162 200 250 311 368
#     4  11  23  38  62  94 127 163 208 255 307 365
#     4  11  22  36  60  96 129 155 196 255 302 366
#     4  10  21  35  59  90 129 161 189 238 315 382
#     4  10  21  42  64  84 118 171 209 246 310 372
#     4  11  23  44  64  82 118 163 217 255 304 370
#     4  10  23  38  63  92 120 160 207 259 309 368
#
# _framework density 19.623221999999998
#
# number of rings (size 3 to 8) (size 9 to 14) (size 15 to 20)
#    0.000    1.500    3.750    1.125    5.250    1.000 
#    2.250    0.000    0.000    3.750    0.000    0.000 
#    0.000    0.000    0.000    0.000    0.000    0.000 
#
# Total GULP energy -396561.860005 kJ/mol
# GULP energy per Si atom -12392.558125 kJ/mol
# Density = 1.957856 g / cm^3
# Si number density = 19.623222 Si / 1000 Ang^3
#
#
#
# Elastic Constant Matrix: (Units=GPa)
#
#
# Indices 1 2 3 4 5 6 
#
# 1 99.4356 39.5760 41.8470 0.0000 -29.7111 0.0000
# 2 39.5760 97.1335 43.7095 0.0000 -7.8424 0.0000
# 3 41.8470 43.7095 109.7694 0.0000 -16.3401 0.0000
# 4 0.0000 0.0000 0.0000 33.0386 0.0000 2.3096
# 5 -29.7111 -7.8424 -16.3401 0.0000 39.1939 0.0000
# 6 0.0000 0.0000 0.0000 2.3096 0.0000 28.8005
#
#
#
# Elastic Compliance Matrix: (Units=1/GPa)
#
#
# Indices 1 2 3 4 5 6 
#
# 1 0.016032 -0.004438 -0.002844 0.000000 0.010079 0.000000
# 2 -0.004438 0.013779 -0.004142 0.000000 -0.002334 0.000000
# 3 -0.002844 -0.004142 0.012154 0.000000 0.002082 0.000000
# 4 0.000000 0.000000 0.000000 0.030438 0.000000 -0.002441
# 5 0.010079 -0.002334 0.002082 0.000000 0.033556 0.000000
# 6 0.000000 0.000000 0.000000 -0.002441 0.000000 0.034917
#
#
# Mechanical properties :
#
#
# Convention : Reuss Voigt Hill
#
# Bulk Modulus (GPa) = 52.31454 61.84483 57.07969
# Shear Modulus (GPa) = 29.39508 32.28701 30.84104
#
# Velocity S-wave (km/s) = 3.87457 4.06069 3.96872
# Velocity P-wave (km/s) = 6.83621 7.31916 7.08180
#
# Compressibility (1/GPa) = 0.01911514
#
# Stress axis : x y z
#
# Youngs Moduli (GPa) = 62.37600 72.57442 82.28050
#
# Poissons Ratio (x) = 0.32212 0.23401
# Poissons Ratio (y) = 0.27685 0.34082
# Poissons Ratio (z) = 0.17740 0.30061
#
# Static dielectric constant tensor:
#      x y z
#    x 3.544880 0.000000 -0.042390 
#    y 0.000000 4.286250 0.000000 
#    z -0.042390 0.000000 3.930720 
# 
# 
# High freq. dielectric constant tensor:
#      x y z
#    x 1.756010 0.000000 -0.008440 
#    y 0.000000 1.752330 0.000000 
#    z -0.008440 0.000000 1.783550 
# 
# From -- ./inp_files/124269.got.cif
#   From: 2010.06.25/outbox.cif.g09.slc.cpg/sg15_63_cif.got.tgz:124269.got - 2010.06.28 07:06:18.
