data_PCOD8141513
_publ_section_title
;
Structure prediction by ZEFSAII (Michael W. Deem and Ramdas Pophale) SiO2 
 PCOD8141513
Probable space group: C 2/C
;
_chemical_formula_sum "Si O2"
_cell_formula_units_Z 32
_cell_length_a 13.119290
_cell_length_b 25.508876
_cell_length_c 4.929472
_cell_angle_alpha 90.000000
_cell_angle_beta 104.669687
_cell_angle_gamma 90.000000
_cell_volume 1595.912153
_symmetry_space_group_name_H-M "C 2/C"
_symmetry_group_IT_number 15
_symmetry_cell_setting 'monoclinic'
loop_
_space_group_symop_operation_xyz
x,y,z
-x,y,1/2-z
-x,-y,-z
x,-y,1/2+z
1/2+x,1/2+y,z
1/2-x,1/2+y,1/2-z
1/2-x,1/2-y,-z
1/2+x,1/2-y,1/2+z
loop_
_atom_site_type_symbol
_atom_site_label
_atom_site_fract_x
_atom_site_fract_y
_atom_site_fract_z
Si Si1 0.613154 0.690939 0.724891
Si Si2 0.930005 0.693117 0.440223
Si Si3 0.620975 0.534078 0.340765
Si Si4 0.715898 0.357537 0.794539
O O1 0.500000 0.670833 0.750000
O O2 0.619331 0.753761 0.719473
O O3 0.633657 0.670522 0.437575
O O4 0.699592 0.665872 0.983171
O O5 0.836300 0.654084 0.460836
O O6 0.000000 0.666618 0.250000
O O7 0.000000 0.706154 0.750000
O O8 0.500000 0.553370 0.250000
O O9 0.643703 0.515439 0.661391
O O10 0.698344 0.580401 0.301678
#
# Coordination Sequence:
#
# PCOD8141513 Si02
#       4
#     8   8   8   8
#     4  11  21  35  56  88 118 146 186 230 281 343
#     4  11  23  39  56  82 119 154 192 234 272 324
#     4  10  21  37  57  84 113 140 179 234 290 339
#     4  12  22  37  61  83 113 156 192 226 283 342
#
# _framework density 20.051228999999999
#
# number of rings (size 3 to 8) (size 9 to 14) (size 15 to 20)
#    0.000    1.000    0.000    9.750    0.000    2.000 
#    0.000    0.000    0.000    4.500    0.000    0.000 
#    0.000    0.000    0.000    0.000    0.000    0.000 
#
# Total GULP energy -198486.126117 kJ/mol
# GULP energy per Si atom -12405.382882 kJ/mol
# Density = 2.000559 g / cm^3
# Si number density = 20.051229 Si / 1000 Ang^3
#
#
#
# Elastic Constant Matrix: (Units=GPa)
#
#
# Indices 1 2 3 4 5 6 
#
# 1 95.7102 52.0448 21.1049 0.0000 -5.6144 0.0000
# 2 52.0448 97.9549 21.8496 0.0000 7.5933 0.0000
# 3 21.1049 21.8496 77.0510 0.0000 -7.7672 0.0000
# 4 0.0000 0.0000 0.0000 11.3378 0.0000 -0.5989
# 5 -5.6144 7.5933 -7.7672 0.0000 31.6687 0.0000
# 6 0.0000 0.0000 0.0000 -0.5989 0.0000 26.7262
#
#
#
# Elastic Compliance Matrix: (Units=1/GPa)
#
#
# Indices 1 2 3 4 5 6 
#
# 1 0.015518 -0.008256 -0.001469 0.000000 0.004370 0.000000
# 2 -0.008256 0.015673 -0.002778 0.000000 -0.005903 0.000000
# 3 -0.001469 -0.002778 0.014570 0.000000 0.003979 0.000000
# 4 0.000000 0.000000 0.000000 0.088305 0.000000 0.001979
# 5 0.004370 -0.005903 0.003979 0.000000 0.034743 0.000000
# 6 0.000000 0.000000 0.000000 0.001979 0.000000 0.037461
#
#
# Mechanical properties :
#
#
# Convention : Reuss Voigt Hill
#
# Bulk Modulus (GPa) = 48.18218 51.19056 49.68637
# Shear Modulus (GPa) = 20.99145 25.66100 23.32623
#
# Velocity S-wave (km/s) = 3.23908 3.58127 3.41446
# Velocity P-wave (km/s) = 6.17013 6.53345 6.35439
#
# Compressibility (1/GPa) = 0.02075456
#
# Stress axis : x y z
#
# Youngs Moduli (GPa) = 64.44183 63.80580 68.63612
#
# Poissons Ratio (x) = 0.52678 0.10081
# Poissons Ratio (y) = 0.53203 0.19067
# Poissons Ratio (z) = 0.09465 0.17725
#
# Static dielectric constant tensor:
#      x y z
#    x 3.654920 0.000000 -0.184490 
#    y 0.000000 3.332220 0.000000 
#    z -0.184490 0.000000 3.666270 
# 
# 
# High freq. dielectric constant tensor:
#      x y z
#    x 1.775220 0.000000 -0.020400 
#    y 0.000000 1.757120 0.000000 
#    z -0.020400 0.000000 1.794680 
# 
# From -- ./inp_files/3980.got.cif
#   From: 2010.06.25/outbox.cif.g09.slc.cpg/sg15_2_cif.got.tgz:3980.got - 2010.06.28 07:06:18.
