data_PCOD8141783
_publ_section_title
;
Structure prediction by ZEFSAII (Michael W. Deem and Ramdas Pophale) SiO2 
 PCOD8141783
Probable space group: C 2/C
;
_chemical_formula_sum "Si O2"
_cell_formula_units_Z 56
_cell_length_a 23.210599
_cell_length_b 13.589838
_cell_length_c 8.293778
_cell_angle_alpha 90.000000
_cell_angle_beta 121.072675
_cell_angle_gamma 90.000000
_cell_volume 2240.717777
_symmetry_space_group_name_H-M "C 2/C"
_symmetry_group_IT_number 15
_symmetry_cell_setting 'monoclinic'
loop_
_space_group_symop_operation_xyz
x,y,z
-x,y,1/2-z
-x,-y,-z
x,-y,1/2+z
1/2+x,1/2+y,z
1/2-x,1/2+y,1/2-z
1/2-x,1/2-y,-z
1/2+x,1/2-y,1/2+z
loop_
_atom_site_type_symbol
_atom_site_label
_atom_site_fract_x
_atom_site_fract_y
_atom_site_fract_z
Si Si1 0.968196 0.157089 0.874496
Si Si2 0.144835 0.304021 0.832320
Si Si3 0.570953 0.146176 0.798014
Si Si4 0.931421 0.445859 0.560301
Si Si5 0.825807 0.177303 0.054652
Si Si6 0.060439 0.050055 0.226718
Si Si7 0.738453 0.709423 0.215393
O O1 0.917678 0.246874 0.847008
O O2 0.000000 0.184928 0.750000
O O3 0.925573 0.054938 0.838547
O O4 0.034735 0.143788 0.083128
O O5 0.126532 0.391707 0.923827
O O6 0.196911 0.344155 0.772637
O O7 0.182258 0.223701 0.998726
O O8 0.500000 0.197757 0.750000
O O9 0.563422 0.089885 0.615968
O O10 0.632289 0.221185 0.876110
O O11 0.584716 0.062707 0.955286
O O12 0.000000 0.420558 0.750000
O O13 0.874573 0.086402 0.081354
O O14 0.793404 0.149312 0.181668
O O15 0.767683 0.188116 0.836444
O O16 0.000000 0.014646 0.250000
#
# Coordination Sequence:
#
# PCOD8141783 Si02
#       7
#     8   8   8   8   8   8   8
#     4  10  21  37  64  94 124 149 196 255 311 378
#     4  11  22  42  63  88 126 170 207 256 309 359
#     4  11  24  41  65  98 125 159 207 264 326 384
#     4  11  24  40  65  97 126 158 208 263 325 384
#     4  11  22  42  62  87 130 167 204 258 309 364
#     4  10  21  38  62  98 121 152 196 251 321 378
#     4  10  24  40  60  89 123 170 220 247 286 377
#
# _framework density 24.991990000000001
#
# number of rings (size 3 to 8) (size 9 to 14) (size 15 to 20)
#    0.000    1.429    1.429    4.286    6.000    0.000 
#    0.000    8.571    0.000    0.000    0.000    0.000 
#    0.000    0.000    0.000    0.000    0.000    0.000 
#
# Total GULP energy -346933.222972 kJ/mol
# GULP energy per Si atom -12390.472249 kJ/mol
# Density = 2.493511 g / cm^3
# Si number density = 24.991990 Si / 1000 Ang^3
#
#
#
# Elastic Constant Matrix: (Units=GPa)
#
#
# Indices 1 2 3 4 5 6 
#
# 1 136.6239 27.7433 -3.3347 0.0000 -12.0045 0.0000
# 2 27.7433 54.3923 -10.5343 0.0000 10.7478 0.0000
# 3 -3.3347 -10.5343 55.3583 0.0000 -1.0708 0.0000
# 4 0.0000 0.0000 0.0000 -7.5566 0.0000 -31.4184
# 5 -12.0045 10.7478 -1.0708 0.0000 40.3932 0.0000
# 6 0.0000 0.0000 0.0000 -31.4184 0.0000 -9.8407
#
#
#
# Elastic Compliance Matrix: (Units=1/GPa)
#
#
# Indices 1 2 3 4 5 6 
#
# 1 0.008744 -0.005331 -0.000410 0.000000 0.004006 0.000000
# 2 -0.005331 0.023398 0.003982 0.000000 -0.007704 0.000000
# 3 -0.000410 0.003982 0.018784 0.000000 -0.000684 0.000000
# 4 0.000000 0.000000 0.000000 0.010781 0.000000 -0.034422
# 5 0.004006 -0.007704 -0.000684 0.000000 0.027979 0.000000
# 6 0.000000 0.000000 0.000000 -0.034422 0.000000 0.008279
#
#
# Mechanical properties :
#
#
# Convention : Reuss Voigt Hill
#
# Bulk Modulus (GPa) = 21.09365 30.45813 25.77589
# Shear Modulus (GPa) = 42.63114 20.09922 31.36518
#
# Velocity S-wave (km/s) = 4.13460 2.83896 3.54645
# Velocity P-wave (km/s) = 5.59033 4.79165 5.20633
#
# Compressibility (1/GPa) = 0.04740763
#
# Stress axis : x y z
#
# Youngs Moduli (GPa) = 114.36580 42.73935 53.23685
#
# Poissons Ratio (x) = 0.22784 0.02184
# Poissons Ratio (y) = 0.60968 -0.21200
# Poissons Ratio (z) = 0.04692 -0.17020
#
# Static dielectric constant tensor:
#      x y z
#    x 4.799180 0.000000 -0.073580 
#    y 0.000000 4.102790 0.000000 
#    z -0.073580 0.000000 4.716990 
# 
# 
# High freq. dielectric constant tensor:
#      x y z
#    x 2.010410 0.000000 -0.012500 
#    y 0.000000 1.961030 0.000000 
#    z -0.012500 0.000000 2.003010 
# 
# From -- ./inp_files/61974.got.cif
#   From: 2010.06.25/outbox.cif.g09.slc.cpg/sg15_31_cif.got.tgz:61974.got - 2010.06.28 07:06:18.
