data_PCOD8141189
_publ_section_title
;
Structure prediction by ZEFSAII (Michael W. Deem and Ramdas Pophale) SiO2 
 PCOD8141189
Probable space group: C 2/C
;
_chemical_formula_sum "Si O2"
_cell_formula_units_Z 40
_cell_length_a 17.215661
_cell_length_b 12.159405
_cell_length_c 18.505217
_cell_angle_alpha 90.000000
_cell_angle_beta 145.638144
_cell_angle_gamma 90.000000
_cell_volume 2186.405604
_symmetry_space_group_name_H-M "C 2/C"
_symmetry_group_IT_number 15
_symmetry_cell_setting 'monoclinic'
loop_
_space_group_symop_operation_xyz
x,y,z
-x,y,1/2-z
-x,-y,-z
x,-y,1/2+z
1/2+x,1/2+y,z
1/2-x,1/2+y,1/2-z
1/2-x,1/2-y,-z
1/2+x,1/2-y,1/2+z
loop_
_atom_site_type_symbol
_atom_site_label
_atom_site_fract_x
_atom_site_fract_y
_atom_site_fract_z
Si Si1 0.487817 0.171374 0.453175
Si Si2 0.407004 0.401505 0.457347
Si Si3 0.216068 0.519737 0.697192
Si Si4 0.497016 0.511825 0.329653
Si Si5 0.090020 0.231099 0.887597
O O1 0.461346 0.283105 0.475815
O O2 0.607951 0.105679 0.584015
O O3 0.534618 0.193415 0.408460
O O4 0.348562 0.100536 0.342205
O O5 0.500000 0.500000 0.500000
O O6 0.259394 0.427809 0.308039
O O7 0.414780 0.406109 0.550856
O O8 0.341122 0.505431 0.737060
O O9 0.500000 0.558859 0.250000
O O10 0.573019 0.396160 0.392255
O O11 0.000000 0.266365 0.750000
O O12 0.250000 0.250000 0.000000
#
# Coordination Sequence:
#
# PCOD8141189 Si02
#       5
#     8   8   8   8   8
#     4  11  22  39  61  89 122 155 205 245 303 365
#     4  10  21  35  64  83 112 161 194 240 295 367
#     4  10  23  38  61  89 120 157 199 255 292 366
#     4  10  21  38  57  88 120 155 199 249 307 359
#     4  11  23  35  62  93 125 156 191 263 318 362
#
# _framework density 18.294868000000001
#
# number of rings (size 3 to 8) (size 9 to 14) (size 15 to 20)
#    0.000    1.600    4.000    2.400    8.400    0.000 
#    0.000    1.000    0.000    0.000    0.000    0.000 
#    0.000    0.000    0.000    0.000    0.000    0.000 
#
# Total GULP energy -247931.865855 kJ/mol
# GULP energy per Si atom -12396.593293 kJ/mol
# Density = 1.825323 g / cm^3
# Si number density = 18.294868 Si / 1000 Ang^3
#
#
#
# Elastic Constant Matrix: (Units=GPa)
#
#
# Indices 1 2 3 4 5 6 
#
# 1 127.8269 65.1117 77.1665 0.0000 -7.2377 0.0000
# 2 65.1117 120.9356 53.1115 0.0000 -6.1499 0.0000
# 3 77.1665 53.1115 135.7978 -0.0001 -8.7799 0.0000
# 4 0.0000 0.0000 -0.0001 29.2386 0.0000 2.1694
# 5 -7.2377 -6.1499 -8.7799 0.0000 33.0733 0.0000
# 6 0.0000 0.0000 0.0000 2.1694 0.0000 28.4611
#
#
#
# Elastic Compliance Matrix: (Units=1/GPa)
#
#
# Indices 1 2 3 4 5 6 
#
# 1 0.013939 -0.004846 -0.005989 0.000000 0.000559 0.000000
# 2 -0.004846 0.011691 -0.001777 0.000000 0.000642 0.000000
# 3 -0.005989 -0.001777 0.011555 0.000000 0.001426 0.000000
# 4 0.000000 0.000000 0.000000 0.034396 0.000000 -0.002622
# 5 0.000559 0.000642 0.001426 0.000000 0.030856 0.000000
# 6 0.000000 0.000000 0.000000 -0.002622 0.000000 0.035336
#
#
# Mechanical properties :
#
#
# Convention : Reuss Voigt Hill
#
# Bulk Modulus (GPa) = 83.61527 86.14886 84.88207
# Shear Modulus (GPa) = 29.94316 30.76597 30.35456
#
# Velocity S-wave (km/s) = 4.05000 4.10527 4.07773
# Velocity P-wave (km/s) = 8.22639 8.34639 8.28661
#
# Compressibility (1/GPa) = 0.01195954
#
# Stress axis : x y z
#
# Youngs Moduli (GPa) = 71.74309 85.53558 86.54599
#
# Poissons Ratio (x) = 0.41449 0.51834
# Poissons Ratio (y) = 0.34766 0.15382
# Poissons Ratio (z) = 0.42968 0.15203
#
# Static dielectric constant tensor:
#      x y z
#    x 3.836570 0.000000 -0.513960 
#    y 0.000000 3.361510 0.000000 
#    z -0.513960 0.000000 4.154940 
# 
# 
# High freq. dielectric constant tensor:
#      x y z
#    x 1.700290 0.000000 -0.013020 
#    y 0.000000 1.706580 0.000000 
#    z -0.013020 0.000000 1.729670 
# 
# From -- ./inp_files/94631.got.cif
#   From: 2010.06.25/outbox.cif.g09.slc.cpg/sg15_48_cif.got.tgz:94631.got - 2010.06.28 07:06:18.
