data_PCOD8141273
_publ_section_title
;
Structure prediction by ZEFSAII (Michael W. Deem and Ramdas Pophale) SiO2 
 PCOD8141273
Probable space group: C 2/C
;
_chemical_formula_sum "Si O2"
_cell_formula_units_Z 44
_cell_length_a 12.169921
_cell_length_b 12.265604
_cell_length_c 23.391179
_cell_angle_alpha 90.000000
_cell_angle_beta 42.488256
_cell_angle_gamma 90.000000
_cell_volume 2358.386557
_symmetry_space_group_name_H-M "C 2/C"
_symmetry_group_IT_number 15
_symmetry_cell_setting 'monoclinic'
loop_
_space_group_symop_operation_xyz
x,y,z
-x,y,1/2-z
-x,-y,-z
x,-y,1/2+z
1/2+x,1/2+y,z
1/2-x,1/2+y,1/2-z
1/2-x,1/2-y,-z
1/2+x,1/2-y,1/2+z
loop_
_atom_site_type_symbol
_atom_site_label
_atom_site_fract_x
_atom_site_fract_y
_atom_site_fract_z
Si Si1 0.019539 0.066172 0.904265
Si Si2 0.000000 0.675800 0.250000
Si Si3 0.471327 0.164790 0.827029
Si Si4 0.243820 0.525430 0.093071
Si Si5 0.204847 0.238264 0.769325
Si Si6 0.033249 0.101693 0.299985
O O1 0.149748 0.002896 0.892654
O O2 0.078693 0.186697 0.863366
O O3 0.987613 0.992745 0.861066
O O4 0.852183 0.082431 0.002967
O O5 0.901451 0.605062 0.333716
O O6 0.876398 0.750268 0.261465
O O7 0.500000 0.132119 0.750000
O O8 0.334064 0.084634 0.904473
O O9 0.644066 0.152051 0.794404
O O10 0.414996 0.291831 0.853442
O O11 0.279551 0.353536 0.763829
O O12 0.000000 0.052698 0.250000
#
# Coordination Sequence:
#
# PCOD8141273 Si02
#       6
#     8   4   8   8   8   8
#     4  11  21  35  57  94 115 147 192 248 280 346
#     4  12  22  38  60  82 114 164 184 242 294 344
#     4   9  16  34  59  81 104 151 191 230 270 346
#     4  11  20  36  63  84 117 147 202 234 284 348
#     4  10  21  36  57  83 113 154 198 227 291 340
#     4   9  19  36  58  82 115 153 187 234 289 337
#
# _framework density 18.656822999999999
#
# number of rings (size 3 to 8) (size 9 to 14) (size 15 to 20)
#    1.091    0.727    4.545    0.000    1.273    1.455 
#    0.000    1.818    0.000    2.182    0.000    0.000 
#    0.000    0.000    0.000    0.000    0.000    0.000 
#
# Total GULP energy -272596.934258 kJ/mol
# GULP energy per Si atom -12390.769739 kJ/mol
# Density = 1.861436 g / cm^3
# Si number density = 18.656823 Si / 1000 Ang^3
#
#
#
# Elastic Constant Matrix: (Units=GPa)
#
#
# Indices 1 2 3 4 5 6 
#
# 1 130.6924 22.1079 33.4578 0.0000 4.2576 0.0000
# 2 22.1079 44.5085 35.2741 0.0000 7.2661 0.0000
# 3 33.4578 35.2741 91.3020 0.0000 2.5576 0.0000
# 4 0.0000 0.0000 0.0000 13.5904 0.0000 2.9029
# 5 4.2576 7.2661 2.5576 0.0000 23.1719 0.0000
# 6 0.0000 0.0000 0.0000 2.9029 0.0000 17.3906
#
#
#
# Elastic Compliance Matrix: (Units=1/GPa)
#
#
# Indices 1 2 3 4 5 6 
#
# 1 0.008650 -0.002455 -0.002205 0.000000 -0.000576 0.000000
# 2 -0.002455 0.034973 -0.012356 0.000000 -0.009152 0.000000
# 3 -0.002205 -0.012356 0.016465 0.000000 0.002462 0.000000
# 4 0.000000 0.000000 0.000000 0.076302 0.000000 -0.012737
# 5 -0.000576 -0.009152 0.002462 0.000000 0.045860 0.000000
# 6 0.000000 0.000000 0.000000 -0.012737 0.000000 0.059628
#
#
# Mechanical properties :
#
#
# Convention : Reuss Voigt Hill
#
# Bulk Modulus (GPa) = 38.37742 49.79806 44.08774
# Shear Modulus (GPa) = 17.56875 22.54145 20.05510
#
# Velocity S-wave (km/s) = 3.07201 3.47971 3.28220
# Velocity P-wave (km/s) = 5.76175 6.54936 6.16814
#
# Compressibility (1/GPa) = 0.02605699
#
# Stress axis : x y z
#
# Youngs Moduli (GPa) = 115.60495 28.59328 60.73325
#
# Poissons Ratio (x) = 0.07019 0.13394
# Poissons Ratio (y) = 0.28378 0.75041
# Poissons Ratio (z) = 0.25495 0.35329
#
# Static dielectric constant tensor:
#      x y z
#    x 3.462090 0.000000 -0.133740 
#    y 0.000000 3.251210 0.000000 
#    z -0.133740 0.000000 3.195330 
# 
# 
# High freq. dielectric constant tensor:
#      x y z
#    x 1.728250 0.000000 -0.007700 
#    y 0.000000 1.709600 0.000000 
#    z -0.007700 0.000000 1.690740 
# 
# From -- ./inp_files/269677.got.cif
#   From: 2010.06.25/outbox.cif.g09.slc.cpg/sg15_135_cif.got.tgz:269677.got - 2010.06.28 07:06:18.
