data_PCOD8141366
_publ_section_title
;
Structure prediction by ZEFSAII (Michael W. Deem and Ramdas Pophale) SiO2 
 PCOD8141366
Probable space group: C 2/C
;
_chemical_formula_sum "Si O2"
_cell_formula_units_Z 56
_cell_length_a 12.849673
_cell_length_b 15.457519
_cell_length_c 13.704529
_cell_angle_alpha 90.000000
_cell_angle_beta 87.807523
_cell_angle_gamma 90.000000
_cell_volume 2720.056571
_symmetry_space_group_name_H-M "C 2/C"
_symmetry_group_IT_number 15
_symmetry_cell_setting 'monoclinic'
loop_
_space_group_symop_operation_xyz
x,y,z
-x,y,1/2-z
-x,-y,-z
x,-y,1/2+z
1/2+x,1/2+y,z
1/2-x,1/2+y,1/2-z
1/2-x,1/2-y,-z
1/2+x,1/2-y,1/2+z
loop_
_atom_site_type_symbol
_atom_site_label
_atom_site_fract_x
_atom_site_fract_y
_atom_site_fract_z
Si Si1 0.592915 0.310882 0.670764
Si Si2 0.849772 0.450216 0.846763
Si Si3 0.208243 0.587256 0.359123
Si Si4 0.448954 0.873252 0.356411
Si Si5 0.515627 0.370751 0.470267
Si Si6 0.828961 0.011475 0.017548
Si Si7 0.006024 0.675430 0.440108
O O1 0.500000 0.318006 0.750000
O O2 0.700822 0.356111 0.694934
O O3 0.624811 0.210837 0.651228
O O4 0.544250 0.357928 0.580815
O O5 0.846687 0.460327 0.729841
O O6 0.888705 0.540877 0.890089
O O7 0.925341 0.370938 0.871001
O O8 0.736529 0.436313 0.898784
O O9 0.252940 0.518728 0.433589
O O10 0.124541 0.646410 0.417445
O O11 0.500000 0.890964 0.250000
O O12 0.524794 0.849047 0.446010
O O13 0.610276 0.432477 0.429064
O O14 0.407893 0.421809 0.464001
O O15 0.503524 0.278343 0.417334
#
# Coordination Sequence:
#
# PCOD8141366 Si02
#       7
#     8   8   8   8   8   8   8
#     4   9  19  37  62  88 120 160 206 249 305 368
#     4  12  24  38  60  91 127 162 202 256 311 363
#     4  11  23  39  61  90 125 162 204 257 309 365
#     4  10  21  36  61  87 119 160 203 249 298 367
#     4   9  21  41  64  89 121 162 205 257 305 364
#     4  10  22  41  65  91 122 160 209 253 308 365
#     4  11  23  40  62  89 127 161 203 252 310 362
#
# _framework density 20.587807000000002
#
# number of rings (size 3 to 8) (size 9 to 14) (size 15 to 20)
#    0.000    1.714    1.429    2.571    4.000    2.286 
#    2.571    1.429    0.000    0.000    0.000    0.000 
#    0.000    0.000    0.000    0.000    0.000    0.000 
#
# Total GULP energy -347028.686896 kJ/mol
# GULP energy per Si atom -12393.881675 kJ/mol
# Density = 2.054095 g / cm^3
# Si number density = 20.587807 Si / 1000 Ang^3
#
#
#
# Elastic Constant Matrix: (Units=GPa)
#
#
# Indices 1 2 3 4 5 6 
#
# 1 102.2498 54.4818 29.3860 0.0000 -5.4612 0.0000
# 2 54.4818 127.3281 20.0632 0.0000 4.3227 0.0000
# 3 29.3860 20.0632 72.6917 0.0000 -2.0287 0.0000
# 4 0.0000 0.0000 0.0000 18.1344 0.0000 -7.2607
# 5 -5.4612 4.3227 -2.0287 0.0000 21.7154 0.0000
# 6 0.0000 0.0000 0.0000 -7.2607 0.0000 22.8633
#
#
#
# Elastic Compliance Matrix: (Units=1/GPa)
#
#
# Indices 1 2 3 4 5 6 
#
# 1 0.014135 -0.005553 -0.004062 0.000000 0.004281 0.000000
# 2 -0.005553 0.010468 -0.000743 0.000000 -0.003550 0.000000
# 3 -0.004062 -0.000743 0.015620 0.000000 0.000586 0.000000
# 4 0.000000 0.000000 0.000000 0.063177 0.000000 0.020063
# 5 0.004281 -0.003550 0.000586 0.000000 0.047888 0.000000
# 6 0.000000 0.000000 0.000000 0.020063 0.000000 0.050110
#
#
# Mechanical properties :
#
#
# Convention : Reuss Voigt Hill
#
# Bulk Modulus (GPa) = 51.26678 56.68129 53.97403
# Shear Modulus (GPa) = 21.87072 25.76520 23.81796
#
# Velocity S-wave (km/s) = 3.26285 3.54146 3.40501
# Velocity P-wave (km/s) = 6.25704 6.65687 6.46005
#
# Compressibility (1/GPa) = 0.01950581
#
# Stress axis : x y z
#
# Youngs Moduli (GPa) = 70.74627 95.53304 64.01951
#
# Poissons Ratio (x) = 0.53054 0.26004
# Poissons Ratio (y) = 0.39289 0.04758
# Poissons Ratio (z) = 0.28736 0.07100
#
# Static dielectric constant tensor:
#      x y z
#    x 3.742800 0.000000 -0.104340 
#    y 0.000000 3.902380 0.000000 
#    z -0.104340 0.000000 3.594240 
# 
# 
# High freq. dielectric constant tensor:
#      x y z
#    x 1.798630 0.000000 -0.005700 
#    y 0.000000 1.812990 0.000000 
#    z -0.005700 0.000000 1.797890 
# 
# From -- ./inp_files/144231.got.cif
#   From: 2010.06.25/outbox.cif.g09.slc.cpg/sg15_73_cif.got.tgz:144231.got - 2010.06.28 07:06:18.
