data_PCOD8141633
_publ_section_title
;
Structure prediction by ZEFSAII (Michael W. Deem and Ramdas Pophale) SiO2 
 PCOD8141633
Probable space group: C 2/C
;
_chemical_formula_sum "Si O2"
_cell_formula_units_Z 48
_cell_length_a 8.365247
_cell_length_b 28.861131
_cell_length_c 9.758373
_cell_angle_alpha 90.000000
_cell_angle_beta 100.535685
_cell_angle_gamma 90.000000
_cell_volume 2316.250004
_symmetry_space_group_name_H-M "C 2/C"
_symmetry_group_IT_number 15
_symmetry_cell_setting 'monoclinic'
loop_
_space_group_symop_operation_xyz
x,y,z
-x,y,1/2-z
-x,-y,-z
x,-y,1/2+z
1/2+x,1/2+y,z
1/2-x,1/2+y,1/2-z
1/2-x,1/2-y,-z
1/2+x,1/2-y,1/2+z
loop_
_atom_site_type_symbol
_atom_site_label
_atom_site_fract_x
_atom_site_fract_y
_atom_site_fract_z
Si Si1 0.330376 0.769952 0.798325
Si Si2 0.586553 0.335021 0.625910
Si Si3 0.220166 0.085389 0.666569
Si Si4 0.890493 0.506411 0.112853
Si Si5 0.354908 0.420004 0.032655
Si Si6 0.242884 0.183755 0.555244
O O1 0.500000 0.761189 0.750000
O O2 0.213126 0.794309 0.671707
O O3 0.239292 0.721910 0.822391
O O4 0.348322 0.802055 0.937893
O O5 0.500000 0.353774 0.750000
O O6 0.684140 0.376757 0.570965
O O7 0.449741 0.314873 0.504648
O O8 0.211441 0.091392 0.827776
O O9 0.294022 0.132760 0.614684
O O10 0.048315 0.072003 0.570646
O O11 0.341951 0.044336 0.654734
O O12 0.000000 0.529986 0.250000
O O13 0.731343 0.536105 0.050978
O O14 0.000000 0.500000 0.000000
#
# Coordination Sequence:
#
# PCOD8141633 Si02
#       6
#     8   8   8   8   8   8
#     4  10  21  37  60  93 122 162 204 256 316 361
#     4   9  20  39  61  89 121 160 210 254 305 361
#     4  10  22  44  65  92 120 168 219 249 309 379
#     4  12  25  43  63  94 133 160 200 267 329 377
#     4  10  22  41  68  90 120 170 214 255 303 379
#     4   9  21  41  61  86 127 160 209 260 295 372
#
# _framework density 20.723151999999999
#
# number of rings (size 3 to 8) (size 9 to 14) (size 15 to 20)
#    0.000    2.000    1.667    0.500    4.667    6.667 
#    3.000    2.500    0.000    0.000    0.000    0.000 
#    0.000    0.000    0.000    0.000    0.000    0.000 
#
# Total GULP energy -297611.497352 kJ/mol
# GULP energy per Si atom -12400.479056 kJ/mol
# Density = 2.067599 g / cm^3
# Si number density = 20.723152 Si / 1000 Ang^3
#
#
#
# Elastic Constant Matrix: (Units=GPa)
#
#
# Indices 1 2 3 4 5 6 
#
# 1 54.4505 26.2257 25.1902 0.0000 -7.8200 0.0000
# 2 26.2257 116.7435 38.7904 0.0000 4.6462 0.0000
# 3 25.1902 38.7904 88.5985 0.0000 3.1404 0.0000
# 4 0.0000 0.0000 0.0000 42.0522 0.0000 0.5754
# 5 -7.8200 4.6462 3.1404 0.0000 34.0659 0.0000
# 6 0.0000 0.0000 0.0000 0.5754 0.0000 28.6002
#
#
#
# Elastic Compliance Matrix: (Units=1/GPa)
#
#
# Indices 1 2 3 4 5 6 
#
# 1 0.023548 -0.003797 -0.005260 0.000000 0.006408 0.000000
# 2 -0.003797 0.010668 -0.003520 0.000000 -0.002002 0.000000
# 3 -0.005260 -0.003520 0.014396 0.000000 -0.002054 0.000000
# 4 0.000000 0.000000 0.000000 0.023787 0.000000 -0.000479
# 5 0.006408 -0.002002 -0.002054 0.000000 0.031288 0.000000
# 6 0.000000 0.000000 0.000000 -0.000479 0.000000 0.034974
#
#
# Mechanical properties :
#
#
# Convention : Reuss Voigt Hill
#
# Bulk Modulus (GPa) = 42.62928 48.91169 45.77048
# Shear Modulus (GPa) = 29.13155 32.24940 30.69048
#
# Velocity S-wave (km/s) = 3.75340 3.94915 3.85252
# Velocity P-wave (km/s) = 6.27690 6.66694 6.47486
#
# Compressibility (1/GPa) = 0.02345805
#
# Stress axis : x y z
#
# Youngs Moduli (GPa) = 42.46675 93.73697 69.46216
#
# Poissons Ratio (x) = 0.35594 0.36535
# Poissons Ratio (y) = 0.16126 0.24452
# Poissons Ratio (z) = 0.22336 0.32997
#
# Static dielectric constant tensor:
#      x y z
#    x 3.613450 0.000000 0.134150 
#    y 0.000000 3.876350 0.000000 
#    z 0.134150 0.000000 4.132190 
# 
# 
# High freq. dielectric constant tensor:
#      x y z
#    x 1.800530 0.000000 -0.002080 
#    y 0.000000 1.811140 0.000000 
#    z -0.002080 0.000000 1.821500 
# 
# From -- ./inp_files/26116.got.cif
#   From: 2010.06.25/outbox.cif.g09.slc.cpg/sg15_14_cif.got.tgz:26116.got - 2010.06.28 07:06:18.
