data_PCOD8141888
_publ_section_title
;
Structure prediction by ZEFSAII (Michael W. Deem and Ramdas Pophale) SiO2 
 PCOD8141888
Probable space group: C 2/C
;
_chemical_formula_sum "Si O2"
_cell_formula_units_Z 56
_cell_length_a 26.669478
_cell_length_b 13.612919
_cell_length_c 9.577475
_cell_angle_alpha 90.000000
_cell_angle_beta 52.716538
_cell_angle_gamma 90.000000
_cell_volume 2766.546509
_symmetry_space_group_name_H-M "C 2/C"
_symmetry_group_IT_number 15
_symmetry_cell_setting 'monoclinic'
loop_
_space_group_symop_operation_xyz
x,y,z
-x,y,1/2-z
-x,-y,-z
x,-y,1/2+z
1/2+x,1/2+y,z
1/2-x,1/2+y,1/2-z
1/2-x,1/2-y,-z
1/2+x,1/2-y,1/2+z
loop_
_atom_site_type_symbol
_atom_site_label
_atom_site_fract_x
_atom_site_fract_y
_atom_site_fract_z
Si Si1 0.165881 0.797087 0.701659
Si Si2 0.860448 0.478027 0.669698
Si Si3 0.797644 0.388487 0.514169
Si Si4 0.952487 0.688614 0.120361
Si Si5 0.914903 0.670517 0.490409
Si Si6 0.075890 0.946142 0.742766
Si Si7 0.933489 0.104398 0.536183
O O1 0.174811 0.720749 0.558480
O O2 0.222702 0.873646 0.626932
O O3 0.103994 0.860706 0.788625
O O4 0.148600 0.730285 0.864188
O O5 0.813051 0.419900 0.646859
O O6 0.915139 0.407120 0.634091
O O7 0.896210 0.556564 0.512891
O O8 0.822457 0.530379 0.860650
O O9 0.935818 0.712236 0.307560
O O10 0.931345 0.778677 0.057978
O O11 0.028607 0.676853 0.988942
O O12 0.104486 0.931682 0.538145
O O13 0.093914 0.052516 0.778079
O O14 0.001966 0.934294 0.881779
#
# Coordination Sequence:
#
# PCOD8141888 Si02
#       7
#     8   8   8   8   8   8   8
#     4  10  21  42  62  87 121 171 209 255 309 374
#     4  11  21  43  60  98 124 163 206 261 311 385
#     4  10  23  40  67  84 125 165 212 253 309 369
#     4  11  21  38  64  96 129 161 204 261 324 377
#     4  10  22  37  65  95 126 163 200 264 320 378
#     4  10  21  38  57  87 122 163 207 259 306 370
#     4  10  22  35  59  89 122 163 202 255 316 372
#
# _framework density 20.241842999999999
#
# number of rings (size 3 to 8) (size 9 to 14) (size 15 to 20)
#    0.000    1.714    2.857    1.286    2.000    2.286 
#    0.000    2.143    0.000    0.000    0.000    0.000 
#    0.000    0.000    0.000    0.000    0.000    0.000 
#
# Total GULP energy -346935.672017 kJ/mol
# GULP energy per Si atom -12390.559715 kJ/mol
# Density = 2.019577 g / cm^3
# Si number density = 20.241843 Si / 1000 Ang^3
#
#
#
# Elastic Constant Matrix: (Units=GPa)
#
#
# Indices 1 2 3 4 5 6 
#
# 1 64.9010 35.1123 31.5213 0.0000 12.3911 0.0000
# 2 35.1123 100.1629 28.2243 0.0000 3.0201 0.0000
# 3 31.5213 28.2243 69.7623 0.0000 3.3282 0.0000
# 4 0.0000 0.0000 0.0000 29.4715 0.0000 -4.3508
# 5 12.3911 3.0201 3.3282 0.0000 20.6397 0.0000
# 6 0.0000 0.0000 0.0000 -4.3508 0.0000 33.9847
#
#
#
# Elastic Compliance Matrix: (Units=1/GPa)
#
#
# Indices 1 2 3 4 5 6 
#
# 1 0.025209 -0.006108 -0.008304 0.000000 -0.012901 0.000000
# 2 -0.006108 0.012766 -0.002510 0.000000 0.002204 0.000000
# 3 -0.008304 -0.002510 0.018993 0.000000 0.002290 0.000000
# 4 0.000000 0.000000 0.000000 0.034585 0.000000 0.004428
# 5 -0.012901 0.002204 0.002290 0.000000 0.055504 0.000000
# 6 0.000000 0.000000 0.000000 0.004428 0.000000 0.029992
#
#
# Mechanical properties :
#
#
# Convention : Reuss Voigt Hill
#
# Bulk Modulus (GPa) = 43.24584 47.17135 45.20860
# Shear Modulus (GPa) = 22.87295 26.15041 24.51168
#
# Velocity S-wave (km/s) = 3.36517 3.59820 3.48363
# Velocity P-wave (km/s) = 6.04236 6.37316 6.20996
#
# Compressibility (1/GPa) = 0.02312361
#
# Stress axis : x y z
#
# Youngs Moduli (GPa) = 39.66877 78.33432 52.65235
#
# Poissons Ratio (x) = 0.47848 0.43720
# Poissons Ratio (y) = 0.24230 0.13216
# Poissons Ratio (z) = 0.32939 0.19662
#
# Static dielectric constant tensor:
#      x y z
#    x 3.670930 0.000000 0.154450 
#    y 0.000000 3.694890 0.000000 
#    z 0.154450 0.000000 3.700750 
# 
# 
# High freq. dielectric constant tensor:
#      x y z
#    x 1.776690 0.000000 0.007350 
#    y 0.000000 1.800460 0.000000 
#    z 0.007350 0.000000 1.780400 
# 
# From -- ./inp_files/61809.got.cif
#   From: 2010.06.25/outbox.cif.g09.slc.cpg/sg15_31_cif.got.tgz:61809.got - 2010.06.28 07:06:18.
