data_PCOD8141847
_publ_section_title
;
Structure prediction by ZEFSAII (Michael W. Deem and Ramdas Pophale) SiO2 
 PCOD8141847
Probable space group: C 2/C
;
_chemical_formula_sum "Si O2"
_cell_formula_units_Z 44
_cell_length_a 21.773137
_cell_length_b 13.396773
_cell_length_c 16.068752
_cell_angle_alpha 90.000000
_cell_angle_beta 155.457291
_cell_angle_gamma 90.000000
_cell_volume 1946.883513
_symmetry_space_group_name_H-M "C 2/C"
_symmetry_group_IT_number 15
_symmetry_cell_setting 'monoclinic'
loop_
_space_group_symop_operation_xyz
x,y,z
-x,y,1/2-z
-x,-y,-z
x,-y,1/2+z
1/2+x,1/2+y,z
1/2-x,1/2+y,1/2-z
1/2-x,1/2-y,-z
1/2+x,1/2-y,1/2+z
loop_
_atom_site_type_symbol
_atom_site_label
_atom_site_fract_x
_atom_site_fract_y
_atom_site_fract_z
Si Si1 0.500000 0.517343 0.750000
Si Si2 0.424338 0.172339 0.742713
Si Si3 0.642516 0.616435 0.303838
Si Si4 0.743032 0.356474 0.620180
Si Si5 0.957795 0.669901 0.102365
Si Si6 0.169628 0.465585 0.610139
O O1 0.488634 0.450563 0.819657
O O2 0.354824 0.586638 0.569012
O O3 0.500000 0.205222 0.750000
O O4 0.412610 0.271556 0.784953
O O5 0.266233 0.123306 0.528883
O O6 0.516988 0.091383 0.905923
O O7 0.700429 0.567176 0.291422
O O8 0.645166 0.266314 0.535844
O O9 0.780904 0.438764 0.736440
O O10 0.889480 0.312056 0.758387
O O11 0.000000 0.645236 0.250000
O O12 0.863858 0.581660 0.944031
#
# Coordination Sequence:
#
# PCOD8141847 Si02
#       6
#     4   8   8   8   8   8
#     4  12  24  44  66 100 140 188 242 288 352 418
#     4   9  18  39  61  99 135 178 224 280 355 413
#     4  10  21  37  69  99 136 182 228 291 346 424
#     4  12  29  45  73 104 139 186 241 295 348 423
#     4  12  26  52  75 100 143 193 235 284 358 428
#     4  11  25  43  71 101 140 182 231 295 351 410
#
# _framework density 22.600221999999999
#
# number of rings (size 3 to 8) (size 9 to 14) (size 15 to 20)
#    0.000    1.091    1.818    4.909    5.091    2.182 
#    0.000    0.000    0.000    0.000    0.000    0.000 
#    0.000    0.000    0.000    0.000    0.000    0.000 
#
# Total GULP energy -272889.824783 kJ/mol
# GULP energy per Si atom -12404.082945 kJ/mol
# Density = 2.254878 g / cm^3
# Si number density = 22.600222 Si / 1000 Ang^3
#
#
#
# Elastic Constant Matrix: (Units=GPa)
#
#
# Indices 1 2 3 4 5 6 
#
# 1 91.9443 24.5209 26.8457 0.0000 13.8904 0.0000
# 2 24.5209 104.1015 28.5823 0.0000 3.5639 0.0000
# 3 26.8457 28.5823 50.9577 -0.0002 0.7404 -0.0001
# 4 0.0000 0.0000 -0.0002 34.2250 -0.0001 4.7697
# 5 13.8904 3.5639 0.7404 -0.0001 41.0754 0.0000
# 6 0.0000 0.0000 -0.0001 4.7697 0.0000 31.9224
#
#
#
# Elastic Compliance Matrix: (Units=1/GPa)
#
#
# Indices 1 2 3 4 5 6 
#
# 1 0.013783 -0.001323 -0.006455 0.000000 -0.004430 0.000000
# 2 -0.001323 0.011513 -0.005754 0.000000 -0.000448 0.000000
# 3 -0.006455 -0.005754 0.026220 0.000000 0.002210 0.000000
# 4 0.000000 0.000000 0.000000 0.029840 0.000000 -0.004459
# 5 -0.004430 -0.000448 0.002210 0.000000 0.025843 0.000000
# 6 0.000000 0.000000 0.000000 -0.004459 0.000000 0.031992
#
#
# Mechanical properties :
#
#
# Convention : Reuss Voigt Hill
#
# Bulk Modulus (GPa) = 40.89603 45.21128 43.05365
# Shear Modulus (GPa) = 28.66898 32.58153 30.62525
#
# Velocity S-wave (km/s) = 3.56550 3.80102 3.68514
# Velocity P-wave (km/s) = 5.92327 6.26992 6.09906
#
# Compressibility (1/GPa) = 0.02445225
#
# Stress axis : x y z
#
# Youngs Moduli (GPa) = 72.55419 86.85995 38.13850
#
# Poissons Ratio (x) = 0.11488 0.24618
# Poissons Ratio (y) = 0.09596 0.21946
# Poissons Ratio (z) = 0.46833 0.49982
#
# Static dielectric constant tensor:
#      x y z
#    x 3.940420 0.000000 0.227060 
#    y 0.000000 4.096730 0.000000 
#    z 0.227060 0.000000 4.170980 
# 
# 
# High freq. dielectric constant tensor:
#      x y z
#    x 1.884650 0.000000 0.020140 
#    y 0.000000 1.903410 0.000000 
#    z 0.020140 0.000000 1.887570 
# 
# From -- ./inp_files/219763.got.cif
#   From: 2010.06.25/outbox.cif.g09.slc.cpg/sg15_110_cif.got.tgz:219763.got - 2010.06.28 07:06:18.
