data_PCOD8141589
_publ_section_title
;
Structure prediction by ZEFSAII (Michael W. Deem and Ramdas Pophale) SiO2 
 PCOD8141589
Probable space group: C 2/C
;
_chemical_formula_sum "Si O2"
_cell_formula_units_Z 52
_cell_length_a 8.451693
_cell_length_b 32.003271
_cell_length_c 14.315788
_cell_angle_alpha 90.000000
_cell_angle_beta 37.581622
_cell_angle_gamma 90.000000
_cell_volume 2361.595789
_symmetry_space_group_name_H-M "C 2/C"
_symmetry_group_IT_number 15
_symmetry_cell_setting 'monoclinic'
loop_
_space_group_symop_operation_xyz
x,y,z
-x,y,1/2-z
-x,-y,-z
x,-y,1/2+z
1/2+x,1/2+y,z
1/2-x,1/2+y,1/2-z
1/2-x,1/2-y,-z
1/2+x,1/2-y,1/2+z
loop_
_atom_site_type_symbol
_atom_site_label
_atom_site_fract_x
_atom_site_fract_y
_atom_site_fract_z
Si Si1 0.470873 0.546388 0.110320
Si Si2 0.012155 0.200038 0.582840
Si Si3 0.238937 0.118738 0.541143
Si Si4 0.500000 0.235302 0.250000
Si Si5 0.500000 0.911600 0.750000
Si Si6 0.500000 0.161494 0.750000
Si Si7 0.125417 0.045142 0.825939
Si Si8 0.576537 0.903501 0.050804
O O1 0.467675 0.501011 0.160906
O O2 0.171467 0.559472 0.238105
O O3 0.611494 0.547283 0.944186
O O4 0.630076 0.579251 0.099961
O O5 0.082911 0.161986 0.620714
O O6 0.243498 0.208700 0.399277
O O7 0.940996 0.238337 0.684045
O O8 0.752187 0.190030 0.647038
O O9 0.328912 0.118667 0.392197
O O10 0.478339 0.116458 0.500039
O O11 0.051380 0.079240 0.644306
O O12 0.441279 0.132941 0.865978
O O13 0.416031 0.055427 0.657920
#
# Coordination Sequence:
#
# PCOD8141589 Si02
#       8
#     8   8   8   4   4   4   8   8
#     4  10  22  37  60  83 132 171 222 274 329 368
#     4  11  23  45  70 105 132 179 209 281 326 429
#     4  11  23  41  66  90 128 166 220 263 333 379
#     4  10  25  46  74  97 138 168 218 253 362 404
#     4  10  23  43  56  88 128 176 214 284 328 382
#     4  12  22  39  74 101 140 164 230 267 334 394
#     4  10  21  37  59  89 121 172 216 273 315 377
#     4  12  22  39  63  97 123 178 227 272 319 391
#
# _framework density 22.019007999999999
#
# number of rings (size 3 to 8) (size 9 to 14) (size 15 to 20)
#    0.000    1.231    3.077    2.769    6.462    1.846 
#    2.769    0.000    0.000    1.846    0.000    0.000 
#    0.000    0.000    0.000    0.000    0.000    0.000 
#
# Total GULP energy -322327.350937 kJ/mol
# GULP energy per Si atom -12397.205805 kJ/mol
# Density = 2.196889 g / cm^3
# Si number density = 22.019008 Si / 1000 Ang^3
#
#
#
# Elastic Constant Matrix: (Units=GPa)
#
#
# Indices 1 2 3 4 5 6 
#
# 1 142.3562 67.6206 34.2552 0.0000 -29.6488 0.0000
# 2 67.6206 117.7435 37.8303 0.0000 -16.7638 0.0000
# 3 34.2552 37.8303 92.6754 0.0000 -15.5357 0.0000
# 4 0.0000 0.0000 0.0000 -17.6749 0.0000 -28.0340
# 5 -29.6488 -16.7638 -15.5357 0.0000 39.1221 0.0000
# 6 0.0000 0.0000 0.0000 -28.0340 0.0000 27.4346
#
#
#
# Elastic Compliance Matrix: (Units=1/GPa)
#
#
# Indices 1 2 3 4 5 6 
#
# 1 0.010872 -0.005124 -0.000979 0.000000 0.005655 0.000000
# 2 -0.005124 0.012483 -0.003167 0.000000 0.000208 0.000000
# 3 -0.000979 -0.003167 0.012955 0.000000 0.003046 0.000000
# 4 0.000000 0.000000 0.000000 -0.021588 0.000000 -0.022060
# 5 0.005655 0.000208 0.003046 0.000000 0.031145 0.000000
# 6 0.000000 0.000000 0.000000 -0.022060 0.000000 0.013908
#
#
# Mechanical properties :
#
#
# Convention : Reuss Voigt Hill
#
# Bulk Modulus (GPa) = 56.27189 70.24303 63.25746
# Shear Modulus (GPa) = 59.35505 23.98096 41.66801
#
# Velocity S-wave (km/s) = 5.19758 3.30374 4.35485
# Velocity P-wave (km/s) = 7.85056 6.82079 7.35372
#
# Compressibility (1/GPa) = 0.01777086
#
# Stress axis : x y z
#
# Youngs Moduli (GPa) = 91.97948 80.10943 77.18781
#
# Poissons Ratio (x) = 0.41050 0.07556
# Poissons Ratio (y) = 0.47132 0.24443
# Poissons Ratio (z) = 0.09004 0.25368
#
# Static dielectric constant tensor:
#      x y z
#    x 3.976890 0.000000 -0.159970 
#    y 0.000000 3.979450 0.000000 
#    z -0.159970 0.000000 4.059940 
# 
# 
# High freq. dielectric constant tensor:
#      x y z
#    x 1.869140 0.000000 -0.000370 
#    y 0.000000 1.855450 0.000000 
#    z -0.000370 0.000000 1.869810 
# 
# From -- ./inp_files/139774.got.cif
#   From: 2010.06.25/outbox.cif.g09.slc.cpg/sg15_70_cif.got.tgz:139774.got - 2010.06.28 07:06:18.
