data_PCOD8141224
_publ_section_title
;
Structure prediction by ZEFSAII (Michael W. Deem and Ramdas Pophale) SiO2 
 PCOD8141224
Probable space group: C 2/C
;
_chemical_formula_sum "Si O2"
_cell_formula_units_Z 48
_cell_length_a 4.986191
_cell_length_b 18.559674
_cell_length_c 26.711951
_cell_angle_alpha 90.000000
_cell_angle_beta 96.658830
_cell_angle_gamma 90.000000
_cell_volume 2455.304080
_symmetry_space_group_name_H-M "C 2/C"
_symmetry_group_IT_number 15
_symmetry_cell_setting 'monoclinic'
loop_
_space_group_symop_operation_xyz
x,y,z
-x,y,1/2-z
-x,-y,-z
x,-y,1/2+z
1/2+x,1/2+y,z
1/2-x,1/2+y,1/2-z
1/2-x,1/2-y,-z
1/2+x,1/2-y,1/2+z
loop_
_atom_site_type_symbol
_atom_site_label
_atom_site_fract_x
_atom_site_fract_y
_atom_site_fract_z
Si Si1 0.452878 0.792191 0.610914
Si Si2 0.945680 0.422573 0.192147
Si Si3 0.099717 0.042092 0.453841
Si Si4 0.932764 0.540802 0.110787
Si Si5 0.097148 0.207329 0.453736
Si Si6 0.941259 0.172595 0.692141
O O1 0.457239 0.875806 0.626745
O O2 0.740642 0.775535 0.593007
O O3 0.440423 0.744820 0.659992
O O4 0.214716 0.772805 0.565456
O O5 0.648124 0.389387 0.178567
O O6 0.000000 0.447821 0.250000
O O7 0.005438 0.491875 0.159504
O O8 0.144428 0.359162 0.180375
O O9 0.385870 0.020248 0.434518
O O10 0.113441 0.124712 0.470695
O O11 0.879017 0.026408 0.406958
O O12 0.000000 0.000000 0.500000
O O13 0.250000 0.250000 0.500000
O O14 0.000000 0.196585 0.750000
#
# Coordination Sequence:
#
# PCOD8141224 Si02
#       6
#     8   8   8   8   8   8
#     4  10  21  37  56  80 110 143 181 224 270 323
#     4  10  21  37  57  83 112 142 181 226 271 325
#     4  10  21  36  54  79 109 141 181 226 269 320
#     4  10  21  37  56  80 110 143 181 224 270 323
#     4  10  21  36  54  79 109 141 181 226 269 320
#     4  10  21  37  57  83 112 142 181 226 271 325
#
# _framework density 19.549515
#
# number of rings (size 3 to 8) (size 9 to 14) (size 15 to 20)
#    0.000    2.000    0.000    3.000    0.000    4.667 
#    0.000    0.000    0.000   12.000    0.000    0.000 
#    0.000    0.000    0.000    0.000    0.000    0.000 
#
# Total GULP energy -297518.833927 kJ/mol
# GULP energy per Si atom -12396.618080 kJ/mol
# Density = 1.950502 g / cm^3
# Si number density = 19.549515 Si / 1000 Ang^3
#
#
#
# Elastic Constant Matrix: (Units=GPa)
#
#
# Indices 1 2 3 4 5 6 
#
# 1 84.3984 27.0515 20.1213 0.0000 -4.1785 0.0000
# 2 27.0515 98.0461 79.3999 0.0000 -12.9417 0.0000
# 3 20.1213 79.3999 96.1428 0.0000 -12.3096 0.0000
# 4 0.0000 0.0000 0.0000 18.9547 0.0000 -3.2335
# 5 -4.1785 -12.9417 -12.3096 0.0000 18.8641 0.0000
# 6 0.0000 0.0000 0.0000 -3.2335 0.0000 14.8688
#
#
#
# Elastic Compliance Matrix: (Units=1/GPa)
#
#
# Indices 1 2 3 4 5 6 
#
# 1 0.013020 -0.004137 0.000761 0.000000 0.000542 0.000000
# 2 -0.004137 0.032538 -0.025386 0.000000 0.004841 0.000000
# 3 0.000761 -0.025386 0.031642 0.000000 0.003401 0.000000
# 4 0.000000 0.000000 0.000000 0.054790 0.000000 0.011915
# 5 0.000542 0.004841 0.003401 0.000000 0.058671 0.000000
# 6 0.000000 0.000000 0.000000 0.011915 0.000000 0.069846
#
#
# Mechanical properties :
#
#
# Convention : Reuss Voigt Hill
#
# Bulk Modulus (GPa) = 50.82193 59.08143 54.95168
# Shear Modulus (GPa) = 15.40409 20.67182 18.03795
#
# Velocity S-wave (km/s) = 2.81009 3.25531 3.04086
# Velocity P-wave (km/s) = 6.04829 6.66456 6.36389
#
# Compressibility (1/GPa) = 0.01967654
#
# Stress axis : x y z
#
# Youngs Moduli (GPa) = 76.80506 30.73362 31.60339
#
# Poissons Ratio (x) = 0.12715 -0.02406
# Poissons Ratio (y) = 0.31775 0.80227
# Poissons Ratio (z) = -0.05847 0.78020
#
# Static dielectric constant tensor:
#      x y z
#    x 3.849170 0.000000 0.029460 
#    y 0.000000 3.783550 0.000000 
#    z 0.029460 0.000000 3.353190 
# 
# 
# High freq. dielectric constant tensor:
#      x y z
#    x 1.786700 0.000000 -0.000860 
#    y 0.000000 1.755140 0.000000 
#    z -0.000860 0.000000 1.751280 
# 
# From -- ./inp_files/260768.got.cif
#   From: 2010.06.25/outbox.cif.g09.slc.cpg/sg15_131_cif.got.tgz:260768.got - 2010.06.28 07:06:18.
