data_PCOD8141547
_publ_section_title
;
Structure prediction by ZEFSAII (Michael W. Deem and Ramdas Pophale) SiO2 
 PCOD8141547
Probable space group: C 2/C
;
_chemical_formula_sum "Si O2"
_cell_formula_units_Z 64
_cell_length_a 25.545252
_cell_length_b 13.532439
_cell_length_c 9.837838
_cell_angle_alpha 90.000000
_cell_angle_beta 90.148995
_cell_angle_gamma 90.000000
_cell_volume 3400.826434
_symmetry_space_group_name_H-M "C 2/C"
_symmetry_group_IT_number 15
_symmetry_cell_setting 'monoclinic'
loop_
_space_group_symop_operation_xyz
x,y,z
-x,y,1/2-z
-x,-y,-z
x,-y,1/2+z
1/2+x,1/2+y,z
1/2-x,1/2+y,1/2-z
1/2-x,1/2-y,-z
1/2+x,1/2-y,1/2+z
loop_
_atom_site_type_symbol
_atom_site_label
_atom_site_fract_x
_atom_site_fract_y
_atom_site_fract_z
Si Si1 0.810403 0.603168 0.212208
Si Si2 0.311610 0.917887 0.028330
Si Si3 0.347112 0.305653 0.130622
Si Si4 0.190775 0.131059 0.152662
Si Si5 0.527861 0.630759 0.383919
Si Si6 0.864443 0.217621 0.085599
Si Si7 0.541378 0.404919 0.365414
Si Si8 0.303707 0.405133 0.372801
O O1 0.826663 0.516867 0.108805
O O2 0.815291 0.564108 0.366622
O O3 0.849349 0.693718 0.185748
O O4 0.752012 0.642849 0.183268
O O5 0.350584 0.832810 0.078632
O O6 0.253138 0.885567 0.066222
O O7 0.404309 0.349671 0.155509
O O8 0.305168 0.370760 0.215761
O O9 0.327629 0.304238 0.975396
O O10 0.158071 0.166365 0.280758
O O11 0.177760 0.017826 0.116967
O O12 0.500000 0.670038 0.250000
O O13 0.573113 0.708393 0.418979
O O14 0.552770 0.521961 0.364566
O O15 0.482438 0.630397 0.493949
O O16 0.844039 0.162815 0.952387
O O17 0.500000 0.375585 0.250000
#
# Coordination Sequence:
#
# PCOD8141547 Si02
#       8
#     8   8   8   8   8   8   8   8
#     4  11  25  42  59  86 121 160 202 250 290 344
#     4  11  25  41  61  85 120 159 203 248 292 345
#     4  12  23  38  61  89 123 160 205 238 295 359
#     4  11  23  34  59  93 125 158 191 241 294 360
#     4  10  21  37  58  87 122 149 192 239 298 355
#     4  12  21  39  63  85 119 165 198 238 296 358
#     4  10  21  37  59  88 118 155 189 244 296 354
#     4  11  21  37  58  89 125 156 196 238 290 362
#
# _framework density 18.818954999999999
#
# number of rings (size 3 to 8) (size 9 to 14) (size 15 to 20)
#    0.000    1.000    2.500    5.250    7.000    2.000 
#    0.000    0.000    0.000    1.500    0.000    0.000 
#    0.000    0.000    0.000    0.000    0.000    0.000 
#
# Total GULP energy -396964.269515 kJ/mol
# GULP energy per Si atom -12405.133422 kJ/mol
# Density = 1.877612 g / cm^3
# Si number density = 18.818955 Si / 1000 Ang^3
#
#
#
# Elastic Constant Matrix: (Units=GPa)
#
#
# Indices 1 2 3 4 5 6 
#
# 1 68.2885 50.6457 26.6437 0.0000 4.4231 0.0000
# 2 50.6457 92.9192 29.8143 0.0000 -3.5648 0.0000
# 3 26.6437 29.8143 97.2213 0.0000 2.5424 0.0000
# 4 0.0000 0.0000 0.0000 29.2008 0.0000 -0.4113
# 5 4.4231 -3.5648 2.5424 0.0000 14.6834 0.0000
# 6 0.0000 0.0000 0.0000 -0.4113 0.0000 30.8097
#
#
#
# Elastic Compliance Matrix: (Units=1/GPa)
#
#
# Indices 1 2 3 4 5 6 
#
# 1 0.027020 -0.014277 -0.002736 0.000000 -0.011132 0.000000
# 2 -0.014277 0.019667 -0.002367 0.000000 0.009485 0.000000
# 3 -0.002736 -0.002367 0.011808 0.000000 -0.001795 0.000000
# 4 0.000000 0.000000 0.000000 0.034252 0.000000 0.000457
# 5 -0.011132 0.009485 -0.001795 0.000000 0.074071 0.000000
# 6 0.000000 0.000000 0.000000 0.000457 0.000000 0.032463
#
#
# Mechanical properties :
#
#
# Convention : Reuss Voigt Hill
#
# Bulk Modulus (GPa) = 50.66538 52.51515 51.59027
# Shear Modulus (GPa) = 20.43992 25.02712 22.73352
#
# Velocity S-wave (km/s) = 3.29923 3.65072 3.47942
# Velocity P-wave (km/s) = 6.44160 6.76287 6.60419
#
# Compressibility (1/GPa) = 0.01973734
#
# Stress axis : x y z
#
# Youngs Moduli (GPa) = 37.00899 50.84692 84.68665
#
# Poissons Ratio (x) = 0.72593 0.23168
# Poissons Ratio (y) = 0.52837 0.20042
# Poissons Ratio (z) = 0.10125 0.12033
#
# Static dielectric constant tensor:
#      x y z
#    x 3.277110 0.000000 0.029230 
#    y 0.000000 3.372360 0.000000 
#    z 0.029230 0.000000 3.663730 
# 
# 
# High freq. dielectric constant tensor:
#      x y z
#    x 1.713760 0.000000 -0.002130 
#    y 0.000000 1.716240 0.000000 
#    z -0.002130 0.000000 1.757210 
# 
# From -- ./inp_files/61912.got.cif
#   From: 2010.06.25/outbox.cif.g09.slc.cpg/sg15_31_cif.got.tgz:61912.got - 2010.06.28 07:06:18.
