data_PCOD8141379
_publ_section_title
;
Structure prediction by ZEFSAII (Michael W. Deem and Ramdas Pophale) SiO2 
 PCOD8141379
Probable space group: C 2/C
;
_chemical_formula_sum "Si O2"
_cell_formula_units_Z 60
_cell_length_a 18.172686
_cell_length_b 11.689375
_cell_length_c 15.271653
_cell_angle_alpha 90.000000
_cell_angle_beta 114.581212
_cell_angle_gamma 90.000000
_cell_volume 2950.110671
_symmetry_space_group_name_H-M "C 2/C"
_symmetry_group_IT_number 15
_symmetry_cell_setting 'monoclinic'
loop_
_space_group_symop_operation_xyz
x,y,z
-x,y,1/2-z
-x,-y,-z
x,-y,1/2+z
1/2+x,1/2+y,z
1/2-x,1/2+y,1/2-z
1/2-x,1/2-y,-z
1/2+x,1/2-y,1/2+z
loop_
_atom_site_type_symbol
_atom_site_label
_atom_site_fract_x
_atom_site_fract_y
_atom_site_fract_z
Si Si1 0.500000 0.231510 0.250000
Si Si2 0.689284 0.299798 0.898715
Si Si3 0.662812 0.121214 0.273046
Si Si4 0.583761 0.387506 0.979938
Si Si5 0.454779 0.355422 0.051095
Si Si6 0.708547 0.763969 0.072060
Si Si7 0.248624 0.592886 0.840458
Si Si8 0.272610 0.999655 0.347689
O O1 0.572534 0.152213 0.253988
O O2 0.468907 0.307028 0.154430
O O3 0.599929 0.313162 0.898979
O O4 0.693956 0.208997 0.821082
O O5 0.713466 0.427089 0.879391
O O6 0.750000 0.250000 0.000000
O O7 0.728074 0.221851 0.322474
O O8 0.690731 0.011194 0.344365
O O9 0.664034 0.086470 0.169414
O O10 0.544464 0.508441 0.936438
O O11 0.526825 0.319939 0.019986
O O12 0.671946 0.406139 0.062997
O O13 0.373087 0.309701 0.966268
O O14 0.686067 0.898165 0.075469
O O15 0.750000 0.750000 0.000000
O O16 0.276117 0.567052 0.753969
#
# Coordination Sequence:
#
# PCOD8141379 Si02
#       8
#     4   8   8   8   8   8   8   8
#     4  12  26  40  64  94 126 172 212 276 320 378
#     4  10  21  36  61  94 122 165 208 262 318 377
#     4  10  24  42  65  94 128 164 216 265 321 386
#     4  10  22  40  62  96 131 162 215 266 327 383
#     4  11  24  40  63  97 132 168 215 273 319 376
#     4  12  22  42  67  95 127 172 218 258 322 390
#     4   9  21  40  67  90 127 165 213 265 318 390
#     4  10  23  37  67  93 122 170 213 259 313 389
#
# _framework density 20.33822
#
# number of rings (size 3 to 8) (size 9 to 14) (size 15 to 20)
#    0.800    0.800    2.667    1.600    7.467    0.000 
#    2.400    2.000    0.000    0.000    0.000    0.000 
#    0.000    0.000    0.000    0.000    0.000    0.000 
#
# Total GULP energy -371683.731098 kJ/mol
# GULP energy per Si atom -12389.457703 kJ/mol
# Density = 2.029193 g / cm^3
# Si number density = 20.338220 Si / 1000 Ang^3
#
#
#
# Elastic Constant Matrix: (Units=GPa)
#
#
# Indices 1 2 3 4 5 6 
#
# 1 126.2327 36.5568 34.5946 0.0000 -17.5515 0.0000
# 2 36.5568 96.2617 26.0481 0.0000 -15.6110 0.0000
# 3 34.5946 26.0481 60.3461 0.0000 -12.8325 0.0000
# 4 0.0000 0.0000 0.0000 38.2782 0.0000 -10.5850
# 5 -17.5515 -15.6110 -12.8325 0.0000 36.2250 0.0000
# 6 0.0000 0.0000 0.0000 -10.5850 0.0000 37.9150
#
#
#
# Elastic Compliance Matrix: (Units=1/GPa)
#
#
# Indices 1 2 3 4 5 6 
#
# 1 0.010091 -0.002284 -0.004292 0.000000 0.002385 0.000000
# 2 -0.002284 0.012714 -0.003513 0.000000 0.003128 0.000000
# 3 -0.004292 -0.003513 0.021396 0.000000 0.003986 0.000000
# 4 0.000000 0.000000 0.000000 0.028310 0.000000 0.007904
# 5 0.002385 0.003128 0.003986 0.000000 0.031520 0.000000
# 6 0.000000 0.000000 0.000000 0.007904 0.000000 0.028581
#
#
# Mechanical properties :
#
#
# Convention : Reuss Voigt Hill
#
# Bulk Modulus (GPa) = 41.62911 53.02663 47.32787
# Shear Modulus (GPa) = 31.09491 34.85973 32.97732
#
# Velocity S-wave (km/s) = 3.91435 4.14454 4.03109
# Velocity P-wave (km/s) = 6.39862 7.00228 6.70725
#
# Compressibility (1/GPa) = 0.02402165
#
# Stress axis : x y z
#
# Youngs Moduli (GPa) = 99.09683 78.65537 46.73868
#
# Poissons Ratio (x) = 0.17966 0.20060
# Poissons Ratio (y) = 0.22635 0.16421
# Poissons Ratio (z) = 0.42532 0.27634
#
# Static dielectric constant tensor:
#      x y z
#    x 3.908180 0.000000 -0.341560 
#    y 0.000000 4.158380 0.000000 
#    z -0.341560 0.000000 3.763000 
# 
# 
# High freq. dielectric constant tensor:
#      x y z
#    x 1.785280 0.000000 -0.029270 
#    y 0.000000 1.805650 0.000000 
#    z -0.029270 0.000000 1.778010 
# 
# From -- ./inp_files/210375.got.cif
#   From: 2010.06.25/outbox.cif.g09.slc.cpg/sg15_106_cif.got.tgz:210375.got - 2010.06.28 07:06:18.
