data_PCOD8141828
_publ_section_title
;
Structure prediction by ZEFSAII (Michael W. Deem and Ramdas Pophale) SiO2 
 PCOD8141828
Probable space group: C 2/C
;
_chemical_formula_sum "Si O2"
_cell_formula_units_Z 64
_cell_length_a 22.858959
_cell_length_b 9.351910
_cell_length_c 14.710243
_cell_angle_alpha 90.000000
_cell_angle_beta 85.264587
_cell_angle_gamma 90.000000
_cell_volume 3133.946923
_symmetry_space_group_name_H-M "C 2/C"
_symmetry_group_IT_number 15
_symmetry_cell_setting 'monoclinic'
loop_
_space_group_symop_operation_xyz
x,y,z
-x,y,1/2-z
-x,-y,-z
x,-y,1/2+z
1/2+x,1/2+y,z
1/2-x,1/2+y,1/2-z
1/2-x,1/2-y,-z
1/2+x,1/2-y,1/2+z
loop_
_atom_site_type_symbol
_atom_site_label
_atom_site_fract_x
_atom_site_fract_y
_atom_site_fract_z
Si Si1 0.959974 0.110910 0.057207
Si Si2 0.165314 0.853470 0.981641
Si Si3 0.835120 0.217649 0.820932
Si Si4 0.064344 0.006717 0.750717
Si Si5 0.150499 0.465542 0.173053
Si Si6 0.460151 0.784890 0.336321
Si Si7 0.713495 0.124777 0.841495
Si Si8 0.257302 0.079606 0.997160
O O1 0.905425 0.150871 0.000766
O O2 0.998328 0.251177 0.081234
O O3 0.927108 0.036745 0.146237
O O4 0.000000 0.000000 0.000000
O O5 0.188694 0.762788 0.895274
O O6 0.194140 0.012004 0.977621
O O7 0.185379 0.778279 0.071495
O O8 0.885661 0.109344 0.789140
O O9 0.858852 0.372557 0.792386
O O10 0.774556 0.165715 0.781949
O O11 0.000000 0.079589 0.750000
O O12 0.067745 0.867177 0.686963
O O13 0.090941 0.398614 0.138214
O O14 0.168095 0.391917 0.264933
O O15 0.197615 0.458723 0.087652
O O16 0.500000 0.846890 0.250000
O O17 0.720276 0.986832 0.908478
O O18 0.250000 0.250000 0.000000
#
# Coordination Sequence:
#
# PCOD8141828 Si02
#       8
#     8   8   8   8   8   8   8   8
#     4  10  21  37  66  95 120 168 220 269 330 387
#     4  11  21  45  64  87 136 171 208 273 338 393
#     4  11  23  41  62  93 128 168 216 269 326 401
#     4   9  20  38  61  88 120 164 218 263 318 390
#     4  12  25  41  67  92 135 170 219 276 337 391
#     4   9  21  42  60  90 121 166 217 267 319 388
#     4  11  24  43  64  92 130 182 211 260 355 398
#     4  11  26  40  64 103 132 167 221 280 321 406
#
# _framework density 20.421534999999999
#
# number of rings (size 3 to 8) (size 9 to 14) (size 15 to 20)
#    0.000    1.750    2.500    3.750    8.750    0.500 
#    0.000    0.625    0.000    0.000    0.000    0.000 
#    0.000    0.000    0.000    0.000    0.000    0.000 
#
# Total GULP energy -396598.834840 kJ/mol
# GULP energy per Si atom -12393.713589 kJ/mol
# Density = 2.037505 g / cm^3
# Si number density = 20.421535 Si / 1000 Ang^3
#
#
#
# Elastic Constant Matrix: (Units=GPa)
#
#
# Indices 1 2 3 4 5 6 
#
# 1 118.9717 47.9062 18.5157 0.0000 1.6648 0.0000
# 2 47.9062 105.3377 15.3399 0.0000 -1.1640 0.0000
# 3 18.5157 15.3399 48.8141 0.0000 0.3783 0.0000
# 4 0.0000 0.0000 0.0000 19.7799 0.0000 -10.4798
# 5 1.6648 -1.1640 0.3783 0.0000 27.0780 0.0000
# 6 0.0000 0.0000 0.0000 -10.4798 0.0000 38.2117
#
#
#
# Elastic Compliance Matrix: (Units=1/GPa)
#
#
# Indices 1 2 3 4 5 6 
#
# 1 0.010619 -0.004457 -0.002621 0.000000 -0.000808 0.000000
# 2 -0.004457 0.011825 -0.002032 0.000000 0.000811 0.000000
# 3 -0.002621 -0.002032 0.022120 0.000000 -0.000235 0.000000
# 4 0.000000 0.000000 0.000000 0.059152 0.000000 0.016223
# 5 -0.000808 0.000811 -0.000235 0.000000 0.037018 0.000000
# 6 0.000000 0.000000 0.000000 0.016223 0.000000 0.030619
#
#
# Mechanical properties :
#
#
# Convention : Reuss Voigt Hill
#
# Bulk Modulus (GPa) = 37.95757 48.51634 43.23695
# Shear Modulus (GPa) = 25.20739 29.77137 27.48938
#
# Velocity S-wave (km/s) = 3.51715 3.82231 3.67290
# Velocity P-wave (km/s) = 5.92631 6.57945 6.26140
#
# Compressibility (1/GPa) = 0.02634520
#
# Stress axis : x y z
#
# Youngs Moduli (GPa) = 94.16937 84.56690 45.20706
#
# Poissons Ratio (x) = 0.37689 0.11850
# Poissons Ratio (y) = 0.41968 0.09185
# Poissons Ratio (z) = 0.24684 0.17182
#
# Static dielectric constant tensor:
#      x y z
#    x 4.032170 0.000000 0.237340 
#    y 0.000000 3.674680 0.000000 
#    z 0.237340 0.000000 3.860200 
# 
# 
# High freq. dielectric constant tensor:
#      x y z
#    x 1.810090 0.000000 0.000610 
#    y 0.000000 1.783410 0.000000 
#    z 0.000610 0.000000 1.796750 
# 
# From -- ./inp_files/172397.got.cif
#   From: 2010.06.25/outbox.cif.g09.slc.cpg/sg15_87_cif.got.tgz:172397.got - 2010.06.28 07:06:18.
