data_PCOD8141003
_publ_section_title
;
Structure prediction by ZEFSAII (Michael W. Deem and Ramdas Pophale) SiO2 
 PCOD8141003
Probable space group: C 2/C
;
_chemical_formula_sum "Si O2"
_cell_formula_units_Z 64
_cell_length_a 12.173094
_cell_length_b 20.448167
_cell_length_c 25.807797
_cell_angle_alpha 90.000000
_cell_angle_beta 149.283594
_cell_angle_gamma 90.000000
_cell_volume 3281.314964
_symmetry_space_group_name_H-M "C 2/C"
_symmetry_group_IT_number 15
_symmetry_cell_setting 'monoclinic'
loop_
_space_group_symop_operation_xyz
x,y,z
-x,y,1/2-z
-x,-y,-z
x,-y,1/2+z
1/2+x,1/2+y,z
1/2-x,1/2+y,1/2-z
1/2-x,1/2-y,-z
1/2+x,1/2-y,1/2+z
loop_
_atom_site_type_symbol
_atom_site_label
_atom_site_fract_x
_atom_site_fract_y
_atom_site_fract_z
Si Si1 0.460073 0.963521 0.084156
Si Si2 0.788342 0.195957 0.560084
Si Si3 0.502485 0.667597 0.313026
Si Si4 0.885419 0.971149 0.755932
Si Si5 0.257966 0.221550 0.767287
Si Si6 0.014864 0.331465 0.466575
Si Si7 0.924354 0.943755 0.085892
Si Si8 0.138675 0.401127 0.256355
O O1 0.488788 0.908475 0.050938
O O2 0.493706 0.937068 0.155265
O O3 0.632497 0.020329 0.142495
O O4 0.227618 0.997055 0.992477
O O5 0.750000 0.250000 0.500000
O O6 0.597683 0.186060 0.524398
O O7 0.807418 0.125732 0.539756
O O8 0.004353 0.217648 0.678357
O O9 0.500000 0.674567 0.250000
O O10 0.437184 0.595495 0.308066
O O11 0.320005 0.710644 0.266141
O O12 0.736809 0.689405 0.428477
O O13 0.000000 0.957128 0.750000
O O14 0.981671 0.037517 0.819299
O O15 0.398930 0.210892 0.875626
O O16 0.295753 0.168638 0.738415
O O17 0.142078 0.940421 0.139339
O O18 0.000000 0.390165 0.250000
#
# Coordination Sequence:
#
# PCOD8141003 Si02
#       8
#     8   8   8   8   8   8   8   8
#     4  10  21  36  61  88 121 154 198 252 310 370
#     4  11  24  38  62  90 125 159 202 253 317 370
#     4  11  22  36  59  90 121 157 203 260 306 363
#     4  10  21  34  57  90 121 156 193 251 316 361
#     4  10  22  40  59  84 120 161 206 257 299 374
#     4  11  22  40  64  90 118 165 204 250 317 374
#     4  10  21  38  58  87 121 153 200 252 305 378
#     4   9  20  38  59  82 114 161 205 246 301 367
#
# _framework density 19.504375
#
# number of rings (size 3 to 8) (size 9 to 14) (size 15 to 20)
#    0.000    1.750    1.250    3.375    5.250    2.500 
#    0.000    0.000    5.500    0.000    0.000    0.000 
#    0.000    0.000    0.000    0.000    0.000    0.000 
#
# Total GULP energy -396575.334657 kJ/mol
# GULP energy per Si atom -12392.979208 kJ/mol
# Density = 1.945998 g / cm^3
# Si number density = 19.504375 Si / 1000 Ang^3
#
#
#
# Elastic Constant Matrix: (Units=GPa)
#
#
# Indices 1 2 3 4 5 6 
#
# 1 74.4142 22.6654 18.5644 0.0003 5.5809 0.0001
# 2 22.6654 86.3602 20.3726 0.0027 -1.4465 0.0003
# 3 18.5644 20.3726 89.2552 0.0013 4.5189 0.0008
# 4 0.0003 0.0027 0.0013 35.1027 0.0015 5.4413
# 5 5.5809 -1.4465 4.5189 0.0015 26.0636 0.0004
# 6 0.0001 0.0003 0.0008 5.4413 0.0004 29.3122
#
#
#
# Elastic Compliance Matrix: (Units=1/GPa)
#
#
# Indices 1 2 3 4 5 6 
#
# 1 0.015303 -0.003545 -0.002217 0.000000 -0.003089 0.000000
# 2 -0.003545 0.013095 -0.002348 -0.000001 0.001893 0.000000
# 3 -0.002217 -0.002348 0.012291 0.000000 -0.001787 0.000000
# 4 0.000000 -0.000001 0.000000 0.029332 -0.000002 -0.005445
# 5 -0.003089 0.001893 -0.001787 -0.000002 0.039444 0.000000
# 6 0.000000 0.000000 0.000000 -0.005445 0.000000 0.035126
#
#
# Mechanical properties :
#
#
# Convention : Reuss Voigt Hill
#
# Bulk Modulus (GPa) = 40.86667 41.47051 41.16859
# Shear Modulus (GPa) = 29.59143 30.65749 30.12446
#
# Velocity S-wave (km/s) = 3.89931 3.96893 3.93427
# Velocity P-wave (km/s) = 6.42424 6.50473 6.46461
#
# Compressibility (1/GPa) = 0.02446982
#
# Stress axis : x y z
#
# Youngs Moduli (GPa) = 65.34716 76.36338 81.35836
#
# Poissons Ratio (x) = 0.27070 0.18040
# Poissons Ratio (y) = 0.23165 0.19099
# Poissons Ratio (z) = 0.14490 0.17927
#
# Static dielectric constant tensor:
#      x y z
#    x 3.330130 0.000000 0.179590 
#    y 0.000000 3.761640 -0.000010 
#    z 0.179590 -0.000010 3.792290 
# 
# 
# High freq. dielectric constant tensor:
#      x y z
#    x 1.737590 0.000000 0.013020 
#    y 0.000000 1.762900 0.000000 
#    z 0.013020 0.000000 1.775830 
# 
# From -- ./inp_files/293781.got.cif
#   From: 2010.06.25/outbox.cif.g09.slc.cpg/sg15_147_cif.got.tgz:293781.got - 2010.06.28 07:06:18.
