data_PCOD8141243
_publ_section_title
;
Structure prediction by ZEFSAII (Michael W. Deem and Ramdas Pophale) SiO2 
 PCOD8141243
Probable space group: C 2/C
;
_chemical_formula_sum "Si O2"
_cell_formula_units_Z 48
_cell_length_a 7.877705
_cell_length_b 29.145181
_cell_length_c 19.458377
_cell_angle_alpha 90.000000
_cell_angle_beta 148.680464
_cell_angle_gamma 90.000000
_cell_volume 2322.298643
_symmetry_space_group_name_H-M "C 2/C"
_symmetry_group_IT_number 15
_symmetry_cell_setting 'monoclinic'
loop_
_space_group_symop_operation_xyz
x,y,z
-x,y,1/2-z
-x,-y,-z
x,-y,1/2+z
1/2+x,1/2+y,z
1/2-x,1/2+y,1/2-z
1/2-x,1/2-y,-z
1/2+x,1/2-y,1/2+z
loop_
_atom_site_type_symbol
_atom_site_label
_atom_site_fract_x
_atom_site_fract_y
_atom_site_fract_z
Si Si1 0.358541 0.714434 0.857486
Si Si2 0.761390 0.543114 0.728822
Si Si3 0.067955 0.130397 0.851988
Si Si4 0.453699 0.198137 0.152960
Si Si5 0.623012 0.105782 0.138572
Si Si6 0.224347 0.513067 0.459707
O O1 0.504623 0.682993 0.847857
O O2 0.339747 0.765902 0.821450
O O3 0.000000 0.697121 0.750000
O O4 0.575613 0.707724 0.001487
O O5 0.694292 0.597244 0.701558
O O6 0.413663 0.516257 0.598301
O O7 0.000000 0.529184 0.750000
O O8 0.940097 0.526032 0.860688
O O9 0.000000 0.121041 0.750000
O O10 0.435007 0.117636 0.002332
O O11 0.500000 0.206391 0.250000
O O12 0.578325 0.147490 0.176922
O O13 0.459149 0.061566 0.118581
O O14 0.000000 0.097332 0.250000
O O15 0.500000 0.500000 0.500000
#
# Coordination Sequence:
#
# PCOD8141243 Si02
#       6
#     8   8   8   8   8   8
#     4  10  21  38  59  84 116 149 189 239 284 338
#     4   9  18  34  54  77 106 142 186 232 280 334
#     4  10  21  36  55  81 113 149 188 232 284 340
#     4  10  22  38  59  87 116 150 191 234 286 344
#     4  10  22  39  57  84 118 150 190 240 286 340
#     4   9  19  35  56  79 108 145 187 232 281 337
#
# _framework density 20.669176
#
# number of rings (size 3 to 8) (size 9 to 14) (size 15 to 20)
#    0.000    2.333    0.000    1.500    0.000    7.333 
#    0.000    3.333    0.000    0.000    0.000    0.000 
#    0.000    0.000    0.000    0.000    0.000    0.000 
#
# Total GULP energy -297332.664595 kJ/mol
# GULP energy per Si atom -12388.861025 kJ/mol
# Density = 2.062213 g / cm^3
# Si number density = 20.669176 Si / 1000 Ang^3
#
#
#
# Elastic Constant Matrix: (Units=GPa)
#
#
# Indices 1 2 3 4 5 6 
#
# 1 64.8336 25.6902 61.2484 -0.0006 6.0078 0.0000
# 2 25.6902 105.3720 47.0352 -0.0019 14.6465 -0.0002
# 3 61.2484 47.0352 147.0807 0.0012 5.9699 0.0027
# 4 -0.0006 -0.0019 0.0012 30.7689 0.0009 1.9644
# 5 6.0078 14.6465 5.9699 0.0009 32.9607 0.0003
# 6 0.0000 -0.0002 0.0027 1.9644 0.0003 20.0310
#
#
#
# Elastic Compliance Matrix: (Units=1/GPa)
#
#
# Indices 1 2 3 4 5 6 
#
# 1 0.025849 -0.001433 -0.010216 0.000001 -0.002224 0.000001
# 2 -0.001433 0.011793 -0.002995 0.000001 -0.004437 0.000000
# 3 -0.010216 -0.002995 0.011969 -0.000001 0.001025 -0.000002
# 4 0.000001 0.000001 -0.000001 0.032705 -0.000001 -0.003207
# 5 -0.002224 -0.004437 0.001025 -0.000001 0.032531 -0.000001
# 6 0.000001 0.000000 -0.000002 -0.003207 -0.000001 0.050237
#
#
# Mechanical properties :
#
#
# Convention : Reuss Voigt Hill
#
# Bulk Modulus (GPa) = 49.20113 65.02600 57.11356
# Shear Modulus (GPa) = 24.85776 28.97294 26.91535
#
# Velocity S-wave (km/s) = 3.47168 3.74805 3.61251
# Velocity P-wave (km/s) = 6.31870 7.08937 6.71510
#
# Compressibility (1/GPa) = 0.02032474
#
# Stress axis : x y z
#
# Youngs Moduli (GPa) = 38.68664 84.79685 83.54870
#
# Poissons Ratio (x) = 0.12150 0.85350
# Poissons Ratio (y) = 0.05543 0.25019
# Poissons Ratio (z) = 0.39521 0.25392
#
# Static dielectric constant tensor:
#      x y z
#    x 3.190370 0.000000 0.046160 
#    y 0.000000 3.825490 0.000000 
#    z 0.046160 0.000000 4.377460 
# 
# 
# High freq. dielectric constant tensor:
#      x y z
#    x 1.767640 0.000000 0.007360 
#    y 0.000000 1.820100 0.000000 
#    z 0.007360 0.000000 1.832010 
# 
# From -- ./inp_files/139374.got.cif
#   From: 2010.06.25/outbox.cif.g09.slc.cpg/sg15_70_cif.got.tgz:139374.got - 2010.06.28 07:06:18.
