data_PCOD8141824
_publ_section_title
;
Structure prediction by ZEFSAII (Michael W. Deem and Ramdas Pophale) SiO2 
 PCOD8141824
Probable space group: C 2/C
;
_chemical_formula_sum "Si O2"
_cell_formula_units_Z 56
_cell_length_a 24.695601
_cell_length_b 8.983431
_cell_length_c 14.254289
_cell_angle_alpha 90.000000
_cell_angle_beta 126.404342
_cell_angle_gamma 90.000000
_cell_volume 2545.198801
_symmetry_space_group_name_H-M "C 2/C"
_symmetry_group_IT_number 15
_symmetry_cell_setting 'monoclinic'
loop_
_space_group_symop_operation_xyz
x,y,z
-x,y,1/2-z
-x,-y,-z
x,-y,1/2+z
1/2+x,1/2+y,z
1/2-x,1/2+y,1/2-z
1/2-x,1/2-y,-z
1/2+x,1/2-y,1/2+z
loop_
_atom_site_type_symbol
_atom_site_label
_atom_site_fract_x
_atom_site_fract_y
_atom_site_fract_z
Si Si1 0.873072 0.489776 0.421844
Si Si2 0.434099 0.476381 0.129623
Si Si3 0.368825 0.331656 0.890607
Si Si4 0.936165 0.322366 0.126901
Si Si5 0.828223 0.990644 0.177040
Si Si6 0.193088 0.524001 0.965527
Si Si7 0.718350 0.171695 0.310063
O O1 0.890706 0.337733 0.385874
O O2 0.935842 0.586073 0.527723
O O3 0.832057 0.427369 0.470767
O O4 0.829361 0.603237 0.317439
O O5 0.500000 0.413911 0.250000
O O6 0.442905 0.649083 0.113498
O O7 0.372347 0.443068 0.134177
O O8 0.423297 0.392543 0.020335
O O9 0.373694 0.418728 0.797277
O O10 0.293978 0.351223 0.853338
O O11 0.865153 0.350649 0.111028
O O12 0.000000 0.382866 0.250000
O O13 0.799454 0.843758 0.197427
O O14 0.765743 0.090663 0.072581
O O15 0.204405 0.414426 0.891541
#
# Coordination Sequence:
#
# PCOD8141824 Si02
#       7
#     8   8   8   8   8   8   8
#     4  10  23  38  61  97 126 161 212 249 316 372
#     4  11  26  45  66  89 127 173 213 263 317 372
#     4  12  22  39  65  94 132 163 206 264 312 379
#     4   9  21  44  64  86 128 165 209 261 312 373
#     4  12  24  40  67  97 129 165 213 259 320 377
#     4  10  21  37  66  93 118 166 212 249 320 365
#     4  12  20  40  63  96 132 163 201 269 313 371
#
# _framework density 22.002210000000002
#
# number of rings (size 3 to 8) (size 9 to 14) (size 15 to 20)
#    0.857    0.286    4.286    2.143    2.000    2.857 
#    0.000    0.714    0.000    0.000    0.000    0.000 
#    0.000    0.000    0.000    0.000    0.000    0.000 
#
# Total GULP energy -346975.446549 kJ/mol
# GULP energy per Si atom -12391.980234 kJ/mol
# Density = 2.195213 g / cm^3
# Si number density = 22.002210 Si / 1000 Ang^3
#
#
#
# Elastic Constant Matrix: (Units=GPa)
#
#
# Indices 1 2 3 4 5 6 
#
# 1 31.6629 -3.0222 17.0845 0.0000 10.6716 0.0000
# 2 -3.0222 53.9894 39.8858 0.0000 15.6383 0.0000
# 3 17.0845 39.8858 170.9327 0.0000 29.7771 0.0000
# 4 0.0000 0.0000 0.0000 32.4170 0.0000 3.1171
# 5 10.6716 15.6383 29.7771 0.0000 41.9850 0.0000
# 6 0.0000 0.0000 0.0000 3.1171 0.0000 22.2071
#
#
#
# Elastic Compliance Matrix: (Units=1/GPa)
#
#
# Indices 1 2 3 4 5 6 
#
# 1 0.037709 0.007807 -0.003896 0.000000 -0.009730 0.000000
# 2 0.007807 0.025074 -0.005315 0.000000 -0.007554 0.000000
# 3 -0.003896 -0.005315 0.007944 0.000000 -0.002664 0.000000
# 4 0.000000 0.000000 0.000000 0.031270 0.000000 -0.004389
# 5 -0.009730 -0.007554 -0.002664 0.000000 0.030994 0.000000
# 6 0.000000 0.000000 0.000000 -0.004389 0.000000 0.045647
#
#
# Mechanical properties :
#
#
# Convention : Reuss Voigt Hill
#
# Bulk Modulus (GPa) = 14.72323 40.49792 27.61058
# Shear Modulus (GPa) = 24.49949 32.83093 28.66521
#
# Velocity S-wave (km/s) = 3.34054 3.86705 3.61339
# Velocity P-wave (km/s) = 4.64598 6.19556 5.47586
#
# Compressibility (1/GPa) = 0.06791987
#
# Stress axis : x y z
#
# Youngs Moduli (GPa) = 26.51864 39.88196 125.88108
#
# Poissons Ratio (x) = -0.31137 0.49041
# Poissons Ratio (y) = -0.20704 0.66908
# Poissons Ratio (z) = 0.10331 0.21198
#
# Static dielectric constant tensor:
#      x y z
#    x 3.705780 0.000000 0.080350 
#    y 0.000000 3.778470 0.000000 
#    z 0.080350 0.000000 4.355500 
# 
# 
# High freq. dielectric constant tensor:
#      x y z
#    x 1.840740 0.000000 0.001650 
#    y 0.000000 1.857670 0.000000 
#    z 0.001650 0.000000 1.887520 
# 
# From -- ./inp_files/180848.got.cif
#   From: 2010.06.25/outbox.cif.g09.slc.cpg/sg15_91_cif.got.tgz:180848.got - 2010.06.28 07:06:18.
