data_PCOD8141407
_publ_section_title
;
Structure prediction by ZEFSAII (Michael W. Deem and Ramdas Pophale) SiO2 
 PCOD8141407
Probable space group: C 2/C
;
_chemical_formula_sum "Si O2"
_cell_formula_units_Z 64
_cell_length_a 11.882880
_cell_length_b 16.175317
_cell_length_c 27.344997
_cell_angle_alpha 90.000000
_cell_angle_beta 144.161534
_cell_angle_gamma 90.000000
_cell_volume 3077.377809
_symmetry_space_group_name_H-M "C 2/C"
_symmetry_group_IT_number 15
_symmetry_cell_setting 'monoclinic'
loop_
_space_group_symop_operation_xyz
x,y,z
-x,y,1/2-z
-x,-y,-z
x,-y,1/2+z
1/2+x,1/2+y,z
1/2-x,1/2+y,1/2-z
1/2-x,1/2-y,-z
1/2+x,1/2-y,1/2+z
loop_
_atom_site_type_symbol
_atom_site_label
_atom_site_fract_x
_atom_site_fract_y
_atom_site_fract_z
Si Si1 0.937626 0.271229 0.614961
Si Si2 0.032037 0.028436 0.087707
Si Si3 0.914972 0.423984 0.440623
Si Si4 0.474294 0.413454 0.149810
Si Si5 0.878189 0.604136 0.254898
Si Si6 0.409978 0.946850 0.327390
Si Si7 0.283186 0.604671 0.915240
Si Si8 0.517628 0.237548 0.477220
O O1 0.716543 0.290179 0.552426
O O2 0.989800 0.304883 0.579285
O O3 0.958821 0.173708 0.618008
O O4 0.078730 0.306561 0.706404
O O5 0.158005 0.097717 0.160252
O O6 0.914331 0.981124 0.088178
O O7 0.171662 0.960319 0.111875
O O8 0.888920 0.073341 0.001191
O O9 0.681928 0.422045 0.362103
O O10 0.975006 0.436205 0.405917
O O11 0.999957 0.336768 0.490046
O O12 0.000000 0.500000 0.500000
O O13 0.689913 0.420857 0.244944
O O14 0.935099 0.540780 0.318074
O O15 0.000000 0.586923 0.250000
O O16 0.554270 0.891955 0.344798
O O17 0.345158 0.697762 0.924206
#
# Coordination Sequence:
#
# PCOD8141407 Si02
#       8
#     8   8   8   8   8   8   8   8
#     4  10  21  38  63  90 127 157 213 269 314 374
#     4  10  21  36  62  92 124 162 207 264 318 378
#     4  11  23  42  64  88 126 173 218 260 313 379
#     4  10  22  41  62  90 125 167 212 261 322 375
#     4  11  21  37  59  93 121 163 212 262 320 377
#     4  11  24  38  62  88 128 165 208 259 324 387
#     4  11  21  38  63  91 126 162 207 265 319 376
#     4  10  22  38  63  96 122 167 214 259 318 387
#
# _framework density 20.796925999999999
#
# number of rings (size 3 to 8) (size 9 to 14) (size 15 to 20)
#    0.000    1.500    2.500    2.625    1.750    3.500 
#    0.000    2.500    0.000    0.000    0.000    0.000 
#    0.000    0.000    0.000    0.000    0.000    0.000 
#
# Total GULP energy -396760.468173 kJ/mol
# GULP energy per Si atom -12398.764630 kJ/mol
# Density = 2.074959 g / cm^3
# Si number density = 20.796926 Si / 1000 Ang^3
#
#
#
# Elastic Constant Matrix: (Units=GPa)
#
#
# Indices 1 2 3 4 5 6 
#
# 1 74.4447 15.3305 10.7598 0.0000 1.3168 0.0000
# 2 15.3305 54.6935 24.1221 0.0000 10.3332 0.0000
# 3 10.7598 24.1221 65.4863 -0.0001 0.4047 0.0000
# 4 0.0000 0.0000 -0.0001 25.0494 0.0000 0.9098
# 5 1.3168 10.3332 0.4047 0.0000 38.3543 0.0000
# 6 0.0000 0.0000 0.0000 0.9098 0.0000 24.3122
#
#
#
# Elastic Compliance Matrix: (Units=1/GPa)
#
#
# Indices 1 2 3 4 5 6 
#
# 1 0.014324 -0.003667 -0.001006 0.000000 0.000507 0.000000
# 2 -0.003667 0.024139 -0.008250 0.000000 -0.006290 0.000000
# 3 -0.001006 -0.008250 0.018462 0.000000 0.002062 0.000000
# 4 0.000000 0.000000 0.000000 0.039975 0.000000 -0.001496
# 5 0.000507 -0.006290 0.002062 0.000000 0.027728 0.000000
# 6 0.000000 0.000000 0.000000 -0.001496 0.000000 0.041188
#
#
# Mechanical properties :
#
#
# Convention : Reuss Voigt Hill
#
# Bulk Modulus (GPa) = 32.17664 32.78327 32.47996
# Shear Modulus (GPa) = 24.74976 27.17068 25.96022
#
# Velocity S-wave (km/s) = 3.45348 3.61844 3.53692
# Velocity P-wave (km/s) = 5.60423 5.76673 5.68606
#
# Compressibility (1/GPa) = 0.03107845
#
# Stress axis : x y z
#
# Youngs Moduli (GPa) = 69.81093 41.42721 54.16570
#
# Poissons Ratio (x) = 0.15192 0.05448
# Poissons Ratio (y) = 0.25601 0.44688
# Poissons Ratio (z) = 0.07022 0.34178
#
# Static dielectric constant tensor:
#      x y z
#    x 3.927540 0.000000 -0.008570 
#    y 0.000000 3.582930 0.000000 
#    z -0.008570 0.000000 3.833040 
# 
# 
# High freq. dielectric constant tensor:
#      x y z
#    x 1.817870 0.000000 -0.008270 
#    y 0.000000 1.800340 0.000000 
#    z -0.008270 0.000000 1.814550 
# 
# From -- ./inp_files/293090.got.cif
#   From: 2010.06.25/outbox.cif.g09.slc.cpg/sg15_147_cif.got.tgz:293090.got - 2010.06.28 07:06:18.
