data_PCOD8141532
_publ_section_title
;
Structure prediction by ZEFSAII (Michael W. Deem and Ramdas Pophale) SiO2 
 PCOD8141532
Probable space group: C 2/C
;
_chemical_formula_sum "Si O2"
_cell_formula_units_Z 48
_cell_length_a 11.946692
_cell_length_b 7.796630
_cell_length_c 23.657247
_cell_angle_alpha 90.000000
_cell_angle_beta 72.653966
_cell_angle_gamma 90.000000
_cell_volume 2103.316078
_symmetry_space_group_name_H-M "C 2/C"
_symmetry_group_IT_number 15
_symmetry_cell_setting 'monoclinic'
loop_
_space_group_symop_operation_xyz
x,y,z
-x,y,1/2-z
-x,-y,-z
x,-y,1/2+z
1/2+x,1/2+y,z
1/2-x,1/2+y,1/2-z
1/2-x,1/2-y,-z
1/2+x,1/2-y,1/2+z
loop_
_atom_site_type_symbol
_atom_site_label
_atom_site_fract_x
_atom_site_fract_y
_atom_site_fract_z
Si Si1 0.673585 0.992548 0.989025
Si Si2 0.075910 0.162584 0.790159
Si Si3 0.227688 0.400176 0.698773
Si Si4 0.603923 0.168339 0.885620
Si Si5 0.929594 0.399005 0.879089
Si Si6 0.571194 0.369548 0.527570
O O1 0.649352 0.114786 0.940445
O O2 0.601638 0.813950 0.992764
O O3 0.635822 0.097699 0.050806
O O4 0.811223 0.957871 0.968983
O O5 0.137387 0.340989 0.760730
O O6 0.000000 0.081547 0.750000
O O7 0.982341 0.211759 0.853970
O O8 0.175788 0.034024 0.795285
O O9 0.289212 0.225358 0.669086
O O10 0.158620 0.475412 0.654961
O O11 0.543909 0.015558 0.861919
O O12 0.511425 0.325253 0.906679
O O13 0.500000 0.500000 0.500000
#
# Coordination Sequence:
#
# PCOD8141532 Si02
#       6
#     8   8   8   8   8   8
#     4  10  23  40  59  92 133 166 202 247 301 368
#     4  10  24  44  65  89 118 156 210 264 312 364
#     4  11  24  42  66  92 119 161 208 259 314 365
#     4  11  24  38  61  94 129 166 201 247 306 367
#     4  10  22  41  63  90 124 163 205 254 306 363
#     4  10  21  37  58  85 122 168 207 242 291 357
#
# _framework density 22.821106
#
# number of rings (size 3 to 8) (size 9 to 14) (size 15 to 20)
#    0.000    1.667    0.000    4.000    0.000   16.000 
#    0.000    0.000    0.000    0.000    0.000    0.000 
#    0.000    0.000    0.000    0.000    0.000    0.000 
#
# Total GULP energy -297528.322598 kJ/mol
# GULP energy per Si atom -12397.013442 kJ/mol
# Density = 2.276916 g / cm^3
# Si number density = 22.821106 Si / 1000 Ang^3
#
#
#
# Elastic Constant Matrix: (Units=GPa)
#
#
# Indices 1 2 3 4 5 6 
#
# 1 84.8101 11.3015 6.7096 0.0000 5.4484 0.0000
# 2 11.3015 42.6325 10.8980 0.0000 9.5666 0.0000
# 3 6.7096 10.8980 44.2313 0.0000 -3.8793 0.0000
# 4 0.0000 0.0000 0.0000 1.5816 0.0000 -14.2716
# 5 5.4484 9.5666 -3.8793 0.0000 35.7922 0.0000
# 6 0.0000 0.0000 0.0000 -14.2716 0.0000 44.2223
#
#
#
# Elastic Compliance Matrix: (Units=1/GPa)
#
#
# Indices 1 2 3 4 5 6 
#
# 1 0.012332 -0.002631 -0.001338 0.000000 -0.001319 0.000000
# 2 -0.002631 0.027717 -0.007112 0.000000 -0.007779 0.000000
# 3 -0.001338 -0.007112 0.024986 0.000000 0.004813 0.000000
# 4 0.000000 0.000000 0.000000 -0.330668 0.000000 -0.106715
# 5 -0.001319 -0.007779 0.004813 0.000000 0.030741 0.000000
# 6 0.000000 0.000000 0.000000 -0.106715 0.000000 -0.011826
#
#
# Mechanical properties :
#
#
# Convention : Reuss Voigt Hill
#
# Bulk Modulus (GPa) = 23.32501 25.49911 24.41206
# Shear Modulus (GPa) = -23.77956 25.83689 1.02867
#
# Velocity S-wave (km/s) = -3.23150 3.36839 0.67211
# Velocity P-wave (km/s) = 1.91846 5.13087 3.36492
#
# Compressibility (1/GPa) = 0.04287244
#
# Stress axis : x y z
#
# Youngs Moduli (GPa) = 81.08810 36.07847 40.02266
#
# Poissons Ratio (x) = 0.09493 0.05356
# Poissons Ratio (y) = 0.21335 0.28465
# Poissons Ratio (z) = 0.10851 0.25660
#
# Static dielectric constant tensor:
#      x y z
#    x 4.504770 0.000000 -0.247100 
#    y 0.000000 3.932450 0.000000 
#    z -0.247100 0.000000 4.096640 
# 
# 
# High freq. dielectric constant tensor:
#      x y z
#    x 1.929690 0.000000 -0.013590 
#    y 0.000000 1.884190 0.000000 
#    z -0.013590 0.000000 1.897960 
# 
# From -- ./inp_files/268000.got.cif
#   From: 2010.06.25/outbox.cif.g09.slc.cpg/sg15_134_cif.got.tgz:268000.got - 2010.06.28 07:06:18.
