data_PCOD8141388
_publ_section_title
;
Structure prediction by ZEFSAII (Michael W. Deem and Ramdas Pophale) SiO2 
 PCOD8141388
Probable space group: C 2/C
;
_chemical_formula_sum "Si O2"
_cell_formula_units_Z 60
_cell_length_a 8.653030
_cell_length_b 27.809149
_cell_length_c 15.865902
_cell_angle_alpha 90.000000
_cell_angle_beta 125.010050
_cell_angle_gamma 90.000000
_cell_volume 3127.028541
_symmetry_space_group_name_H-M "C 2/C"
_symmetry_group_IT_number 15
_symmetry_cell_setting 'monoclinic'
loop_
_space_group_symop_operation_xyz
x,y,z
-x,y,1/2-z
-x,-y,-z
x,-y,1/2+z
1/2+x,1/2+y,z
1/2-x,1/2+y,1/2-z
1/2-x,1/2-y,-z
1/2+x,1/2-y,1/2+z
loop_
_atom_site_type_symbol
_atom_site_label
_atom_site_fract_x
_atom_site_fract_y
_atom_site_fract_z
Si Si1 0.446931 0.450539 0.526168
Si Si2 0.018957 0.266459 0.018629
Si Si3 0.749127 0.321044 0.543605
Si Si4 0.167429 0.581893 0.361380
Si Si5 0.000000 0.927153 0.250000
Si Si6 0.705115 0.017263 0.540125
Si Si7 0.621755 0.372863 0.129539
Si Si8 0.644656 0.212797 0.858548
O O1 0.500000 0.500000 0.500000
O O2 0.634409 0.426590 0.625426
O O3 0.297420 0.465089 0.549947
O O4 0.353517 0.415751 0.428827
O O5 0.172059 0.223087 0.077323
O O6 0.969522 0.293652 0.089686
O O7 0.101122 0.304396 0.978887
O O8 0.823997 0.246596 0.921668
O O9 0.856762 0.360853 0.632999
O O10 0.573952 0.344959 0.441683
O O11 0.183283 0.553972 0.455062
O O12 0.000000 0.562240 0.250000
O O13 0.162119 0.958432 0.347369
O O14 0.120038 0.894179 0.223156
O O15 0.500000 0.000000 0.500000
O O16 0.797544 0.338027 0.165475
O O17 0.500000 0.238689 0.750000
#
# Coordination Sequence:
#
# PCOD8141388 Si02
#       8
#     8   8   8   8   4   8   8   8
#     4   9  18  41  56  78 118 157 193 240 300 354
#     4   9  20  38  59  80 122 152 195 248 294 368
#     4   9  18  39  60  85 110 160 200 245 298 354
#     4  10  21  37  59  85 118 158 203 243 301 365
#     4  12  22  40  62  92 124 152 208 258 302 368
#     4  11  25  38  62  90 119 160 205 250 303 368
#     4  10  21  36  62  84 117 155 193 257 298 351
#     4  10  22  36  55  89 117 153 194 242 310 356
#
# _framework density 19.187543999999999
#
# number of rings (size 3 to 8) (size 9 to 14) (size 15 to 20)
#    0.000    2.133    4.000    0.000    3.733    3.200 
#    0.000    0.667    0.000    0.000    0.000    0.000 
#    0.000    0.000    0.000    0.000    0.000    0.000 
#
# Total GULP energy -371718.777150 kJ/mol
# GULP energy per Si atom -12390.625905 kJ/mol
# Density = 1.914387 g / cm^3
# Si number density = 19.187544 Si / 1000 Ang^3
#
#
#
# Elastic Constant Matrix: (Units=GPa)
#
#
# Indices 1 2 3 4 5 6 
#
# 1 154.6919 62.9635 51.1479 0.0000 -1.7189 0.0000
# 2 62.9635 99.2979 36.2118 0.0000 -7.1220 0.0000
# 3 51.1479 36.2118 117.8033 0.0000 -2.7354 0.0000
# 4 0.0000 0.0000 0.0000 9.5509 0.0000 -7.9931
# 5 -1.7189 -7.1220 -2.7354 0.0000 18.6167 0.0000
# 6 0.0000 0.0000 0.0000 -7.9931 0.0000 36.1436
#
#
#
# Elastic Compliance Matrix: (Units=1/GPa)
#
#
# Indices 1 2 3 4 5 6 
#
# 1 0.009370 -0.005125 -0.002527 0.000000 -0.001467 0.000000
# 2 -0.005125 0.014426 -0.002099 0.000000 0.004737 0.000000
# 3 -0.002527 -0.002099 0.010242 0.000000 0.000469 0.000000
# 4 0.000000 0.000000 0.000000 0.128481 0.000000 0.028413
# 5 -0.001467 0.004737 0.000469 0.000000 0.055461 0.000000
# 6 0.000000 0.000000 0.000000 0.028413 0.000000 0.033951
#
#
# Mechanical properties :
#
#
# Convention : Reuss Voigt Hill
#
# Bulk Modulus (GPa) = 68.79747 74.71549 71.75648
# Shear Modulus (GPa) = 18.09781 27.62691 22.86236
#
# Velocity S-wave (km/s) = 3.07450 3.79863 3.45559
# Velocity P-wave (km/s) = 6.96681 7.63306 7.30753
#
# Compressibility (1/GPa) = 0.01453542
#
# Stress axis : x y z
#
# Youngs Moduli (GPa) = 106.72826 69.32114 97.63745
#
# Poissons Ratio (x) = 0.35526 0.24671
# Poissons Ratio (y) = 0.54697 0.20496
# Poissons Ratio (z) = 0.26968 0.14552
#
# Static dielectric constant tensor:
#      x y z
#    x 4.101260 0.000000 0.159200 
#    y 0.000000 3.676960 0.000000 
#    z 0.159200 0.000000 3.371860 
# 
# 
# High freq. dielectric constant tensor:
#      x y z
#    x 1.754450 0.000000 0.012580 
#    y 0.000000 1.749990 0.000000 
#    z 0.012580 0.000000 1.731960 
# 
# From -- ./inp_files/193730.got.cif
#   From: 2010.06.25/outbox.cif.g09.slc.cpg/sg15_97_cif.got.tgz:193730.got - 2010.06.28 07:06:18.
