data_PCOD8141516
_publ_section_title
;
Structure prediction by ZEFSAII (Michael W. Deem and Ramdas Pophale) SiO2 
 PCOD8141516
Probable space group: C 2/C
;
_chemical_formula_sum "Si O2"
_cell_formula_units_Z 48
_cell_length_a 11.563487
_cell_length_b 25.464030
_cell_length_c 9.533285
_cell_angle_alpha 90.000000
_cell_angle_beta 114.509701
_cell_angle_gamma 90.000000
_cell_volume 2554.158950
_symmetry_space_group_name_H-M "C 2/C"
_symmetry_group_IT_number 15
_symmetry_cell_setting 'monoclinic'
loop_
_space_group_symop_operation_xyz
x,y,z
-x,y,1/2-z
-x,-y,-z
x,-y,1/2+z
1/2+x,1/2+y,z
1/2-x,1/2+y,1/2-z
1/2-x,1/2-y,-z
1/2+x,1/2-y,1/2+z
loop_
_atom_site_type_symbol
_atom_site_label
_atom_site_fract_x
_atom_site_fract_y
_atom_site_fract_z
Si Si1 0.960870 0.549701 0.571705
Si Si2 0.871307 0.356680 0.404485
Si Si3 0.477243 0.686127 0.080898
Si Si4 0.246708 0.195302 0.078961
Si Si5 0.104805 0.290592 0.569962
Si Si6 0.256380 0.126709 0.543086
O O1 0.813779 0.571856 0.506655
O O2 0.000000 0.538363 0.750000
O O3 0.000000 0.500000 0.500000
O O4 0.036507 0.594448 0.528405
O O5 0.772766 0.352264 0.482911
O O6 0.802143 0.364240 0.223469
O O7 0.958875 0.304752 0.458348
O O8 0.500000 0.705459 0.250000
O O9 0.611511 0.679313 0.073600
O O10 0.387854 0.728469 0.956299
O O11 0.397959 0.630435 0.038591
O O12 0.357532 0.197960 0.250694
O O13 0.250000 0.250000 0.000000
O O14 0.199941 0.322806 0.521534
#
# Coordination Sequence:
#
# PCOD8141516 Si02
#       6
#     8   8   8   8   8   8
#     4   9  20  39  64  92 110 140 184 243 306 346
#     4  10  21  37  57  85 116 147 192 244 291 334
#     4  12  23  36  55  79 120 166 201 231 287 345
#     4  12  24  35  51  85 117 159 205 236 280 332
#     4  11  21  35  54  77 118 160 201 238 274 338
#     4  10  21  38  58  81 115 152 192 234 292 349
#
# _framework density 18.792878000000002
#
# number of rings (size 3 to 8) (size 9 to 14) (size 15 to 20)
#    0.000    1.333    3.333    4.500    0.000    4.667 
#    0.000    0.000    0.000    1.000    0.000    0.000 
#    0.000    0.000    0.000    0.000    0.000    0.000 
#
# Total GULP energy -297355.057731 kJ/mol
# GULP energy per Si atom -12389.794072 kJ/mol
# Density = 1.875010 g / cm^3
# Si number density = 18.792878 Si / 1000 Ang^3
#
#
#
# Elastic Constant Matrix: (Units=GPa)
#
#
# Indices 1 2 3 4 5 6 
#
# 1 133.3425 44.7055 40.6908 0.0000 -13.7105 0.0000
# 2 44.7055 77.0969 27.6779 0.0000 -9.6767 0.0000
# 3 40.6908 27.6779 91.4930 0.0000 -15.0779 0.0000
# 4 0.0000 0.0000 0.0000 25.9215 0.0000 -10.5997
# 5 -13.7105 -9.6767 -15.0779 0.0000 33.4208 0.0000
# 6 0.0000 0.0000 0.0000 -10.5997 0.0000 29.9185
#
#
#
# Elastic Compliance Matrix: (Units=1/GPa)
#
#
# Indices 1 2 3 4 5 6 
#
# 1 0.010072 -0.004635 -0.002828 0.000000 0.001514 0.000000
# 2 -0.004635 0.016865 -0.002754 0.000000 0.001739 0.000000
# 3 -0.002828 -0.002754 0.013718 0.000000 0.004231 0.000000
# 4 0.000000 0.000000 0.000000 0.045114 0.000000 0.015983
# 5 0.001514 0.001739 0.004231 0.000000 0.032955 0.000000
# 6 0.000000 0.000000 0.000000 0.015983 0.000000 0.039087
#
#
# Mechanical properties :
#
#
# Convention : Reuss Voigt Hill
#
# Bulk Modulus (GPa) = 49.45202 58.67563 54.06383
# Shear Modulus (GPa) = 27.02915 30.44270 28.73592
#
# Velocity S-wave (km/s) = 3.79656 4.02917 3.91459
# Velocity P-wave (km/s) = 6.75203 7.27569 7.01874
#
# Compressibility (1/GPa) = 0.02022162
#
# Stress axis : x y z
#
# Youngs Moduli (GPa) = 99.28382 59.29282 72.89771
#
# Poissons Ratio (x) = 0.27484 0.20614
# Poissons Ratio (y) = 0.46020 0.20076
# Poissons Ratio (z) = 0.28075 0.16329
#
# Static dielectric constant tensor:
#      x y z
#    x 4.000650 0.000000 -0.062480 
#    y 0.000000 3.304830 0.000000 
#    z -0.062480 0.000000 3.575230 
# 
# 
# High freq. dielectric constant tensor:
#      x y z
#    x 1.740100 0.000000 -0.011580 
#    y 0.000000 1.687220 0.000000 
#    z -0.011580 0.000000 1.739710 
# 
# From -- ./inp_files/32487.got.cif
#   From: 2010.06.25/outbox.cif.g09.slc.cpg/sg15_17_cif.got.tgz:32487.got - 2010.06.28 07:06:18.
