data_PCOD8141708
_publ_section_title
;
Structure prediction by ZEFSAII (Michael W. Deem and Ramdas Pophale) SiO2 
 PCOD8141708
Probable space group: C 2/C
;
_chemical_formula_sum "Si O2"
_cell_formula_units_Z 56
_cell_length_a 22.484194
_cell_length_b 16.731227
_cell_length_c 15.592803
_cell_angle_alpha 90.000000
_cell_angle_beta 153.802066
_cell_angle_gamma 90.000000
_cell_volume 2589.607509
_symmetry_space_group_name_H-M "C 2/C"
_symmetry_group_IT_number 15
_symmetry_cell_setting 'monoclinic'
loop_
_space_group_symop_operation_xyz
x,y,z
-x,y,1/2-z
-x,-y,-z
x,-y,1/2+z
1/2+x,1/2+y,z
1/2-x,1/2+y,1/2-z
1/2-x,1/2-y,-z
1/2+x,1/2-y,1/2+z
loop_
_atom_site_type_symbol
_atom_site_label
_atom_site_fract_x
_atom_site_fract_y
_atom_site_fract_z
Si Si1 0.852500 0.909148 0.691095
Si Si2 0.226849 0.812849 0.071929
Si Si3 0.939166 0.843078 0.411600
Si Si4 0.984692 0.721001 0.588847
Si Si5 0.912146 0.555584 0.555571
Si Si6 0.476043 0.553428 0.621705
Si Si7 0.256420 0.940503 0.247389
O O1 0.833506 0.875538 0.572241
O O2 0.725577 0.906118 0.588800
O O3 0.976106 0.862115 0.892226
O O4 0.896220 0.001088 0.739963
O O5 0.350965 0.759013 0.192953
O O6 0.293803 0.868110 0.232723
O O7 0.105714 0.757167 0.950472
O O8 0.017526 0.863823 0.425590
O O9 0.923341 0.748330 0.414748
O O10 0.809200 0.899126 0.252842
O O11 0.986163 0.625417 0.598928
O O12 0.888085 0.484253 0.456304
O O13 0.000000 0.524757 0.750000
O O14 0.500000 0.579810 0.750000
O O15 0.337825 0.506929 0.421738
#
# Coordination Sequence:
#
# PCOD8141708 Si02
#       7
#     8   8   8   8   8   8   8
#     4  11  20  36  61  93 130 161 217 259 323 378
#     4  11  24  41  62  99 133 174 211 260 329 394
#     4  10  21  37  62  89 128 169 214 267 319 382
#     4  11  26  39  61  94 135 173 205 262 332 401
#     4  12  23  38  61  94 129 174 208 264 334 387
#     4  11  19  36  66  95 117 167 222 276 305 370
#     4  10  21  39  62  91 128 166 220 265 312 385
#
# _framework density 21.624898000000002
#
# number of rings (size 3 to 8) (size 9 to 14) (size 15 to 20)
#    0.000    1.143    5.714    1.714    2.000    1.714 
#    0.000    0.000    0.000    1.714    0.000    0.000 
#    0.000    0.000    0.000    0.000    0.000    0.000 
#
# Total GULP energy -346932.481907 kJ/mol
# GULP energy per Si atom -12390.445782 kJ/mol
# Density = 2.157568 g / cm^3
# Si number density = 21.624898 Si / 1000 Ang^3
#
#
#
# Elastic Constant Matrix: (Units=GPa)
#
#
# Indices 1 2 3 4 5 6 
#
# 1 76.4592 14.9288 29.9084 0.0000 2.7352 0.0000
# 2 14.9288 53.7397 39.1804 0.0000 -12.3190 0.0000
# 3 29.9084 39.1804 83.3100 0.0000 -4.6372 0.0000
# 4 0.0000 0.0000 0.0000 27.8691 0.0000 -3.1445
# 5 2.7352 -12.3190 -4.6372 0.0000 42.8490 0.0000
# 6 0.0000 0.0000 0.0000 -3.1445 0.0000 19.1621
#
#
#
# Elastic Compliance Matrix: (Units=1/GPa)
#
#
# Indices 1 2 3 4 5 6 
#
# 1 0.015348 -0.000891 -0.005191 0.000000 -0.001798 0.000000
# 2 -0.000891 0.030447 -0.013591 0.000000 0.007340 0.000000
# 3 -0.005191 -0.013591 0.020181 0.000000 -0.001392 0.000000
# 4 0.000000 0.000000 0.000000 0.036559 0.000000 0.005999
# 5 -0.001798 0.007340 -0.001392 0.000000 0.025412 0.000000
# 6 0.000000 0.000000 0.000000 0.005999 0.000000 0.053171
#
#
# Mechanical properties :
#
#
# Convention : Reuss Voigt Hill
#
# Bulk Modulus (GPa) = 37.55105 42.39380 39.97242
# Shear Modulus (GPa) = 21.80179 26.60879 24.20529
#
# Velocity S-wave (km/s) = 3.17863 3.51161 3.34926
# Velocity P-wave (km/s) = 5.55644 6.00738 5.78630
#
# Compressibility (1/GPa) = 0.02663042
#
# Stress axis : x y z
#
# Youngs Moduli (GPa) = 65.15656 32.84420 49.55167
#
# Poissons Ratio (x) = 0.02927 0.25721
# Poissons Ratio (y) = 0.05807 0.67343
# Poissons Ratio (z) = 0.33821 0.44637
#
# Static dielectric constant tensor:
#      x y z
#    x 3.948230 0.000000 0.106960 
#    y 0.000000 4.007250 0.000000 
#    z 0.106960 0.000000 3.899310 
# 
# 
# High freq. dielectric constant tensor:
#      x y z
#    x 1.850830 0.000000 0.009400 
#    y 0.000000 1.838850 0.000000 
#    z 0.009400 0.000000 1.826270 
# 
# From -- ./inp_files/169172.got.cif
#   From: 2010.06.25/outbox.cif.g09.slc.cpg/sg15_85_cif.got.tgz:169172.got - 2010.06.28 07:06:18.
