data_PCOD8141122
_publ_section_title
;
Structure prediction by ZEFSAII (Michael W. Deem and Ramdas Pophale) SiO2 
 PCOD8141122
Probable space group: C 2/C
;
_chemical_formula_sum "Si O2"
_cell_formula_units_Z 48
_cell_length_a 10.510957
_cell_length_b 9.563865
_cell_length_c 25.491211
_cell_angle_alpha 90.000000
_cell_angle_beta 122.630697
_cell_angle_gamma 90.000000
_cell_volume 2158.055663
_symmetry_space_group_name_H-M "C 2/C"
_symmetry_group_IT_number 15
_symmetry_cell_setting 'monoclinic'
loop_
_space_group_symop_operation_xyz
x,y,z
-x,y,1/2-z
-x,-y,-z
x,-y,1/2+z
1/2+x,1/2+y,z
1/2-x,1/2+y,1/2-z
1/2-x,1/2-y,-z
1/2+x,1/2-y,1/2+z
loop_
_atom_site_type_symbol
_atom_site_label
_atom_site_fract_x
_atom_site_fract_y
_atom_site_fract_z
Si Si1 0.546730 0.554261 0.066594
Si Si2 0.299597 0.156259 0.655003
Si Si3 0.981666 0.566189 0.307274
Si Si4 0.730242 0.276265 0.359959
Si Si5 0.818590 0.193433 0.264506
Si Si6 0.127994 0.072183 0.373159
O O1 0.661013 0.450211 0.121960
O O2 0.623477 0.707038 0.079131
O O3 0.399015 0.560512 0.070591
O O4 0.500000 0.500000 0.000000
O O5 0.446277 0.083386 0.658891
O O6 0.338340 0.186605 0.724826
O O7 0.261974 0.296348 0.614017
O O8 0.082781 0.696770 0.350077
O O9 0.000000 0.570550 0.250000
O O10 0.808352 0.585401 0.286485
O O11 0.753094 0.263161 0.302502
O O12 0.714248 0.437500 0.371093
O O13 0.972514 0.106174 0.306937
#
# Coordination Sequence:
#
# PCOD8141122 Si02
#       6
#     8   8   8   8   8   8
#     4  10  24  46  64  82 117 164 211 255 297 345
#     4  11  23  37  58  89 120 157 201 246 298 358
#     4   9  18  33  52  79 119 160 191 228 285 354
#     4   9  21  38  59  89 121 155 197 247 300 357
#     4  10  21  35  58  88 127 159 189 237 304 370
#     4  11  23  37  59  90 119 154 198 249 303 358
#
# _framework density 22.242242999999998
#
# number of rings (size 3 to 8) (size 9 to 14) (size 15 to 20)
#    0.000    2.000    0.000    3.500    0.000   16.000 
#    0.000    0.833    0.000    0.000    0.000    0.000 
#    0.000    0.000    0.000    0.000    0.000    0.000 
#
# Total GULP energy -297483.219890 kJ/mol
# GULP energy per Si atom -12395.134162 kJ/mol
# Density = 2.219162 g / cm^3
# Si number density = 22.242243 Si / 1000 Ang^3
#
#
#
# Elastic Constant Matrix: (Units=GPa)
#
#
# Indices 1 2 3 4 5 6 
#
# 1 54.4599 21.9516 0.0528 0.0000 -3.4915 0.0000
# 2 21.9516 131.8815 -3.7669 0.0000 1.0183 0.0000
# 3 0.0528 -3.7669 52.1083 0.0000 -12.1215 0.0000
# 4 0.0000 0.0000 0.0000 18.1276 0.0000 1.1486
# 5 -3.4915 1.0183 -12.1215 0.0000 23.2210 0.0000
# 6 0.0000 0.0000 0.0000 1.1486 0.0000 29.3865
#
#
#
# Elastic Compliance Matrix: (Units=1/GPa)
#
#
# Indices 1 2 3 4 5 6 
#
# 1 0.019922 -0.003327 0.000535 0.000000 0.003421 0.000000
# 2 -0.003327 0.008154 0.000448 0.000000 -0.000624 0.000000
# 3 0.000535 0.000448 0.021896 0.000000 0.011490 0.000000
# 4 0.000000 0.000000 0.000000 0.055301 0.000000 -0.002161
# 5 0.003421 -0.000624 0.011490 0.000000 0.049604 0.000000
# 6 0.000000 0.000000 0.000000 -0.002161 0.000000 0.034114
#
#
# Mechanical properties :
#
#
# Convention : Reuss Voigt Hill
#
# Bulk Modulus (GPa) = 22.08359 30.54718 26.31538
# Shear Modulus (GPa) = 23.94936 28.82785 26.38860
#
# Velocity S-wave (km/s) = 3.28495 3.60402 3.44818
# Velocity P-wave (km/s) = 4.93336 5.57515 5.26405
#
# Compressibility (1/GPa) = 0.04528250
#
# Stress axis : x y z
#
# Youngs Moduli (GPa) = 50.19578 122.63970 45.67145
#
# Poissons Ratio (x) = 0.40804 -0.02443
# Poissons Ratio (y) = 0.16701 -0.02044
# Poissons Ratio (z) = -0.02686 -0.05490
#
# Static dielectric constant tensor:
#      x y z
#    x 4.639210 0.000000 0.263990 
#    y 0.000000 4.339620 0.000000 
#    z 0.263990 0.000000 3.599210 
# 
# 
# High freq. dielectric constant tensor:
#      x y z
#    x 1.880920 0.000000 -0.001300 
#    y 0.000000 1.893730 0.000000 
#    z -0.001300 0.000000 1.818070 
# 
# From -- ./inp_files/267734.got.cif
#   From: 2010.06.25/outbox.cif.g09.slc.cpg/sg15_134_cif.got.tgz:267734.got - 2010.06.28 07:06:18.
