data_PCOD8141472
_publ_section_title
;
Structure prediction by ZEFSAII (Michael W. Deem and Ramdas Pophale) SiO2 
 PCOD8141472
Probable space group: C 2/C
;
_chemical_formula_sum "Si O2"
_cell_formula_units_Z 48
_cell_length_a 11.221247
_cell_length_b 14.583954
_cell_length_c 15.083020
_cell_angle_alpha 90.000000
_cell_angle_beta 107.103977
_cell_angle_gamma 90.000000
_cell_volume 2359.170299
_symmetry_space_group_name_H-M "C 2/C"
_symmetry_group_IT_number 15
_symmetry_cell_setting 'monoclinic'
loop_
_space_group_symop_operation_xyz
x,y,z
-x,y,1/2-z
-x,-y,-z
x,-y,1/2+z
1/2+x,1/2+y,z
1/2-x,1/2+y,1/2-z
1/2-x,1/2-y,-z
1/2+x,1/2-y,1/2+z
loop_
_atom_site_type_symbol
_atom_site_label
_atom_site_fract_x
_atom_site_fract_y
_atom_site_fract_z
Si Si1 0.442447 0.644038 0.490140
Si Si2 0.547231 0.766256 0.660592
Si Si3 0.518282 0.790866 0.129390
Si Si4 0.412792 0.915269 0.960846
Si Si5 0.302295 0.840159 0.196396
Si Si6 0.197982 0.035843 0.531062
O O1 0.447603 0.710150 0.577913
O O2 0.418041 0.697516 0.392293
O O3 0.571699 0.591707 0.505909
O O4 0.328144 0.572880 0.474033
O O5 0.500000 0.770549 0.750000
O O6 0.572570 0.871754 0.634269
O O7 0.675817 0.711848 0.686083
O O8 0.401056 0.772374 0.169074
O O9 0.625107 0.858362 0.194465
O O10 0.456541 0.831578 0.029380
O O11 0.271179 0.941773 0.955872
O O12 0.500000 0.000000 0.000000
O O13 0.281433 0.933618 0.135187
#
# Coordination Sequence:
#
# PCOD8141472 Si02
#       6
#     8   8   8   8   8   8
#     4   9  18  35  62  83 111 147 189 235 285 333
#     4  10  21  37  57  82 114 151 188 233 283 336
#     4   9  18  35  58  81 111 147 190 233 277 336
#     4  10  21  37  53  79 113 153 186 224 281 341
#     4   9  18  35  57  84 111 144 191 234 276 335
#     4   9  18  35  60  84 110 148 188 234 284 335
#
# _framework density 20.346138
#
# number of rings (size 3 to 8) (size 9 to 14) (size 15 to 20)
#    0.000    2.667    0.000    1.000    0.000    6.667 
#    9.000    3.333   36.667    0.000    0.000    0.000 
#    0.000    0.000    0.000    0.000    0.000    0.000 
#
# Total GULP energy -297331.967000 kJ/mol
# GULP energy per Si atom -12388.831958 kJ/mol
# Density = 2.029983 g / cm^3
# Si number density = 20.346138 Si / 1000 Ang^3
#
#
#
# Elastic Constant Matrix: (Units=GPa)
#
#
# Indices 1 2 3 4 5 6 
#
# 1 87.5976 56.3110 57.5577 0.0000 -12.6157 0.0000
# 2 56.3110 88.1666 33.0088 0.0000 -19.8914 0.0000
# 3 57.5577 33.0088 93.5992 0.0000 -13.1044 0.0000
# 4 0.0000 0.0000 0.0000 13.7573 0.0000 -3.4744
# 5 -12.6157 -19.8914 -13.1044 0.0000 30.6327 0.0000
# 6 0.0000 0.0000 0.0000 -3.4744 0.0000 31.3094
#
#
#
# Elastic Compliance Matrix: (Units=1/GPa)
#
#
# Indices 1 2 3 4 5 6 
#
# 1 0.028582 -0.014033 -0.013036 0.000000 -0.002918 0.000000
# 2 -0.014033 0.021503 0.002331 0.000000 0.009181 0.000000
# 3 -0.013036 0.002331 0.018443 0.000000 0.004035 0.000000
# 4 0.000000 0.000000 0.000000 0.074785 0.000000 0.008299
# 5 -0.002918 0.009181 0.004035 0.000000 0.039131 0.000000
# 6 0.000000 0.000000 0.000000 0.008299 0.000000 0.032860
#
#
# Mechanical properties :
#
#
# Convention : Reuss Voigt Hill
#
# Bulk Modulus (GPa) = 52.48349 62.56867 57.52608
# Shear Modulus (GPa) = 18.44140 23.30560 20.87350
#
# Velocity S-wave (km/s) = 3.01389 3.38813 3.20647
# Velocity P-wave (km/s) = 6.16138 6.79152 6.48411
#
# Compressibility (1/GPa) = 0.01905361
#
# Stress axis : x y z
#
# Youngs Moduli (GPa) = 34.98747 46.50466 54.22186
#
# Poissons Ratio (x) = 0.65258 0.70682
# Poissons Ratio (y) = 0.49096 -0.12641
# Poissons Ratio (z) = 0.45609 -0.10841
#
# Static dielectric constant tensor:
#      x y z
#    x 3.796100 0.000000 0.320680 
#    y 0.000000 3.638900 0.000000 
#    z 0.320680 0.000000 5.097900 
# 
# 
# High freq. dielectric constant tensor:
#      x y z
#    x 1.798380 0.000000 -0.003070 
#    y 0.000000 1.779450 0.000000 
#    z -0.003070 0.000000 1.788980 
# 
# From -- ./inp_files/143726.got.cif
#   From: 2010.06.25/outbox.cif.g09.slc.cpg/sg15_72_cif.got.tgz:143726.got - 2010.06.28 07:06:18.
