data_PCOD8141070
_publ_section_title
;
Structure prediction by ZEFSAII (Michael W. Deem and Ramdas Pophale) SiO2 
 PCOD8141070
Probable space group: C 2/C
;
_chemical_formula_sum "Si O2"
_cell_formula_units_Z 44
_cell_length_a 13.172656
_cell_length_b 31.130315
_cell_length_c 7.438956
_cell_angle_alpha 90.000000
_cell_angle_beta 42.398060
_cell_angle_gamma 90.000000
_cell_volume 2056.872864
_symmetry_space_group_name_H-M "C 2/C"
_symmetry_group_IT_number 15
_symmetry_cell_setting 'monoclinic'
loop_
_space_group_symop_operation_xyz
x,y,z
-x,y,1/2-z
-x,-y,-z
x,-y,1/2+z
1/2+x,1/2+y,z
1/2-x,1/2+y,1/2-z
1/2-x,1/2-y,-z
1/2+x,1/2-y,1/2+z
loop_
_atom_site_type_symbol
_atom_site_label
_atom_site_fract_x
_atom_site_fract_y
_atom_site_fract_z
Si Si1 0.173440 0.053378 0.476133
Si Si2 0.673403 0.539310 0.067891
Si Si3 0.691290 0.874968 0.182254
Si Si4 0.841276 0.633256 0.190246
Si Si5 0.758862 0.806557 0.376566
Si Si6 0.500000 0.744265 0.750000
O O1 0.197632 0.054092 0.234510
O O2 0.269568 0.094861 0.406484
O O3 0.242918 0.008549 0.457437
O O4 0.000000 0.060153 0.750000
O O5 0.500000 0.534449 0.250000
O O6 0.749757 0.576542 0.847466
O O7 0.518396 0.873644 0.461351
O O8 0.781519 0.841637 0.189854
O O9 0.718284 0.863072 0.937255
O O10 0.797673 0.675699 0.356082
O O11 0.630817 0.772534 0.483410
O O12 0.921337 0.784677 0.197612
#
# Coordination Sequence:
#
# PCOD8141070 Si02
#       6
#     8   8   8   8   8   4
#     4  10  21  35  56  86 124 164 210 260 298 359
#     4  10  21  35  55  85 123 164 212 257 300 362
#     4  10  22  40  62  90 127 163 213 250 313 375
#     4  10  22  39  62  92 123 170 206 255 309 375
#     4  11  22  44  66  93 127 165 198 265 317 372
#     4  10  24  42  68  98 122 154 218 252 320 392
#
# _framework density 21.391697000000001
#
# number of rings (size 3 to 8) (size 9 to 14) (size 15 to 20)
#    0.000    1.818    1.818    2.182    6.364    2.182 
#    0.000    5.455    0.000    0.000    0.000    0.000 
#    0.000    0.000    0.000    0.000    0.000    0.000 
#
# Total GULP energy -272686.441216 kJ/mol
# GULP energy per Si atom -12394.838237 kJ/mol
# Density = 2.134301 g / cm^3
# Si number density = 21.391697 Si / 1000 Ang^3
#
#
#
# Elastic Constant Matrix: (Units=GPa)
#
#
# Indices 1 2 3 4 5 6 
#
# 1 69.9988 49.1487 30.6638 0.0000 -11.6800 0.0000
# 2 49.1487 141.3082 57.9265 0.0000 -6.2751 0.0000
# 3 30.6638 57.9265 75.1895 0.0000 3.0846 0.0000
# 4 0.0000 0.0000 0.0000 32.6357 0.0000 -15.2156
# 5 -11.6800 -6.2751 3.0846 0.0000 25.2593 0.0000
# 6 0.0000 0.0000 0.0000 -15.2156 0.0000 32.6229
#
#
#
# Elastic Compliance Matrix: (Units=1/GPa)
#
#
# Indices 1 2 3 4 5 6 
#
# 1 0.021694 -0.004879 -0.005478 0.000000 0.009489 0.000000
# 2 -0.004879 0.011769 -0.007141 0.000000 0.001540 0.000000
# 3 -0.005478 -0.007141 0.021319 0.000000 -0.006910 0.000000
# 4 0.000000 0.000000 0.000000 0.039156 0.000000 0.018263
# 5 0.009489 0.001540 -0.006910 0.000000 0.045203 0.000000
# 6 0.000000 0.000000 0.000000 0.018263 0.000000 0.039171
#
#
# Mechanical properties :
#
#
# Convention : Reuss Voigt Hill
#
# Bulk Modulus (GPa) = 50.53743 62.44163 56.48953
# Shear Modulus (GPa) = 22.73732 28.02076 25.37904
#
# Velocity S-wave (km/s) = 3.26376 3.62317 3.44815
# Velocity P-wave (km/s) = 6.15458 6.83785 6.50519
#
# Compressibility (1/GPa) = 0.01978731
#
# Stress axis : x y z
#
# Youngs Moduli (GPa) = 46.09476 84.96847 46.90752
#
# Poissons Ratio (x) = 0.41452 0.25697
# Poissons Ratio (y) = 0.22487 0.33495
# Poissons Ratio (z) = 0.25252 0.60673
#
# Static dielectric constant tensor:
#      x y z
#    x 3.801820 0.000000 0.077620 
#    y 0.000000 4.609380 0.000000 
#    z 0.077620 0.000000 3.703660 
# 
# 
# High freq. dielectric constant tensor:
#      x y z
#    x 1.834510 0.000000 0.001890 
#    y 0.000000 1.858070 0.000000 
#    z 0.001890 0.000000 1.822170 
# 
# From -- ./inp_files/43358.got.cif
#   From: 2010.06.25/outbox.cif.g09.slc.cpg/sg15_22_cif.got.tgz:43358.got - 2010.06.28 07:06:18.
