data_PCOD8141381
_publ_section_title
;
Structure prediction by ZEFSAII (Michael W. Deem and Ramdas Pophale) SiO2 
 PCOD8141381
Probable space group: C 2/C
;
_chemical_formula_sum "Si O2"
_cell_formula_units_Z 52
_cell_length_a 11.506363
_cell_length_b 14.258752
_cell_length_c 20.622854
_cell_angle_alpha 90.000000
_cell_angle_beta 134.980821
_cell_angle_gamma 90.000000
_cell_volume 2393.308490
_symmetry_space_group_name_H-M "C 2/C"
_symmetry_group_IT_number 15
_symmetry_cell_setting 'monoclinic'
loop_
_space_group_symop_operation_xyz
x,y,z
-x,y,1/2-z
-x,-y,-z
x,-y,1/2+z
1/2+x,1/2+y,z
1/2-x,1/2+y,1/2-z
1/2-x,1/2-y,-z
1/2+x,1/2-y,1/2+z
loop_
_atom_site_type_symbol
_atom_site_label
_atom_site_fract_x
_atom_site_fract_y
_atom_site_fract_z
Si Si1 0.978475 0.805038 0.624854
Si Si2 0.727310 0.668332 0.576382
Si Si3 0.500000 0.430892 0.750000
Si Si4 0.752196 0.490455 0.259164
Si Si5 0.190248 0.775063 0.202367
Si Si6 0.321901 0.528227 0.408134
Si Si7 0.969936 0.379834 0.662789
O O1 0.879371 0.707974 0.595422
O O2 0.935696 0.839990 0.534717
O O3 0.919397 0.873072 0.659052
O O4 0.171810 0.790409 0.711217
O O5 0.685846 0.732151 0.622693
O O6 0.785105 0.567055 0.624511
O O7 0.349388 0.492842 0.715768
O O8 0.731275 0.379622 0.241205
O O9 0.672013 0.549088 0.166884
O O10 0.934474 0.536327 0.338816
O O11 0.020314 0.725567 0.159863
O O12 0.500000 0.500000 0.500000
O O13 0.230460 0.605480 0.418458
O O14 0.000000 0.396966 0.750000
#
# Coordination Sequence:
#
# PCOD8141381 Si02
#       7
#     8   8   4   8   8   8   8
#     4  11  20  36  65  90 124 167 216 265 312 378
#     4  10  21  36  61  95 122 167 218 260 314 384
#     4  12  20  38  62  90 122 166 208 270 318 372
#     4  10  22  37  60  91 124 166 209 258 321 380
#     4  11  21  40  61  91 130 165 214 266 316 386
#     4  10  21  39  60  87 125 166 214 262 315 384
#     4  10  21  38  63  89 122 173 215 258 323 376
#
# _framework density 21.727243999999999
#
# number of rings (size 3 to 8) (size 9 to 14) (size 15 to 20)
#    0.000    1.538    3.077    1.846    3.231    2.462 
#    0.000    6.154    0.000    8.308    0.000    0.000 
#    0.000    0.000    0.000    0.000    0.000    0.000 
#
# Total GULP energy -322090.807798 kJ/mol
# GULP energy per Si atom -12388.107992 kJ/mol
# Density = 2.167779 g / cm^3
# Si number density = 21.727244 Si / 1000 Ang^3
#
#
#
# Elastic Constant Matrix: (Units=GPa)
#
#
# Indices 1 2 3 4 5 6 
#
# 1 114.1010 28.3743 25.6583 0.0000 -3.2912 0.0000
# 2 28.3743 90.2474 11.7985 0.0000 -10.9484 0.0000
# 3 25.6583 11.7985 93.5192 0.0000 -5.1317 0.0000
# 4 0.0000 0.0000 0.0000 24.7039 0.0000 -3.6857
# 5 -3.2912 -10.9484 -5.1317 0.0000 31.2689 0.0000
# 6 0.0000 0.0000 0.0000 -3.6857 0.0000 40.3796
#
#
#
# Elastic Compliance Matrix: (Units=1/GPa)
#
#
# Indices 1 2 3 4 5 6 
#
# 1 0.010009 -0.002875 -0.002403 0.000000 -0.000347 0.000000
# 2 -0.002875 0.012544 -0.000575 0.000000 0.003995 0.000000
# 3 -0.002403 -0.000575 0.011503 0.000000 0.001434 0.000000
# 4 0.000000 0.000000 0.000000 0.041038 0.000000 0.003746
# 5 -0.000347 0.003995 0.001434 0.000000 0.033578 0.000000
# 6 0.000000 0.000000 0.000000 0.003746 0.000000 0.025107
#
#
# Mechanical properties :
#
#
# Convention : Reuss Voigt Hill
#
# Bulk Modulus (GPa) = 44.73723 47.72555 46.23139
# Shear Modulus (GPa) = 32.69342 34.73957 33.71649
#
# Velocity S-wave (km/s) = 3.88328 4.00296 3.94357
# Velocity P-wave (km/s) = 6.38291 6.58622 6.48536
#
# Compressibility (1/GPa) = 0.02235275
#
# Stress axis : x y z
#
# Youngs Moduli (GPa) = 99.90632 79.71680 86.93129
#
# Poissons Ratio (x) = 0.22919 0.20886
# Poissons Ratio (y) = 0.28724 0.04995
# Poissons Ratio (z) = 0.24003 0.04580
#
# Static dielectric constant tensor:
#      x y z
#    x 4.233660 0.000000 0.004950 
#    y 0.000000 4.309280 0.000000 
#    z 0.004950 0.000000 3.777590 
# 
# 
# High freq. dielectric constant tensor:
#      x y z
#    x 1.861640 0.000000 -0.001360 
#    y 0.000000 1.862770 0.000000 
#    z -0.001360 0.000000 1.824420 
# 
# From -- ./inp_files/198031.got.cif
#   From: 2010.06.25/outbox.cif.g09.slc.cpg/sg15_100_cif.got.tgz:198031.got - 2010.06.28 07:06:18.
