data_PCOD8141108
_publ_section_title
;
Structure prediction by ZEFSAII (Michael W. Deem and Ramdas Pophale) SiO2 
 PCOD8141108
Probable space group: C 2/C
;
_chemical_formula_sum "Si O2"
_cell_formula_units_Z 64
_cell_length_a 17.013136
_cell_length_b 11.062032
_cell_length_c 16.109477
_cell_angle_alpha 90.000000
_cell_angle_beta 92.625241
_cell_angle_gamma 90.000000
_cell_volume 3028.619324
_symmetry_space_group_name_H-M "C 2/C"
_symmetry_group_IT_number 15
_symmetry_cell_setting 'monoclinic'
loop_
_space_group_symop_operation_xyz
x,y,z
-x,y,1/2-z
-x,-y,-z
x,-y,1/2+z
1/2+x,1/2+y,z
1/2-x,1/2+y,1/2-z
1/2-x,1/2-y,-z
1/2+x,1/2-y,1/2+z
loop_
_atom_site_type_symbol
_atom_site_label
_atom_site_fract_x
_atom_site_fract_y
_atom_site_fract_z
Si Si1 0.844408 0.083803 0.740641
Si Si2 0.173806 0.583391 0.794943
Si Si3 0.169009 0.849302 0.839906
Si Si4 0.138422 0.034493 0.508205
Si Si5 0.121878 0.199564 0.918883
Si Si6 0.186390 0.545862 0.459052
Si Si7 0.446038 0.705866 0.868646
Si Si8 0.656069 0.064742 0.132485
O O1 0.768634 0.091498 0.795703
O O2 0.822277 0.140197 0.649296
O O3 0.919318 0.157559 0.777467
O O4 0.868774 0.944389 0.726729
O O5 0.142013 0.718905 0.806330
O O6 0.144873 0.508163 0.874435
O O7 0.137950 0.524808 0.709255
O O8 0.263095 0.866250 0.844198
O O9 0.138502 0.872592 0.931203
O O10 0.102282 0.903094 0.485963
O O11 0.225095 0.002076 0.544865
O O12 0.084733 0.099565 0.572901
O O13 0.172332 0.310129 0.957576
O O14 0.037935 0.234323 0.877077
O O15 0.152395 0.505701 0.545619
O O16 0.409773 0.835787 0.883014
#
# Coordination Sequence:
#
# PCOD8141108 Si02
#       8
#     8   8   8   8   8   8   8   8
#     4  10  21  35  57  86 119 159 201 255 303 369
#     4  11  20  37  64  91 120 161 204 257 312 355
#     4   9  19  36  58  89 116 149 211 261 295 360
#     4  10  21  39  62  88 114 158 210 255 308 368
#     4  11  25  38  58  90 126 159 204 255 315 380
#     4  11  22  40  63  90 124 162 202 268 306 365
#     4  12  21  39  61  85 125 165 199 251 321 379
#     4  10  22  36  60  94 121 159 209 247 308 380
#
# _framework density 21.131741000000002
#
# number of rings (size 3 to 8) (size 9 to 14) (size 15 to 20)
#    0.000    1.500    2.500    3.375    1.750    3.500 
#    0.000    0.000    0.000    4.500    0.000    0.000 
#    0.000    0.000    0.000    0.000    0.000    0.000 
#
# Total GULP energy -396611.776545 kJ/mol
# GULP energy per Si atom -12394.118017 kJ/mol
# Density = 2.108364 g / cm^3
# Si number density = 21.131741 Si / 1000 Ang^3
#
#
#
# Elastic Constant Matrix: (Units=GPa)
#
#
# Indices 1 2 3 4 5 6 
#
# 1 29.4389 11.8428 10.3351 0.0000 -2.4603 0.0000
# 2 11.8428 147.8493 61.1452 0.0000 -3.0137 0.0000
# 3 10.3351 61.1452 123.1329 0.0000 -1.4459 0.0000
# 4 0.0000 0.0000 0.0000 37.0331 0.0000 6.6416
# 5 -2.4603 -3.0137 -1.4459 0.0000 11.8094 0.0000
# 6 0.0000 0.0000 0.0000 6.6416 0.0000 19.6830
#
#
#
# Elastic Compliance Matrix: (Units=1/GPa)
#
#
# Indices 1 2 3 4 5 6 
#
# 1 0.036006 -0.001924 -0.001987 0.000000 0.006767 0.000000
# 2 -0.001924 0.008647 -0.004117 0.000000 0.001302 0.000000
# 3 -0.001987 -0.004117 0.010330 0.000000 -0.000200 0.000000
# 4 0.000000 0.000000 0.000000 0.028742 0.000000 -0.009698
# 5 0.006767 0.001302 -0.000200 0.000000 0.086395 0.000000
# 6 0.000000 0.000000 0.000000 -0.009698 0.000000 0.054078
#
#
# Mechanical properties :
#
#
# Convention : Reuss Voigt Hill
#
# Bulk Modulus (GPa) = 25.68973 51.89636 38.79305
# Shear Modulus (GPa) = 19.74481 28.17832 23.96157
#
# Velocity S-wave (km/s) = 3.06006 3.65562 3.37102
# Velocity P-wave (km/s) = 4.96675 6.51382 5.79217
#
# Compressibility (1/GPa) = 0.03892605
#
# Stress axis : x y z
#
# Youngs Moduli (GPa) = 27.77318 115.64695 96.80345
#
# Poissons Ratio (x) = 0.22255 0.19236
# Poissons Ratio (y) = 0.05345 0.39855
# Poissons Ratio (z) = 0.05519 0.47613
#
# Static dielectric constant tensor:
#      x y z
#    x 3.390020 0.000000 0.022640 
#    y 0.000000 3.890280 0.000000 
#    z 0.022640 0.000000 3.982870 
# 
# 
# High freq. dielectric constant tensor:
#      x y z
#    x 1.786220 0.000000 -0.002980 
#    y 0.000000 1.839310 0.000000 
#    z -0.002980 0.000000 1.843810 
# 
# From -- ./inp_files/161331.got.cif
#   From: 2010.06.25/outbox.cif.g09.slc.cpg/sg15_81_cif.got.tgz:161331.got - 2010.06.28 07:06:18.
