data_PCOD8141334
_publ_section_title
;
Structure prediction by ZEFSAII (Michael W. Deem and Ramdas Pophale) SiO2 
 PCOD8141334
Probable space group: C 2/C
;
_chemical_formula_sum "Si O2"
_cell_formula_units_Z 56
_cell_length_a 29.296359
_cell_length_b 9.346463
_cell_length_c 14.891678
_cell_angle_alpha 90.000000
_cell_angle_beta 45.218468
_cell_angle_gamma 90.000000
_cell_volume 2894.271310
_symmetry_space_group_name_H-M "C 2/C"
_symmetry_group_IT_number 15
_symmetry_cell_setting 'monoclinic'
loop_
_space_group_symop_operation_xyz
x,y,z
-x,y,1/2-z
-x,-y,-z
x,-y,1/2+z
1/2+x,1/2+y,z
1/2-x,1/2+y,1/2-z
1/2-x,1/2-y,-z
1/2+x,1/2-y,1/2+z
loop_
_atom_site_type_symbol
_atom_site_label
_atom_site_fract_x
_atom_site_fract_y
_atom_site_fract_z
Si Si1 0.432368 0.252564 0.886726
Si Si2 0.603941 0.997882 0.680550
Si Si3 0.269685 0.623760 0.844615
Si Si4 0.226856 0.444746 0.598735
Si Si5 0.834992 0.988286 0.084083
Si Si6 0.862990 0.314327 0.024409
Si Si7 0.470367 0.995406 0.446088
O O1 0.500000 0.303432 0.750000
O O2 0.391578 0.146914 0.879272
O O3 0.444955 0.163557 0.960519
O O4 0.389877 0.388548 0.967594
O O5 0.529396 0.966413 0.800098
O O6 0.654455 0.012238 0.693513
O O7 0.623350 0.856209 0.597984
O O8 0.285912 0.785043 0.849255
O O9 0.322932 0.550677 0.706082
O O10 0.208445 0.623481 0.862050
O O11 0.259123 0.540951 0.954054
O O12 0.271600 0.526383 0.608693
O O13 0.864859 0.145695 0.037356
O O14 0.914070 0.388016 0.018946
O O15 0.500000 0.000000 0.500000
#
# Coordination Sequence:
#
# PCOD8141334 Si02
#       7
#     8   8   8   8   8   8   8
#     4   9  21  40  54  85 120 149 194 253 302 336
#     4   9  19  38  62  79 115 160 201 235 288 363
#     4   9  20  37  57  85 125 150 194 237 295 360
#     4   9  20  38  59  87 117 161 189 237 297 355
#     4  11  22  37  64  90 121 155 191 256 300 349
#     4   9  20  38  57  85 114 156 201 232 297 355
#     4  10  21  36  60  82 111 159 205 239 283 354
#
# _framework density 19.348566999999999
#
# number of rings (size 3 to 8) (size 9 to 14) (size 15 to 20)
#    0.000    2.571    0.000    2.143    4.000    7.429 
#    5.143    0.714    0.000    0.000    0.000    0.000 
#    0.000    0.000    0.000    0.000    0.000    0.000 
#
# Total GULP energy -346866.944120 kJ/mol
# GULP energy per Si atom -12388.105147 kJ/mol
# Density = 1.930453 g / cm^3
# Si number density = 19.348567 Si / 1000 Ang^3
#
#
#
# Elastic Constant Matrix: (Units=GPa)
#
#
# Indices 1 2 3 4 5 6 
#
# 1 117.5346 28.2771 15.9921 0.0000 6.2262 0.0000
# 2 28.2771 92.6250 54.4216 0.0001 -2.4004 0.0000
# 3 15.9921 54.4216 67.4627 0.0000 6.5958 0.0000
# 4 0.0000 0.0001 0.0000 23.4774 0.0000 -11.2278
# 5 6.2262 -2.4004 6.5958 0.0000 24.8004 0.0000
# 6 0.0000 0.0000 0.0000 -11.2278 0.0000 24.5055
#
#
#
# Elastic Compliance Matrix: (Units=1/GPa)
#
#
# Indices 1 2 3 4 5 6 
#
# 1 0.009373 -0.003418 0.000819 0.000000 -0.002902 0.000000
# 2 -0.003418 0.022865 -0.018414 0.000000 0.007968 0.000000
# 3 0.000819 -0.018414 0.030470 0.000000 -0.010091 0.000000
# 4 0.000000 0.000000 0.000000 0.054546 0.000000 0.024992
# 5 -0.002902 0.007968 -0.010091 0.000000 0.044505 0.000000
# 6 0.000000 0.000000 0.000000 0.024992 0.000000 0.052258
#
#
# Mechanical properties :
#
#
# Convention : Reuss Voigt Hill
#
# Bulk Modulus (GPa) = 48.35086 52.77822 50.56454
# Shear Modulus (GPa) = 19.01593 26.48544 22.75069
#
# Velocity S-wave (km/s) = 3.13838 3.70382 3.43276
# Velocity P-wave (km/s) = 6.17869 6.75484 6.47318
#
# Compressibility (1/GPa) = 0.02068216
#
# Stress axis : x y z
#
# Youngs Moduli (GPa) = 106.69336 43.73437 32.81907
#
# Poissons Ratio (x) = 0.14947 -0.02688
# Poissons Ratio (y) = 0.36464 0.60434
# Poissons Ratio (z) = -0.08737 0.80533
#
# Static dielectric constant tensor:
#      x y z
#    x 4.048320 0.000000 -0.234600 
#    y 0.000000 3.284300 0.000000 
#    z -0.234600 0.000000 3.389830 
# 
# 
# High freq. dielectric constant tensor:
#      x y z
#    x 1.764050 0.000000 -0.005310 
#    y 0.000000 1.729590 0.000000 
#    z -0.005310 0.000000 1.751430 
# 
# From -- ./inp_files/172274.got.cif
#   From: 2010.06.25/outbox.cif.g09.slc.cpg/sg15_87_cif.got.tgz:172274.got - 2010.06.28 07:06:18.
