data_PCOD8141343
_publ_section_title
;
Structure prediction by ZEFSAII (Michael W. Deem and Ramdas Pophale) SiO2 
 PCOD8141343
Probable space group: C 2/C
;
_chemical_formula_sum "Si O2"
_cell_formula_units_Z 48
_cell_length_a 13.467475
_cell_length_b 22.708240
_cell_length_c 11.909204
_cell_angle_alpha 90.000000
_cell_angle_beta 38.071214
_cell_angle_gamma 90.000000
_cell_volume 2245.868822
_symmetry_space_group_name_H-M "C 2/C"
_symmetry_group_IT_number 15
_symmetry_cell_setting 'monoclinic'
loop_
_space_group_symop_operation_xyz
x,y,z
-x,y,1/2-z
-x,-y,-z
x,-y,1/2+z
1/2+x,1/2+y,z
1/2-x,1/2+y,1/2-z
1/2-x,1/2-y,-z
1/2+x,1/2-y,1/2+z
loop_
_atom_site_type_symbol
_atom_site_label
_atom_site_fract_x
_atom_site_fract_y
_atom_site_fract_z
Si Si1 0.799867 0.603698 0.056395
Si Si2 0.817716 0.613041 0.789686
Si Si3 0.662259 0.298338 0.274627
Si Si4 0.682348 0.395220 0.077560
Si Si5 0.196849 0.825284 0.851385
Si Si6 0.176188 0.518460 0.884257
O O1 0.730478 0.655379 0.194157
O O2 0.732891 0.542116 0.167121
O O3 0.738880 0.611710 0.983167
O O4 0.992024 0.604773 0.881301
O O5 0.779972 0.675429 0.765311
O O6 0.740224 0.558124 0.787750
O O7 0.687092 0.332895 0.136990
O O8 0.690088 0.230138 0.223575
O O9 0.484600 0.304824 0.479741
O O10 0.500000 0.421403 0.250000
O O11 0.813116 0.441166 0.011824
O O12 0.733099 0.379619 0.904449
O O13 0.000000 0.500000 0.000000
#
# Coordination Sequence:
#
# PCOD8141343 Si02
#       6
#     8   8   8   8   8   8
#     4  10  21  36  60  88 118 163 205 248 302 368
#     4   9  20  40  57  82 125 159 201 253 307 356
#     4  10  21  40  60  86 125 157 201 258 305 368
#     4   9  20  39  60  91 124 160 197 259 312 363
#     4  11  22  37  62  91 118 160 208 249 313 360
#     4   9  19  38  60  86 122 160 204 254 299 363
#
# _framework density 21.372575000000001
#
# number of rings (size 3 to 8) (size 9 to 14) (size 15 to 20)
#    0.000    2.333    0.000    1.500    2.333    1.333 
#    6.000   10.000    0.000    0.000    0.000    0.000 
#    0.000    0.000    0.000    0.000    0.000    0.000 
#
# Total GULP energy -297478.877362 kJ/mol
# GULP energy per Si atom -12394.953223 kJ/mol
# Density = 2.132393 g / cm^3
# Si number density = 21.372575 Si / 1000 Ang^3
#
#
#
# Elastic Constant Matrix: (Units=GPa)
#
#
# Indices 1 2 3 4 5 6 
#
# 1 92.4164 28.7691 27.7232 -0.0002 19.0687 -0.0005
# 2 28.7691 84.8029 26.0194 0.0000 -3.1290 -0.0005
# 3 27.7232 26.0194 81.3987 0.0000 22.9294 0.0000
# 4 -0.0002 0.0000 0.0000 11.0061 0.0002 -1.6057
# 5 19.0687 -3.1290 22.9294 0.0002 25.8670 -0.0001
# 6 -0.0005 -0.0005 0.0000 -1.6057 -0.0001 31.0496
#
#
#
# Elastic Compliance Matrix: (Units=1/GPa)
#
#
# Indices 1 2 3 4 5 6 
#
# 1 0.014943 -0.005478 -0.000065 0.000000 -0.011621 0.000000
# 2 -0.005478 0.016123 -0.006631 0.000000 0.011866 0.000000
# 3 -0.000065 -0.006631 0.019511 0.000000 -0.018050 0.000000
# 4 0.000000 0.000000 0.000000 0.091549 -0.000001 0.004734
# 5 -0.011621 0.011866 -0.018050 -0.000001 0.064662 0.000000
# 6 0.000000 0.000000 0.000000 0.004734 0.000000 0.032451
#
#
# Mechanical properties :
#
#
# Convention : Reuss Voigt Hill
#
# Bulk Modulus (GPa) = 38.12410 47.07127 42.59769
# Shear Modulus (GPa) = 18.36007 25.32497 21.84252
#
# Velocity S-wave (km/s) = 2.93413 3.44601 3.20032
# Velocity P-wave (km/s) = 5.41806 6.15673 5.79917
#
# Compressibility (1/GPa) = 0.02623013
#
# Stress axis : x y z
#
# Youngs Moduli (GPa) = 66.91976 62.02390 51.25266
#
# Poissons Ratio (x) = 0.33979 0.00331
# Poissons Ratio (y) = 0.36661 0.33983
# Poissons Ratio (z) = 0.00432 0.41125
#
# Static dielectric constant tensor:
#      x y z
#    x 4.084000 0.000000 0.279070 
#    y 0.000000 4.097700 0.000000 
#    z 0.279070 0.000000 3.642240 
# 
# 
# High freq. dielectric constant tensor:
#      x y z
#    x 1.843170 0.000000 0.017560 
#    y 0.000000 1.838790 0.000000 
#    z 0.017560 0.000000 1.815430 
# 
# From -- ./inp_files/50016.got.cif
#   From: 2010.06.25/outbox.cif.g09.slc.cpg/sg15_26_cif.got.tgz:50016.got - 2010.06.28 07:06:18.
