data_PCOD8141937
_publ_section_title
;
Structure prediction by ZEFSAII (Michael W. Deem and Ramdas Pophale) SiO2 
 PCOD8141937
Probable space group: C 2/C
;
_chemical_formula_sum "Si O2"
_cell_formula_units_Z 36
_cell_length_a 6.766839
_cell_length_b 12.919839
_cell_length_c 20.511448
_cell_angle_alpha 90.000000
_cell_angle_beta 95.337468
_cell_angle_gamma 90.000000
_cell_volume 1785.468142
_symmetry_space_group_name_H-M "C 2/C"
_symmetry_group_IT_number 15
_symmetry_cell_setting 'monoclinic'
loop_
_space_group_symop_operation_xyz
x,y,z
-x,y,1/2-z
-x,-y,-z
x,-y,1/2+z
1/2+x,1/2+y,z
1/2-x,1/2+y,1/2-z
1/2-x,1/2-y,-z
1/2+x,1/2-y,1/2+z
loop_
_atom_site_type_symbol
_atom_site_label
_atom_site_fract_x
_atom_site_fract_y
_atom_site_fract_z
Si Si1 0.559694 0.579464 0.144298
Si Si2 0.619672 0.927553 0.313237
Si Si3 0.648151 0.982662 0.587410
Si Si4 0.290221 0.866164 0.524191
Si Si5 0.000000 0.231716 0.250000
O O1 0.662247 0.473090 0.169732
O O2 0.322976 0.565125 0.136417
O O3 0.634019 0.615240 0.076542
O O4 0.618164 0.663189 0.201131
O O5 0.500000 0.983129 0.250000
O O6 0.648999 0.806170 0.296070
O O7 0.491479 0.941822 0.374876
O O8 0.516644 0.886972 0.555304
O O9 0.751034 0.051565 0.534476
O O10 0.250000 0.750000 0.500000
#
# Coordination Sequence:
#
# PCOD8141937 Si02
#       5
#     8   8   8   8   4
#     4  11  21  38  62  86 115 158 201 238 297 357
#     4   9  21  39  56  83 122 148 191 253 288 343
#     4  10  21  38  59  84 118 155 197 247 289 354
#     4  10  22  38  57  86 121 154 194 246 299 348
#     4  10  22  38  60  88 118 154 200 244 296 360
#
# _framework density 20.162777999999999
#
# number of rings (size 3 to 8) (size 9 to 14) (size 15 to 20)
#    0.667    1.333    0.000    3.333    0.000    2.667 
#    0.000    6.667    0.000    0.000    0.000    0.000 
#    0.000    0.000    0.000    0.000    0.000    0.000 
#
# Total GULP energy -223103.544533 kJ/mol
# GULP energy per Si atom -12394.641363 kJ/mol
# Density = 2.011689 g / cm^3
# Si number density = 20.162778 Si / 1000 Ang^3
#
#
#
# Elastic Constant Matrix: (Units=GPa)
#
#
# Indices 1 2 3 4 5 6 
#
# 1 98.6569 52.9993 33.6857 0.0000 8.7361 0.0000
# 2 52.9993 124.6801 53.4524 0.0000 -13.4880 0.0000
# 3 33.6857 53.4524 114.4422 0.0000 -12.7383 0.0000
# 4 0.0000 0.0000 0.0000 40.3873 0.0000 10.2259
# 5 8.7361 -13.4880 -12.7383 0.0000 23.2900 0.0000
# 6 0.0000 0.0000 0.0000 10.2259 0.0000 23.5362
#
#
#
# Elastic Compliance Matrix: (Units=1/GPa)
#
#
# Indices 1 2 3 4 5 6 
#
# 1 0.015669 -0.006707 -0.002732 0.000000 -0.011256 0.000000
# 2 -0.006707 0.013168 -0.003245 0.000000 0.008367 0.000000
# 3 -0.002732 -0.003245 0.011673 0.000000 0.005530 0.000000
# 4 0.000000 0.000000 0.000000 0.027821 0.000000 -0.012087
# 5 -0.011256 0.008367 0.005530 0.000000 0.055029 0.000000
# 6 0.000000 0.000000 0.000000 -0.012087 0.000000 0.047740
#
#
# Mechanical properties :
#
#
# Convention : Reuss Voigt Hill
#
# Bulk Modulus (GPa) = 66.04180 68.67267 67.35724
# Shear Modulus (GPa) = 24.81206 30.61881 27.71543
#
# Velocity S-wave (km/s) = 3.51178 3.90112 3.71156
# Velocity P-wave (km/s) = 7.01918 7.37731 7.20047
#
# Compressibility (1/GPa) = 0.01514193
#
# Stress axis : x y z
#
# Youngs Moduli (GPa) = 63.82135 75.94349 85.66453
#
# Poissons Ratio (x) = 0.50933 0.23407
# Poissons Ratio (y) = 0.42803 0.27797
# Poissons Ratio (z) = 0.17439 0.24642
#
# Static dielectric constant tensor:
#      x y z
#    x 3.384820 0.000000 0.018960 
#    y 0.000000 3.491390 0.000000 
#    z 0.018960 0.000000 3.905600 
# 
# 
# High freq. dielectric constant tensor:
#      x y z
#    x 1.767410 0.000000 -0.004300 
#    y 0.000000 1.775640 0.000000 
#    z -0.004300 0.000000 1.811360 
# 
# From -- ./inp_files/259911.got.cif
#   From: 2010.06.25/outbox.cif.g09.slc.cpg/sg15_130_cif.got.tgz:259911.got - 2010.06.28 07:06:18.
