data_PCOD8141504
_publ_section_title
;
Structure prediction by ZEFSAII (Michael W. Deem and Ramdas Pophale) SiO2 
 PCOD8141504
Probable space group: C 2/C
;
_chemical_formula_sum "Si O2"
_cell_formula_units_Z 56
_cell_length_a 21.444649
_cell_length_b 9.098869
_cell_length_c 29.663381
_cell_angle_alpha 90.000000
_cell_angle_beta 151.990625
_cell_angle_gamma 90.000000
_cell_volume 2718.128072
_symmetry_space_group_name_H-M "C 2/C"
_symmetry_group_IT_number 15
_symmetry_cell_setting 'monoclinic'
loop_
_space_group_symop_operation_xyz
x,y,z
-x,y,1/2-z
-x,-y,-z
x,-y,1/2+z
1/2+x,1/2+y,z
1/2-x,1/2+y,1/2-z
1/2-x,1/2-y,-z
1/2+x,1/2-y,1/2+z
loop_
_atom_site_type_symbol
_atom_site_label
_atom_site_fract_x
_atom_site_fract_y
_atom_site_fract_z
Si Si1 0.785235 0.346628 0.169206
Si Si2 0.918194 0.994440 0.338238
Si Si3 0.955033 0.409937 0.514575
Si Si4 0.293330 0.218621 0.285448
Si Si5 0.956782 0.203540 0.145646
Si Si6 0.198686 0.652716 0.035103
Si Si7 0.601782 0.417269 0.532750
O O1 0.733050 0.302901 0.184736
O O2 0.697292 0.258827 0.076932
O O3 0.749802 0.517699 0.136382
O O4 0.942795 0.316061 0.265022
O O5 0.831814 0.120235 0.309743
O O6 0.959179 0.060280 0.315992
O O7 0.827974 0.848581 0.272015
O O8 0.051016 0.951686 0.449737
O O9 0.846954 0.493588 0.476494
O O10 0.892470 0.257346 0.456928
O O11 0.000000 0.500000 0.500000
O O12 0.081117 0.387431 0.627555
O O13 0.846646 0.145139 0.109475
O O14 0.900128 0.285437 0.065714
O O15 0.500000 0.500000 0.500000
#
# Coordination Sequence:
#
# PCOD8141504 Si02
#       7
#     8   8   8   8   8   8   8
#     4  11  20  40  62  87 125 163 209 252 305 377
#     4  10  21  37  56  88 126 150 203 248 307 368
#     4  11  22  36  61  97 122 161 208 261 318 365
#     4  10  22  35  59  93 119 159 194 258 312 361
#     4  10  24  39  65  89 120 175 209 246 318 371
#     4  11  22  42  65  87 125 163 215 256 300 382
#     4  11  20  37  59  91 126 162 198 257 323 367
#
# _framework density 20.602414
#
# number of rings (size 3 to 8) (size 9 to 14) (size 15 to 20)
#    0.000    1.429    5.714    0.429    4.000    0.000 
#    0.000    2.857    0.000    1.714    0.000    0.000 
#    0.000    0.000    0.000    0.000    0.000    0.000 
#
# Total GULP energy -347096.697287 kJ/mol
# GULP energy per Si atom -12396.310617 kJ/mol
# Density = 2.055552 g / cm^3
# Si number density = 20.602414 Si / 1000 Ang^3
#
#
#
# Elastic Constant Matrix: (Units=GPa)
#
#
# Indices 1 2 3 4 5 6 
#
# 1 78.8637 57.8292 24.4701 0.0002 20.3525 0.0000
# 2 57.8292 157.4322 53.6593 -0.0001 16.6298 0.0004
# 3 24.4701 53.6593 97.8204 0.0013 16.5475 0.0001
# 4 0.0002 -0.0001 0.0013 36.8790 0.0003 0.0225
# 5 20.3525 16.6298 16.5475 0.0003 30.4925 0.0000
# 6 0.0000 0.0004 0.0001 0.0225 0.0000 28.2349
#
#
#
# Elastic Compliance Matrix: (Units=1/GPa)
#
#
# Indices 1 2 3 4 5 6 
#
# 1 0.019780 -0.006280 0.000166 0.000000 -0.009868 0.000000
# 2 -0.006280 0.009934 -0.004042 0.000000 0.000967 0.000000
# 3 0.000166 -0.004042 0.013262 0.000000 -0.005103 0.000000
# 4 0.000000 0.000000 0.000000 0.027116 0.000000 -0.000022
# 5 -0.009868 0.000967 -0.005103 0.000000 0.041623 0.000000
# 6 0.000000 0.000000 0.000000 -0.000022 0.000000 0.035417
#
#
# Mechanical properties :
#
#
# Convention : Reuss Voigt Hill
#
# Bulk Modulus (GPa) = 44.12267 67.33704 55.72986
# Shear Modulus (GPa) = 28.57158 32.33180 30.45169
#
# Velocity S-wave (km/s) = 3.72803 3.96576 3.84873
# Velocity P-wave (km/s) = 6.32405 7.32971 6.84538
#
# Compressibility (1/GPa) = 0.02266409
#
# Stress axis : x y z
#
# Youngs Moduli (GPa) = 50.55569 100.66114 75.40433
#
# Poissons Ratio (x) = 0.63216 -0.01252
# Poissons Ratio (y) = 0.31749 0.30479
# Poissons Ratio (z) = -0.00840 0.40688
#
# Static dielectric constant tensor:
#      x y z
#    x 3.581310 0.000000 0.065590 
#    y 0.000000 3.910820 0.000000 
#    z 0.065590 0.000000 4.053890 
# 
# 
# High freq. dielectric constant tensor:
#      x y z
#    x 1.781780 0.000000 -0.002050 
#    y 0.000000 1.803700 0.000000 
#    z -0.002050 0.000000 1.810560 
# 
# From -- ./inp_files/317552.got.cif
#   From: 2010.06.25/outbox.cif.g09.slc.cpg/sg15_159_cif.got.tgz:317552.got - 2010.06.28 07:06:18.
