data_PCOD8141331
_publ_section_title
;
Structure prediction by ZEFSAII (Michael W. Deem and Ramdas Pophale) SiO2 
 PCOD8141331
Probable space group: C 2/C
;
_chemical_formula_sum "Si O2"
_cell_formula_units_Z 48
_cell_length_a 10.690562
_cell_length_b 15.404732
_cell_length_c 25.594745
_cell_angle_alpha 90.000000
_cell_angle_beta 34.786934
_cell_angle_gamma 90.000000
_cell_volume 2404.812139
_symmetry_space_group_name_H-M "C 2/C"
_symmetry_group_IT_number 15
_symmetry_cell_setting 'monoclinic'
loop_
_space_group_symop_operation_xyz
x,y,z
-x,y,1/2-z
-x,-y,-z
x,-y,1/2+z
1/2+x,1/2+y,z
1/2-x,1/2+y,1/2-z
1/2-x,1/2-y,-z
1/2+x,1/2-y,1/2+z
loop_
_atom_site_type_symbol
_atom_site_label
_atom_site_fract_x
_atom_site_fract_y
_atom_site_fract_z
Si Si1 0.915075 0.259104 0.015505
Si Si2 0.358847 0.524820 0.142514
Si Si3 0.491001 0.286295 0.906769
Si Si4 0.901734 0.301446 0.340865
Si Si5 0.063814 0.496534 0.148709
Si Si6 0.761268 0.892781 0.497708
O O1 0.780819 0.185884 0.031426
O O2 0.172600 0.248690 0.915887
O O3 0.860008 0.248551 0.096291
O O4 0.838716 0.354572 0.021922
O O5 0.507350 0.609709 0.099098
O O6 0.234922 0.539096 0.130361
O O7 0.505901 0.438276 0.092804
O O8 0.185456 0.512593 0.248582
O O9 0.565827 0.249144 0.824452
O O10 0.250000 0.250000 0.000000
O O11 0.871003 0.396020 0.376074
O O12 0.000000 0.309241 0.250000
O O13 0.096057 0.537572 0.080357
#
# Coordination Sequence:
#
# PCOD8141331 Si02
#       6
#     8   8   8   8   8   8
#     4  10  21  36  59  94 118 164 194 248 323 351
#     4  11  21  39  60  92 119 161 212 249 300 358
#     4  10  22  39  61  85 123 161 200 251 311 366
#     4  11  21  39  61  87 121 160 206 252 302 363
#     4  11  21  37  64  92 115 161 212 255 290 364
#     4  11  20  36  65  88 129 150 207 256 295 370
#
# _framework density 19.959978
#
# number of rings (size 3 to 8) (size 9 to 14) (size 15 to 20)
#    0.000    1.333    5.000    2.500    2.333    0.000 
#    0.000    7.500    0.000    0.000    0.000    0.000 
#    0.000    0.000    0.000    0.000    0.000    0.000 
#
# Total GULP energy -297530.025530 kJ/mol
# GULP energy per Si atom -12397.084397 kJ/mol
# Density = 1.991455 g / cm^3
# Si number density = 19.959978 Si / 1000 Ang^3
#
#
#
# Elastic Constant Matrix: (Units=GPa)
#
#
# Indices 1 2 3 4 5 6 
#
# 1 95.4329 53.9466 19.1109 0.0029 14.5867 -0.0051
# 2 53.9466 114.8356 40.8819 0.0082 3.8458 0.0059
# 3 19.1109 40.8819 79.8505 -0.0164 -5.1186 0.0473
# 4 0.0029 0.0082 -0.0164 24.0682 0.0177 -0.9297
# 5 14.5867 3.8458 -5.1186 0.0177 25.0530 0.0064
# 6 -0.0051 0.0059 0.0473 -0.9297 0.0064 41.0032
#
#
#
# Elastic Compliance Matrix: (Units=1/GPa)
#
#
# Indices 1 2 3 4 5 6 
#
# 1 0.015780 -0.006849 -0.000802 0.000006 -0.008300 0.000005
# 2 -0.006849 0.013817 -0.005386 -0.000008 0.000767 0.000003
# 3 -0.000802 -0.005386 0.015762 0.000009 0.004514 -0.000018
# 4 0.000006 -0.000008 0.000009 0.041585 -0.000030 0.000943
# 5 -0.008300 0.000767 0.004514 -0.000030 0.045553 -0.000014
# 6 0.000005 0.000003 -0.000018 0.000943 -0.000014 0.024410
#
#
# Mechanical properties :
#
#
# Convention : Reuss Voigt Hill
#
# Bulk Modulus (GPa) = 51.85381 57.55530 54.70455
# Shear Modulus (GPa) = 26.39789 29.77019 28.08404
#
# Velocity S-wave (km/s) = 3.64062 3.86618 3.75509
# Velocity P-wave (km/s) = 6.61116 6.98768 6.80203
#
# Compressibility (1/GPa) = 0.01928499
#
# Stress axis : x y z
#
# Youngs Moduli (GPa) = 63.37288 72.37215 63.44315
#
# Poissons Ratio (x) = 0.49571 0.05087
# Poissons Ratio (y) = 0.43407 0.34170
# Poissons Ratio (z) = 0.05082 0.38979
#
# Static dielectric constant tensor:
#      x y z
#    x 4.089620 -0.000010 0.275980 
#    y -0.000010 3.799830 0.000010 
#    z 0.275980 0.000010 3.496220 
# 
# 
# High freq. dielectric constant tensor:
#      x y z
#    x 1.766730 0.000000 0.010770 
#    y 0.000000 1.785220 0.000000 
#    z 0.010770 0.000000 1.765160 
# 
# From -- ./inp_files/143634.got.cif
#   From: 2010.06.25/outbox.cif.g09.slc.cpg/sg15_72_cif.got.tgz:143634.got - 2010.06.28 07:06:18.
