data_PCOD8141938
_publ_section_title
;
Structure prediction by ZEFSAII (Michael W. Deem and Ramdas Pophale) SiO2 
 PCOD8141938
Probable space group: C 2/C
;
_chemical_formula_sum "Si O2"
_cell_formula_units_Z 52
_cell_length_a 21.247448
_cell_length_b 23.394954
_cell_length_c 4.877321
_cell_angle_alpha 90.000000
_cell_angle_beta 85.264791
_cell_angle_gamma 90.000000
_cell_volume 2416.158724
_symmetry_space_group_name_H-M "C 2/C"
_symmetry_group_IT_number 15
_symmetry_cell_setting 'monoclinic'
loop_
_space_group_symop_operation_xyz
x,y,z
-x,y,1/2-z
-x,-y,-z
x,-y,1/2+z
1/2+x,1/2+y,z
1/2-x,1/2+y,1/2-z
1/2-x,1/2-y,-z
1/2+x,1/2-y,1/2+z
loop_
_atom_site_type_symbol
_atom_site_label
_atom_site_fract_x
_atom_site_fract_y
_atom_site_fract_z
Si Si1 0.185322 0.190477 0.961266
Si Si2 0.574098 0.534995 0.236831
Si Si3 0.669489 0.814697 0.126553
Si Si4 0.500000 0.956161 0.750000
Si Si5 0.232629 0.463647 0.402955
Si Si6 0.625529 0.117354 0.129681
Si Si7 0.840622 0.121040 0.018669
O O1 0.256511 0.187659 0.811501
O O2 0.140779 0.155531 0.764793
O O3 0.153832 0.252742 0.004776
O O4 0.191673 0.164406 0.259984
O O5 0.500000 0.541990 0.250000
O O6 0.596999 0.482194 0.424564
O O7 0.599590 0.594647 0.343847
O O8 0.626398 0.829843 0.409303
O O9 0.654502 0.862195 0.905300
O O10 0.441650 0.912078 0.790268
O O11 0.500000 0.000000 0.500000
O O12 0.234045 0.478348 0.080685
O O13 0.168614 0.430742 0.480061
O O14 0.293846 0.428761 0.456031
#
# Coordination Sequence:
#
# PCOD8141938 Si02
#       7
#     8   8   8   4   8   8   8
#     4  11  22  38  63  94 126 158 208 255 324 376
#     4  10  21  38  59  84 120 166 205 241 297 377
#     4  11  22  41  64  92 123 165 206 262 317 392
#     4  12  26  46  68  96 128 176 224 272 322 394
#     4  12  22  34  54  88 126 157 198 252 311 374
#     4  12  23  42  65  90 126 169 212 265 324 376
#     4  12  21  37  59  92 124 164 200 261 309 373
#
# _framework density 21.521764999999998
#
# number of rings (size 3 to 8) (size 9 to 14) (size 15 to 20)
#    0.000    0.615    3.077    6.462    0.000    2.462 
#    0.000    0.000    6.769    0.000    0.000    0.000 
#    0.000    0.000    0.000    0.000    0.000    0.000 
#
# Total GULP energy -322331.155378 kJ/mol
# GULP energy per Si atom -12397.352130 kJ/mol
# Density = 2.147278 g / cm^3
# Si number density = 21.521765 Si / 1000 Ang^3
#
#
#
# Elastic Constant Matrix: (Units=GPa)
#
#
# Indices 1 2 3 4 5 6 
#
# 1 26.2615 78.5277 58.1479 0.0000 9.6551 0.0000
# 2 78.5277 95.9117 16.6352 0.0000 1.6685 0.0000
# 3 58.1479 16.6352 86.3456 0.0000 -1.1905 0.0000
# 4 0.0000 0.0000 0.0000 43.7949 0.0000 -5.1755
# 5 9.6551 1.6685 -1.1905 0.0000 25.4547 0.0000
# 6 0.0000 0.0000 0.0000 -5.1755 0.0000 27.9405
#
#
#
# Elastic Compliance Matrix: (Units=1/GPa)
#
#
# Indices 1 2 3 4 5 6 
#
# 1 -0.015376 0.011054 0.008301 0.000000 0.005496 0.000000
# 2 0.011054 0.002856 -0.008060 0.000000 -0.004757 0.000000
# 3 0.008301 -0.008060 0.007513 0.000000 -0.002269 0.000000
# 4 0.000000 0.000000 0.000000 0.023345 0.000000 0.004324
# 5 0.005496 -0.004757 -0.002269 0.000000 0.037406 0.000000
# 6 0.000000 0.000000 0.000000 0.004324 0.000000 0.036591
#
#
# Mechanical properties :
#
#
# Convention : Reuss Voigt Hill
#
# Bulk Modulus (GPa) = 56.87341 57.23783 57.05562
# Shear Modulus (GPa) = 66.13233 23.11856 44.62545
#
# Velocity S-wave (km/s) = 5.54931 3.28105 4.55851
# Velocity P-wave (km/s) = 8.21846 6.40365 7.36715
#
# Compressibility (1/GPa) = 0.01758291
#
# Stress axis : x y z
#
# Youngs Moduli (GPa) = -65.03453 350.08565 133.10793
#
# Poissons Ratio (x) = -3.86988 -1.10494
# Poissons Ratio (y) = 0.71890 1.07286
# Poissons Ratio (z) = 0.53986 2.82172
#
# Static dielectric constant tensor:
#      x y z
#    x 3.672410 0.000000 -0.033880 
#    y 0.000000 4.266000 0.000000 
#    z -0.033880 0.000000 4.504680 
# 
# 
# High freq. dielectric constant tensor:
#      x y z
#    x 1.811870 0.000000 0.006750 
#    y 0.000000 1.851380 0.000000 
#    z 0.006750 0.000000 1.871730 
# 
# From -- ./inp_files/13361.got.cif
#   From: 2010.06.25/outbox.cif.g09.slc.cpg/sg15_7_cif.got.tgz:13361.got - 2010.06.28 07:06:18.
