data_PCOD8141259
_publ_section_title
;
Structure prediction by ZEFSAII (Michael W. Deem and Ramdas Pophale) SiO2 
 PCOD8141259
Probable space group: C 2/C
;
_chemical_formula_sum "Si O2"
_cell_formula_units_Z 48
_cell_length_a 15.979835
_cell_length_b 29.848862
_cell_length_c 16.115570
_cell_angle_alpha 90.000000
_cell_angle_beta 162.352185
_cell_angle_gamma 90.000000
_cell_volume 2330.371499
_symmetry_space_group_name_H-M "C 2/C"
_symmetry_group_IT_number 15
_symmetry_cell_setting 'monoclinic'
loop_
_space_group_symop_operation_xyz
x,y,z
-x,y,1/2-z
-x,-y,-z
x,-y,1/2+z
1/2+x,1/2+y,z
1/2-x,1/2+y,1/2-z
1/2-x,1/2-y,-z
1/2+x,1/2-y,1/2+z
loop_
_atom_site_type_symbol
_atom_site_label
_atom_site_fract_x
_atom_site_fract_y
_atom_site_fract_z
Si Si1 0.790881 0.474243 0.983667
Si Si2 0.640323 0.602410 0.222210
Si Si3 0.704758 0.675217 0.509456
Si Si4 0.296144 0.279985 0.319603
Si Si5 0.205071 0.425805 0.012614
Si Si6 0.714603 0.123996 0.692391
O O1 0.500000 0.480000 0.750000
O O2 0.759455 0.443285 0.873407
O O3 0.890555 0.523963 0.050466
O O4 0.000000 0.453620 0.250000
O O5 0.913222 0.628551 0.449905
O O6 0.467177 0.631061 0.125300
O O7 0.429493 0.592490 0.946880
O O8 0.758104 0.708884 0.635079
O O9 0.000000 0.660827 0.750000
O O10 0.500000 0.699434 0.250000
O O11 0.557132 0.248955 0.554330
O O12 0.339024 0.325900 0.309158
O O13 0.500000 0.425384 0.250000
O O14 0.188307 0.394022 0.075593
O O15 0.000000 0.406130 0.750000
#
# Coordination Sequence:
#
# PCOD8141259 Si02
#       6
#     8   8   8   8   8   8
#     4  10  21  36  56  85 122 160 194 231 275 326
#     4  11  22  36  57  87 122 159 197 233 275 328
#     4  11  22  36  55  82 118 158 198 234 269 321
#     4  11  23  39  57  81 113 150 190 236 292 341
#     4  10  22  41  64  88 114 148 189 237 297 354
#     4  11  23  40  62  86 114 151 193 240 293 348
#
# _framework density 20.597574999999999
#
# number of rings (size 3 to 8) (size 9 to 14) (size 15 to 20)
#    0.000    1.333    0.000    7.500    0.000    6.000 
#    0.000    0.000    0.000    3.000    0.000    0.000 
#    0.000    0.000    0.000    0.000    0.000    0.000 
#
# Total GULP energy -297576.565009 kJ/mol
# GULP energy per Si atom -12399.023542 kJ/mol
# Density = 2.055069 g / cm^3
# Si number density = 20.597575 Si / 1000 Ang^3
#
#
#
# Elastic Constant Matrix: (Units=GPa)
#
#
# Indices 1 2 3 4 5 6 
#
# 1 73.7831 55.2808 51.1060 0.0177 -17.8519 -0.0154
# 2 55.2808 104.8812 52.1252 0.0329 -19.0342 -0.0071
# 3 51.1060 52.1252 178.5304 0.0677 -17.1488 -0.0675
# 4 0.0177 0.0329 0.0677 34.5204 0.0036 -4.7276
# 5 -17.8519 -19.0342 -17.1488 0.0036 39.8680 -0.0276
# 6 -0.0154 -0.0071 -0.0675 -4.7276 -0.0276 21.9034
#
#
#
# Elastic Compliance Matrix: (Units=1/GPa)
#
#
# Indices 1 2 3 4 5 6 
#
# 1 0.025147 -0.010595 -0.003661 0.000005 0.004627 0.000010
# 2 -0.010595 0.016297 -0.001495 -0.000008 0.002393 -0.000006
# 3 -0.003661 -0.001495 0.007155 -0.000008 0.000725 0.000018
# 4 0.000005 -0.000008 -0.000008 0.029851 -0.000003 0.006443
# 5 0.004627 0.002393 0.000725 -0.000003 0.028609 0.000042
# 6 0.000010 -0.000006 0.000018 0.006443 0.000042 0.047046
#
#
# Mechanical properties :
#
#
# Convention : Reuss Voigt Hill
#
# Bulk Modulus (GPa) = 58.49171 74.91317 66.70244
# Shear Modulus (GPa) = 26.13633 32.50388 29.32011
#
# Velocity S-wave (km/s) = 3.56603 3.97677 3.77699
# Velocity P-wave (km/s) = 6.73903 7.58519 7.17459
#
# Compressibility (1/GPa) = 0.01709644
#
# Stress axis : x y z
#
# Youngs Moduli (GPa) = 39.76691 61.36260 139.75585
#
# Poissons Ratio (x) = 0.65015 0.51158
# Poissons Ratio (y) = 0.42134 0.20896
# Poissons Ratio (z) = 0.14557 0.09175
#
# Static dielectric constant tensor:
#      x y z
#    x 3.357910 -0.000030 -0.083970 
#    y -0.000030 3.704760 -0.000130 
#    z -0.083970 -0.000130 4.136090 
# 
# 
# High freq. dielectric constant tensor:
#      x y z
#    x 1.770200 0.000000 -0.001850 
#    y 0.000000 1.793770 0.000000 
#    z -0.001850 0.000000 1.840040 
# 
# From -- ./inp_files/157700.got.cif
#   From: 2010.06.25/outbox.cif.g09.slc.cpg/sg15_79_cif.got.tgz:157700.got - 2010.06.28 07:06:18.
