data_PCOD8141245
_publ_section_title
;
Structure prediction by ZEFSAII (Michael W. Deem and Ramdas Pophale) SiO2 
 PCOD8141245
Probable space group: C 2/C
;
_chemical_formula_sum "Si O2"
_cell_formula_units_Z 48
_cell_length_a 8.825951
_cell_length_b 8.682450
_cell_length_c 27.750186
_cell_angle_alpha 90.000000
_cell_angle_beta 94.681233
_cell_angle_gamma 90.000000
_cell_volume 2119.427416
_symmetry_space_group_name_H-M "C 2/C"
_symmetry_group_IT_number 15
_symmetry_cell_setting 'monoclinic'
loop_
_space_group_symop_operation_xyz
x,y,z
-x,y,1/2-z
-x,-y,-z
x,-y,1/2+z
1/2+x,1/2+y,z
1/2-x,1/2+y,1/2-z
1/2-x,1/2-y,-z
1/2+x,1/2-y,1/2+z
loop_
_atom_site_type_symbol
_atom_site_label
_atom_site_fract_x
_atom_site_fract_y
_atom_site_fract_z
Si Si1 0.323395 0.514233 0.487036
Si Si2 0.364955 0.329548 0.846691
Si Si3 0.323170 0.968499 0.738059
Si Si4 0.121191 0.151126 0.599061
Si Si5 0.688906 0.719512 0.313412
Si Si6 0.775566 0.187315 0.571656
O O1 0.500000 0.500000 0.500000
O O2 0.283524 0.372565 0.449462
O O3 0.287594 0.672455 0.460258
O O4 0.247713 0.528833 0.539086
O O5 0.228658 0.353749 0.805638
O O6 0.398767 0.484292 0.877064
O O7 0.511807 0.279017 0.820812
O O8 0.315639 0.187107 0.880238
O O9 0.500000 0.942516 0.750000
O O10 0.236721 0.934545 0.786237
O O11 0.277405 0.140422 0.721943
O O12 0.215395 0.267747 0.634758
O O13 0.954110 0.218504 0.585753
#
# Coordination Sequence:
#
# PCOD8141245 Si02
#       6
#     8   8   8   8   8   8
#     4   8  15  30  57  88 115 151 195 234 280 341
#     4  10  21  36  55  83 114 147 190 240 290 345
#     4  11  23  39  59  82 111 151 194 241 297 356
#     4   9  19  35  57  84 116 154 192 234 286 345
#     4  11  24  40  59  85 117 150 196 247 296 353
#     4   9  16  32  58  83 115 155 190 232 288 342
#
# _framework density 22.647628000000001
#
# number of rings (size 3 to 8) (size 9 to 14) (size 15 to 20)
#    0.000    2.333    0.000    2.500    0.000    5.333 
#    0.000    0.833    0.000   34.000    0.000    0.000 
#    0.000    0.000    0.000    0.000    0.000    0.000 
#
# Total GULP energy -297328.341851 kJ/mol
# GULP energy per Si atom -12388.680910 kJ/mol
# Density = 2.259608 g / cm^3
# Si number density = 22.647628 Si / 1000 Ang^3
#
#
#
# Elastic Constant Matrix: (Units=GPa)
#
#
# Indices 1 2 3 4 5 6 
#
# 1 107.2844 17.0922 41.2316 0.0000 13.2597 0.0000
# 2 17.0922 19.9192 13.1691 0.0000 13.0806 0.0000
# 3 41.2316 13.1691 85.9865 0.0000 21.2727 0.0000
# 4 0.0000 0.0000 0.0000 27.5746 0.0000 1.1947
# 5 13.2597 13.0806 21.2727 0.0000 42.7224 0.0000
# 6 0.0000 0.0000 0.0000 1.1947 0.0000 29.5806
#
#
#
# Elastic Compliance Matrix: (Units=1/GPa)
#
#
# Indices 1 2 3 4 5 6 
#
# 1 0.012381 -0.008058 -0.004975 0.000000 0.001102 0.000000
# 2 -0.008058 0.070490 -0.002522 0.000000 -0.017826 0.000000
# 3 -0.004975 -0.002522 0.015771 0.000000 -0.005537 0.000000
# 4 0.000000 0.000000 0.000000 0.036329 0.000000 -0.001467
# 5 0.001102 -0.017826 -0.005537 0.000000 0.031280 0.000000
# 6 0.000000 0.000000 0.000000 -0.001467 0.000000 0.033865
#
#
# Mechanical properties :
#
#
# Convention : Reuss Voigt Hill
#
# Bulk Modulus (GPa) = 14.80773 39.57510 27.19142
# Shear Modulus (GPa) = 19.70546 29.42200 24.56373
#
# Velocity S-wave (km/s) = 2.95293 3.60824 3.29691
# Velocity P-wave (km/s) = 4.26367 5.90520 5.15026
#
# Compressibility (1/GPa) = 0.06753231
#
# Stress axis : x y z
#
# Youngs Moduli (GPa) = 80.77114 14.18636 63.40593
#
# Poissons Ratio (x) = 0.11431 0.31546
# Poissons Ratio (y) = 0.65085 0.15991
# Poissons Ratio (z) = 0.40185 0.03578
#
# Static dielectric constant tensor:
#      x y z
#    x 3.898390 0.000000 0.016120 
#    y 0.000000 3.877750 0.000000 
#    z 0.016120 0.000000 5.088690 
# 
# 
# High freq. dielectric constant tensor:
#      x y z
#    x 1.878170 0.000000 0.015640 
#    y 0.000000 1.865300 0.000000 
#    z 0.015640 0.000000 1.930000 
# 
# From -- ./inp_files/306656.got.cif
#   From: 2010.06.25/outbox.cif.g09.slc.cpg/sg15_154_cif.got.tgz:306656.got - 2010.06.28 07:06:18.
