data_PCOD8141237
_publ_section_title
;
Structure prediction by ZEFSAII (Michael W. Deem and Ramdas Pophale) SiO2 
 PCOD8141237
Probable space group: C 2/C
;
_chemical_formula_sum "Si O2"
_cell_formula_units_Z 64
_cell_length_a 20.630181
_cell_length_b 17.441556
_cell_length_c 8.875400
_cell_angle_alpha 90.000000
_cell_angle_beta 91.285155
_cell_angle_gamma 90.000000
_cell_volume 3192.764907
_symmetry_space_group_name_H-M "C 2/C"
_symmetry_group_IT_number 15
_symmetry_cell_setting 'monoclinic'
loop_
_space_group_symop_operation_xyz
x,y,z
-x,y,1/2-z
-x,-y,-z
x,-y,1/2+z
1/2+x,1/2+y,z
1/2-x,1/2+y,1/2-z
1/2-x,1/2-y,-z
1/2+x,1/2-y,1/2+z
loop_
_atom_site_type_symbol
_atom_site_label
_atom_site_fract_x
_atom_site_fract_y
_atom_site_fract_z
Si Si1 0.054882 0.945030 0.938930
Si Si2 0.575420 0.021840 0.249932
Si Si3 0.432495 0.184821 0.333519
Si Si4 0.506604 0.278404 0.915368
Si Si5 0.142667 0.588516 0.543022
Si Si6 0.293444 0.596278 0.529963
Si Si7 0.625994 0.254626 0.446509
Si Si8 0.859537 0.011384 0.803092
O O1 0.112701 0.934722 0.063387
O O2 0.033588 0.861916 0.892457
O O3 0.079291 0.980683 0.785098
O O4 0.000000 0.000000 0.000000
O O5 0.500000 0.996482 0.250000
O O6 0.586711 0.095829 0.141078
O O7 0.597941 0.048104 0.416019
O O8 0.620280 0.951280 0.197503
O O9 0.500000 0.185087 0.250000
O O10 0.441600 0.225928 0.493585
O O11 0.378788 0.229114 0.229500
O O12 0.500000 0.240067 0.750000
O O13 0.440581 0.293319 0.003812
O O14 0.217927 0.579541 0.511648
O O15 0.132061 0.679764 0.552300
O O16 0.314233 0.686141 0.531202
O O17 0.314290 0.559626 0.689709
O O18 0.322906 0.558841 0.381378
#
# Coordination Sequence:
#
# PCOD8141237 Si02
#       8
#     8   8   8   8   8   8   8   8
#     4  11  20  33  52  82 115 150 190 233 279 328
#     4  10  21  40  61  85 111 136 177 233 288 342
#     4   8  18  35  54  78 110 148 182 220 281 338
#     4  11  20  32  52  82 113 143 183 233 281 329
#     4  11  23  38  61  85 108 145 185 228 280 335
#     4  11  21  39  56  80 113 150 193 229 264 329
#     4  10  21  36  55  79 112 150 185 225 275 331
#     4  10  22  35  55  79 112 154 189 227 274 318
#
# _framework density 20.045323
#
# number of rings (size 3 to 8) (size 9 to 14) (size 15 to 20)
#    0.000    1.750    0.000    6.375    0.000    3.500 
#    0.000    0.000    0.000    0.000    0.000   15.750 
#    0.000    0.000    0.000    0.000    0.000    0.000 
#
# Total GULP energy -396707.706728 kJ/mol
# GULP energy per Si atom -12397.115835 kJ/mol
# Density = 1.999970 g / cm^3
# Si number density = 20.045323 Si / 1000 Ang^3
#
#
#
# Elastic Constant Matrix: (Units=GPa)
#
#
# Indices 1 2 3 4 5 6 
#
# 1 95.6676 25.6802 13.4018 0.0000 -6.8115 0.0000
# 2 25.6802 105.3584 34.8504 0.0000 2.0188 0.0000
# 3 13.4018 34.8504 79.9609 0.0000 -1.7633 0.0000
# 4 0.0000 0.0000 0.0000 21.3461 0.0000 -0.7254
# 5 -6.8115 2.0188 -1.7633 0.0000 20.4980 0.0000
# 6 0.0000 0.0000 0.0000 -0.7254 0.0000 23.6325
#
#
#
# Elastic Compliance Matrix: (Units=1/GPa)
#
#
# Indices 1 2 3 4 5 6 
#
# 1 0.011552 -0.002667 -0.000685 0.000000 0.004043 0.000000
# 2 -0.002667 0.011753 -0.004729 0.000000 -0.002451 0.000000
# 3 -0.000685 -0.004729 0.014715 0.000000 0.001504 0.000000
# 4 0.000000 0.000000 0.000000 0.046896 0.000000 0.001439
# 5 0.004043 -0.002451 0.001504 0.000000 0.050499 0.000000
# 6 0.000000 0.000000 0.000000 0.001439 0.000000 0.042359
#
#
# Mechanical properties :
#
#
# Convention : Reuss Voigt Hill
#
# Bulk Modulus (GPa) = 45.74864 47.65019 46.69942
# Shear Modulus (GPa) = 24.84807 26.89895 25.87351
#
# Velocity S-wave (km/s) = 3.52461 3.66718 3.59660
# Velocity P-wave (km/s) = 6.27980 6.46171 6.37141
#
# Compressibility (1/GPa) = 0.02185857
#
# Stress axis : x y z
#
# Youngs Moduli (GPa) = 86.56153 85.08630 67.95627
#
# Poissons Ratio (x) = 0.22691 0.04654
# Poissons Ratio (y) = 0.23084 0.32139
# Poissons Ratio (z) = 0.05928 0.40241
#
# Static dielectric constant tensor:
#      x y z
#    x 3.504550 0.000000 0.200390 
#    y 0.000000 3.643730 0.000000 
#    z 0.200390 0.000000 3.690620 
# 
# 
# High freq. dielectric constant tensor:
#      x y z
#    x 1.767860 0.000000 0.015390 
#    y 0.000000 1.787060 0.000000 
#    z 0.015390 0.000000 1.784010 
# 
# From -- ./inp_files/56622.got.cif
#   From: 2010.06.25/outbox.cif.g09.slc.cpg/sg15_29_cif.got.tgz:56622.got - 2010.06.28 07:06:18.
