data_PCOD8141560
_publ_section_title
;
Structure prediction by ZEFSAII (Michael W. Deem and Ramdas Pophale) SiO2 
 PCOD8141560
Probable space group: C 2/C
;
_chemical_formula_sum "Si O2"
_cell_formula_units_Z 56
_cell_length_a 16.762074
_cell_length_b 9.025709
_cell_length_c 21.380703
_cell_angle_alpha 90.000000
_cell_angle_beta 58.857143
_cell_angle_gamma 90.000000
_cell_volume 2768.497804
_symmetry_space_group_name_H-M "C 2/C"
_symmetry_group_IT_number 15
_symmetry_cell_setting 'monoclinic'
loop_
_space_group_symop_operation_xyz
x,y,z
-x,y,1/2-z
-x,-y,-z
x,-y,1/2+z
1/2+x,1/2+y,z
1/2-x,1/2+y,1/2-z
1/2-x,1/2-y,-z
1/2+x,1/2-y,1/2+z
loop_
_atom_site_type_symbol
_atom_site_label
_atom_site_fract_x
_atom_site_fract_y
_atom_site_fract_z
Si Si1 0.560718 0.967300 0.412833
Si Si2 0.137103 0.916109 0.446134
Si Si3 0.048787 0.500268 0.165327
Si Si4 0.773397 0.414936 0.970328
Si Si5 0.039163 0.132760 0.410333
Si Si6 0.566232 0.348190 0.668231
Si Si7 0.223739 0.603099 0.410830
O O1 0.581167 0.796182 0.389367
O O2 0.500000 0.000000 0.500000
O O3 0.515402 0.037833 0.368855
O O4 0.663974 0.035110 0.378563
O O5 0.207199 0.779015 0.414646
O O6 0.033860 0.857970 0.502998
O O7 0.176652 0.023366 0.483320
O O8 0.122802 0.014483 0.388821
O O9 0.146237 0.587065 0.115583
O O10 0.074453 0.327757 0.158368
O O11 0.000000 0.552396 0.250000
O O12 0.750000 0.250000 0.000000
O O13 0.809444 0.522931 0.011609
O O14 0.980821 0.082921 0.373856
O O15 0.500000 0.398720 0.750000
O O16 0.666228 0.422178 0.641169
#
# Coordination Sequence:
#
# PCOD8141560 Si02
#       7
#     8   8   8   8   8   8   8
#     4  11  20  36  65  95 127 163 214 268 318 384
#     4  11  21  35  64  91 123 158 213 268 314 378
#     4  10  22  41  65  92 133 174 209 263 336 392
#     4  12  23  37  66  96 127 165 222 273 324 386
#     4  10  21  37  58  92 125 159 207 265 321 379
#     4  10  21  42  64  87 126 174 213 264 331 392
#     4  12  21  39  65  93 122 166 220 270 315 386
#
# _framework density 20.227577
#
# number of rings (size 3 to 8) (size 9 to 14) (size 15 to 20)
#    0.000    1.143    5.714    2.143    0.000    0.000 
#    2.571    0.714    0.000    0.000    0.000    0.000 
#    0.000    0.000    0.000    0.000    0.000    0.000 
#
# Total GULP energy -347072.881535 kJ/mol
# GULP energy per Si atom -12395.460055 kJ/mol
# Density = 2.018154 g / cm^3
# Si number density = 20.227577 Si / 1000 Ang^3
#
#
#
# Elastic Constant Matrix: (Units=GPa)
#
#
# Indices 1 2 3 4 5 6 
#
# 1 136.9679 52.3105 39.9132 0.0000 11.8559 0.0000
# 2 52.3105 95.1129 25.3339 0.0000 -1.3558 0.0001
# 3 39.9132 25.3339 106.3430 0.0000 1.6142 0.0000
# 4 0.0000 0.0000 0.0000 18.2781 0.0000 -0.0834
# 5 11.8559 -1.3558 1.6142 0.0000 24.4102 0.0000
# 6 0.0000 0.0001 0.0000 -0.0834 0.0000 43.7355
#
#
#
# Elastic Compliance Matrix: (Units=1/GPa)
#
#
# Indices 1 2 3 4 5 6 
#
# 1 0.010480 -0.005137 -0.002631 0.000000 -0.005201 0.000000
# 2 -0.005137 0.013760 -0.001401 0.000000 0.003352 0.000000
# 3 -0.002631 -0.001401 0.010717 0.000000 0.000491 0.000000
# 4 0.000000 0.000000 0.000000 0.054711 0.000000 0.000104
# 5 -0.005201 0.003352 0.000491 0.000000 0.043646 0.000000
# 6 0.000000 0.000000 0.000000 0.000104 0.000000 0.022865
#
#
# Mechanical properties :
#
#
# Convention : Reuss Voigt Hill
#
# Bulk Modulus (GPa) = 60.16890 63.72655 61.94773
# Shear Modulus (GPa) = 27.76916 32.00919 29.88918
#
# Velocity S-wave (km/s) = 3.70920 3.98232 3.84818
# Velocity P-wave (km/s) = 6.93936 7.26074 7.10187
#
# Compressibility (1/GPa) = 0.01661988
#
# Stress axis : x y z
#
# Youngs Moduli (GPa) = 95.42233 72.67407 93.30890
#
# Poissons Ratio (x) = 0.37334 0.24545
# Poissons Ratio (y) = 0.49020 0.13071
# Poissons Ratio (z) = 0.25101 0.10180
#
# Static dielectric constant tensor:
#      x y z
#    x 3.910220 0.000000 0.140370 
#    y 0.000000 3.608080 0.000000 
#    z 0.140370 0.000000 3.460670 
# 
# 
# High freq. dielectric constant tensor:
#      x y z
#    x 1.812720 0.000000 0.002990 
#    y 0.000000 1.779060 0.000000 
#    z 0.002990 0.000000 1.752950 
# 
# From -- ./inp_files/276232.got.cif
#   From: 2010.06.25/outbox.cif.g09.slc.cpg/sg15_139_cif.got.tgz:276232.got - 2010.06.28 07:06:18.
