data_PCOD8141983
_publ_section_title
;
Structure prediction by ZEFSAII (Michael W. Deem and Ramdas Pophale) SiO2 
 PCOD8141983
Probable space group: C 2/C
;
_chemical_formula_sum "Si O2"
_cell_formula_units_Z 32
_cell_length_a 23.937316
_cell_length_b 9.062068
_cell_length_c 14.258343
_cell_angle_alpha 90.000000
_cell_angle_beta 155.272755
_cell_angle_gamma 90.000000
_cell_volume 1293.774810
_symmetry_space_group_name_H-M "C 2/C"
_symmetry_group_IT_number 15
_symmetry_cell_setting 'monoclinic'
loop_
_space_group_symop_operation_xyz
x,y,z
-x,y,1/2-z
-x,-y,-z
x,-y,1/2+z
1/2+x,1/2+y,z
1/2-x,1/2+y,1/2-z
1/2-x,1/2-y,-z
1/2+x,1/2-y,1/2+z
loop_
_atom_site_type_symbol
_atom_site_label
_atom_site_fract_x
_atom_site_fract_y
_atom_site_fract_z
Si Si1 0.576107 0.330692 0.145966
Si Si2 0.630703 0.834211 0.910302
Si Si3 0.159609 0.067616 0.094742
Si Si4 0.899414 0.253154 0.015231
O O1 0.607297 0.196265 0.264752
O O2 0.722984 0.410066 0.350656
O O3 0.464230 0.439774 0.018568
O O4 0.526704 0.256772 0.973438
O O5 0.500000 0.925130 0.750000
O O6 0.629170 0.678602 0.964046
O O7 0.292322 0.115781 0.351599
O O8 0.173823 0.903543 0.074215
O O9 0.000000 0.294119 0.250000
#
# Coordination Sequence:
#
# PCOD8141983 Si02
#       4
#     8   8   8   8
#     4   9  17  33  59  85 116 160 198 240 301 355
#     4   8  15  31  56  88 118 150 197 246 292 352
#     4  10  21  38  60  87 120 158 201 247 299 356
#     4  11  23  40  60  88 122 159 201 249 298 354
#
# _framework density 24.733825
#
# number of rings (size 3 to 8) (size 9 to 14) (size 15 to 20)
#    0.000    2.500    0.000    3.000    0.000    1.000 
#    0.000   18.750    0.000    3.000    0.000    0.000 
#    0.000    0.000    0.000    0.000    0.000    0.000 
#
# Total GULP energy -198305.324028 kJ/mol
# GULP energy per Si atom -12394.082752 kJ/mol
# Density = 2.467753 g / cm^3
# Si number density = 24.733825 Si / 1000 Ang^3
#
#
#
# Elastic Constant Matrix: (Units=GPa)
#
#
# Indices 1 2 3 4 5 6 
#
# 1 138.7872 11.0332 57.3761 0.0000 -10.1648 0.0000
# 2 11.0332 59.6672 21.9394 0.0000 6.4132 0.0000
# 3 57.3761 21.9394 184.7312 0.0000 -5.2144 0.0000
# 4 0.0000 0.0000 0.0000 23.7780 0.0000 6.4863
# 5 -10.1648 6.4132 -5.2144 0.0000 60.8998 0.0000
# 6 0.0000 0.0000 0.0000 6.4863 0.0000 17.1754
#
#
#
# Elastic Compliance Matrix: (Units=1/GPa)
#
#
# Indices 1 2 3 4 5 6 
#
# 1 0.008383 -0.000776 -0.002476 0.000000 0.001269 0.000000
# 2 -0.000776 0.017850 -0.001940 0.000000 -0.002175 0.000000
# 3 -0.002476 -0.001940 0.006422 0.000000 0.000341 0.000000
# 4 0.000000 0.000000 0.000000 0.046886 0.000000 -0.017706
# 5 0.001269 -0.002175 0.000341 0.000000 0.016891 0.000000
# 6 0.000000 0.000000 0.000000 -0.017706 0.000000 0.064909
#
#
# Mechanical properties :
#
#
# Convention : Reuss Voigt Hill
#
# Bulk Modulus (GPa) = 44.90058 62.65370 53.77714
# Shear Modulus (GPa) = 27.90948 39.89310 33.90129
#
# Velocity S-wave (km/s) = 3.36280 4.02044 3.70624
# Velocity P-wave (km/s) = 5.76809 6.85114 6.33281
#
# Compressibility (1/GPa) = 0.02227143
#
# Stress axis : x y z
#
# Youngs Moduli (GPa) = 119.28239 56.02108 155.70724
#
# Poissons Ratio (x) = 0.04349 0.38550
# Poissons Ratio (y) = 0.09259 0.30212
# Poissons Ratio (z) = 0.29532 0.10870
#
# Static dielectric constant tensor:
#      x y z
#    x 4.798420 0.000000 0.195350 
#    y 0.000000 3.878480 0.000000 
#    z 0.195350 0.000000 4.933670 
# 
# 
# High freq. dielectric constant tensor:
#      x y z
#    x 1.997260 0.000000 -0.011310 
#    y 0.000000 1.954310 0.000000 
#    z -0.011310 0.000000 2.000320 
# 
# From -- ./inp_files/224347.got.cif
#   From: 2010.06.25/outbox.cif.g09.slc.cpg/sg15_113_cif.got.tgz:224347.got - 2010.06.28 07:06:18.
