data_PCOD8141706
_publ_section_title
;
Structure prediction by ZEFSAII (Michael W. Deem and Ramdas Pophale) SiO2 
 PCOD8141706
Probable space group: C 2/C
;
_chemical_formula_sum "Si O2"
_cell_formula_units_Z 48
_cell_length_a 11.511570
_cell_length_b 13.361338
_cell_length_c 27.415530
_cell_angle_alpha 90.000000
_cell_angle_beta 33.992972
_cell_angle_gamma 90.000000
_cell_volume 2357.565775
_symmetry_space_group_name_H-M "C 2/C"
_symmetry_group_IT_number 15
_symmetry_cell_setting 'monoclinic'
loop_
_space_group_symop_operation_xyz
x,y,z
-x,y,1/2-z
-x,-y,-z
x,-y,1/2+z
1/2+x,1/2+y,z
1/2-x,1/2+y,1/2-z
1/2-x,1/2-y,-z
1/2+x,1/2-y,1/2+z
loop_
_atom_site_type_symbol
_atom_site_label
_atom_site_fract_x
_atom_site_fract_y
_atom_site_fract_z
Si Si1 0.578147 0.782618 0.494012
Si Si2 0.681429 0.408446 0.013960
Si Si3 0.189695 0.903802 0.653464
Si Si4 0.002250 0.735688 0.588504
Si Si5 0.081555 0.944934 0.840689
Si Si6 0.914726 0.475658 0.152798
O O1 0.607172 0.668376 0.498994
O O2 0.750018 0.852401 0.460059
O O3 0.350683 0.814602 0.590872
O O4 0.594128 0.790869 0.430407
O O5 0.485966 0.480059 0.092961
O O6 0.862856 0.472237 0.926226
O O7 0.000000 0.856438 0.750000
O O8 0.113383 0.945153 0.628387
O O9 0.287394 0.997216 0.648326
O O10 0.250000 0.750000 0.500000
O O11 0.886264 0.833253 0.649864
O O12 0.945907 0.643843 0.644046
O O13 0.293503 0.984169 0.742551
#
# Coordination Sequence:
#
# PCOD8141706 Si02
#       6
#     8   8   8   8   8   8
#     4  10  21  37  62  89 120 161 200 248 304 356
#     4  10  21  40  60  88 126 162 198 252 301 357
#     4   9  18  35  59  89 117 158 209 256 290 346
#     4  12  22  39  64  89 120 161 204 251 296 363
#     4  11  22  38  62  91 121 160 203 250 307 356
#     4  10  22  39  61  88 123 158 208 251 296 360
#
# _framework density 20.359981999999999
#
# number of rings (size 3 to 8) (size 9 to 14) (size 15 to 20)
#    0.000    1.667    3.333    1.000    0.000    8.667 
#    0.000    2.500    0.000    0.000    0.000    0.000 
#    0.000    0.000    0.000    0.000    0.000    0.000 
#
# Total GULP energy -297657.918788 kJ/mol
# GULP energy per Si atom -12402.413283 kJ/mol
# Density = 2.031364 g / cm^3
# Si number density = 20.359982 Si / 1000 Ang^3
#
#
#
# Elastic Constant Matrix: (Units=GPa)
#
#
# Indices 1 2 3 4 5 6 
#
# 1 34.1506 16.4008 20.1689 -0.0006 1.6936 0.0000
# 2 16.4008 168.1547 78.2194 -0.0002 5.4820 0.0001
# 3 20.1689 78.2194 119.1035 -0.0017 9.0855 -0.0009
# 4 -0.0006 -0.0002 -0.0017 39.1377 -0.0016 6.0012
# 5 1.6936 5.4820 9.0855 -0.0016 12.6252 -0.0001
# 6 0.0000 0.0001 -0.0009 6.0012 -0.0001 23.1063
#
#
#
# Elastic Compliance Matrix: (Units=1/GPa)
#
#
# Indices 1 2 3 4 5 6 
#
# 1 0.032629 -0.000883 -0.004910 0.000000 -0.000460 0.000000
# 2 -0.000883 0.008588 -0.005518 0.000000 0.000360 0.000000
# 3 -0.004910 -0.005518 0.013351 0.000000 -0.006553 0.000000
# 4 0.000000 0.000000 0.000000 0.026611 0.000003 -0.006911
# 5 -0.000460 0.000360 -0.006553 0.000003 0.083828 -0.000001
# 6 0.000000 0.000000 0.000000 -0.006911 -0.000001 0.045073
#
#
# Mechanical properties :
#
#
# Convention : Reuss Voigt Hill
#
# Bulk Modulus (GPa) = 31.30346 61.22077 46.26211
# Shear Modulus (GPa) = 20.54642 28.74850 24.64746
#
# Velocity S-wave (km/s) = 3.18017 3.76175 3.48312
# Velocity P-wave (km/s) = 5.37522 7.00015 6.24080
#
# Compressibility (1/GPa) = 0.03194535
#
# Stress axis : x y z
#
# Youngs Moduli (GPa) = 30.64757 116.44038 74.89920
#
# Poissons Ratio (x) = 0.10287 0.36776
# Poissons Ratio (y) = 0.02708 0.41329
# Poissons Ratio (z) = 0.15048 0.64252
#
# Static dielectric constant tensor:
#      x y z
#    x 3.614680 0.000000 0.029170 
#    y 0.000000 3.720210 0.000000 
#    z 0.029170 0.000000 3.655470 
# 
# 
# High freq. dielectric constant tensor:
#      x y z
#    x 1.779360 0.000000 0.002130 
#    y 0.000000 1.802480 0.000000 
#    z 0.002130 0.000000 1.793390 
# 
# From -- ./inp_files/236834.got.cif
#   From: 2010.06.25/outbox.cif.g09.slc.cpg/sg15_119_cif.got.tgz:236834.got - 2010.06.28 07:06:18.
