data_PCOD8141811
_publ_section_title
;
Structure prediction by ZEFSAII (Michael W. Deem and Ramdas Pophale) SiO2 
 PCOD8141811
Probable space group: C 2/C
;
_chemical_formula_sum "Si O2"
_cell_formula_units_Z 40
_cell_length_a 13.556694
_cell_length_b 13.487023
_cell_length_c 11.757472
_cell_angle_alpha 90.000000
_cell_angle_beta 119.309149
_cell_angle_gamma 90.000000
_cell_volume 1874.545150
_symmetry_space_group_name_H-M "C 2/C"
_symmetry_group_IT_number 15
_symmetry_cell_setting 'monoclinic'
loop_
_space_group_symop_operation_xyz
x,y,z
-x,y,1/2-z
-x,-y,-z
x,-y,1/2+z
1/2+x,1/2+y,z
1/2-x,1/2+y,1/2-z
1/2-x,1/2-y,-z
1/2+x,1/2-y,1/2+z
loop_
_atom_site_type_symbol
_atom_site_label
_atom_site_fract_x
_atom_site_fract_y
_atom_site_fract_z
Si Si1 0.666640 0.158158 0.432014
Si Si2 0.429968 0.540535 0.311306
Si Si3 0.084973 0.329494 0.635685
Si Si4 0.277322 0.943946 0.950249
Si Si5 0.123499 0.871623 0.045633
O O1 0.750000 0.250000 0.500000
O O2 0.548577 0.182135 0.425643
O O3 0.645974 0.137200 0.286732
O O4 0.718896 0.060405 0.519246
O O5 0.500000 0.483909 0.250000
O O6 0.315589 0.584679 0.196421
O O7 0.392923 0.467946 0.388393
O O8 0.511574 0.629877 0.401819
O O9 0.106731 0.405782 0.542707
O O10 0.136301 0.223982 0.630175
O O11 0.241443 0.883487 0.042979
#
# Coordination Sequence:
#
# PCOD8141811 Si02
#       5
#     8   8   8   8   8
#     4  11  26  42  66  95 129 173 219 265 318 387
#     4   9  20  35  64  93 130 167 216 266 321 370
#     4  11  25  41  66  94 131 169 217 261 328 390
#     4  11  22  42  63  92 134 169 209 267 328 384
#     4  10  21  37  65  95 129 164 219 269 314 380
#
# _framework density 21.338508999999998
#
# number of rings (size 3 to 8) (size 9 to 14) (size 15 to 20)
#    0.000    1.600    0.000    3.600   14.000    0.000 
#    0.000    0.000   13.200    0.000    0.000    0.000 
#    0.000    0.000    0.000    0.000    0.000    0.000 
#
# Total GULP energy -247901.874897 kJ/mol
# GULP energy per Si atom -12395.093745 kJ/mol
# Density = 2.128994 g / cm^3
# Si number density = 21.338509 Si / 1000 Ang^3
#
#
#
# Elastic Constant Matrix: (Units=GPa)
#
#
# Indices 1 2 3 4 5 6 
#
# 1 146.8669 40.1780 42.4568 0.0000 -26.5577 0.0000
# 2 40.1780 84.9555 11.2160 0.0000 -10.2507 0.0000
# 3 42.4568 11.2160 69.4593 0.0000 -9.1851 0.0000
# 4 0.0000 0.0000 0.0000 24.8198 0.0000 -6.8406
# 5 -26.5577 -10.2507 -9.1851 0.0000 33.8682 0.0000
# 6 0.0000 0.0000 0.0000 -6.8406 0.0000 37.2206
#
#
#
# Elastic Compliance Matrix: (Units=1/GPa)
#
#
# Indices 1 2 3 4 5 6 
#
# 1 0.010206 -0.003499 -0.004932 0.000000 0.005606 0.000000
# 2 -0.003499 0.013577 0.000132 0.000000 0.001401 0.000000
# 3 -0.004932 0.000132 0.017512 0.000000 0.000922 0.000000
# 4 0.000000 0.000000 0.000000 0.042440 0.000000 0.007800
# 5 0.005606 0.001401 0.000922 0.000000 0.034596 0.000000
# 6 0.000000 0.000000 0.000000 0.007800 0.000000 0.028300
#
#
# Mechanical properties :
#
#
# Convention : Reuss Voigt Hill
#
# Bulk Modulus (GPa) = 40.49110 54.33148 47.41129
# Shear Modulus (GPa) = 29.16090 33.01044 31.08567
#
# Velocity S-wave (km/s) = 3.70075 3.93745 3.82093
# Velocity P-wave (km/s) = 6.10553 6.79620 6.46010
#
# Compressibility (1/GPa) = 0.02469679
#
# Stress axis : x y z
#
# Youngs Moduli (GPa) = 97.98610 73.65215 57.10335
#
# Poissons Ratio (x) = 0.25771 0.28162
# Poissons Ratio (y) = 0.34285 -0.00752
# Poissons Ratio (z) = 0.48324 -0.00970
#
# Static dielectric constant tensor:
#      x y z
#    x 4.226350 0.000000 -0.186600 
#    y 0.000000 3.501140 0.000000 
#    z -0.186600 0.000000 4.121400 
# 
# 
# High freq. dielectric constant tensor:
#      x y z
#    x 1.859940 0.000000 -0.018450 
#    y 0.000000 1.811790 0.000000 
#    z -0.018450 0.000000 1.839530 
# 
# From -- ./inp_files/86253.got.cif
#   From: 2010.06.25/outbox.cif.g09.slc.cpg/sg15_44_cif.got.tgz:86253.got - 2010.06.28 07:06:18.
