data_PCOD8141089
_publ_section_title
;
Structure prediction by ZEFSAII (Michael W. Deem and Ramdas Pophale) SiO2 
 PCOD8141089
Probable space group: C 2/C
;
_chemical_formula_sum "Si O2"
_cell_formula_units_Z 56
_cell_length_a 17.599706
_cell_length_b 25.845403
_cell_length_c 9.285448
_cell_angle_alpha 90.000000
_cell_angle_beta 44.155047
_cell_angle_gamma 90.000000
_cell_volume 2942.229599
_symmetry_space_group_name_H-M "C 2/C"
_symmetry_group_IT_number 15
_symmetry_cell_setting 'monoclinic'
loop_
_space_group_symop_operation_xyz
x,y,z
-x,y,1/2-z
-x,-y,-z
x,-y,1/2+z
1/2+x,1/2+y,z
1/2-x,1/2+y,1/2-z
1/2-x,1/2-y,-z
1/2+x,1/2-y,1/2+z
loop_
_atom_site_type_symbol
_atom_site_label
_atom_site_fract_x
_atom_site_fract_y
_atom_site_fract_z
Si Si1 0.786622 0.755995 0.612248
Si Si2 0.552584 0.614526 0.900163
Si Si3 0.212595 0.331313 0.946293
Si Si4 0.817470 0.066997 0.247685
Si Si5 0.000000 0.274349 0.250000
Si Si6 0.123611 0.020787 0.624494
Si Si7 0.651078 0.688005 0.968745
Si Si8 0.500000 0.698173 0.750000
O O1 0.750000 0.750000 0.500000
O O2 0.727408 0.804101 0.771946
O O3 0.758644 0.702591 0.731482
O O4 0.915731 0.764817 0.446251
O O5 0.620759 0.566760 0.744909
O O6 0.604399 0.632463 0.981665
O O7 0.565070 0.662206 0.773488
O O8 0.427385 0.600377 0.091664
O O9 0.217257 0.393295 0.911700
O O10 0.313041 0.314977 0.913643
O O11 0.096891 0.312630 0.174682
O O12 0.818326 0.027597 0.379825
O O13 0.806069 0.036746 0.111264
O O14 0.939624 0.233113 0.438717
O O15 0.000000 0.005454 0.750000
#
# Coordination Sequence:
#
# PCOD8141089 Si02
#       8
#     8   8   8   8   4   8   8   4
#     4  11  22  35  54  80 112 158 195 227 283 337
#     4  11  19  35  57  83 123 153 185 232 295 352
#     4  11  24  39  59  84 119 154 199 242 293 342
#     4  11  22  37  57  85 117 148 192 243 298 356
#     4  10  22  40  56  83 115 154 202 240 274 348
#     4  10  21  35  56  86 118 147 192 235 300 358
#     4  11  24  35  59  86 119 159 196 236 288 349
#     4  12  20  36  54  83 121 156 184 234 280 348
#
# _framework density 19.033183999999999
#
# number of rings (size 3 to 8) (size 9 to 14) (size 15 to 20)
#    0.000    1.143    5.000    4.286    6.000    0.000 
#    0.000    0.000    0.000    0.857    0.000    0.000 
#    0.000    0.000    0.000    0.000    0.000    0.000 
#
# Total GULP energy -346998.050184 kJ/mol
# GULP energy per Si atom -12392.787507 kJ/mol
# Density = 1.898986 g / cm^3
# Si number density = 19.033184 Si / 1000 Ang^3
#
#
#
# Elastic Constant Matrix: (Units=GPa)
#
#
# Indices 1 2 3 4 5 6 
#
# 1 77.6590 46.5885 35.5183 0.0000 13.5629 0.0000
# 2 46.5885 102.9005 43.1580 0.0000 7.5096 0.0000
# 3 35.5183 43.1580 78.4539 0.0000 3.6876 0.0000
# 4 0.0000 0.0000 0.0000 23.1974 0.0000 3.2805
# 5 13.5629 7.5096 3.6876 0.0000 30.6986 0.0000
# 6 0.0000 0.0000 0.0000 3.2805 0.0000 40.3978
#
#
#
# Elastic Compliance Matrix: (Units=1/GPa)
#
#
# Indices 1 2 3 4 5 6 
#
# 1 0.020406 -0.006503 -0.005342 0.000000 -0.006783 0.000000
# 2 -0.006503 0.014864 -0.005226 0.000000 -0.000135 0.000000
# 3 -0.005342 -0.005226 0.017970 0.000000 0.001480 0.000000
# 4 0.000000 0.000000 0.000000 0.043609 0.000000 -0.003541
# 5 -0.006783 -0.000135 0.001480 0.000000 0.035427 0.000000
# 6 0.000000 0.000000 0.000000 -0.003541 0.000000 0.025041
#
#
# Mechanical properties :
#
#
# Convention : Reuss Voigt Hill
#
# Bulk Modulus (GPa) = 52.36359 56.61590 54.48975
# Shear Modulus (GPa) = 25.27450 27.77531 26.52490
#
# Velocity S-wave (km/s) = 3.64801 3.82424 3.73716
# Velocity P-wave (km/s) = 6.73168 7.02212 6.87843
#
# Compressibility (1/GPa) = 0.01909724
#
# Stress axis : x y z
#
# Youngs Moduli (GPa) = 49.00481 67.27457 55.64711
#
# Poissons Ratio (x) = 0.43751 0.29727
# Poissons Ratio (y) = 0.31870 0.29084
# Poissons Ratio (z) = 0.26179 0.35161
#
# Static dielectric constant tensor:
#      x y z
#    x 3.389400 0.000000 0.047200 
#    y 0.000000 3.650070 0.000000 
#    z 0.047200 0.000000 3.671600 
# 
# 
# High freq. dielectric constant tensor:
#      x y z
#    x 1.710790 0.000000 0.024550 
#    y 0.000000 1.737940 0.000000 
#    z 0.024550 0.000000 1.733280 
# 
# From -- ./inp_files/43230.got.cif
#   From: 2010.06.25/outbox.cif.g09.slc.cpg/sg15_22_cif.got.tgz:43230.got - 2010.06.28 07:06:18.
