data_PCOD8141466
_publ_section_title
;
Structure prediction by ZEFSAII (Michael W. Deem and Ramdas Pophale) SiO2 
 PCOD8141466
Probable space group: C 2/C
;
_chemical_formula_sum "Si O2"
_cell_formula_units_Z 56
_cell_length_a 13.230815
_cell_length_b 23.006870
_cell_length_c 14.978944
_cell_angle_alpha 90.000000
_cell_angle_beta 137.779539
_cell_angle_gamma 90.000000
_cell_volume 3063.973282
_symmetry_space_group_name_H-M "C 2/C"
_symmetry_group_IT_number 15
_symmetry_cell_setting 'monoclinic'
loop_
_space_group_symop_operation_xyz
x,y,z
-x,y,1/2-z
-x,-y,-z
x,-y,1/2+z
1/2+x,1/2+y,z
1/2-x,1/2+y,1/2-z
1/2-x,1/2-y,-z
1/2+x,1/2-y,1/2+z
loop_
_atom_site_type_symbol
_atom_site_label
_atom_site_fract_x
_atom_site_fract_y
_atom_site_fract_z
Si Si1 0.239986 0.927494 0.790441
Si Si2 0.855467 0.606764 0.711741
Si Si3 0.555079 0.932827 0.037613
Si Si4 0.667752 0.501014 0.077124
Si Si5 0.293674 0.272701 0.432617
Si Si6 0.168144 0.970092 0.376999
Si Si7 0.082546 0.810613 0.708449
O O1 0.259355 0.965246 0.713122
O O2 0.120112 0.876025 0.702613
O O3 0.188125 0.967813 0.840020
O O4 0.404965 0.898395 0.910313
O O5 0.898334 0.597266 0.841184
O O6 0.719312 0.564781 0.598247
O O7 0.802429 0.670819 0.654028
O O8 0.000000 0.589010 0.750000
O O9 0.702687 0.925905 0.072466
O O10 0.500000 0.000000 0.000000
O O11 0.500000 0.500000 0.000000
O O12 0.690083 0.530281 0.996797
O O13 0.250000 0.250000 0.500000
O O14 0.238726 0.226006 0.321863
O O15 0.473934 0.284778 0.558417
O O16 0.000000 0.945965 0.250000
O O17 0.000000 0.811407 0.750000
#
# Coordination Sequence:
#
# PCOD8141466 Si02
#       7
#     8   8   8   8   8   8   8
#     4  11  22  37  56  84 121 162 202 242 300 372
#     4  12  22  35  59  83 125 161 201 248 304 376
#     4  10  21  37  51  85 118 157 204 243 303 366
#     4  12  23  35  57  84 117 162 203 242 315 370
#     4  10  23  37  55  88 117 163 211 245 309 373
#     4  11  21  36  54  79 124 155 198 249 295 365
#     4  10  22  37  57  80 122 158 203 249 304 362
#
# _framework density 18.276921999999999
#
# number of rings (size 3 to 8) (size 9 to 14) (size 15 to 20)
#    0.000    1.143    4.286    4.286   10.000    0.000 
#    0.000    0.000    0.000    0.000    0.000    1.000 
#    4.286    0.000    0.000    0.000    0.000    0.000 
#
# Total GULP energy -346916.016461 kJ/mol
# GULP energy per Si atom -12389.857731 kJ/mol
# Density = 1.823532 g / cm^3
# Si number density = 18.276922 Si / 1000 Ang^3
#
#
#
# Elastic Constant Matrix: (Units=GPa)
#
#
# Indices 1 2 3 4 5 6 
#
# 1 110.0730 17.7782 45.2584 0.0000 -0.7868 0.0000
# 2 17.7782 66.8164 17.7867 0.0000 -4.1706 0.0000
# 3 45.2584 17.7867 104.8181 0.0000 2.0318 0.0000
# 4 0.0000 0.0000 0.0000 39.8818 0.0000 7.0262
# 5 -0.7868 -4.1706 2.0318 0.0000 41.0763 0.0000
# 6 0.0000 0.0000 0.0000 7.0262 0.0000 24.1306
#
#
#
# Elastic Compliance Matrix: (Units=1/GPa)
#
#
# Indices 1 2 3 4 5 6 
#
# 1 0.011247 -0.001762 -0.004562 0.000000 0.000262 0.000000
# 2 -0.001762 0.016073 -0.002000 0.000000 0.001697 0.000000
# 3 -0.004562 -0.002000 0.011867 0.000000 -0.000877 0.000000
# 4 0.000000 0.000000 0.000000 0.026430 0.000000 -0.007696
# 5 0.000262 0.001697 -0.000877 0.000000 0.024566 0.000000
# 6 0.000000 0.000000 0.000000 -0.007696 0.000000 0.043682
#
#
# Mechanical properties :
#
#
# Convention : Reuss Voigt Hill
#
# Bulk Modulus (GPa) = 44.36662 49.26157 46.81409
# Shear Modulus (GPa) = 31.64043 34.41004 33.02523
#
# Velocity S-wave (km/s) = 4.16524 4.34372 4.25542
# Velocity P-wave (km/s) = 6.88910 7.22278 7.05792
#
# Compressibility (1/GPa) = 0.02253947
#
# Stress axis : x y z
#
# Youngs Moduli (GPa) = 88.91083 62.21460 84.26969
#
# Poissons Ratio (x) = 0.10960 0.38448
# Poissons Ratio (y) = 0.15663 0.16852
# Poissons Ratio (z) = 0.40565 0.12441
#
# Static dielectric constant tensor:
#      x y z
#    x 3.623290 0.000000 0.063480 
#    y 0.000000 3.171540 0.000000 
#    z 0.063480 0.000000 4.315460 
# 
# 
# High freq. dielectric constant tensor:
#      x y z
#    x 1.687500 0.000000 0.019370 
#    y 0.000000 1.679040 0.000000 
#    z 0.019370 0.000000 1.738520 
# 
# From -- ./inp_files/156649.got.cif
#   From: 2010.06.25/outbox.cif.g09.slc.cpg/sg15_79_cif.got.tgz:156649.got - 2010.06.28 07:06:18.
