data_PCOD8141457
_publ_section_title
;
Structure prediction by ZEFSAII (Michael W. Deem and Ramdas Pophale) SiO2 
 PCOD8141457
Probable space group: C 2/C
;
_chemical_formula_sum "Si O2"
_cell_formula_units_Z 56
_cell_length_a 20.905152
_cell_length_b 10.676642
_cell_length_c 19.535023
_cell_angle_alpha 90.000000
_cell_angle_beta 144.150161
_cell_angle_gamma 90.000000
_cell_volume 2553.581340
_symmetry_space_group_name_H-M "C 2/C"
_symmetry_group_IT_number 15
_symmetry_cell_setting 'monoclinic'
loop_
_space_group_symop_operation_xyz
x,y,z
-x,y,1/2-z
-x,-y,-z
x,-y,1/2+z
1/2+x,1/2+y,z
1/2-x,1/2+y,1/2-z
1/2-x,1/2-y,-z
1/2+x,1/2-y,1/2+z
loop_
_atom_site_type_symbol
_atom_site_label
_atom_site_fract_x
_atom_site_fract_y
_atom_site_fract_z
Si Si1 0.162309 0.085383 0.980927
Si Si2 0.652181 0.132667 0.466278
Si Si3 0.894302 0.711903 0.738118
Si Si4 0.191415 0.103016 0.628363
Si Si5 0.500000 0.427238 0.750000
Si Si6 0.025781 0.688695 0.984361
Si Si7 0.667832 0.050135 0.623395
Si Si8 0.000000 0.486136 0.250000
O O1 0.120729 0.225458 0.957576
O O2 0.069625 0.011855 0.860524
O O3 0.272699 0.106450 0.033991
O O4 0.182924 0.015575 0.070623
O O5 0.709766 0.071042 0.582556
O O6 0.536619 0.069344 0.346710
O O7 0.775247 0.706386 0.669640
O O8 0.899278 0.602379 0.685764
O O9 0.914273 0.845020 0.719569
O O10 0.992521 0.682865 0.876027
O O11 0.076346 0.173170 0.541462
O O12 0.232017 0.052603 0.736834
O O13 0.113945 0.585551 0.082151
O O14 0.917918 0.662568 0.935609
#
# Coordination Sequence:
#
# PCOD8141457 Si02
#       8
#     8   8   8   8   4   8   8   4
#     4  11  25  43  64  94 132 170 223 269 322 398
#     4  11  24  43  65  93 130 179 217 266 328 390
#     4  10  21  36  67  96 126 160 211 271 335 385
#     4  11  23  42  67  96 127 171 219 277 326 389
#     4  11  23  40  60 100 131 161 210 278 332 387
#     4  10  21  43  65  91 128 166 212 270 321 387
#     4  10  24  42  65  96 127 170 220 259 330 394
#     4  11  19  38  66  94 123 171 212 262 328 391
#
# _framework density 21.929986
#
# number of rings (size 3 to 8) (size 9 to 14) (size 15 to 20)
#    0.000    1.429    4.286    0.429    4.000    0.571 
#    5.143    0.714    0.000    0.000    0.000    0.000 
#    0.000    0.000    0.000    0.000    0.000    0.000 
#
# Total GULP energy -347165.305451 kJ/mol
# GULP energy per Si atom -12398.760909 kJ/mol
# Density = 2.188007 g / cm^3
# Si number density = 21.929986 Si / 1000 Ang^3
#
#
#
# Elastic Constant Matrix: (Units=GPa)
#
#
# Indices 1 2 3 4 5 6 
#
# 1 41.9082 22.4036 18.6951 0.0000 -20.5398 0.0000
# 2 22.4036 110.9662 55.2796 0.0000 -12.0321 0.0000
# 3 18.6951 55.2796 120.8683 0.0000 -31.4715 0.0000
# 4 0.0000 0.0000 0.0000 35.6290 0.0000 0.6418
# 5 -20.5398 -12.0321 -31.4715 0.0000 36.4386 0.0000
# 6 0.0000 0.0000 0.0000 0.6418 0.0000 27.6450
#
#
#
# Elastic Compliance Matrix: (Units=1/GPa)
#
#
# Indices 1 2 3 4 5 6 
#
# 1 0.036192 -0.006420 0.002707 0.000000 0.020619 0.000000
# 2 -0.006420 0.012836 -0.006085 0.000000 -0.004635 0.000000
# 3 0.002707 -0.006085 0.013562 0.000000 0.011230 0.000000
# 4 0.000000 0.000000 0.000000 0.028079 0.000000 -0.000652
# 5 0.020619 -0.004635 0.011230 0.000000 0.047234 0.000000
# 6 0.000000 0.000000 0.000000 -0.000652 0.000000 0.036188
#
#
# Mechanical properties :
#
#
# Convention : Reuss Voigt Hill
#
# Bulk Modulus (GPa) = 23.25886 51.83325 37.54606
# Shear Modulus (GPa) = 24.03646 31.76680 27.90163
#
# Velocity S-wave (km/s) = 3.31426 3.81012 3.57081
# Velocity P-wave (km/s) = 5.02740 6.56072 5.84456
#
# Compressibility (1/GPa) = 0.04299437
#
# Stress axis : x y z
#
# Youngs Moduli (GPa) = 27.63073 77.90294 73.73747
#
# Poissons Ratio (x) = 0.50011 -0.19960
# Poissons Ratio (y) = 0.17738 0.44868
# Poissons Ratio (z) = -0.07479 0.47402
#
# Static dielectric constant tensor:
#      x y z
#    x 3.851250 0.000000 -0.160940 
#    y 0.000000 3.949940 0.000000 
#    z -0.160940 0.000000 3.831220 
# 
# 
# High freq. dielectric constant tensor:
#      x y z
#    x 1.850040 0.000000 -0.015900 
#    y 0.000000 1.866910 0.000000 
#    z -0.015900 0.000000 1.861960 
# 
# From -- ./inp_files/122414.got.cif
#   From: 2010.06.25/outbox.cif.g09.slc.cpg/sg15_62_cif.got.tgz:122414.got - 2010.06.28 07:06:18.
