data_PCOD8141821
_publ_section_title
;
Structure prediction by ZEFSAII (Michael W. Deem and Ramdas Pophale) SiO2 
 PCOD8141821
Probable space group: C 2/C
;
_chemical_formula_sum "Si O2"
_cell_formula_units_Z 48
_cell_length_a 9.205590
_cell_length_b 18.639668
_cell_length_c 14.625152
_cell_angle_alpha 90.000000
_cell_angle_beta 71.709387
_cell_angle_gamma 90.000000
_cell_volume 2382.728701
_symmetry_space_group_name_H-M "C 2/C"
_symmetry_group_IT_number 15
_symmetry_cell_setting 'monoclinic'
loop_
_space_group_symop_operation_xyz
x,y,z
-x,y,1/2-z
-x,-y,-z
x,-y,1/2+z
1/2+x,1/2+y,z
1/2-x,1/2+y,1/2-z
1/2-x,1/2-y,-z
1/2+x,1/2-y,1/2+z
loop_
_atom_site_type_symbol
_atom_site_label
_atom_site_fract_x
_atom_site_fract_y
_atom_site_fract_z
Si Si1 0.322858 0.081068 0.767180
Si Si2 0.971556 0.704454 0.463628
Si Si3 0.152524 0.227764 0.781079
Si Si4 0.839986 0.030070 0.065575
Si Si5 0.616925 0.059867 0.948522
Si Si6 0.315758 0.684635 0.107895
O O1 0.500000 0.098753 0.750000
O O2 0.217464 0.150875 0.797671
O O3 0.312982 0.049193 0.666440
O O4 0.259673 0.024216 0.853627
O O5 0.978545 0.634854 0.527629
O O6 0.837941 0.687975 0.419561
O O7 0.949780 0.776138 0.526705
O O8 0.121934 0.722102 0.375369
O O9 0.286842 0.271095 0.705365
O O10 0.000000 0.215591 0.750000
O O11 0.864546 0.102808 0.119876
O O12 0.757254 0.055643 0.989878
O O13 0.000000 0.000000 0.000000
O O14 0.500000 0.000000 0.000000
#
# Coordination Sequence:
#
# PCOD8141821 Si02
#       6
#     8   8   8   8   8   8
#     4  12  25  42  63  93 131 172 210 262 331 388
#     4   9  18  35  62  88 116 155 208 254 309 373
#     4  10  21  37  66  91 117 162 215 267 314 374
#     4  11  25  40  65  96 128 164 219 267 314 387
#     4  11  23  42  64  91 131 171 208 262 327 382
#     4   9  18  35  57  90 118 152 201 259 309 368
#
# _framework density 20.144970000000001
#
# number of rings (size 3 to 8) (size 9 to 14) (size 15 to 20)
#    0.000    1.667    3.333    1.000    7.000    0.667 
#    0.000    2.500    0.000    0.000    0.000    0.000 
#    0.000    0.000    0.000    0.000    0.000    0.000 
#
# Total GULP energy -297469.358384 kJ/mol
# GULP energy per Si atom -12394.556599 kJ/mol
# Density = 2.009912 g / cm^3
# Si number density = 20.144970 Si / 1000 Ang^3
#
#
#
# Elastic Constant Matrix: (Units=GPa)
#
#
# Indices 1 2 3 4 5 6 
#
# 1 48.6719 31.4212 17.6374 0.0000 -5.0177 0.0000
# 2 31.4212 136.3759 32.1906 0.0000 -10.3203 0.0000
# 3 17.6374 32.1906 110.4497 0.0000 -7.2126 0.0000
# 4 0.0000 0.0000 0.0000 24.2398 0.0000 16.4555
# 5 -5.0177 -10.3203 -7.2126 0.0000 24.0115 0.0000
# 6 0.0000 0.0000 0.0000 16.4555 0.0000 -5.5549
#
#
#
# Elastic Compliance Matrix: (Units=1/GPa)
#
#
# Indices 1 2 3 4 5 6 
#
# 1 0.024868 -0.004995 -0.002362 0.000000 0.002340 0.000000
# 2 -0.004995 0.009060 -0.001690 0.000000 0.002343 0.000000
# 3 -0.002362 -0.001690 0.010041 0.000000 0.001796 0.000000
# 4 0.000000 0.000000 0.000000 0.013701 0.000000 0.040587
# 5 0.002340 0.002343 0.001796 0.000000 0.043682 0.000000
# 6 0.000000 0.000000 0.000000 0.040587 0.000000 -0.059787
#
#
# Mechanical properties :
#
#
# Convention : Reuss Voigt Hill
#
# Bulk Modulus (GPa) = 38.64897 50.88844 44.76870
# Shear Modulus (GPa) = 73.22496 22.82252 48.02374
#
# Velocity S-wave (km/s) = 6.03555 3.36953 4.88782
# Velocity P-wave (km/s) = 8.23393 6.36037 7.35703
#
# Compressibility (1/GPa) = 0.02587391
#
# Stress axis : x y z
#
# Youngs Moduli (GPa) = 40.21301 110.37988 99.59218
#
# Poissons Ratio (x) = 0.55132 0.23529
# Poissons Ratio (y) = 0.20085 0.16830
# Poissons Ratio (z) = 0.09500 0.18653
#
# Static dielectric constant tensor:
#      x y z
#    x 3.425410 0.000000 0.018060 
#    y 0.000000 4.095160 0.000000 
#    z 0.018060 0.000000 4.100950 
# 
# 
# High freq. dielectric constant tensor:
#      x y z
#    x 1.750430 0.000000 -0.014090 
#    y 0.000000 1.800890 0.000000 
#    z -0.014090 0.000000 1.801860 
# 
# From -- ./inp_files/135921.got.cif
#   From: 2010.06.25/outbox.cif.g09.slc.cpg/sg15_68_cif.got.tgz:135921.got - 2010.06.28 07:06:18.
