data_PCOD8141772
_publ_section_title
;
Structure prediction by ZEFSAII (Michael W. Deem and Ramdas Pophale) SiO2 
 PCOD8141772
Probable space group: C 2/C
;
_chemical_formula_sum "Si O2"
_cell_formula_units_Z 60
_cell_length_a 9.459452
_cell_length_b 17.250988
_cell_length_c 23.423376
_cell_angle_alpha 90.000000
_cell_angle_beta 53.876771
_cell_angle_gamma 90.000000
_cell_volume 3087.499636
_symmetry_space_group_name_H-M "C 2/C"
_symmetry_group_IT_number 15
_symmetry_cell_setting 'monoclinic'
loop_
_space_group_symop_operation_xyz
x,y,z
-x,y,1/2-z
-x,-y,-z
x,-y,1/2+z
1/2+x,1/2+y,z
1/2-x,1/2+y,1/2-z
1/2-x,1/2-y,-z
1/2+x,1/2-y,1/2+z
loop_
_atom_site_type_symbol
_atom_site_label
_atom_site_fract_x
_atom_site_fract_y
_atom_site_fract_z
Si Si1 0.005739 0.954439 0.811769
Si Si2 0.768183 0.308148 0.364508
Si Si3 0.690978 0.976228 0.971611
Si Si4 0.405628 0.727428 0.005650
Si Si5 0.832149 0.945591 0.541135
Si Si6 0.500000 0.306160 0.750000
Si Si7 0.392896 0.814158 0.455123
Si Si8 0.195987 0.478240 0.181311
O O1 0.823973 0.972420 0.887015
O O2 0.030169 0.861222 0.798274
O O3 0.000000 0.993819 0.750000
O O4 0.173425 0.984736 0.804559
O O5 0.583972 0.273541 0.427711
O O6 0.912468 0.317644 0.381503
O O7 0.738646 0.390994 0.342923
O O8 0.834385 0.248629 0.300895
O O9 0.687499 0.895115 0.005275
O O10 0.500000 0.000000 0.000000
O O11 0.745708 0.045979 0.000068
O O12 0.250000 0.750000 0.000000
O O13 0.376561 0.643918 0.041408
O O14 0.430336 0.789979 0.051953
O O15 0.701503 0.973094 0.621665
O O16 0.000000 0.000000 0.500000
O O17 0.250000 0.750000 0.500000
O O18 0.000000 0.481298 0.250000
#
# Coordination Sequence:
#
# PCOD8141772 Si02
#       8
#     8   8   8   8   8   4   8   8
#     4  10  25  41  63  93 134 169 206 269 334 383
#     4  11  21  41  67  92 120 174 217 259 308 397
#     4  12  23  40  67  97 129 166 219 271 322 392
#     4  11  23  37  62  97 134 157 204 275 329 368
#     4  12  22  41  67  94 126 171 218 271 323 378
#     4  10  24  42  70  84 136 168 216 250 328 396
#     4  10  21  37  64  91 122 163 219 252 315 379
#     4  12  25  42  66  95 127 171 224 267 323 393
#
# _framework density 19.433201
#
# number of rings (size 3 to 8) (size 9 to 14) (size 15 to 20)
#    0.400    0.533    4.667    3.200    3.733    1.067 
#    0.000    0.000    0.000    0.000    0.000    0.000 
#    0.000    0.000    0.000    0.000    0.000    0.000 
#
# Total GULP energy -371902.231972 kJ/mol
# GULP energy per Si atom -12396.741066 kJ/mol
# Density = 1.938897 g / cm^3
# Si number density = 19.433201 Si / 1000 Ang^3
#
#
#
# Elastic Constant Matrix: (Units=GPa)
#
#
# Indices 1 2 3 4 5 6 
#
# 1 121.2765 18.1885 37.6218 0.0001 -0.2085 -0.0001
# 2 18.1885 76.4248 16.5211 -0.0001 3.8973 0.0001
# 3 37.6218 16.5211 112.1808 -0.0005 0.2324 0.0001
# 4 0.0001 -0.0001 -0.0005 27.7941 0.0001 5.7473
# 5 -0.2085 3.8973 0.2324 0.0001 28.7615 0.0000
# 6 -0.0001 0.0001 0.0001 5.7473 0.0000 31.8517
#
#
#
# Elastic Compliance Matrix: (Units=1/GPa)
#
#
# Indices 1 2 3 4 5 6 
#
# 1 0.009393 -0.001622 -0.002912 0.000000 0.000311 0.000000
# 2 -0.001622 0.013891 -0.001498 0.000000 -0.001882 0.000000
# 3 -0.002912 -0.001498 0.010111 0.000000 0.000100 0.000000
# 4 0.000000 0.000000 0.000000 0.037373 0.000000 -0.006744
# 5 0.000311 -0.001882 0.000100 0.000000 0.035025 0.000000
# 6 0.000000 0.000000 0.000000 -0.006744 0.000000 0.032612
#
#
# Mechanical properties :
#
#
# Convention : Reuss Voigt Hill
#
# Bulk Modulus (GPa) = 46.87946 50.50499 48.69223
# Shear Modulus (GPa) = 31.73021 33.51816 32.62418
#
# Velocity S-wave (km/s) = 4.04516 4.15756 4.10174
# Velocity P-wave (km/s) = 6.78185 7.00661 6.89514
#
# Compressibility (1/GPa) = 0.02133130
#
# Stress axis : x y z
#
# Youngs Moduli (GPa) = 106.46600 71.99158 98.90127
#
# Poissons Ratio (x) = 0.11676 0.28798
# Poissons Ratio (y) = 0.17267 0.14814
# Poissons Ratio (z) = 0.31001 0.10783
#
# Static dielectric constant tensor:
#      x y z
#    x 3.746480 0.000000 0.276390 
#    y 0.000000 3.721360 0.000000 
#    z 0.276390 0.000000 3.598370 
# 
# 
# High freq. dielectric constant tensor:
#      x y z
#    x 1.751550 0.000000 0.008210 
#    y 0.000000 1.768200 0.000000 
#    z 0.008210 0.000000 1.755680 
# 
# From -- ./inp_files/233069.got.cif
#   From: 2010.06.25/outbox.cif.g09.slc.cpg/sg15_117_cif.got.tgz:233069.got - 2010.06.28 07:06:18.
