data_PCOD8141830
_publ_section_title
;
Structure prediction by ZEFSAII (Michael W. Deem and Ramdas Pophale) SiO2 
 PCOD8141830
Probable space group: C 2/C
;
_chemical_formula_sum "Si O2"
_cell_formula_units_Z 56
_cell_length_a 14.365088
_cell_length_b 16.720188
_cell_length_c 11.420960
_cell_angle_alpha 90.000000
_cell_angle_beta 70.188244
_cell_angle_gamma 90.000000
_cell_volume 2580.801236
_symmetry_space_group_name_H-M "C 2/C"
_symmetry_group_IT_number 15
_symmetry_cell_setting 'monoclinic'
loop_
_space_group_symop_operation_xyz
x,y,z
-x,y,1/2-z
-x,-y,-z
x,-y,1/2+z
1/2+x,1/2+y,z
1/2-x,1/2+y,1/2-z
1/2-x,1/2-y,-z
1/2+x,1/2-y,1/2+z
loop_
_atom_site_type_symbol
_atom_site_label
_atom_site_fract_x
_atom_site_fract_y
_atom_site_fract_z
Si Si1 0.939436 0.191161 0.665242
Si Si2 0.635929 0.908611 0.036200
Si Si3 0.549540 0.191699 0.966770
Si Si4 0.546547 0.505175 0.851268
Si Si5 0.718224 0.845085 0.233930
Si Si6 0.402519 0.920852 0.856955
Si Si7 0.259563 0.028930 0.227907
O O1 0.941204 0.097657 0.674037
O O2 0.819656 0.206972 0.709875
O O3 0.000000 0.228236 0.750000
O O4 0.000605 0.224423 0.527848
O O5 0.544136 0.861836 0.024008
O O6 0.695472 0.856605 0.106127
O O7 0.584720 0.989138 0.103387
O O8 0.718413 0.931456 0.905988
O O9 0.626162 0.205251 0.827585
O O10 0.615480 0.145249 0.035588
O O11 0.500000 0.470047 0.750000
O O12 0.648056 0.457672 0.814680
O O13 0.500000 0.500000 0.000000
O O14 0.717188 0.934125 0.290496
O O15 0.500000 0.892839 0.750000
O O16 0.314489 0.919671 0.802408
#
# Coordination Sequence:
#
# PCOD8141830 Si02
#       7
#     8   8   8   8   8   8   8
#     4  10  25  45  63  92 132 174 229 276 329 402
#     4  11  21  37  64 101 132 168 215 274 337 397
#     4  12  22  40  65  92 136 176 211 271 334 406
#     4  10  24  45  70  96 128 174 231 288 333 400
#     4  10  23  41  64  93 136 172 215 283 331 390
#     4  11  20  33  59  99 131 159 209 265 328 396
#     4  10  21  37  66  97 129 164 217 275 339 389
#
# _framework density 21.698687
#
# number of rings (size 3 to 8) (size 9 to 14) (size 15 to 20)
#    0.000    1.429    2.857    3.000    6.000    2.286 
#    2.571    1.429    0.000    0.000    0.000    0.000 
#    0.000    0.000    0.000    0.000    0.000    0.000 
#
# Total GULP energy -346877.717659 kJ/mol
# GULP energy per Si atom -12388.489916 kJ/mol
# Density = 2.164930 g / cm^3
# Si number density = 21.698687 Si / 1000 Ang^3
#
#
#
# Elastic Constant Matrix: (Units=GPa)
#
#
# Indices 1 2 3 4 5 6 
#
# 1 135.6018 32.5617 90.6233 0.0000 -10.5819 0.0000
# 2 32.5617 23.2520 13.3319 0.0000 0.6654 0.0000
# 3 90.6233 13.3319 156.7424 0.0000 -5.9930 0.0000
# 4 0.0000 0.0000 0.0000 36.5003 0.0000 -14.7190
# 5 -10.5819 0.6654 -5.9930 0.0000 41.6390 0.0000
# 6 0.0000 0.0000 0.0000 -14.7190 0.0000 9.5090
#
#
#
# Elastic Compliance Matrix: (Units=1/GPa)
#
#
# Indices 1 2 3 4 5 6 
#
# 1 0.018672 -0.021183 -0.008848 0.000000 0.003810 0.000000
# 2 -0.021183 0.069313 0.006138 0.000000 -0.005608 0.000000
# 3 -0.008848 0.006138 0.010944 0.000000 -0.000772 0.000000
# 4 0.000000 0.000000 0.000000 0.072903 0.000000 0.112847
# 5 0.003810 -0.005608 -0.000772 0.000000 0.024963 0.000000
# 6 0.000000 0.000000 0.000000 0.112847 0.000000 0.279839
#
#
# Mechanical properties :
#
#
# Convention : Reuss Voigt Hill
#
# Bulk Modulus (GPa) = 19.55359 65.40332 42.47845
# Shear Modulus (GPa) = 9.23415 29.46829 19.35122
#
# Velocity S-wave (km/s) = 2.06515 3.68920 2.98957
# Velocity P-wave (km/s) = 3.83633 6.95370 5.61566
#
# Compressibility (1/GPa) = 0.05114151
#
# Stress axis : x y z
#
# Youngs Moduli (GPa) = 53.55721 14.42726 91.37516
#
# Poissons Ratio (x) = 0.30562 0.80847
# Poissons Ratio (y) = 1.13452 -0.56082
# Poissons Ratio (z) = 0.47387 -0.08855
#
# Static dielectric constant tensor:
#      x y z
#    x 4.422440 0.000000 0.505060 
#    y 0.000000 3.636510 0.000000 
#    z 0.505060 0.000000 4.948340 
# 
# 
# High freq. dielectric constant tensor:
#      x y z
#    x 1.861140 0.000000 0.004800 
#    y 0.000000 1.825240 0.000000 
#    z 0.004800 0.000000 1.860700 
# 
# From -- ./inp_files/98663.got.cif
#   From: 2010.06.25/outbox.cif.g09.slc.cpg/sg15_50_cif.got.tgz:98663.got - 2010.06.28 07:06:18.
