data_PCOD8141138
_publ_section_title
;
Structure prediction by ZEFSAII (Michael W. Deem and Ramdas Pophale) SiO2 
 PCOD8141138
Probable space group: C 2/C
;
_chemical_formula_sum "Si O2"
_cell_formula_units_Z 64
_cell_length_a 22.852232
_cell_length_b 20.484961
_cell_length_c 17.506850
_cell_angle_alpha 90.000000
_cell_angle_beta 159.407404
_cell_angle_gamma 90.000000
_cell_volume 2882.502453
_symmetry_space_group_name_H-M "C 2/C"
_symmetry_group_IT_number 15
_symmetry_cell_setting 'monoclinic'
loop_
_space_group_symop_operation_xyz
x,y,z
-x,y,1/2-z
-x,-y,-z
x,-y,1/2+z
1/2+x,1/2+y,z
1/2-x,1/2+y,1/2-z
1/2-x,1/2-y,-z
1/2+x,1/2-y,1/2+z
loop_
_atom_site_type_symbol
_atom_site_label
_atom_site_fract_x
_atom_site_fract_y
_atom_site_fract_z
Si Si1 0.423477 0.605684 0.961102
Si Si2 0.277467 0.858000 0.913287
Si Si3 0.472941 0.219429 0.360190
Si Si4 0.134169 0.381192 0.313490
Si Si5 0.644348 0.517215 0.485742
Si Si6 0.687748 0.375260 0.483270
Si Si7 0.743246 0.343451 0.388116
Si Si8 0.731709 0.214874 0.810184
O O1 0.315885 0.607804 0.751749
O O2 0.378592 0.669494 0.956494
O O3 0.617325 0.611337 0.175949
O O4 0.396400 0.539077 0.976598
O O5 0.309481 0.783715 0.927604
O O6 0.441678 0.897681 0.092054
O O7 0.255756 0.866706 0.977328
O O8 0.397212 0.291406 0.256831
O O9 0.586002 0.193769 0.427348
O O10 0.582581 0.222356 0.568954
O O11 0.313140 0.173208 0.179686
O O12 0.192165 0.444613 0.339094
O O13 0.151103 0.315941 0.285790
O O14 0.500000 0.536489 0.250000
O O15 0.682893 0.440737 0.528076
O O16 0.500000 0.346836 0.250000
O O17 0.763176 0.386831 0.489437
#
# Coordination Sequence:
#
# PCOD8141138 Si02
#       8
#     8   8   8   8   8   8   8   8
#     4  10  21  38  65  93 134 176 213 270 330 393
#     4  11  19  34  57  98 130 167 216 266 333 392
#     4  11  23  41  68  99 136 165 216 279 336 396
#     4  10  22  34  58  92 131 173 217 267 323 392
#     4  10  21  45  65  86 131 180 224 269 324 392
#     4  11  25  45  70  93 126 182 226 272 336 389
#     4  11  23  43  69 103 133 169 221 277 340 394
#     4  10  21  35  59  94 133 170 207 265 336 396
#
# _framework density 22.202929000000001
#
# number of rings (size 3 to 8) (size 9 to 14) (size 15 to 20)
#    0.000    1.500    2.500    2.625    1.750    2.000 
#    4.500    8.125    0.000    0.000    0.000    0.000 
#    0.000    0.000    0.000    0.000    0.000    0.000 
#
# Total GULP energy -396707.987804 kJ/mol
# GULP energy per Si atom -12397.124619 kJ/mol
# Density = 2.215239 g / cm^3
# Si number density = 22.202929 Si / 1000 Ang^3
#
#
#
# Elastic Constant Matrix: (Units=GPa)
#
#
# Indices 1 2 3 4 5 6 
#
# 1 65.5471 19.3646 5.6253 -0.0001 4.3621 0.0001
# 2 19.3646 74.6296 30.8179 0.0001 -0.8645 0.0000
# 3 5.6253 30.8179 69.4087 -0.0004 24.0534 0.0001
# 4 -0.0001 0.0001 -0.0004 -26.9623 -0.0004 11.5012
# 5 4.3621 -0.8645 24.0534 -0.0004 26.5759 0.0001
# 6 0.0001 0.0000 0.0001 11.5012 0.0001 23.1094
#
#
#
# Elastic Compliance Matrix: (Units=1/GPa)
#
#
# Indices 1 2 3 4 5 6 
#
# 1 0.017104 -0.005865 0.003289 0.000000 -0.005975 0.000000
# 2 -0.005865 0.020654 -0.013494 0.000000 0.013848 0.000000
# 3 0.003289 -0.013494 0.029827 0.000000 -0.027975 0.000000
# 4 0.000000 0.000000 0.000000 -0.030594 0.000000 0.015226
# 5 -0.005975 0.013848 -0.027975 0.000000 0.064379 0.000000
# 6 0.000000 0.000000 0.000000 0.015226 0.000000 0.035695
#
#
# Mechanical properties :
#
#
# Convention : Reuss Voigt Hill
#
# Bulk Modulus (GPa) = 28.21400 35.68899 31.95150
# Shear Modulus (GPa) = 27.62103 14.79644 21.20873
#
# Velocity S-wave (km/s) = 3.53090 2.58431 3.09402
# Velocity P-wave (km/s) = 5.41830 5.00138 5.21401
#
# Compressibility (1/GPa) = 0.03544339
#
# Stress axis : x y z
#
# Youngs Moduli (GPa) = 58.46451 48.41625 33.52671
#
# Poissons Ratio (x) = 0.28398 -0.11025
# Poissons Ratio (y) = 0.34292 0.45242
# Poissons Ratio (z) = -0.19226 0.65334
#
# Static dielectric constant tensor:
#      x y z
#    x 4.108530 0.000000 0.038140 
#    y 0.000000 3.710060 0.000000 
#    z 0.038140 0.000000 4.059850 
# 
# 
# High freq. dielectric constant tensor:
#      x y z
#    x 1.881700 0.000000 0.006570 
#    y 0.000000 1.848390 0.000000 
#    z 0.006570 0.000000 1.880800 
# 
# From -- ./inp_files/220295.got.cif
#   From: 2010.06.25/outbox.cif.g09.slc.cpg/sg15_111_cif.got.tgz:220295.got - 2010.06.28 07:06:18.
