data_PCOD8141065
_publ_section_title
;
Structure prediction by ZEFSAII (Michael W. Deem and Ramdas Pophale) SiO2 
 PCOD8141065
Probable space group: C 2/C
;
_chemical_formula_sum "Si O2"
_cell_formula_units_Z 56
_cell_length_a 18.663542
_cell_length_b 22.451413
_cell_length_c 8.572312
_cell_angle_alpha 90.000000
_cell_angle_beta 127.415183
_cell_angle_gamma 90.000000
_cell_volume 2852.955066
_symmetry_space_group_name_H-M "C 2/C"
_symmetry_group_IT_number 15
_symmetry_cell_setting 'monoclinic'
loop_
_space_group_symop_operation_xyz
x,y,z
-x,y,1/2-z
-x,-y,-z
x,-y,1/2+z
1/2+x,1/2+y,z
1/2-x,1/2+y,1/2-z
1/2-x,1/2-y,-z
1/2+x,1/2-y,1/2+z
loop_
_atom_site_type_symbol
_atom_site_label
_atom_site_fract_x
_atom_site_fract_y
_atom_site_fract_z
Si Si1 0.910259 0.457278 0.040327
Si Si2 0.420590 0.660351 0.242441
Si Si3 0.312962 0.826282 0.364684
Si Si4 0.592842 0.916940 0.821970
Si Si5 0.232228 0.627058 0.017392
Si Si6 0.486328 0.247704 0.054629
Si Si7 0.341097 0.757649 0.904757
O O1 0.899545 0.527812 0.047661
O O2 0.820440 0.429798 0.992823
O O3 0.000000 0.433893 0.250000
O O4 0.912376 0.440624 0.860872
O O5 0.500000 0.626980 0.250000
O O6 0.466370 0.688089 0.454798
O O7 0.339789 0.616312 0.185449
O O8 0.379840 0.715140 0.089259
O O9 0.328978 0.867958 0.539953
O O10 0.280779 0.868933 0.184303
O O11 0.404748 0.797548 0.421495
O O12 0.236421 0.776564 0.298329
O O13 0.500000 0.883712 0.750000
O O14 0.201973 0.685733 0.069356
O O15 0.500000 0.262814 0.250000
O O16 0.578549 0.220246 0.102872
#
# Coordination Sequence:
#
# PCOD8141065 Si02
#       7
#     8   8   8   8   8   8   8
#     4  11  24  38  60  84 115 154 189 241 279 343
#     4   9  18  37  53  75 110 150 190 225 276 343
#     4  11  21  37  55  80 116 150 193 239 277 344
#     4  11  23  41  56  84 115 153 197 232 287 335
#     4  11  20  35  58  83 109 153 192 231 288 336
#     4  11  22  31  48  77 115 150 183 233 279 326
#     4  10  21  35  55  79 111 156 193 228 284 343
#
# _framework density 19.628771
#
# number of rings (size 3 to 8) (size 9 to 14) (size 15 to 20)
#    0.000    1.429    2.857    4.714    6.000    1.714 
#    0.000    0.000    0.000    0.000    0.000   17.000 
#    0.000    0.000    0.000    0.000    0.000    0.000 
#
# Total GULP energy -347096.456401 kJ/mol
# GULP energy per Si atom -12396.302014 kJ/mol
# Density = 1.958409 g / cm^3
# Si number density = 19.628771 Si / 1000 Ang^3
#
#
#
# Elastic Constant Matrix: (Units=GPa)
#
#
# Indices 1 2 3 4 5 6 
#
# 1 106.8931 3.3168 31.4495 0.0000 24.1399 0.0000
# 2 3.3168 25.5802 17.4725 0.0000 12.2950 0.0000
# 3 31.4495 17.4725 90.9857 0.0000 -0.5811 0.0000
# 4 0.0000 0.0000 0.0000 30.8386 0.0000 2.6756
# 5 24.1399 12.2950 -0.5811 0.0000 40.5517 0.0000
# 6 0.0000 0.0000 0.0000 2.6756 0.0000 20.5992
#
#
#
# Elastic Compliance Matrix: (Units=1/GPa)
#
#
# Indices 1 2 3 4 5 6 
#
# 1 0.013193 0.007281 -0.006023 0.000000 -0.010147 0.000000
# 2 0.007281 0.058281 -0.013850 0.000000 -0.022203 0.000000
# 3 -0.006023 -0.013850 0.015784 0.000000 0.008011 0.000000
# 4 0.000000 0.000000 0.000000 0.032797 0.000000 -0.004260
# 5 -0.010147 -0.022203 0.008011 0.000000 0.037547 0.000000
# 6 0.000000 0.000000 0.000000 -0.004260 0.000000 0.049099
#
#
# Mechanical properties :
#
#
# Convention : Reuss Voigt Hill
#
# Bulk Modulus (GPa) = 16.11037 36.43738 26.27388
# Shear Modulus (GPa) = 19.79602 29.81259 24.80431
#
# Velocity S-wave (km/s) = 3.17917 3.90143 3.55867
# Velocity P-wave (km/s) = 4.65849 6.23686 5.50454
#
# Compressibility (1/GPa) = 0.06207180
#
# Stress axis : x y z
#
# Youngs Moduli (GPa) = 75.79832 17.15828 63.35700
#
# Poissons Ratio (x) = -0.12492 0.38161
# Poissons Ratio (y) = -0.55187 0.87752
# Poissons Ratio (z) = 0.45654 0.23765
#
# Static dielectric constant tensor:
#      x y z
#    x 4.189680 0.000000 0.382780 
#    y 0.000000 3.271040 0.000000 
#    z 0.382780 0.000000 3.907590 
# 
# 
# High freq. dielectric constant tensor:
#      x y z
#    x 1.770690 0.000000 -0.000190 
#    y 0.000000 1.722800 0.000000 
#    z -0.000190 0.000000 1.773390 
# 
# From -- ./inp_files/42109.got.cif
#   From: 2010.06.25/outbox.cif.g09.slc.cpg/sg15_22_cif.got.tgz:42109.got - 2010.06.28 07:06:18.
