data_PCOD8141743
_publ_section_title
;
Structure prediction by ZEFSAII (Michael W. Deem and Ramdas Pophale) SiO2 
 PCOD8141743
Probable space group: C 2/C
;
_chemical_formula_sum "Si O2"
_cell_formula_units_Z 60
_cell_length_a 14.727417
_cell_length_b 12.199902
_cell_length_c 16.558567
_cell_angle_alpha 90.000000
_cell_angle_beta 95.638108
_cell_angle_gamma 90.000000
_cell_volume 2960.735292
_symmetry_space_group_name_H-M "C 2/C"
_symmetry_group_IT_number 15
_symmetry_cell_setting 'monoclinic'
loop_
_space_group_symop_operation_xyz
x,y,z
-x,y,1/2-z
-x,-y,-z
x,-y,1/2+z
1/2+x,1/2+y,z
1/2-x,1/2+y,1/2-z
1/2-x,1/2-y,-z
1/2+x,1/2-y,1/2+z
loop_
_atom_site_type_symbol
_atom_site_label
_atom_site_fract_x
_atom_site_fract_y
_atom_site_fract_z
Si Si1 0.865489 0.444080 0.511864
Si Si2 0.397099 0.458161 0.989436
Si Si3 0.000000 0.755099 0.750000
Si Si4 0.764189 0.162670 0.371713
Si Si5 0.285315 0.406102 0.118179
Si Si6 0.324009 0.396037 0.715187
Si Si7 0.474470 0.152728 0.576053
Si Si8 0.671376 0.677124 0.461281
O O1 0.817180 0.372283 0.576950
O O2 0.790810 0.478070 0.437782
O O3 0.907203 0.549117 0.560120
O O4 0.939184 0.367503 0.473595
O O5 0.363434 0.384830 0.910541
O O6 0.500000 0.500000 0.000000
O O7 0.373943 0.388660 0.068345
O O8 0.335023 0.567532 0.986388
O O9 0.082926 0.840193 0.746908
O O10 0.002172 0.673236 0.827413
O O11 0.764509 0.293598 0.364955
O O12 0.748850 0.121876 0.278722
O O13 0.322437 0.471912 0.199802
O O14 0.299569 0.341525 0.628534
O O15 0.426200 0.262637 0.539969
O O16 0.750000 0.750000 0.500000
#
# Coordination Sequence:
#
# PCOD8141743 Si02
#       8
#     8   8   4   8   8   8   8   8
#     4  10  21  38  59  92 120 162 212 253 315 385
#     4  10  22  35  60  92 121 157 208 257 305 382
#     4  10  22  38  60  88 120 158 214 258 322 366
#     4  11  23  38  63  89 128 164 206 259 331 370
#     4  10  22  39  61  88 127 159 209 260 313 383
#     4  10  23  38  61  89 123 161 208 263 310 383
#     4  10  21  37  63  88 122 164 209 264 305 379
#     4  10  21  39  62  87 123 163 214 255 306 371
#
# _framework density 20.265236000000002
#
# number of rings (size 3 to 8) (size 9 to 14) (size 15 to 20)
#    0.000    1.867    0.000    4.800    9.333    4.267 
#    0.000    0.000    0.000    0.800    0.000    0.000 
#    0.000    0.000    0.000    0.000    0.000    0.000 
#
# Total GULP energy -371649.839563 kJ/mol
# GULP energy per Si atom -12388.327985 kJ/mol
# Density = 2.021911 g / cm^3
# Si number density = 20.265236 Si / 1000 Ang^3
#
#
#
# Elastic Constant Matrix: (Units=GPa)
#
#
# Indices 1 2 3 4 5 6 
#
# 1 88.3067 34.4143 43.0806 0.0000 -7.2892 0.0000
# 2 34.4143 126.1718 64.5787 0.0000 4.9044 0.0000
# 3 43.0806 64.5787 116.6291 0.0000 -9.4800 0.0000
# 4 0.0000 0.0000 0.0000 34.7449 0.0000 3.5179
# 5 -7.2892 4.9044 -9.4800 0.0000 25.0501 0.0000
# 6 0.0000 0.0000 0.0000 3.5179 0.0000 34.5102
#
#
#
# Elastic Compliance Matrix: (Units=1/GPa)
#
#
# Indices 1 2 3 4 5 6 
#
# 1 0.014267 -0.002011 -0.003907 0.000000 0.003066 0.000000
# 2 -0.002011 0.011889 -0.006270 0.000000 -0.005285 0.000000
# 3 -0.003907 -0.006270 0.013925 0.000000 0.005360 0.000000
# 4 0.000000 0.000000 0.000000 0.029081 0.000000 -0.002964
# 5 0.003066 -0.005285 0.005360 0.000000 0.043876 0.000000
# 6 0.000000 0.000000 0.000000 -0.002964 0.000000 0.029279
#
#
# Mechanical properties :
#
#
# Convention : Reuss Voigt Hill
#
# Bulk Modulus (GPa) = 63.67463 68.36164 66.01814
# Shear Modulus (GPa) = 29.08206 31.46332 30.27269
#
# Velocity S-wave (km/s) = 3.79234 3.94455 3.86919
# Velocity P-wave (km/s) = 7.11791 7.38598 7.25318
#
# Compressibility (1/GPa) = 0.01570484
#
# Stress axis : x y z
#
# Youngs Moduli (GPa) = 70.09123 84.11395 71.81417
#
# Poissons Ratio (x) = 0.16913 0.28061
# Poissons Ratio (y) = 0.14093 0.45026
# Poissons Ratio (z) = 0.27388 0.52737
#
# Static dielectric constant tensor:
#      x y z
#    x 3.643830 0.000000 -0.124410 
#    y 0.000000 3.895030 0.000000 
#    z -0.124410 0.000000 3.797610 
# 
# 
# High freq. dielectric constant tensor:
#      x y z
#    x 1.791000 0.000000 -0.012380 
#    y 0.000000 1.801240 0.000000 
#    z -0.012380 0.000000 1.784240 
# 
# From -- ./inp_files/204038.got.cif
#   From: 2010.06.25/outbox.cif.g09.slc.cpg/sg15_103_cif.got.tgz:204038.got - 2010.06.28 07:06:18.
