data_PCOD8141235
_publ_section_title
;
Structure prediction by ZEFSAII (Michael W. Deem and Ramdas Pophale) SiO2 
 PCOD8141235
Probable space group: C 2/C
;
_chemical_formula_sum "Si O2"
_cell_formula_units_Z 64
_cell_length_a 17.290342
_cell_length_b 10.923542
_cell_length_c 22.243746
_cell_angle_alpha 90.000000
_cell_angle_beta 56.697171
_cell_angle_gamma 90.000000
_cell_volume 3511.293230
_symmetry_space_group_name_H-M "C 2/C"
_symmetry_group_IT_number 15
_symmetry_cell_setting 'monoclinic'
loop_
_space_group_symop_operation_xyz
x,y,z
-x,y,1/2-z
-x,-y,-z
x,-y,1/2+z
1/2+x,1/2+y,z
1/2-x,1/2+y,1/2-z
1/2-x,1/2-y,-z
1/2+x,1/2-y,1/2+z
loop_
_atom_site_type_symbol
_atom_site_label
_atom_site_fract_x
_atom_site_fract_y
_atom_site_fract_z
Si Si1 0.312734 0.840617 0.326217
Si Si2 0.962883 0.635506 0.517261
Si Si3 0.062201 0.150749 0.168755
Si Si4 0.144085 0.275178 0.541066
Si Si5 0.401617 0.639855 0.563859
Si Si6 0.441362 0.145938 0.661619
Si Si7 0.055643 0.982266 0.064858
Si Si8 0.435958 0.046408 0.332226
O O1 0.344892 0.715064 0.345525
O O2 0.202541 0.838129 0.369666
O O3 0.349578 0.846936 0.241867
O O4 0.354200 0.956305 0.344791
O O5 0.879512 0.637253 0.504926
O O6 0.917628 0.662599 0.601762
O O7 0.000000 0.500000 0.500000
O O8 0.044284 0.731295 0.465061
O O9 0.000000 0.106327 0.250000
O O10 0.008839 0.245338 0.150083
O O11 0.076937 0.030898 0.122454
O O12 0.250000 0.250000 0.500000
O O13 0.100401 0.148157 0.542492
O O14 0.107425 0.333854 0.618728
O O15 0.396766 0.576554 0.501042
O O16 0.448765 0.543885 0.590976
O O17 0.497017 0.020099 0.648592
O O18 0.500000 0.090404 0.250000
#
# Coordination Sequence:
#
# PCOD8141235 Si02
#       8
#     8   8   8   8   8   8   8   8
#     4   9  19  35  62  86 108 139 200 239 273 330
#     4  11  21  37  62  79 113 151 189 237 288 337
#     4   9  18  35  59  83 108 144 185 234 277 331
#     4  11  23  36  53  86 114 147 194 231 281 347
#     4  10  21  37  55  83 111 149 186 231 284 343
#     4   9  17  37  59  84 106 146 190 235 282 327
#     4  10  21  36  55  75 117 153 179 223 297 340
#     4   9  18  36  59  79 112 152 186 233 287 338
#
# _framework density 18.226903
#
# number of rings (size 3 to 8) (size 9 to 14) (size 15 to 20)
#    0.000    2.250    2.500    2.250    0.000    2.000 
#    0.000    6.250    0.000    0.000    0.000    0.000 
#    0.000    0.000    0.000    0.000    0.000    0.000 
#
# Total GULP energy -396624.473701 kJ/mol
# GULP energy per Si atom -12394.514803 kJ/mol
# Density = 1.818542 g / cm^3
# Si number density = 18.226903 Si / 1000 Ang^3
#
#
#
# Elastic Constant Matrix: (Units=GPa)
#
#
# Indices 1 2 3 4 5 6 
#
# 1 100.3897 27.2479 67.0557 0.0000 -8.2616 0.0000
# 2 27.2479 75.1279 32.3794 0.0000 -2.9459 0.0000
# 3 67.0557 32.3794 107.7003 0.0000 -0.3418 0.0000
# 4 0.0000 0.0000 0.0000 27.6180 0.0000 7.8600
# 5 -8.2616 -2.9459 -0.3418 0.0000 30.2649 0.0000
# 6 0.0000 0.0000 0.0000 7.8600 0.0000 22.3274
#
#
#
# Elastic Compliance Matrix: (Units=1/GPa)
#
#
# Indices 1 2 3 4 5 6 
#
# 1 0.017894 -0.001740 -0.010604 0.000000 0.004596 0.000000
# 2 -0.001740 0.015524 -0.003581 0.000000 0.000996 0.000000
# 3 -0.010604 -0.003581 0.016954 0.000000 -0.003052 0.000000
# 4 0.000000 0.000000 0.000000 0.040240 0.000000 -0.014166
# 5 0.004596 0.000996 -0.003052 0.000000 0.034359 0.000000
# 6 0.000000 0.000000 0.000000 -0.014166 0.000000 0.049775
#
#
# Mechanical properties :
#
#
# Convention : Reuss Voigt Hill
#
# Bulk Modulus (GPa) = 53.98482 59.62043 56.80263
# Shear Modulus (GPa) = 23.49973 26.47771 24.98872
#
# Velocity S-wave (km/s) = 3.59456 3.81553 3.70669
# Velocity P-wave (km/s) = 6.84911 7.22441 7.03926
#
# Compressibility (1/GPa) = 0.01852372
#
# Stress axis : x y z
#
# Youngs Moduli (GPa) = 55.88366 64.41650 58.98365
#
# Poissons Ratio (x) = 0.11207 0.62544
# Poissons Ratio (y) = 0.09723 0.21121
# Poissons Ratio (z) = 0.59257 0.23066
#
# Static dielectric constant tensor:
#      x y z
#    x 3.441240 0.000000 0.219580 
#    y 0.000000 3.398350 0.000000 
#    z 0.219580 0.000000 3.427680 
# 
# 
# High freq. dielectric constant tensor:
#      x y z
#    x 1.698610 0.000000 0.013390 
#    y 0.000000 1.707440 0.000000 
#    z 0.013390 0.000000 1.702950 
# 
# From -- ./inp_files/248592.got.cif
#   From: 2010.06.25/outbox.cif.g09.slc.cpg/sg15_125_cif.got.tgz:248592.got - 2010.06.28 07:06:18.
