data_PCOD8141088
_publ_section_title
;
Structure prediction by ZEFSAII (Michael W. Deem and Ramdas Pophale) SiO2 
 PCOD8141088
Probable space group: C 2/C
;
_chemical_formula_sum "Si O2"
_cell_formula_units_Z 60
_cell_length_a 20.819621
_cell_length_b 34.200128
_cell_length_c 4.968510
_cell_angle_alpha 90.000000
_cell_angle_beta 122.804087
_cell_angle_gamma 90.000000
_cell_volume 2973.574913
_symmetry_space_group_name_H-M "C 2/C"
_symmetry_group_IT_number 15
_symmetry_cell_setting 'monoclinic'
loop_
_space_group_symop_operation_xyz
x,y,z
-x,y,1/2-z
-x,-y,-z
x,-y,1/2+z
1/2+x,1/2+y,z
1/2-x,1/2+y,1/2-z
1/2-x,1/2-y,-z
1/2+x,1/2-y,1/2+z
loop_
_atom_site_type_symbol
_atom_site_label
_atom_site_fract_x
_atom_site_fract_y
_atom_site_fract_z
Si Si1 0.052367 0.701620 0.630021
Si Si2 0.134382 0.090336 0.614230
Si Si3 0.912856 0.475159 0.544413
Si Si4 0.317001 0.138941 0.563380
Si Si5 0.852191 0.141367 0.368062
Si Si6 0.694115 0.089844 0.451851
Si Si7 0.449698 0.288460 0.881836
Si Si8 0.000000 0.028512 0.250000
O O1 0.126271 0.674823 0.792045
O O2 0.083731 0.745566 0.766459
O O3 0.000000 0.686140 0.750000
O O4 0.000000 0.697719 0.250000
O O5 0.139654 0.107176 0.328603
O O6 0.218641 0.074495 0.894908
O O7 0.074776 0.055132 0.460298
O O8 0.108162 0.124082 0.769765
O O9 0.897418 0.487359 0.201376
O O10 0.856792 0.442129 0.517963
O O11 0.000000 0.459946 0.750000
O O12 0.234999 0.152525 0.260722
O O13 0.305105 0.126016 0.842366
O O14 0.343275 0.104153 0.416886
O O15 0.886938 0.180709 0.327736
O O16 0.500000 0.305417 0.750000
O O17 0.500000 0.279543 0.250000
O O18 0.000000 0.000000 0.500000
#
# Coordination Sequence:
#
# PCOD8141088 Si02
#       8
#     8   8   8   8   8   8   8   4
#     4  10  21  37  55  83 120 154 192 240 288 341
#     4  10  23  39  59  85 115 148 189 244 285 343
#     4  10  21  36  55  81 110 140 181 233 279 329
#     4  10  21  37  57  82 116 151 193 238 284 350
#     4  10  21  38  59  86 113 149 195 240 290 338
#     4  10  21  38  58  84 112 149 195 232 290 352
#     4  10  21  35  56  86 115 149 197 238 287 355
#     4  12  26  42  60  88 120 154 194 236 296 362
#
# _framework density 20.177731000000001
#
# number of rings (size 3 to 8) (size 9 to 14) (size 15 to 20)
#    0.000    1.867    0.000    3.200    2.800    3.200 
#    0.000    0.000    0.000    9.600    0.000    0.000 
#    0.000    0.000    0.000    0.000    0.000    0.000 
#
# Total GULP energy -371831.910812 kJ/mol
# GULP energy per Si atom -12394.397027 kJ/mol
# Density = 2.013181 g / cm^3
# Si number density = 20.177731 Si / 1000 Ang^3
#
#
#
# Elastic Constant Matrix: (Units=GPa)
#
#
# Indices 1 2 3 4 5 6 
#
# 1 125.9470 68.9983 40.9529 0.0000 1.1578 0.0000
# 2 68.9983 100.9915 32.0254 0.0000 23.4712 0.0000
# 3 40.9529 32.0254 80.5688 0.0000 -9.6743 0.0000
# 4 0.0000 0.0000 0.0000 1084.8280 0.0000 874.0987
# 5 1.1578 23.4712 -9.6743 0.0000 36.9323 0.0000
# 6 0.0000 0.0000 0.0000 874.0987 0.0000 773.0257
#
#
#
# Elastic Compliance Matrix: (Units=1/GPa)
#
#
# Indices 1 2 3 4 5 6 
#
# 1 0.014326 -0.010220 -0.002575 0.000000 0.005371 0.000000
# 2 -0.010220 0.022127 -0.005421 0.000000 -0.015162 0.000000
# 3 -0.002575 -0.005421 0.016828 0.000000 0.007934 0.000000
# 4 0.000000 0.000000 0.000000 0.010369 0.000000 -0.011725
# 5 0.005371 -0.015162 0.007934 0.000000 0.038622 0.000000
# 6 0.000000 0.000000 0.000000 -0.011725 0.000000 0.014551
#
#
# Mechanical properties :
#
#
# Convention : Reuss Voigt Hill
#
# Bulk Modulus (GPa) = 59.34757 65.71786 62.53271
# Shear Modulus (GPa) = 31.47191 389.99260 210.73225
#
# Velocity S-wave (km/s) = 3.95363 13.91755 10.23058
# Velocity P-wave (km/s) = 7.09351 17.05593 13.06182
#
# Compressibility (1/GPa) = 0.01684989
#
# Stress axis : x y z
#
# Youngs Moduli (GPa) = 69.80077 45.19402 59.42453
#
# Poissons Ratio (x) = 0.46187 0.15301
# Poissons Ratio (y) = 0.71335 0.32214
# Poissons Ratio (z) = 0.17973 0.24500
#
# Static dielectric constant tensor:
#      x y z
#    x 3.850120 0.000000 -0.221480 
#    y 0.000000 3.583240 0.000000 
#    z -0.221480 0.000000 3.888640 
# 
# 
# High freq. dielectric constant tensor:
#      x y z
#    x 1.800390 0.000000 -0.019670 
#    y 0.000000 1.776140 0.000000 
#    z -0.019670 0.000000 1.794680 
# 
# From -- ./inp_files/14413.got.cif
#   From: 2010.06.25/outbox.cif.g09.slc.cpg/sg15_8_cif.got.tgz:14413.got - 2010.06.28 07:06:18.
