data_PCOD8141310
_publ_section_title
;
Structure prediction by ZEFSAII (Michael W. Deem and Ramdas Pophale) SiO2 
 PCOD8141310
Probable space group: C 2/C
;
_chemical_formula_sum "Si O2"
_cell_formula_units_Z 64
_cell_length_a 25.770677
_cell_length_b 13.627396
_cell_length_c 9.768349
_cell_angle_alpha 90.000000
_cell_angle_beta 111.662572
_cell_angle_gamma 90.000000
_cell_volume 3188.235159
_symmetry_space_group_name_H-M "C 2/C"
_symmetry_group_IT_number 15
_symmetry_cell_setting 'monoclinic'
loop_
_space_group_symop_operation_xyz
x,y,z
-x,y,1/2-z
-x,-y,-z
x,-y,1/2+z
1/2+x,1/2+y,z
1/2-x,1/2+y,1/2-z
1/2-x,1/2-y,-z
1/2+x,1/2-y,1/2+z
loop_
_atom_site_type_symbol
_atom_site_label
_atom_site_fract_x
_atom_site_fract_y
_atom_site_fract_z
Si Si1 0.116053 0.795055 0.383503
Si Si2 0.152387 0.405978 0.814894
Si Si3 0.379585 0.296813 0.615935
Si Si4 0.152647 0.410029 0.498927
Si Si5 0.719273 0.409254 0.561078
Si Si6 0.947007 0.132165 0.427162
Si Si7 0.924671 0.907852 0.412174
Si Si8 0.719205 0.588929 0.373424
O O1 0.114260 0.686721 0.317250
O O2 0.179717 0.817555 0.488679
O O3 0.076077 0.797400 0.476404
O O4 0.093014 0.875545 0.255944
O O5 0.141622 0.434708 0.646968
O O6 0.134217 0.496838 0.891610
O O7 0.216945 0.378341 0.904051
O O8 0.383928 0.182209 0.584222
O O9 0.430620 0.323501 0.764840
O O10 0.383108 0.359810 0.480812
O O11 0.320305 0.319101 0.630421
O O12 0.217075 0.381652 0.535353
O O13 0.700432 0.497905 0.446669
O O14 0.710975 0.443244 0.708860
O O15 0.013179 0.128587 0.496926
O O16 0.919601 0.024926 0.417907
#
# Coordination Sequence:
#
# PCOD8141310 Si02
#       8
#     8   8   8   8   8   8   8   8
#     4  12  22  39  63  90 121 162 201 245 303 359
#     4  10  23  41  61  89 124 162 204 249 293 351
#     4  12  22  39  63  90 121 162 201 245 303 359
#     4  10  23  41  61  89 124 162 204 249 293 351
#     4  10  21  36  58  91 126 162 200 242 295 360
#     4  11  24  40  64  93 119 157 196 250 308 367
#     4  11  24  42  62  89 125 153 200 250 304 363
#     4  10  21  36  58  91 126 162 200 242 295 360
#
# _framework density 20.073802000000001
#
# number of rings (size 3 to 8) (size 9 to 14) (size 15 to 20)
#    0.000    1.250    2.500    3.750    3.500    2.000 
#    0.000    0.000    0.000    4.500    0.000    0.000 
#    0.000    0.000    0.000    0.000    0.000    0.000 
#
# Total GULP energy -396997.661667 kJ/mol
# GULP energy per Si atom -12406.176927 kJ/mol
# Density = 2.002811 g / cm^3
# Si number density = 20.073802 Si / 1000 Ang^3
#
#
#
# Elastic Constant Matrix: (Units=GPa)
#
#
# Indices 1 2 3 4 5 6 
#
# 1 42.5867 37.0806 16.8649 0.0000 -2.0907 0.0000
# 2 37.0806 104.4369 47.3422 0.0000 -9.0568 0.0000
# 3 16.8649 47.3422 102.0956 0.0000 -7.1769 0.0000
# 4 0.0000 0.0000 0.0000 36.4221 0.0000 -6.7201
# 5 -2.0907 -9.0568 -7.1769 0.0000 28.1782 0.0000
# 6 0.0000 0.0000 0.0000 -6.7201 0.0000 22.3648
#
#
#
# Elastic Compliance Matrix: (Units=1/GPa)
#
#
# Indices 1 2 3 4 5 6 
#
# 1 0.034043 -0.012174 -0.000077 0.000000 -0.001407 0.000000
# 2 -0.012174 0.016654 -0.005497 0.000000 0.003049 0.000000
# 3 -0.000077 -0.005497 0.012455 0.000000 0.001400 0.000000
# 4 0.000000 0.000000 0.000000 0.029067 0.000000 0.008734
# 5 -0.001407 0.003049 0.001400 0.000000 0.036721 0.000000
# 6 0.000000 0.000000 0.000000 0.008734 0.000000 0.047338
#
#
# Mechanical properties :
#
#
# Convention : Reuss Voigt Hill
#
# Bulk Modulus (GPa) = 36.15970 50.18830 43.17400
# Shear Modulus (GPa) = 22.62518 27.24844 24.93681
#
# Velocity S-wave (km/s) = 3.36087 3.68831 3.52839
# Velocity P-wave (km/s) = 5.75440 6.57224 6.17687
#
# Compressibility (1/GPa) = 0.02765510
#
# Stress axis : x y z
#
# Youngs Moduli (GPa) = 29.37458 60.04582 80.28946
#
# Poissons Ratio (x) = 0.73100 0.00620
# Poissons Ratio (y) = 0.35761 0.44136
# Poissons Ratio (z) = 0.00227 0.33008
#
# Static dielectric constant tensor:
#      x y z
#    x 3.499090 0.000000 -0.078920 
#    y 0.000000 3.406700 0.000000 
#    z -0.078920 0.000000 3.766680 
# 
# 
# High freq. dielectric constant tensor:
#      x y z
#    x 1.772960 0.000000 -0.009880 
#    y 0.000000 1.767840 0.000000 
#    z -0.009880 0.000000 1.799930 
# 
# From -- ./inp_files/66256.got.cif
#   From: 2010.06.25/outbox.cif.g09.slc.cpg/sg15_34_cif.got.tgz:66256.got - 2010.06.28 07:06:18.
