data_PCOD8141946
_publ_section_title
;
Structure prediction by ZEFSAII (Michael W. Deem and Ramdas Pophale) SiO2 
 PCOD8141946
Probable space group: C 2/C
;
_chemical_formula_sum "Si O2"
_cell_formula_units_Z 40
_cell_length_a 8.481205
_cell_length_b 10.184107
_cell_length_c 22.885841
_cell_angle_alpha 90.000000
_cell_angle_beta 76.518228
_cell_angle_gamma 90.000000
_cell_volume 1922.259668
_symmetry_space_group_name_H-M "C 2/C"
_symmetry_group_IT_number 15
_symmetry_cell_setting 'monoclinic'
loop_
_space_group_symop_operation_xyz
x,y,z
-x,y,1/2-z
-x,-y,-z
x,-y,1/2+z
1/2+x,1/2+y,z
1/2-x,1/2+y,1/2-z
1/2-x,1/2-y,-z
1/2+x,1/2-y,1/2+z
loop_
_atom_site_type_symbol
_atom_site_label
_atom_site_fract_x
_atom_site_fract_y
_atom_site_fract_z
Si Si1 0.550524 0.804741 0.368448
Si Si2 0.348793 0.961430 0.897179
Si Si3 0.593067 0.712787 0.684212
Si Si4 0.807489 0.616162 0.522926
Si Si5 0.486949 0.516787 0.389161
O O1 0.431818 0.918311 0.355533
O O2 0.717517 0.811624 0.317311
O O3 0.580109 0.840629 0.433597
O O4 0.459679 0.665471 0.368393
O O5 0.156277 0.980576 0.909004
O O6 0.413253 0.827043 0.863442
O O7 0.398646 0.960151 0.961987
O O8 0.500000 0.757902 0.750000
O O9 0.508033 0.581899 0.666418
O O10 0.750000 0.750000 0.500000
O O11 0.658065 0.525090 0.556018
#
# Coordination Sequence:
#
# PCOD8141946 Si02
#       5
#     8   8   8   8   8
#     4  10  23  37  58  92 117 151 195 234 287 348
#     4  11  22  38  62  89 116 153 193 236 288 347
#     4  10  23  43  61  79 115 156 195 246 292 336
#     4  11  19  38  60  87 126 154 186 228 289 350
#     4  10  21  38  59  86 120 152 190 240 286 341
#
# _framework density 20.808844000000001
#
# number of rings (size 3 to 8) (size 9 to 14) (size 15 to 20)
#    0.000    1.600    6.000    1.200    0.000    7.200 
#    0.000    1.000    0.000    0.000    0.000    0.000 
#    0.000    0.000    0.000    0.000    0.000    0.000 
#
# Total GULP energy -247904.703754 kJ/mol
# GULP energy per Si atom -12395.235188 kJ/mol
# Density = 2.076148 g / cm^3
# Si number density = 20.808844 Si / 1000 Ang^3
#
#
#
# Elastic Constant Matrix: (Units=GPa)
#
#
# Indices 1 2 3 4 5 6 
#
# 1 26.9995 50.3812 21.1570 0.0000 -12.0089 0.0000
# 2 50.3812 146.7286 19.3877 0.0000 -13.6886 0.0000
# 3 21.1570 19.3877 105.9753 0.0000 -25.0594 0.0000
# 4 0.0000 0.0000 0.0000 16.1927 0.0000 -7.4215
# 5 -12.0089 -13.6886 -25.0594 0.0000 25.3655 0.0000
# 6 0.0000 0.0000 0.0000 -7.4215 0.0000 39.0736
#
#
#
# Elastic Compliance Matrix: (Units=1/GPa)
#
#
# Indices 1 2 3 4 5 6 
#
# 1 0.147095 -0.045774 -0.013526 0.000000 0.031575 0.000000
# 2 -0.045774 0.021443 0.003689 0.000000 -0.006455 0.000000
# 3 -0.013526 0.003689 0.013594 0.000000 0.009017 0.000000
# 4 0.000000 0.000000 0.000000 0.067645 0.000000 0.012848
# 5 0.031575 -0.006455 0.009017 0.000000 0.059797 0.000000
# 6 0.000000 0.000000 0.000000 0.012848 0.000000 0.028033
#
#
# Mechanical properties :
#
#
# Convention : Reuss Voigt Hill
#
# Bulk Modulus (GPa) = 14.10225 51.28392 32.69308
# Shear Modulus (GPa) = 10.58279 28.71155 19.64717
#
# Velocity S-wave (km/s) = 2.25760 3.71856 3.07607
# Velocity P-wave (km/s) = 3.68611 6.56778 5.32556
#
# Compressibility (1/GPa) = 0.07091068
#
# Stress axis : x y z
#
# Youngs Moduli (GPa) = 6.79831 46.63558 73.56328
#
# Poissons Ratio (x) = 2.13471 0.99500
# Poissons Ratio (y) = 0.31119 -0.27140
# Poissons Ratio (z) = 0.09195 -0.17205
#
# Static dielectric constant tensor:
#      x y z
#    x 3.819400 0.000000 -0.152420 
#    y 0.000000 4.138550 0.000000 
#    z -0.152420 0.000000 3.702430 
# 
# 
# High freq. dielectric constant tensor:
#      x y z
#    x 1.802980 0.000000 -0.013120 
#    y 0.000000 1.836470 0.000000 
#    z -0.013120 0.000000 1.795190 
# 
# From -- ./inp_files/262414.got.cif
#   From: 2010.06.25/outbox.cif.g09.slc.cpg/sg15_132_cif.got.tgz:262414.got - 2010.06.28 07:06:18.
