data_PCOD8141431
_publ_section_title
;
Structure prediction by ZEFSAII (Michael W. Deem and Ramdas Pophale) SiO2 
 PCOD8141431
Probable space group: C 2/C
;
_chemical_formula_sum "Si O2"
_cell_formula_units_Z 48
_cell_length_a 12.918346
_cell_length_b 27.105290
_cell_length_c 11.119221
_cell_angle_alpha 90.000000
_cell_angle_beta 146.309307
_cell_angle_gamma 90.000000
_cell_volume 2159.736478
_symmetry_space_group_name_H-M "C 2/C"
_symmetry_group_IT_number 15
_symmetry_cell_setting 'monoclinic'
loop_
_space_group_symop_operation_xyz
x,y,z
-x,y,1/2-z
-x,-y,-z
x,-y,1/2+z
1/2+x,1/2+y,z
1/2-x,1/2+y,1/2-z
1/2-x,1/2-y,-z
1/2+x,1/2-y,1/2+z
loop_
_atom_site_type_symbol
_atom_site_label
_atom_site_fract_x
_atom_site_fract_y
_atom_site_fract_z
Si Si1 0.888511 0.963463 0.258925
Si Si2 0.293517 0.866978 0.014878
Si Si3 0.704562 0.434737 0.724524
Si Si4 0.065995 0.391138 0.939581
Si Si5 0.382769 0.279292 0.759802
Si Si6 0.785931 0.822481 0.326203
O O1 0.000000 0.983779 0.250000
O O2 0.024477 0.925756 0.464793
O O3 0.803632 0.006483 0.260816
O O4 0.709081 0.933876 0.041770
O O5 0.500000 0.883549 0.250000
O O6 0.189120 0.861486 0.040812
O O7 0.186238 0.908768 0.835979
O O8 0.292845 0.815724 0.936134
O O9 0.896965 0.414523 0.852937
O O10 0.000000 0.367901 0.750000
O O11 0.177726 0.347103 0.112211
O O12 0.500000 0.276939 0.750000
O O13 0.328779 0.224917 0.742568
O O14 0.501732 0.303055 0.987124
#
# Coordination Sequence:
#
# PCOD8141431 Si02
#       6
#     8   8   8   8   8   8
#     4  11  25  47  67 100 133 174 220 279 340 394
#     4  11  20  37  64 101 130 168 214 276 336 392
#     4  11  25  43  72  97 137 171 225 272 331 407
#     4  12  25  45  69  95 132 185 224 271 332 398
#     4  10  21  36  63  95 139 168 212 279 342 393
#     4  11  22  39  64  98 133 174 221 273 340 388
#
# _framework density 22.224934000000001
#
# number of rings (size 3 to 8) (size 9 to 14) (size 15 to 20)
#    0.000    1.000    3.333    5.000    0.000    5.333 
#    0.000    0.833    0.000    0.000    0.000    0.000 
#    0.000    0.000    0.000    0.000    0.000    0.000 
#
# Total GULP energy -297357.157630 kJ/mol
# GULP energy per Si atom -12389.881568 kJ/mol
# Density = 2.217435 g / cm^3
# Si number density = 22.224934 Si / 1000 Ang^3
#
#
#
# Elastic Constant Matrix: (Units=GPa)
#
#
# Indices 1 2 3 4 5 6 
#
# 1 43.9169 17.4307 39.6456 0.0000 -15.2850 0.0000
# 2 17.4307 70.1979 48.6840 0.0000 -12.4501 0.0000
# 3 39.6456 48.6840 162.4983 0.0000 -20.8533 0.0000
# 4 0.0000 0.0000 0.0000 43.7172 0.0000 -5.6306
# 5 -15.2850 -12.4501 -20.8533 0.0000 35.1670 0.0000
# 6 0.0000 0.0000 0.0000 -5.6306 0.0000 7.3254
#
#
#
# Elastic Compliance Matrix: (Units=1/GPa)
#
#
# Indices 1 2 3 4 5 6 
#
# 1 0.032462 -0.002151 -0.006021 0.000000 0.009778 0.000000
# 2 -0.002151 0.018515 -0.004655 0.000000 0.002860 0.000000
# 3 -0.006021 -0.004655 0.009168 0.000000 0.001171 0.000000
# 4 0.000000 0.000000 0.000000 0.025388 0.000000 0.019514
# 5 0.009778 0.002860 0.001171 0.000000 0.034392 0.000000
# 6 0.000000 0.000000 0.000000 0.019514 0.000000 0.151510
#
#
# Mechanical properties :
#
#
# Convention : Reuss Voigt Hill
#
# Bulk Modulus (GPa) = 28.99289 54.23706 41.61497
# Shear Modulus (GPa) = 16.20290 28.63210 22.41750
#
# Velocity S-wave (km/s) = 2.70301 3.59317 3.17939
# Velocity P-wave (km/s) = 4.77652 6.45532 5.67831
#
# Compressibility (1/GPa) = 0.03449122
#
# Stress axis : x y z
#
# Youngs Moduli (GPa) = 30.80500 54.00934 109.07620
#
# Poissons Ratio (x) = 0.11617 0.65673
# Poissons Ratio (y) = 0.06626 0.50779
# Poissons Ratio (z) = 0.18547 0.25144
#
# Static dielectric constant tensor:
#      x y z
#    x 3.698530 0.000000 0.123690 
#    y 0.000000 3.923860 0.000000 
#    z 0.123690 0.000000 4.676260 
# 
# 
# High freq. dielectric constant tensor:
#      x y z
#    x 1.835970 0.000000 0.011100 
#    y 0.000000 1.868110 0.000000 
#    z 0.011100 0.000000 1.907530 
# 
# From -- ./inp_files/101692.got.cif
#   From: 2010.06.25/outbox.cif.g09.slc.cpg/sg15_51_cif.got.tgz:101692.got - 2010.06.28 07:06:18.
