data_PCOD8141154
_publ_section_title
;
Structure prediction by ZEFSAII (Michael W. Deem and Ramdas Pophale) SiO2 
 PCOD8141154
Probable space group: C 2/C
;
_chemical_formula_sum "Si O2"
_cell_formula_units_Z 48
_cell_length_a 10.382578
_cell_length_b 21.270945
_cell_length_c 26.622439
_cell_angle_alpha 90.000000
_cell_angle_beta 156.695426
_cell_angle_gamma 90.000000
_cell_volume 2326.037828
_symmetry_space_group_name_H-M "C 2/C"
_symmetry_group_IT_number 15
_symmetry_cell_setting 'monoclinic'
loop_
_space_group_symop_operation_xyz
x,y,z
-x,y,1/2-z
-x,-y,-z
x,-y,1/2+z
1/2+x,1/2+y,z
1/2-x,1/2+y,1/2-z
1/2-x,1/2-y,-z
1/2+x,1/2-y,1/2+z
loop_
_atom_site_type_symbol
_atom_site_label
_atom_site_fract_x
_atom_site_fract_y
_atom_site_fract_z
Si Si1 0.715461 0.439455 0.530607
Si Si2 0.916409 0.319265 0.839055
Si Si3 0.840828 0.713554 0.972121
Si Si4 0.736619 0.420846 0.040401
Si Si5 0.295120 0.688145 0.049081
Si Si6 0.743095 0.864885 0.295854
O O1 0.581189 0.431688 0.539156
O O2 0.837136 0.509002 0.559107
O O3 0.433803 0.422123 0.390213
O O4 0.028561 0.394125 0.639382
O O5 0.600117 0.300865 0.694651
O O6 0.244519 0.287495 0.931516
O O7 0.892464 0.295434 0.888300
O O8 0.493008 0.685047 0.863367
O O9 0.972867 0.683115 0.968274
O O10 0.041658 0.390911 0.177282
O O11 0.652678 0.375454 0.963619
O O12 0.250000 0.750000 0.000000
O O13 0.500000 0.833584 0.250000
#
# Coordination Sequence:
#
# PCOD8141154 Si02
#       6
#     8   8   8   8   8   8
#     4   9  20  38  59  87 115 165 211 243 303 361
#     4  10  22  40  63  84 122 162 208 251 305 375
#     4  10  22  41  64  88 121 165 203 251 312 374
#     4  10  21  35  60  89 123 156 200 262 302 358
#     4  12  25  38  60  97 128 157 204 262 318 363
#     4   9  19  38  61  85 115 157 206 244 300 367
#
# _framework density 20.635949
#
# number of rings (size 3 to 8) (size 9 to 14) (size 15 to 20)
#    0.000    2.000    0.000    2.500    2.333   10.000 
#    0.000    3.333    7.333    0.000    0.000    0.000 
#    0.000    0.000    0.000    0.000    0.000    0.000 
#
# Total GULP energy -297513.834152 kJ/mol
# GULP energy per Si atom -12396.409756 kJ/mol
# Density = 2.058898 g / cm^3
# Si number density = 20.635949 Si / 1000 Ang^3
#
#
#
# Elastic Constant Matrix: (Units=GPa)
#
#
# Indices 1 2 3 4 5 6 
#
# 1 112.0393 50.8962 43.5226 0.0165 -1.3841 0.0116
# 2 50.8962 139.3596 34.1873 0.0098 -4.0369 -0.0057
# 3 43.5226 34.1873 106.1422 0.0469 -10.0303 -0.0140
# 4 0.0165 0.0098 0.0469 18.4159 0.0006 -0.2140
# 5 -1.3841 -4.0369 -10.0303 0.0006 22.4887 0.0003
# 6 0.0116 -0.0057 -0.0140 -0.2140 0.0003 29.7813
#
#
#
# Elastic Compliance Matrix: (Units=1/GPa)
#
#
# Indices 1 2 3 4 5 6 
#
# 1 0.012021 -0.003464 -0.003969 0.000001 -0.001652 -0.000007
# 2 -0.003464 0.008792 -0.001339 0.000002 0.000768 0.000002
# 3 -0.003969 -0.001339 0.011937 -0.000026 0.004840 0.000007
# 4 0.000001 0.000002 -0.000026 0.054306 -0.000013 0.000390
# 5 -0.001652 0.000768 0.004840 -0.000013 0.046662 0.000003
# 6 -0.000007 0.000002 0.000007 0.000390 0.000003 0.033581
#
#
# Mechanical properties :
#
#
# Convention : Reuss Voigt Hill
#
# Bulk Modulus (GPa) = 65.76679 68.30591 67.03635
# Shear Modulus (GPa) = 26.32821 29.39951 27.86386
#
# Velocity S-wave (km/s) = 3.57577 3.77858 3.67857
# Velocity P-wave (km/s) = 6.99910 7.22559 7.11325
#
# Compressibility (1/GPa) = 0.01520524
#
# Stress axis : x y z
#
# Youngs Moduli (GPa) = 83.19024 113.74617 83.77035
#
# Poissons Ratio (x) = 0.39405 0.33251
# Poissons Ratio (y) = 0.28819 0.11214
# Poissons Ratio (z) = 0.33021 0.15226
#
# Static dielectric constant tensor:
#      x y z
#    x 3.687820 0.000010 -0.145460 
#    y 0.000010 3.931980 -0.000150 
#    z -0.145460 -0.000150 3.656120 
# 
# 
# High freq. dielectric constant tensor:
#      x y z
#    x 1.790130 0.000000 -0.011100 
#    y 0.000000 1.812920 -0.000010 
#    z -0.011100 -0.000010 1.808900 
# 
# From -- ./inp_files/311777.got.cif
#   From: 2010.06.25/outbox.cif.g09.slc.cpg/sg15_156_cif.got.tgz:311777.got - 2010.06.28 07:06:18.
