data_PCOD8141600
_publ_section_title
;
Structure prediction by ZEFSAII (Michael W. Deem and Ramdas Pophale) SiO2 
 PCOD8141600
Probable space group: C 2/C
;
_chemical_formula_sum "Si O2"
_cell_formula_units_Z 56
_cell_length_a 19.972518
_cell_length_b 17.507256
_cell_length_c 9.062272
_cell_angle_alpha 90.000000
_cell_angle_beta 70.766333
_cell_angle_gamma 90.000000
_cell_volume 2991.879909
_symmetry_space_group_name_H-M "C 2/C"
_symmetry_group_IT_number 15
_symmetry_cell_setting 'monoclinic'
loop_
_space_group_symop_operation_xyz
x,y,z
-x,y,1/2-z
-x,-y,-z
x,-y,1/2+z
1/2+x,1/2+y,z
1/2-x,1/2+y,1/2-z
1/2-x,1/2-y,-z
1/2+x,1/2-y,1/2+z
loop_
_atom_site_type_symbol
_atom_site_label
_atom_site_fract_x
_atom_site_fract_y
_atom_site_fract_z
Si Si1 0.268298 0.097234 0.682379
Si Si2 0.154400 0.784971 0.242936
Si Si3 0.639201 0.754412 0.422738
Si Si4 0.700860 0.962167 0.028443
Si Si5 0.459732 0.938164 0.431334
Si Si6 0.245489 0.192180 0.139021
Si Si7 0.484461 0.790181 0.595047
O O1 0.191233 0.135869 0.766629
O O2 0.328022 0.161248 0.615581
O O3 0.290931 0.044732 0.802737
O O4 0.263713 0.042079 0.544478
O O5 0.196409 0.713423 0.280424
O O6 0.073041 0.778784 0.356494
O O7 0.160960 0.781183 0.062561
O O8 0.668034 0.700404 0.270616
O O9 0.554716 0.758448 0.465989
O O10 0.618863 0.966767 0.044521
O O11 0.742655 0.893530 0.920375
O O12 0.500000 0.923391 0.250000
O O13 0.453251 0.859541 0.524698
O O14 0.500000 0.000000 0.500000
O O15 0.250000 0.250000 0.000000
O O16 0.500000 0.819578 0.750000
#
# Coordination Sequence:
#
# PCOD8141600 Si02
#       7
#     8   8   8   8   8   8   8
#     4  11  24  38  57  89 119 153 203 242 293 352
#     4  10  21  39  60  84 117 154 200 247 286 353
#     4  10  21  38  60  88 116 152 198 241 294 355
#     4  12  24  37  58  83 121 160 193 240 299 344
#     4  12  24  37  54  85 126 161 191 232 291 368
#     4  11  20  37  58  84 116 152 200 248 285 347
#     4  10  21  37  60  85 115 156 193 240 296 350
#
# _framework density 18.717327999999998
#
# number of rings (size 3 to 8) (size 9 to 14) (size 15 to 20)
#    0.000    1.143    4.286    4.714    4.000    1.143 
#    0.000    0.000    0.000    0.857    0.000    0.000 
#    0.000    0.000    0.000    0.000    0.000    0.000 
#
# Total GULP energy -347253.919819 kJ/mol
# GULP energy per Si atom -12401.925708 kJ/mol
# Density = 1.867473 g / cm^3
# Si number density = 18.717328 Si / 1000 Ang^3
#
#
#
# Elastic Constant Matrix: (Units=GPa)
#
#
# Indices 1 2 3 4 5 6 
#
# 1 99.5365 39.8541 45.8238 0.0000 -14.1660 0.0000
# 2 39.8541 77.7246 32.2763 0.0000 -14.6024 0.0000
# 3 45.8238 32.2763 100.8430 0.0000 -16.0649 0.0000
# 4 0.0000 0.0000 0.0000 35.5332 0.0000 1.4920
# 5 -14.1660 -14.6024 -16.0649 0.0000 36.7740 0.0000
# 6 0.0000 0.0000 0.0000 1.4920 0.0000 21.0009
#
#
#
# Elastic Compliance Matrix: (Units=1/GPa)
#
#
# Indices 1 2 3 4 5 6 
#
# 1 0.014500 -0.005213 -0.004687 0.000000 0.001468 0.000000
# 2 -0.005213 0.017312 -0.002576 0.000000 0.003741 0.000000
# 3 -0.004687 -0.002576 0.013349 0.000000 0.003003 0.000000
# 4 0.000000 0.000000 0.000000 0.028227 0.000000 -0.002005
# 5 0.001468 0.003741 0.003003 0.000000 0.030556 0.000000
# 6 0.000000 0.000000 0.000000 -0.002005 0.000000 0.047759
#
#
# Mechanical properties :
#
#
# Convention : Reuss Voigt Hill
#
# Bulk Modulus (GPa) = 49.48214 57.11251 53.29733
# Shear Modulus (GPa) = 27.26407 29.33830 28.30119
#
# Velocity S-wave (km/s) = 3.82071 3.96339 3.89270
# Velocity P-wave (km/s) = 6.77921 7.17802 6.98147
#
# Compressibility (1/GPa) = 0.02020931
#
# Stress axis : x y z
#
# Youngs Moduli (GPa) = 68.96317 57.76495 74.91211
#
# Poissons Ratio (x) = 0.30114 0.35109
# Poissons Ratio (y) = 0.35952 0.19297
# Poissons Ratio (z) = 0.32321 0.14880
#
# Static dielectric constant tensor:
#      x y z
#    x 3.548820 0.000000 -0.000540 
#    y 0.000000 3.311220 0.000000 
#    z -0.000540 0.000000 3.719210 
# 
# 
# High freq. dielectric constant tensor:
#      x y z
#    x 1.723780 0.000000 0.003590 
#    y 0.000000 1.702830 0.000000 
#    z 0.003590 0.000000 1.746620 
# 
# From -- ./inp_files/49024.got.cif
#   From: 2010.06.25/outbox.cif.g09.slc.cpg/sg15_25_cif.got.tgz:49024.got - 2010.06.28 07:06:18.
