data_PCOD8141473
_publ_section_title
;
Structure prediction by ZEFSAII (Michael W. Deem and Ramdas Pophale) SiO2 
 PCOD8141473
Probable space group: C 2/C
;
_chemical_formula_sum "Si O2"
_cell_formula_units_Z 60
_cell_length_a 17.214669
_cell_length_b 19.106773
_cell_length_c 17.459233
_cell_angle_alpha 90.000000
_cell_angle_beta 35.925886
_cell_angle_gamma 90.000000
_cell_volume 3369.423478
_symmetry_space_group_name_H-M "C 2/C"
_symmetry_group_IT_number 15
_symmetry_cell_setting 'monoclinic'
loop_
_space_group_symop_operation_xyz
x,y,z
-x,y,1/2-z
-x,-y,-z
x,-y,1/2+z
1/2+x,1/2+y,z
1/2-x,1/2+y,1/2-z
1/2-x,1/2-y,-z
1/2+x,1/2-y,1/2+z
loop_
_atom_site_type_symbol
_atom_site_label
_atom_site_fract_x
_atom_site_fract_y
_atom_site_fract_z
Si Si1 0.651306 0.474110 0.956611
Si Si2 0.362875 0.561508 0.680279
Si Si3 0.604040 0.154154 0.059614
Si Si4 0.135548 0.490649 0.594166
Si Si5 0.500000 0.739938 0.750000
Si Si6 0.299709 0.704109 0.785405
Si Si7 0.635351 0.029908 0.427629
Si Si8 0.683242 0.137521 0.264947
O O1 0.639898 0.534931 0.903619
O O2 0.741077 0.510060 0.950377
O O3 0.711570 0.403586 0.871037
O O4 0.505907 0.454769 0.104247
O O5 0.335411 0.644740 0.695370
O O6 0.250408 0.526489 0.822047
O O7 0.678723 0.086422 0.030924
O O8 0.610198 0.213250 0.119484
O O9 0.455437 0.127424 0.165966
O O10 0.660806 0.185501 0.935880
O O11 0.121746 0.540871 0.530361
O O12 0.000000 0.493709 0.750000
O O13 0.416244 0.696179 0.755790
O O14 0.285562 0.779460 0.755738
O O15 0.675225 0.103809 0.356449
O O16 0.500000 0.000000 0.500000
#
# Coordination Sequence:
#
# PCOD8141473 Si02
#       8
#     8   8   8   8   4   8   8   8
#     4  10  22  37  54  77 116 147 184 228 281 322
#     4  10  22  38  53  79 111 151 187 225 270 338
#     4  11  19  34  49  79 111 147 174 217 274 344
#     4  12  19  33  60  82 109 146 188 235 275 324
#     4  10  22  30  44  78 114 138 174 214 280 332
#     4  11  22  32  52  77 110 145 185 220 273 339
#     4  11  20  38  58  80 112 144 190 230 277 332
#     4  10  21  37  54  77 115 148 179 231 280 327
#
# _framework density 17.807200999999999
#
# number of rings (size 3 to 8) (size 9 to 14) (size 15 to 20)
#    0.000    1.333    4.667    2.000    5.600    0.533 
#    0.000    0.000    0.000    0.800    0.000    0.000 
#    0.000    0.000    0.000    0.000    0.000    0.000 
#
# Total GULP energy -371888.372433 kJ/mol
# GULP energy per Si atom -12396.279081 kJ/mol
# Density = 1.776667 g / cm^3
# Si number density = 17.807201 Si / 1000 Ang^3
#
#
#
# Elastic Constant Matrix: (Units=GPa)
#
#
# Indices 1 2 3 4 5 6 
#
# 1 94.6834 36.5471 47.3120 0.0027 -4.3868 -0.0008
# 2 36.5471 103.2058 40.5968 0.0024 6.2556 -0.0008
# 3 47.3120 40.5968 105.1249 0.0043 -2.6947 -0.0029
# 4 0.0027 0.0024 0.0043 21.7052 -0.0029 2.5365
# 5 -4.3868 6.2556 -2.6947 -0.0029 32.4250 0.0015
# 6 -0.0008 -0.0008 -0.0029 2.5365 0.0015 19.3926
#
#
#
# Elastic Compliance Matrix: (Units=1/GPa)
#
#
# Indices 1 2 3 4 5 6 
#
# 1 0.014518 -0.003211 -0.005239 0.000000 0.002148 0.000000
# 2 -0.003211 0.012354 -0.003405 -0.000001 -0.003101 0.000000
# 3 -0.005239 -0.003405 0.013212 -0.000002 0.001046 0.000002
# 4 0.000000 -0.000001 -0.000002 0.046787 0.000004 -0.006120
# 5 0.002148 -0.003101 0.001046 0.000004 0.031816 -0.000003
# 6 0.000000 0.000000 0.000002 -0.006120 -0.000003 0.052366
#
#
# Mechanical properties :
#
#
# Convention : Reuss Voigt Hill
#
# Bulk Modulus (GPa) = 61.07120 61.32510 61.19815
# Shear Modulus (GPa) = 24.97231 26.60843 25.79037
#
# Velocity S-wave (km/s) = 3.74889 3.86975 3.80980
# Velocity P-wave (km/s) = 7.28760 7.38104 7.33447
#
# Compressibility (1/GPa) = 0.01637433
#
# Stress axis : x y z
#
# Youngs Moduli (GPa) = 68.87917 80.94725 75.68747
#
# Poissons Ratio (x) = 0.25988 0.39653
# Poissons Ratio (y) = 0.22114 0.25774
# Poissons Ratio (z) = 0.36086 0.27565
#
# Static dielectric constant tensor:
#      x y z
#    x 3.247320 0.000000 -0.049170 
#    y 0.000000 3.261130 0.000000 
#    z -0.049170 0.000000 3.534520 
# 
# 
# High freq. dielectric constant tensor:
#      x y z
#    x 1.671600 0.000000 -0.009710 
#    y 0.000000 1.669770 0.000000 
#    z -0.009710 0.000000 1.703700 
# 
# From -- ./inp_files/156355.got.cif
#   From: 2010.06.25/outbox.cif.g09.slc.cpg/sg15_79_cif.got.tgz:156355.got - 2010.06.28 07:06:18.
