data_PCOD8141792
_publ_section_title
;
Structure prediction by ZEFSAII (Michael W. Deem and Ramdas Pophale) SiO2 
 PCOD8141792
Probable space group: C 2/C
;
_chemical_formula_sum "Si O2"
_cell_formula_units_Z 56
_cell_length_a 23.624083
_cell_length_b 13.767585
_cell_length_c 15.266793
_cell_angle_alpha 90.000000
_cell_angle_beta 33.595128
_cell_angle_gamma 90.000000
_cell_volume 2747.498590
_symmetry_space_group_name_H-M "C 2/C"
_symmetry_group_IT_number 15
_symmetry_cell_setting 'monoclinic'
loop_
_space_group_symop_operation_xyz
x,y,z
-x,y,1/2-z
-x,-y,-z
x,-y,1/2+z
1/2+x,1/2+y,z
1/2-x,1/2+y,1/2-z
1/2-x,1/2-y,-z
1/2+x,1/2-y,1/2+z
loop_
_atom_site_type_symbol
_atom_site_label
_atom_site_fract_x
_atom_site_fract_y
_atom_site_fract_z
Si Si1 0.882752 0.921973 0.369210
Si Si2 0.703977 0.972984 0.194881
Si Si3 0.885167 0.975567 0.169655
Si Si4 0.240572 0.809646 0.255391
Si Si5 0.386218 0.003198 0.367192
Si Si6 0.205465 0.402429 0.851267
Si Si7 0.121287 0.710716 0.083610
O O1 0.869876 0.974258 0.293265
O O2 0.842964 0.809626 0.414388
O O3 0.000000 0.925919 0.250000
O O4 0.812612 0.981046 0.527151
O O5 0.720174 0.864573 0.209083
O O6 0.624969 0.962443 0.216262
O O7 0.654061 0.037974 0.337055
O O8 0.847041 0.872537 0.179968
O O9 0.823347 0.064124 0.205369
O O10 0.000000 0.000000 0.000000
O O11 0.189756 0.710453 0.353568
O O12 0.338774 0.786197 0.067992
O O13 0.500000 0.021076 0.250000
O O14 0.331537 0.110272 0.437314
O O15 0.341402 0.928474 0.494611
O O16 0.000000 0.706850 0.250000
#
# Coordination Sequence:
#
# PCOD8141792 Si02
#       7
#     8   8   8   8   8   8   8
#     4  11  21  38  68  99 127 170 221 275 338 393
#     4  11  22  41  67  89 130 174 209 270 334 385
#     4  11  24  43  66 100 136 168 222 285 329 398
#     4  11  23  42  65  96 133 171 216 269 335 394
#     4  11  24  45  61  92 132 170 221 274 321 394
#     4  11  23  44  65  95 133 171 220 269 332 401
#     4  10  21  37  64  97 128 161 220 274 323 383
#
# _framework density 20.382176000000001
#
# number of rings (size 3 to 8) (size 9 to 14) (size 15 to 20)
#    0.000    1.143    5.714    1.714    4.000    2.286 
#    2.571    0.714    0.000    0.000    0.000    0.000 
#    0.000    0.000    0.000    0.000    0.000    0.000 
#
# Total GULP energy -347083.106666 kJ/mol
# GULP energy per Si atom -12395.825238 kJ/mol
# Density = 2.033579 g / cm^3
# Si number density = 20.382176 Si / 1000 Ang^3
#
#
#
# Elastic Constant Matrix: (Units=GPa)
#
#
# Indices 1 2 3 4 5 6 
#
# 1 116.2265 31.1022 31.3310 0.0000 25.0260 0.0000
# 2 31.1022 111.5977 36.3329 0.0000 5.5617 0.0000
# 3 31.3310 36.3329 77.6116 0.0000 10.9433 0.0000
# 4 0.0000 0.0000 0.0000 27.7451 0.0000 6.9836
# 5 25.0260 5.5617 10.9433 0.0000 36.3238 0.0000
# 6 0.0000 0.0000 0.0000 6.9836 0.0000 24.2362
#
#
#
# Elastic Compliance Matrix: (Units=1/GPa)
#
#
# Indices 1 2 3 4 5 6 
#
# 1 0.011286 -0.001930 -0.002713 0.000000 -0.006663 0.000000
# 2 -0.001930 0.010903 -0.004467 0.000000 0.001006 0.000000
# 3 -0.002713 -0.004467 0.016408 0.000000 -0.002390 0.000000
# 4 0.000000 0.000000 0.000000 0.038861 0.000000 -0.011198
# 5 -0.006663 0.001006 -0.002390 0.000000 0.032687 0.000000
# 6 0.000000 0.000000 0.000000 -0.011198 0.000000 0.044487
#
#
# Mechanical properties :
#
#
# Convention : Reuss Voigt Hill
#
# Bulk Modulus (GPa) = 49.07435 55.88533 52.47984
# Shear Modulus (GPa) = 27.83274 31.43900 29.63587
#
# Velocity S-wave (km/s) = 3.69933 3.93170 3.81728
# Velocity P-wave (km/s) = 6.50969 6.93464 6.72552
#
# Compressibility (1/GPa) = 0.02037725
#
# Stress axis : x y z
#
# Youngs Moduli (GPa) = 88.60149 91.71989 60.94609
#
# Poissons Ratio (x) = 0.17703 0.16536
# Poissons Ratio (y) = 0.17101 0.27223
# Poissons Ratio (z) = 0.24039 0.40968
#
# Static dielectric constant tensor:
#      x y z
#    x 4.229990 0.000000 -0.468050 
#    y 0.000000 3.829840 0.000000 
#    z -0.468050 0.000000 4.432170 
# 
# 
# High freq. dielectric constant tensor:
#      x y z
#    x 1.796910 0.000000 0.009090 
#    y 0.000000 1.794690 0.000000 
#    z 0.009090 0.000000 1.800560 
# 
# From -- ./inp_files/178345.got.cif
#   From: 2010.06.25/outbox.cif.g09.slc.cpg/sg15_90_cif.got.tgz:178345.got - 2010.06.28 07:06:18.
