data_PCOD8141135
_publ_section_title
;
Structure prediction by ZEFSAII (Michael W. Deem and Ramdas Pophale) SiO2 
 PCOD8141135
Probable space group: C 2/C
;
_chemical_formula_sum "Si O2"
_cell_formula_units_Z 52
_cell_length_a 11.593653
_cell_length_b 19.150098
_cell_length_c 17.999879
_cell_angle_alpha 90.000000
_cell_angle_beta 140.547239
_cell_angle_gamma 90.000000
_cell_volume 2539.432517
_symmetry_space_group_name_H-M "C 2/C"
_symmetry_group_IT_number 15
_symmetry_cell_setting 'monoclinic'
loop_
_space_group_symop_operation_xyz
x,y,z
-x,y,1/2-z
-x,-y,-z
x,-y,1/2+z
1/2+x,1/2+y,z
1/2-x,1/2+y,1/2-z
1/2-x,1/2-y,-z
1/2+x,1/2-y,1/2+z
loop_
_atom_site_type_symbol
_atom_site_label
_atom_site_fract_x
_atom_site_fract_y
_atom_site_fract_z
Si Si1 0.525971 0.415822 0.674789
Si Si2 0.674159 0.268848 0.715925
Si Si3 0.000000 0.328545 0.250000
Si Si4 0.357700 0.029916 0.260953
Si Si5 0.047657 0.329428 0.887804
Si Si6 0.806465 0.548354 0.588087
Si Si7 0.194312 0.792186 0.364688
O O1 0.500000 0.410318 0.750000
O O2 0.556123 0.339996 0.652854
O O3 0.699269 0.464713 0.743092
O O4 0.353957 0.452458 0.551033
O O5 0.584162 0.219435 0.729962
O O6 0.677719 0.225686 0.641198
O O7 0.880655 0.286850 0.841440
O O8 0.834286 0.374699 0.135659
O O9 0.471758 0.101528 0.311413
O O10 0.503739 0.971423 0.358884
O O11 0.274696 0.008277 0.138908
O O12 0.150316 0.283432 0.877784
O O13 0.193224 0.343982 0.025803
O O14 0.000000 0.829181 0.250000
#
# Coordination Sequence:
#
# PCOD8141135 Si02
#       7
#     8   8   4   8   8   8   8
#     4  11  23  40  63  95 125 162 213 256 319 373
#     4  10  21  35  59  90 127 165 198 254 324 366
#     4  10  22  40  56  94 130 160 214 244 308 382
#     4   9  21  42  63  86 120 168 213 251 310 370
#     4   9  19  36  62  90 123 158 211 258 307 371
#     4  10  24  42  66  89 121 171 217 257 295 380
#     4   9  19  35  57  96 123 159 204 260 316 361
#
# _framework density 20.477015999999999
#
# number of rings (size 3 to 8) (size 9 to 14) (size 15 to 20)
#    0.000    2.462    0.769    0.462   12.923    3.692 
#    0.000    5.385    0.000    0.000    0.000    0.000 
#    0.000    0.000    0.000    0.000    0.000    0.000 
#
# Total GULP energy -322222.129275 kJ/mol
# GULP energy per Si atom -12393.158818 kJ/mol
# Density = 2.043041 g / cm^3
# Si number density = 20.477016 Si / 1000 Ang^3
#
#
#
# Elastic Constant Matrix: (Units=GPa)
#
#
# Indices 1 2 3 4 5 6 
#
# 1 138.2664 38.7061 35.0436 -0.0001 -6.9331 0.0000
# 2 38.7061 71.8058 32.8673 -0.0002 -3.7115 -0.0001
# 3 35.0436 32.8673 117.8238 -0.0011 -1.5468 -0.0005
# 4 -0.0001 -0.0002 -0.0011 21.2685 -0.0004 -1.5235
# 5 -6.9331 -3.7115 -1.5468 -0.0004 21.5458 -0.0001
# 6 0.0000 -0.0001 -0.0005 -1.5235 -0.0001 33.5681
#
#
#
# Elastic Compliance Matrix: (Units=1/GPa)
#
#
# Indices 1 2 3 4 5 6 
#
# 1 0.008824 -0.003968 -0.001491 0.000000 0.002049 0.000000
# 2 -0.003968 0.017878 -0.003787 0.000000 0.001531 0.000000
# 3 -0.001491 -0.003787 0.009981 0.000000 -0.000415 0.000000
# 4 0.000000 0.000000 0.000000 0.047171 0.000001 0.002141
# 5 0.002049 0.001531 -0.000415 0.000001 0.047306 0.000000
# 6 0.000000 0.000000 0.000000 0.002141 0.000000 0.029887
#
#
# Mechanical properties :
#
#
# Convention : Reuss Voigt Hill
#
# Bulk Modulus (GPa) = 54.96896 60.12556 57.54726
# Shear Modulus (GPa) = 26.93929 30.02843 28.48386
#
# Velocity S-wave (km/s) = 3.63104 3.83357 3.73368
# Velocity P-wave (km/s) = 6.66946 7.00152 6.83751
#
# Compressibility (1/GPa) = 0.01819209
#
# Stress axis : x y z
#
# Youngs Moduli (GPa) = 113.33010 55.93501 100.18584
#
# Poissons Ratio (x) = 0.22196 0.14933
# Poissons Ratio (y) = 0.44972 0.37938
# Poissons Ratio (z) = 0.16893 0.21181
#
# Static dielectric constant tensor:
#      x y z
#    x 3.681850 0.000000 0.165270 
#    y 0.000000 3.626500 0.000000 
#    z 0.165270 0.000000 3.852680 
# 
# 
# High freq. dielectric constant tensor:
#      x y z
#    x 1.804470 0.000000 0.007770 
#    y 0.000000 1.786360 0.000000 
#    z 0.007770 0.000000 1.794980 
# 
# From -- ./inp_files/200432.got.cif
#   From: 2010.06.25/outbox.cif.g09.slc.cpg/sg15_101_cif.got.tgz:200432.got - 2010.06.28 07:06:18.
