data_PCOD8141952
_publ_section_title
;
Structure prediction by ZEFSAII (Michael W. Deem and Ramdas Pophale) SiO2 
 PCOD8141952
Probable space group: C 2/C
;
_chemical_formula_sum "Si O2"
_cell_formula_units_Z 52
_cell_length_a 12.814950
_cell_length_b 8.192834
_cell_length_c 25.272283
_cell_angle_alpha 90.000000
_cell_angle_beta 114.011110
_cell_angle_gamma 90.000000
_cell_volume 2423.752146
_symmetry_space_group_name_H-M "C 2/C"
_symmetry_group_IT_number 15
_symmetry_cell_setting 'monoclinic'
loop_
_space_group_symop_operation_xyz
x,y,z
-x,y,1/2-z
-x,-y,-z
x,-y,1/2+z
1/2+x,1/2+y,z
1/2-x,1/2+y,1/2-z
1/2-x,1/2-y,-z
1/2+x,1/2-y,1/2+z
loop_
_atom_site_type_symbol
_atom_site_label
_atom_site_fract_x
_atom_site_fract_y
_atom_site_fract_z
Si Si1 0.184156 0.283440 0.115560
Si Si2 0.290710 0.438708 0.230438
Si Si3 0.000000 0.266541 0.750000
Si Si4 0.218008 0.614088 0.067354
Si Si5 0.610263 0.032287 0.354816
Si Si6 0.575724 0.800202 0.439174
Si Si7 0.731019 0.221437 0.819616
O O1 0.185983 0.361349 0.175398
O O2 0.219418 0.422031 0.080189
O O3 0.269049 0.131044 0.122063
O O4 0.052196 0.228716 0.081407
O O5 0.393039 0.347237 0.223723
O O6 0.306978 0.630558 0.225853
O O7 0.291936 0.409029 0.293558
O O8 0.004307 0.372170 0.805397
O O9 0.342493 0.663493 0.070017
O O10 0.190782 0.715214 0.115723
O O11 0.117828 0.657550 0.006512
O O12 0.578931 0.972311 0.407241
O O13 0.622214 0.869723 0.321578
#
# Coordination Sequence:
#
# PCOD8141952 Si02
#       7
#     8   8   4   8   8   8   8
#     4  10  21  40  60  93 124 163 209 261 311 375
#     4  10  21  38  59  87 123 156 206 254 319 372
#     4  10  22  38  56  92 122 154 210 262 306 394
#     4   9  21  41  62  95 124 162 223 249 312 384
#     4  10  23  39  60  93 124 161 217 250 320 381
#     4  10  21  41  67  87 129 173 201 268 313 364
#     4  10  21  41  60  85 128 157 201 267 304 385
#
# _framework density 21.454339000000001
#
# number of rings (size 3 to 8) (size 9 to 14) (size 15 to 20)
#    0.000    2.154    0.000    2.308    6.462    1.231 
#   19.385    6.923    0.000    0.000    0.000    0.000 
#    0.000    0.000    0.000    0.000    0.000    0.000 
#
# Total GULP energy -322198.339262 kJ/mol
# GULP energy per Si atom -12392.243818 kJ/mol
# Density = 2.140551 g / cm^3
# Si number density = 21.454339 Si / 1000 Ang^3
#
#
#
# Elastic Constant Matrix: (Units=GPa)
#
#
# Indices 1 2 3 4 5 6 
#
# 1 51.9699 25.9939 42.8481 0.0000 7.1206 0.0000
# 2 25.9939 95.5055 43.6310 0.0000 -4.4153 0.0000
# 3 42.8481 43.6310 123.7774 0.0000 -9.1502 0.0000
# 4 0.0000 0.0000 0.0000 17.8241 0.0000 5.1528
# 5 7.1206 -4.4153 -9.1502 0.0000 40.1531 0.0000
# 6 0.0000 0.0000 0.0000 5.1528 0.0000 5.1368
#
#
#
# Elastic Compliance Matrix: (Units=1/GPa)
#
#
# Indices 1 2 3 4 5 6 
#
# 1 0.030405 -0.004252 -0.009622 0.000000 -0.008052 0.000000
# 2 -0.004252 0.013081 -0.003028 0.000000 0.001502 0.000000
# 3 -0.009622 -0.003028 0.012794 0.000000 0.004289 0.000000
# 4 0.000000 0.000000 0.000000 0.079018 0.000000 -0.079264
# 5 -0.008052 0.001502 0.004289 0.000000 0.027475 0.000000
# 6 0.000000 0.000000 0.000000 -0.079264 0.000000 0.274184
#
#
# Mechanical properties :
#
#
# Convention : Reuss Voigt Hill
#
# Bulk Modulus (GPa) = 44.49108 55.13320 49.81214
# Shear Modulus (GPa) = 10.45472 23.20812 16.83142
#
# Velocity S-wave (km/s) = 2.20988 3.29256 2.80397
# Velocity P-wave (km/s) = 5.22437 6.34100 5.80958
#
# Compressibility (1/GPa) = 0.02247641
#
# Stress axis : x y z
#
# Youngs Moduli (GPa) = 32.88954 76.44915 78.16072
#
# Poissons Ratio (x) = 0.32506 0.75204
# Poissons Ratio (y) = 0.13985 0.23666
# Poissons Ratio (z) = 0.31645 0.23148
#
# Static dielectric constant tensor:
#      x y z
#    x 3.811220 0.000000 0.504910 
#    y 0.000000 4.017010 0.000000 
#    z 0.504910 0.000000 5.738360 
# 
# 
# High freq. dielectric constant tensor:
#      x y z
#    x 1.820260 0.000000 -0.008580 
#    y 0.000000 1.844710 0.000000 
#    z -0.008580 0.000000 1.849930 
# 
# From -- ./inp_files/272598.got.cif
#   From: 2010.06.25/outbox.cif.g09.slc.cpg/sg15_137_cif.got.tgz:272598.got - 2010.06.28 07:06:18.
