data_PCOD8141217
_publ_section_title
;
Structure prediction by ZEFSAII (Michael W. Deem and Ramdas Pophale) SiO2 
 PCOD8141217
Probable space group: C 2/C
;
_chemical_formula_sum "Si O2"
_cell_formula_units_Z 60
_cell_length_a 6.433479
_cell_length_b 22.237331
_cell_length_c 28.648398
_cell_angle_alpha 90.000000
_cell_angle_beta 126.970947
_cell_angle_gamma 90.000000
_cell_volume 3274.487711
_symmetry_space_group_name_H-M "C 2/C"
_symmetry_group_IT_number 15
_symmetry_cell_setting 'monoclinic'
loop_
_space_group_symop_operation_xyz
x,y,z
-x,y,1/2-z
-x,-y,-z
x,-y,1/2+z
1/2+x,1/2+y,z
1/2-x,1/2+y,1/2-z
1/2-x,1/2-y,-z
1/2+x,1/2-y,1/2+z
loop_
_atom_site_type_symbol
_atom_site_label
_atom_site_fract_x
_atom_site_fract_y
_atom_site_fract_z
Si Si1 0.969787 0.070025 0.551416
Si Si2 0.487963 0.781933 0.556327
Si Si3 0.438263 0.834823 0.648906
Si Si4 0.771508 0.256142 0.306021
Si Si5 0.050309 0.382885 0.494505
Si Si6 0.595446 0.560490 0.064452
Si Si7 0.500000 0.306016 0.750000
Si Si8 0.145942 0.675195 0.910538
O O1 0.715896 0.079287 0.549839
O O2 0.854513 0.068971 0.483542
O O3 0.169358 0.124594 0.586728
O O4 0.128387 0.009075 0.584356
O O5 0.250000 0.750000 0.500000
O O6 0.430069 0.791601 0.602866
O O7 0.529835 0.846613 0.539497
O O8 0.737678 0.741643 0.580378
O O9 0.273555 0.800991 0.666172
O O10 0.297726 0.898692 0.620555
O O11 0.738357 0.845996 0.705996
O O12 0.500000 0.279474 0.250000
O O13 0.962142 0.235790 0.290115
O O14 0.879269 0.316403 0.345987
O O15 0.293756 0.426244 0.533692
O O16 0.091425 0.337614 0.457110
#
# Coordination Sequence:
#
# PCOD8141217 Si02
#       8
#     8   8   8   8   8   8   4   8
#     4  10  21  36  53  82 118 154 185 222 277 338
#     4  12  19  32  54  86 120 144 173 228 290 342
#     4  11  21  37  58  84 114 150 190 238 283 337
#     4  10  22  37  58  85 109 143 191 234 288 341
#     4  11  20  34  53  84 116 154 182 222 282 341
#     4  10  21  36  55  81 115 150 194 227 268 336
#     4  10  22  40  58  86 108 150 188 240 298 328
#     4  11  21  34  54  83 117 146 182 228 281 344
#
# _framework density 18.323475999999999
#
# number of rings (size 3 to 8) (size 9 to 14) (size 15 to 20)
#    0.000    1.333    4.000    3.200    0.000    0.000 
#    0.000    0.000    1.467    0.000    5.200    0.000 
#    0.000    0.000    0.000    0.000    0.000    0.000 
#
# Total GULP energy -371960.769396 kJ/mol
# GULP energy per Si atom -12398.692313 kJ/mol
# Density = 1.828177 g / cm^3
# Si number density = 18.323476 Si / 1000 Ang^3
#
#
#
# Elastic Constant Matrix: (Units=GPa)
#
#
# Indices 1 2 3 4 5 6 
#
# 1 102.2687 34.6231 31.3041 0.0000 2.2817 0.0000
# 2 34.6231 89.0418 37.0053 0.0000 14.4485 0.0000
# 3 31.3041 37.0053 85.6871 0.0000 10.8479 0.0000
# 4 0.0000 0.0000 0.0000 23.0465 0.0000 6.3278
# 5 2.2817 14.4485 10.8479 0.0000 36.1470 0.0000
# 6 0.0000 0.0000 0.0000 6.3278 0.0000 21.2373
#
#
#
# Elastic Compliance Matrix: (Units=1/GPa)
#
#
# Indices 1 2 3 4 5 6 
#
# 1 0.011886 -0.003647 -0.002970 0.000000 0.001599 0.000000
# 2 -0.003647 0.015340 -0.004725 0.000000 -0.004483 0.000000
# 3 -0.002970 -0.004725 0.015107 0.000000 -0.002458 0.000000
# 4 0.000000 0.000000 0.000000 0.047257 0.000000 -0.014080
# 5 0.001599 -0.004483 -0.002458 0.000000 0.030094 0.000000
# 6 0.000000 0.000000 0.000000 -0.014080 0.000000 0.051282
#
#
# Mechanical properties :
#
#
# Convention : Reuss Voigt Hill
#
# Bulk Modulus (GPa) = 50.89101 53.65141 52.27121
# Shear Modulus (GPa) = 24.97519 27.69050 26.33284
#
# Velocity S-wave (km/s) = 3.69591 3.89164 3.79504
# Velocity P-wave (km/s) = 6.78579 7.03824 6.91317
#
# Compressibility (1/GPa) = 0.01964984
#
# Stress axis : x y z
#
# Youngs Moduli (GPa) = 84.13088 65.18933 66.19482
#
# Poissons Ratio (x) = 0.23775 0.19658
# Poissons Ratio (y) = 0.30683 0.31276
# Poissons Ratio (z) = 0.24985 0.30801
#
# Static dielectric constant tensor:
#      x y z
#    x 4.082590 0.000000 0.424400 
#    y 0.000000 3.187740 0.000000 
#    z 0.424400 0.000000 3.372900 
# 
# 
# High freq. dielectric constant tensor:
#      x y z
#    x 1.732600 0.000000 0.005450 
#    y 0.000000 1.691160 0.000000 
#    z 0.005450 0.000000 1.693330 
# 
# From -- ./inp_files/261735.got.cif
#   From: 2010.06.25/outbox.cif.g09.slc.cpg/sg15_131_cif.got.tgz:261735.got - 2010.06.28 07:06:18.
