data_PCOD8141502
_publ_section_title
;
Structure prediction by ZEFSAII (Michael W. Deem and Ramdas Pophale) SiO2 
 PCOD8141502
Probable space group: C 2/C
;
_chemical_formula_sum "Si O2"
_cell_formula_units_Z 52
_cell_length_a 11.121028
_cell_length_b 24.273672
_cell_length_c 13.265697
_cell_angle_alpha 90.000000
_cell_angle_beta 44.313131
_cell_angle_gamma 90.000000
_cell_volume 2501.647950
_symmetry_space_group_name_H-M "C 2/C"
_symmetry_group_IT_number 15
_symmetry_cell_setting 'monoclinic'
loop_
_space_group_symop_operation_xyz
x,y,z
-x,y,1/2-z
-x,-y,-z
x,-y,1/2+z
1/2+x,1/2+y,z
1/2-x,1/2+y,1/2-z
1/2-x,1/2-y,-z
1/2+x,1/2-y,1/2+z
loop_
_atom_site_type_symbol
_atom_site_label
_atom_site_fract_x
_atom_site_fract_y
_atom_site_fract_z
Si Si1 0.500000 0.945121 0.250000
Si Si2 0.911452 0.722104 0.705334
Si Si3 0.160361 0.432075 0.850376
Si Si4 0.180033 0.522104 0.987215
Si Si5 0.194051 0.137685 0.908876
Si Si6 0.095899 0.055632 0.472304
Si Si7 0.235988 0.680351 0.413845
O O1 0.664467 0.909682 0.180568
O O2 0.553206 0.982492 0.125236
O O3 0.742188 0.683609 0.794070
O O4 0.861327 0.784575 0.765223
O O5 0.000000 0.693641 0.750000
O O6 0.055974 0.715557 0.531461
O O7 0.231330 0.435171 0.694969
O O8 0.212389 0.376734 0.873937
O O9 0.951699 0.431863 0.975799
O O10 0.249665 0.483782 0.854971
O O11 0.339309 0.549549 0.950992
O O12 0.177064 0.167617 0.029229
O O13 0.017503 0.109912 0.978168
O O14 0.000000 0.000000 0.500000
#
# Coordination Sequence:
#
# PCOD8141502 Si02
#       7
#     4   8   8   8   8   8   8
#     4  12  16  40  54  78 124 156 194 232 308 358
#     4  10  21  37  56  86 120 152 196 257 307 360
#     4  11  23  38  64  84 124 167 204 242 304 369
#     4  11  22  40  59  87 122 165 199 245 295 370
#     4  11  20  34  59  83 123 159 190 249 308 364
#     4  12  23  36  57  94 125 158 200 253 294 358
#     4  11  22  37  59  91 115 158 204 249 314 362
#
# _framework density 20.786297000000001
#
# number of rings (size 3 to 8) (size 9 to 14) (size 15 to 20)
#    0.000    0.923    6.923    1.846    4.308    3.077 
#    0.000    0.000    0.000    0.923    0.000    0.000 
#    0.000    0.000    0.000    0.000    0.000    0.000 
#
# Total GULP energy -322146.130131 kJ/mol
# GULP energy per Si atom -12390.235774 kJ/mol
# Density = 2.073899 g / cm^3
# Si number density = 20.786297 Si / 1000 Ang^3
#
#
#
# Elastic Constant Matrix: (Units=GPa)
#
#
# Indices 1 2 3 4 5 6 
#
# 1 102.3407 39.8159 15.6162 0.0000 -12.6462 0.0000
# 2 39.8159 85.8789 30.9771 0.0000 -21.4321 0.0000
# 3 15.6162 30.9771 53.9108 0.0000 -11.4849 0.0000
# 4 0.0000 0.0000 0.0000 35.6645 0.0000 -14.3357
# 5 -12.6462 -21.4321 -11.4849 0.0000 19.6974 0.0000
# 6 0.0000 0.0000 0.0000 -14.3357 0.0000 25.8413
#
#
#
# Elastic Compliance Matrix: (Units=1/GPa)
#
#
# Indices 1 2 3 4 5 6 
#
# 1 0.011996 -0.004950 -0.000157 0.000000 0.002224 0.000000
# 2 -0.004950 0.020117 -0.007010 0.000000 0.014624 0.000000
# 3 -0.000157 -0.007010 0.023951 0.000000 0.006237 0.000000
# 4 0.000000 0.000000 0.000000 0.036086 0.000000 0.020019
# 5 0.002224 0.014624 0.006237 0.000000 0.071744 0.000000
# 6 0.000000 0.000000 0.000000 0.020019 0.000000 0.049804
#
#
# Mechanical properties :
#
#
# Convention : Reuss Voigt Hill
#
# Bulk Modulus (GPa) = 31.41620 46.10543 38.76082
# Shear Modulus (GPa) = 20.11728 26.62203 23.36965
#
# Velocity S-wave (km/s) = 3.11435 3.58264 3.35667
# Velocity P-wave (km/s) = 5.29895 6.27236 5.80609
#
# Compressibility (1/GPa) = 0.03183071
#
# Stress axis : x y z
#
# Youngs Moduli (GPa) = 83.36204 49.70819 41.75139
#
# Poissons Ratio (x) = 0.24606 0.00654
# Poissons Ratio (y) = 0.41264 0.29269
# Poissons Ratio (z) = 0.01306 0.34847
#
# Static dielectric constant tensor:
#      x y z
#    x 3.528490 0.000000 -0.186060 
#    y 0.000000 3.920120 0.000000 
#    z -0.186060 0.000000 4.292170 
# 
# 
# High freq. dielectric constant tensor:
#      x y z
#    x 1.765430 0.000000 -0.015860 
#    y 0.000000 1.816720 0.000000 
#    z -0.015860 0.000000 1.826610 
# 
# From -- ./inp_files/148029.got.cif
#   From: 2010.06.25/outbox.cif.g09.slc.cpg/sg15_75_cif.got.tgz:148029.got - 2010.06.28 07:06:18.
