data_PCOD8141030
_publ_section_title
;
Structure prediction by ZEFSAII (Michael W. Deem and Ramdas Pophale) SiO2 
 PCOD8141030
Probable space group: C 2/C
;
_chemical_formula_sum "Si O2"
_cell_formula_units_Z 48
_cell_length_a 5.673436
_cell_length_b 19.020818
_cell_length_c 23.405015
_cell_angle_alpha 90.000000
_cell_angle_beta 111.409913
_cell_angle_gamma 90.000000
_cell_volume 2351.421783
_symmetry_space_group_name_H-M "C 2/C"
_symmetry_group_IT_number 15
_symmetry_cell_setting 'monoclinic'
loop_
_space_group_symop_operation_xyz
x,y,z
-x,y,1/2-z
-x,-y,-z
x,-y,1/2+z
1/2+x,1/2+y,z
1/2-x,1/2+y,1/2-z
1/2-x,1/2-y,-z
1/2+x,1/2-y,1/2+z
loop_
_atom_site_type_symbol
_atom_site_label
_atom_site_fract_x
_atom_site_fract_y
_atom_site_fract_z
Si Si1 0.639858 0.445899 0.594637
Si Si2 0.712253 0.457929 0.727539
Si Si3 0.986021 0.301230 0.024379
Si Si4 0.607372 0.196093 0.406042
Si Si5 0.718595 0.798277 0.726628
Si Si6 0.837741 0.549324 0.525696
O O1 0.574968 0.465455 0.653829
O O2 0.783797 0.372841 0.613991
O O3 0.800670 0.509550 0.582088
O O4 0.410233 0.432075 0.531976
O O5 0.500000 0.495058 0.750000
O O6 0.747742 0.379036 0.753021
O O7 0.000000 0.491659 0.750000
O O8 0.951223 0.375231 0.053539
O O9 0.206755 0.262753 0.078404
O O10 0.750000 0.250000 0.000000
O O11 0.049671 0.323326 0.965737
O O12 0.364773 0.214244 0.346437
O O13 0.500000 0.765477 0.750000
O O14 0.000000 0.762343 0.750000
O O15 0.000000 0.500000 0.500000
#
# Coordination Sequence:
#
# PCOD8141030 Si02
#       6
#     8   8   8   8   8   8
#     4  11  22  38  60  98 134 165 224 276 332 399
#     4  10  21  34  60  97 127 163 214 280 330 372
#     4  11  24  38  63  92 133 178 212 274 332 398
#     4  11  22  38  60  98 134 165 224 276 332 399
#     4  10  21  34  60  97 127 163 214 280 330 372
#     4  11  24  38  63  92 133 178 212 274 332 398
#
# _framework density 20.413181000000002
#
# number of rings (size 3 to 8) (size 9 to 14) (size 15 to 20)
#    0.000    1.333    6.667    0.000    9.333    0.000 
#    0.000    0.000    0.000    0.000    8.667    0.000 
#    0.000    0.000    0.000    0.000    0.000    0.000 
#
# Total GULP energy -297338.449042 kJ/mol
# GULP energy per Si atom -12389.102043 kJ/mol
# Density = 2.036672 g / cm^3
# Si number density = 20.413181 Si / 1000 Ang^3
#
#
#
# Elastic Constant Matrix: (Units=GPa)
#
#
# Indices 1 2 3 4 5 6 
#
# 1 130.2111 20.7507 29.4105 0.0000 -5.7693 0.0000
# 2 20.7507 93.1904 18.1959 0.0000 -10.0844 0.0000
# 3 29.4105 18.1959 120.2984 0.0000 4.5671 0.0000
# 4 0.0000 0.0000 0.0000 39.8069 0.0000 -8.6912
# 5 -5.7693 -10.0844 4.5671 0.0000 13.6737 0.0000
# 6 0.0000 0.0000 0.0000 -8.6912 0.0000 24.0407
#
#
#
# Elastic Compliance Matrix: (Units=1/GPa)
#
#
# Indices 1 2 3 4 5 6 
#
# 1 0.008469 -0.001118 -0.002031 0.000000 0.003427 0.000000
# 2 -0.001118 0.012367 -0.001950 0.000000 0.009300 0.000000
# 3 -0.002031 -0.001950 0.009309 0.000000 -0.005405 0.000000
# 4 0.000000 0.000000 0.000000 0.027274 0.000000 0.009860
# 5 0.003427 0.009300 -0.005405 0.000000 0.083243 0.000000
# 6 0.000000 0.000000 0.000000 0.009860 0.000000 0.045161
#
#
# Mechanical properties :
#
#
# Convention : Reuss Voigt Hill
#
# Bulk Modulus (GPa) = 50.13714 53.37935 51.75824
# Shear Modulus (GPa) = 24.67052 33.86045 29.26548
#
# Velocity S-wave (km/s) = 3.48020 4.07720 3.79047
# Velocity P-wave (km/s) = 6.38464 6.95492 6.67587
#
# Compressibility (1/GPa) = 0.01994529
#
# Stress axis : x y z
#
# Youngs Moduli (GPa) = 118.08173 80.86093 107.41738
#
# Poissons Ratio (x) = 0.09042 0.21821
# Poissons Ratio (y) = 0.13204 0.20949
# Poissons Ratio (z) = 0.23987 0.15770
#
# Static dielectric constant tensor:
#      x y z
#    x 4.463190 0.000000 0.025720 
#    y 0.000000 3.328670 0.000000 
#    z 0.025720 0.000000 4.745620 
# 
# 
# High freq. dielectric constant tensor:
#      x y z
#    x 1.814100 0.000000 -0.000460 
#    y 0.000000 1.752010 0.000000 
#    z -0.000460 0.000000 1.800770 
# 
# From -- ./inp_files/260895.got.cif
#   From: 2010.06.25/outbox.cif.g09.slc.cpg/sg15_131_cif.got.tgz:260895.got - 2010.06.28 07:06:18.
