data_PCOD8141994
_publ_section_title
;
Structure prediction by ZEFSAII (Michael W. Deem and Ramdas Pophale) SiO2 
 PCOD8141994
Probable space group: C 2/C
;
_chemical_formula_sum "Si O2"
_cell_formula_units_Z 52
_cell_length_a 27.591916
_cell_length_b 7.145715
_cell_length_c 12.617950
_cell_angle_alpha 90.000000
_cell_angle_beta 91.120002
_cell_angle_gamma 90.000000
_cell_volume 2487.329794
_symmetry_space_group_name_H-M "C 2/C"
_symmetry_group_IT_number 15
_symmetry_cell_setting 'monoclinic'
loop_
_space_group_symop_operation_xyz
x,y,z
-x,y,1/2-z
-x,-y,-z
x,-y,1/2+z
1/2+x,1/2+y,z
1/2-x,1/2+y,1/2-z
1/2-x,1/2-y,-z
1/2+x,1/2-y,1/2+z
loop_
_atom_site_type_symbol
_atom_site_label
_atom_site_fract_x
_atom_site_fract_y
_atom_site_fract_z
Si Si1 0.202967 0.215530 0.847991
Si Si2 0.570827 0.937429 0.080311
Si Si3 0.000000 0.694380 0.750000
Si Si4 0.147268 0.463125 0.253414
Si Si5 0.578637 0.234687 0.909502
Si Si6 0.627571 0.594189 0.013840
Si Si7 0.298863 0.616457 0.307133
O O1 0.169286 0.334674 0.769618
O O2 0.172455 0.180048 0.951864
O O3 0.251692 0.334585 0.877503
O O4 0.215757 0.027849 0.785040
O O5 0.528820 0.931653 0.166655
O O6 0.621202 0.984154 0.139437
O O7 0.581810 0.736553 0.023977
O O8 0.555485 0.105645 0.000969
O O9 0.037700 0.813242 0.824612
O O10 0.112513 0.408724 0.348736
O O11 0.188651 0.307459 0.252406
O O12 0.607280 0.409280 0.957540
O O13 0.653394 0.545315 0.126900
#
# Coordination Sequence:
#
# PCOD8141994 Si02
#       7
#     8   8   4   8   8   8   8
#     4  12  21  40  61  90 127 168 210 252 302 351
#     4  10  22  42  64  90 125 157 206 253 310 372
#     4  10  24  42  68  94 124 154 204 262 308 376
#     4  10  21  38  60  89 123 166 203 252 305 360
#     4  11  21  43  64  92 123 160 204 254 313 369
#     4  11  24  39  65  92 126 166 203 253 311 369
#     4  11  23  38  59  93 127 164 211 256 296 354
#
# _framework density 20.905951999999999
#
# number of rings (size 3 to 8) (size 9 to 14) (size 15 to 20)
#    0.000    1.231    4.615    1.846    0.000    0.615 
#    0.000    3.077    0.000    0.000    0.000    0.000 
#    0.000    0.000    0.000    0.000    0.000    0.000 
#
# Total GULP energy -322235.878199 kJ/mol
# GULP energy per Si atom -12393.687623 kJ/mol
# Density = 2.085837 g / cm^3
# Si number density = 20.905952 Si / 1000 Ang^3
#
#
#
# Elastic Constant Matrix: (Units=GPa)
#
#
# Indices 1 2 3 4 5 6 
#
# 1 88.8049 20.7961 27.5535 0.0000 -10.4216 0.0000
# 2 20.7961 59.7301 26.8160 0.0000 1.0360 0.0000
# 3 27.5535 26.8160 81.2151 0.0000 -8.3233 0.0000
# 4 0.0000 0.0000 0.0000 23.2455 0.0000 4.3190
# 5 -10.4216 1.0360 -8.3233 0.0000 43.2364 0.0000
# 6 0.0000 0.0000 0.0000 4.3190 0.0000 23.2838
#
#
#
# Elastic Compliance Matrix: (Units=1/GPa)
#
#
# Indices 1 2 3 4 5 6 
#
# 1 0.013322 -0.003263 -0.003168 0.000000 0.002679 0.000000
# 2 -0.003263 0.020586 -0.005939 0.000000 -0.002423 0.000000
# 3 -0.003168 -0.005939 0.015593 0.000000 0.002380 0.000000
# 4 0.000000 0.000000 0.000000 0.044555 0.000000 -0.008265
# 5 0.002679 -0.002423 0.002380 0.000000 0.024291 0.000000
# 6 0.000000 0.000000 0.000000 -0.008265 0.000000 0.044481
#
#
# Mechanical properties :
#
#
# Convention : Reuss Voigt Hill
#
# Bulk Modulus (GPa) = 40.38364 42.23126 41.30745
# Shear Modulus (GPa) = 25.53372 28.25879 26.89625
#
# Velocity S-wave (km/s) = 3.49859 3.68055 3.59072
# Velocity P-wave (km/s) = 5.97318 6.18921 6.08216
#
# Compressibility (1/GPa) = 0.02476250
#
# Stress axis : x y z
#
# Youngs Moduli (GPa) = 75.06388 48.57653 64.13329
#
# Poissons Ratio (x) = 0.15848 0.20316
# Poissons Ratio (y) = 0.24490 0.38086
# Poissons Ratio (z) = 0.23779 0.28848
#
# Static dielectric constant tensor:
#      x y z
#    x 3.923800 0.000000 -0.014430 
#    y 0.000000 3.527360 0.000000 
#    z -0.014430 0.000000 3.818800 
# 
# 
# High freq. dielectric constant tensor:
#      x y z
#    x 1.828140 0.000000 -0.002610 
#    y 0.000000 1.799800 0.000000 
#    z -0.002610 0.000000 1.823980 
# 
# From -- ./inp_files/121533.got.cif
#   From: 2010.06.25/outbox.cif.g09.slc.cpg/sg15_61_cif.got.tgz:121533.got - 2010.06.28 07:06:18.
