data_PCOD8141124
_publ_section_title
;
Structure prediction by ZEFSAII (Michael W. Deem and Ramdas Pophale) SiO2 
 PCOD8141124
Probable space group: C 2/C
;
_chemical_formula_sum "Si O2"
_cell_formula_units_Z 44
_cell_length_a 22.402491
_cell_length_b 20.324827
_cell_length_c 14.545678
_cell_angle_alpha 90.000000
_cell_angle_beta 18.702123
_cell_angle_gamma 90.000000
_cell_volume 2123.663939
_symmetry_space_group_name_H-M "C 2/C"
_symmetry_group_IT_number 15
_symmetry_cell_setting 'monoclinic'
loop_
_space_group_symop_operation_xyz
x,y,z
-x,y,1/2-z
-x,-y,-z
x,-y,1/2+z
1/2+x,1/2+y,z
1/2-x,1/2+y,1/2-z
1/2-x,1/2-y,-z
1/2+x,1/2-y,1/2+z
loop_
_atom_site_type_symbol
_atom_site_label
_atom_site_fract_x
_atom_site_fract_y
_atom_site_fract_z
Si Si1 0.806286 0.711954 0.276717
Si Si2 0.500000 0.566566 0.250000
Si Si3 0.041313 0.819666 0.328839
Si Si4 0.452460 0.469764 0.474232
Si Si5 0.398537 0.101124 0.655588
Si Si6 0.463893 0.999907 0.411033
O O1 0.888457 0.784451 0.179770
O O2 0.658229 0.712744 0.408870
O O3 0.697561 0.686601 0.523851
O O4 0.984423 0.666459 0.994355
O O5 0.552571 0.516230 0.254841
O O6 0.324075 0.613886 0.530933
O O7 0.029660 0.896603 0.361073
O O8 0.500000 0.500000 0.500000
O O9 0.233596 0.467503 0.778191
O O10 0.399246 0.052832 0.743002
O O11 0.479295 0.068826 0.443665
O O12 0.500000 0.011280 0.250000
#
# Coordination Sequence:
#
# PCOD8141124 Si02
#       6
#     8   4   8   8   8   8
#     4  10  21  40  63  87 125 161 202 257 310 371
#     4  10  22  38  60  92 128 158 202 258 310 364
#     4  10  22  39  61  91 122 160 205 254 311 369
#     4  11  22  36  62  91 125 158 199 256 304 373
#     4  10  21  38  61  88 123 168 197 258 309 363
#     4  10  21  35  58  91 123 159 204 248 309 371
#
# _framework density 20.718909
#
# number of rings (size 3 to 8) (size 9 to 14) (size 15 to 20)
#    0.000    1.818    1.818    2.182    7.636    2.909 
#    3.273    0.000    2.000    3.273    0.000    0.000 
#    0.000    0.000    0.000    0.000    0.000    0.000 
#
# Total GULP energy -272661.212199 kJ/mol
# GULP energy per Si atom -12393.691464 kJ/mol
# Density = 2.067175 g / cm^3
# Si number density = 20.718909 Si / 1000 Ang^3
#
#
#
# Elastic Constant Matrix: (Units=GPa)
#
#
# Indices 1 2 3 4 5 6 
#
# 1 97.6379 10.5509 14.4640 0.0110 6.6883 -0.0039
# 2 10.5509 42.5355 38.2879 0.0295 -16.8890 -0.0132
# 3 14.4640 38.2879 89.5024 0.0186 -15.8075 -0.0103
# 4 0.0110 0.0295 0.0186 27.4490 0.0052 -6.1380
# 5 6.6883 -16.8890 -15.8075 0.0052 36.4517 -0.0083
# 6 -0.0039 -0.0132 -0.0103 -6.1380 -0.0083 22.0713
#
#
#
# Elastic Compliance Matrix: (Units=1/GPa)
#
#
# Indices 1 2 3 4 5 6 
#
# 1 0.011043 -0.003414 -0.001041 0.000000 -0.004059 -0.000002
# 2 -0.003414 0.044327 -0.015890 -0.000035 0.014273 0.000014
# 3 -0.001041 -0.015890 0.018272 0.000005 0.000752 0.000000
# 4 0.000000 -0.000035 0.000005 0.038847 -0.000017 0.010803
# 5 -0.004059 0.014273 0.000752 -0.000017 0.035118 0.000017
# 6 -0.000002 0.000014 0.000000 0.010803 0.000017 0.048312
#
#
# Mechanical properties :
#
#
# Convention : Reuss Voigt Hill
#
# Bulk Modulus (GPa) = 30.34732 39.58684 34.96708
# Shear Modulus (GPa) = 20.19444 28.28592 24.24018
#
# Velocity S-wave (km/s) = 3.12538 3.69890 3.42417
# Velocity P-wave (km/s) = 5.26336 6.11478 5.70498
#
# Compressibility (1/GPa) = 0.03295184
#
# Stress axis : x y z
#
# Youngs Moduli (GPa) = 90.55382 22.55952 54.72996
#
# Poissons Ratio (x) = 0.07702 0.05698
# Poissons Ratio (y) = 0.30914 0.86966
# Poissons Ratio (z) = 0.09428 0.35847
#
# Static dielectric constant tensor:
#      x y z
#    x 3.826880 -0.000090 -0.159900 
#    y -0.000090 3.397900 0.000220 
#    z -0.159900 0.000220 3.547850 
# 
# 
# High freq. dielectric constant tensor:
#      x y z
#    x 1.813050 0.000000 -0.023400 
#    y 0.000000 1.785890 0.000010 
#    z -0.023400 0.000010 1.816120 
# 
# From -- ./inp_files/174188.got.cif
#   From: 2010.06.25/outbox.cif.g09.slc.cpg/sg15_88_cif.got.tgz:174188.got - 2010.06.28 07:06:18.
