data_PCOD8141328
_publ_section_title
;
Structure prediction by ZEFSAII (Michael W. Deem and Ramdas Pophale) SiO2 
 PCOD8141328
Probable space group: C 2/C
;
_chemical_formula_sum "Si O2"
_cell_formula_units_Z 64
_cell_length_a 21.841567
_cell_length_b 9.233125
_cell_length_c 14.161709
_cell_angle_alpha 90.000000
_cell_angle_beta 90.799330
_cell_angle_gamma 90.000000
_cell_volume 2855.656131
_symmetry_space_group_name_H-M "C 2/C"
_symmetry_group_IT_number 15
_symmetry_cell_setting 'monoclinic'
loop_
_space_group_symop_operation_xyz
x,y,z
-x,y,1/2-z
-x,-y,-z
x,-y,1/2+z
1/2+x,1/2+y,z
1/2-x,1/2+y,1/2-z
1/2-x,1/2-y,-z
1/2+x,1/2-y,1/2+z
loop_
_atom_site_type_symbol
_atom_site_label
_atom_site_fract_x
_atom_site_fract_y
_atom_site_fract_z
Si Si1 0.897362 0.434701 0.760758
Si Si2 0.576038 0.113202 0.030273
Si Si3 0.180184 0.081339 0.308619
Si Si4 0.569932 0.260790 0.721687
Si Si5 0.442308 0.157330 0.069640
Si Si6 0.289093 0.275374 0.285141
Si Si7 0.062556 0.921030 0.529825
Si Si8 0.837976 0.855667 0.484555
O O1 0.921772 0.370790 0.857901
O O2 0.893883 0.608705 0.766676
O O3 0.944383 0.388086 0.679065
O O4 0.832467 0.353696 0.746064
O O5 0.505706 0.153552 0.010658
O O6 0.621478 0.221556 0.978221
O O7 0.598168 0.960178 0.987821
O O8 0.109286 0.118976 0.281178
O O9 0.221912 0.209071 0.264576
O O10 0.193225 0.078751 0.422310
O O11 0.199443 0.923290 0.271288
O O12 0.500000 0.243468 0.750000
O O13 0.560293 0.308574 0.614738
O O14 0.417132 0.321319 0.059680
O O15 0.293198 0.307024 0.398788
O O16 0.115149 0.030881 0.559790
O O17 0.000000 0.000000 0.500000
#
# Coordination Sequence:
#
# PCOD8141328 Si02
#       8
#     8   8   8   8   8   8   8   8
#     4  11  23  41  66  98 138 179 241 289 353 417
#     4  10  21  36  59  92 135 181 231 283 343 422
#     4  12  25  48  75 100 143 185 242 297 363 434
#     4  12  25  43  69 105 144 192 235 295 363 431
#     4  11  21  36  62  93 136 188 228 288 349 414
#     4  11  26  48  73 105 137 191 242 305 354 432
#     4  12  23  41  63 102 150 185 237 295 361 438
#     4  11  23  44  67 101 139 185 236 293 367 428
#
# _framework density 22.411660999999999
#
# number of rings (size 3 to 8) (size 9 to 14) (size 15 to 20)
#    0.000    0.750    3.750    4.500    1.750    0.000 
#    0.000    1.250    0.000    0.000    0.000    0.000 
#    0.000    0.000    0.000    0.000    0.000    0.000 
#
# Total GULP energy -396485.249822 kJ/mol
# GULP energy per Si atom -12390.164057 kJ/mol
# Density = 2.236065 g / cm^3
# Si number density = 22.411661 Si / 1000 Ang^3
#
#
#
# Elastic Constant Matrix: (Units=GPa)
#
#
# Indices 1 2 3 4 5 6 
#
# 1 83.5963 44.9036 21.1620 0.0000 2.2633 0.0000
# 2 44.9036 152.3781 46.2650 0.0000 0.4266 0.0000
# 3 21.1620 46.2650 101.5275 0.0000 -6.9659 0.0000
# 4 0.0000 0.0000 0.0000 40.4161 0.0000 2.4620
# 5 2.2633 0.4266 -6.9659 0.0000 19.6774 0.0000
# 6 0.0000 0.0000 0.0000 2.4620 0.0000 35.1281
#
#
#
# Elastic Compliance Matrix: (Units=1/GPa)
#
#
# Indices 1 2 3 4 5 6 
#
# 1 0.014426 -0.003817 -0.001410 0.000000 -0.002076 0.000000
# 2 -0.003817 0.008666 -0.003214 0.000000 -0.000887 0.000000
# 3 -0.001410 -0.003214 0.011913 0.000000 0.004449 0.000000
# 4 0.000000 0.000000 0.000000 0.024849 0.000000 -0.001742
# 5 -0.002076 -0.000887 0.004449 0.000000 0.052653 0.000000
# 6 0.000000 0.000000 0.000000 -0.001742 0.000000 0.028589
#
#
# Mechanical properties :
#
#
# Convention : Reuss Voigt Hill
#
# Bulk Modulus (GPa) = 55.17955 62.46257 58.82106
# Shear Modulus (GPa) = 30.48432 34.05573 32.27003
#
# Velocity S-wave (km/s) = 3.69209 3.90237 3.79869
# Velocity P-wave (km/s) = 6.54597 6.94520 6.74854
#
# Compressibility (1/GPa) = 0.01812266
#
# Stress axis : x y z
#
# Youngs Moduli (GPa) = 69.32054 115.39542 83.93974
#
# Poissons Ratio (x) = 0.44049 0.11834
# Poissons Ratio (y) = 0.26461 0.26979
# Poissons Ratio (z) = 0.09773 0.37090
#
# Static dielectric constant tensor:
#      x y z
#    x 3.905110 0.000000 -0.111480 
#    y 0.000000 4.377440 0.000000 
#    z -0.111480 0.000000 4.189880 
# 
# 
# High freq. dielectric constant tensor:
#      x y z
#    x 1.860760 0.000000 -0.000110 
#    y 0.000000 1.902210 0.000000 
#    z -0.000110 0.000000 1.887340 
# 
# From -- ./inp_files/172406.got.cif
#   From: 2010.06.25/outbox.cif.g09.slc.cpg/sg15_87_cif.got.tgz:172406.got - 2010.06.28 07:06:18.
