data_PCOD8141324
_publ_section_title
;
Structure prediction by ZEFSAII (Michael W. Deem and Ramdas Pophale) SiO2 
 PCOD8141324
Probable space group: C 2/C
;
_chemical_formula_sum "Si O2"
_cell_formula_units_Z 48
_cell_length_a 12.789187
_cell_length_b 8.904874
_cell_length_c 24.557954
_cell_angle_alpha 90.000000
_cell_angle_beta 127.115278
_cell_angle_gamma 90.000000
_cell_volume 2230.240434
_symmetry_space_group_name_H-M "C 2/C"
_symmetry_group_IT_number 15
_symmetry_cell_setting 'monoclinic'
loop_
_space_group_symop_operation_xyz
x,y,z
-x,y,1/2-z
-x,-y,-z
x,-y,1/2+z
1/2+x,1/2+y,z
1/2-x,1/2+y,1/2-z
1/2-x,1/2-y,-z
1/2+x,1/2-y,1/2+z
loop_
_atom_site_type_symbol
_atom_site_label
_atom_site_fract_x
_atom_site_fract_y
_atom_site_fract_z
Si Si1 0.954504 0.687108 0.549995
Si Si2 0.311410 0.092940 0.811889
Si Si3 0.877445 0.244360 0.824834
Si Si4 0.797629 0.971058 0.535602
Si Si5 0.590965 0.587581 0.824129
Si Si6 0.525804 0.350499 0.474518
O O1 0.860303 0.541120 0.514303
O O2 0.036749 0.709735 0.519508
O O3 0.048496 0.669005 0.631465
O O4 0.861258 0.829860 0.525636
O O5 0.249211 0.151641 0.736177
O O6 0.218451 0.147409 0.832416
O O7 0.334103 0.915966 0.814755
O O8 0.909134 0.180887 0.894741
O O9 0.003310 0.220554 0.824198
O O10 0.858311 0.970494 0.615214
O O11 0.838122 0.123402 0.515908
O O12 0.500000 0.504083 0.750000
O O13 0.500000 0.500000 0.500000
#
# Coordination Sequence:
#
# PCOD8141324 Si02
#       6
#     8   8   8   8   8   8
#     4  10  21  36  59  91 121 160 212 255 309 384
#     4  11  24  39  67  89 130 166 212 266 317 383
#     4  10  23  40  63  95 124 172 213 257 328 384
#     4   9  19  37  59  86 126 160 204 259 312 375
#     4   9  20  38  60  83 124 160 206 257 318 369
#     4   9  19  36  62  87 123 162 206 258 319 374
#
# _framework density 21.522342999999999
#
# number of rings (size 3 to 8) (size 9 to 14) (size 15 to 20)
#    0.000    2.333    0.000    1.000    9.333    4.000 
#    0.000    3.333   14.667    0.000    0.000    0.000 
#    0.000    0.000    0.000    0.000    0.000    0.000 
#
# Total GULP energy -297356.893500 kJ/mol
# GULP energy per Si atom -12389.870563 kJ/mol
# Density = 2.147336 g / cm^3
# Si number density = 21.522343 Si / 1000 Ang^3
#
#
#
# Elastic Constant Matrix: (Units=GPa)
#
#
# Indices 1 2 3 4 5 6 
#
# 1 63.7663 37.6549 36.1769 0.0000 4.8651 0.0000
# 2 37.6549 69.5177 43.5502 0.0000 6.7977 0.0000
# 3 36.1769 43.5502 146.8464 0.0000 3.2637 0.0000
# 4 0.0000 0.0000 0.0000 36.4978 0.0000 0.8548
# 5 4.8651 6.7977 3.2637 0.0000 36.2185 0.0000
# 6 0.0000 0.0000 0.0000 0.8548 0.0000 25.5825
#
#
#
# Elastic Compliance Matrix: (Units=1/GPa)
#
#
# Indices 1 2 3 4 5 6 
#
# 1 0.023810 -0.011238 -0.002514 0.000000 -0.000863 0.000000
# 2 -0.011238 0.023270 -0.004077 0.000000 -0.002490 0.000000
# 3 -0.002514 -0.004077 0.008631 0.000000 0.000325 0.000000
# 4 0.000000 0.000000 0.000000 0.027420 0.000000 -0.000916
# 5 -0.000863 -0.002490 0.000325 0.000000 0.028164 0.000000
# 6 0.000000 0.000000 0.000000 -0.000916 0.000000 0.039120
#
#
# Mechanical properties :
#
#
# Convention : Reuss Voigt Hill
#
# Bulk Modulus (GPa) = 49.86732 57.21047 53.53890
# Shear Modulus (GPa) = 25.93925 30.50966 28.22446
#
# Velocity S-wave (km/s) = 3.47540 3.76916 3.62526
# Velocity P-wave (km/s) = 6.27095 6.75142 6.51562
#
# Compressibility (1/GPa) = 0.02005321
#
# Stress axis : x y z
#
# Youngs Moduli (GPa) = 41.99829 42.97439 115.86008
#
# Poissons Ratio (x) = 0.48294 0.29126
# Poissons Ratio (y) = 0.47197 0.47238
# Poissons Ratio (z) = 0.10558 0.17521
#
# Static dielectric constant tensor:
#      x y z
#    x 4.440380 0.000000 -0.052190 
#    y 0.000000 3.735530 0.000000 
#    z -0.052190 0.000000 4.138600 
# 
# 
# High freq. dielectric constant tensor:
#      x y z
#    x 1.845250 0.000000 -0.003150 
#    y 0.000000 1.818710 0.000000 
#    z -0.003150 0.000000 1.861300 
# 
# From -- ./inp_files/295470.got.cif
#   From: 2010.06.25/outbox.cif.g09.slc.cpg/sg15_148_cif.got.tgz:295470.got - 2010.06.28 07:06:18.
