data_PCOD8141895
_publ_section_title
;
Structure prediction by ZEFSAII (Michael W. Deem and Ramdas Pophale) SiO2 
 PCOD8141895
Probable space group: C 2/C
;
_chemical_formula_sum "Si O2"
_cell_formula_units_Z 36
_cell_length_a 11.311659
_cell_length_b 27.631618
_cell_length_c 8.847475
_cell_angle_alpha 90.000000
_cell_angle_beta 139.887181
_cell_angle_gamma 90.000000
_cell_volume 1781.708119
_symmetry_space_group_name_H-M "C 2/C"
_symmetry_group_IT_number 15
_symmetry_cell_setting 'monoclinic'
loop_
_space_group_symop_operation_xyz
x,y,z
-x,y,1/2-z
-x,-y,-z
x,-y,1/2+z
1/2+x,1/2+y,z
1/2-x,1/2+y,1/2-z
1/2-x,1/2-y,-z
1/2+x,1/2-y,1/2+z
loop_
_atom_site_type_symbol
_atom_site_label
_atom_site_fract_x
_atom_site_fract_y
_atom_site_fract_z
Si Si1 0.500000 0.215622 0.750000
Si Si2 0.685889 0.057452 0.128606
Si Si3 0.223573 0.456589 0.319454
Si Si4 0.494876 0.388263 0.067616
Si Si5 0.629087 0.308777 0.003742
O O1 0.408775 0.250602 0.531079
O O2 0.656376 0.182066 0.828041
O O3 0.788748 0.103972 0.301757
O O4 0.727262 0.012512 0.278367
O O5 0.469335 0.068245 0.914306
O O6 0.759558 0.046340 0.033183
O O7 0.382535 0.429368 0.387663
O O8 0.500000 0.393817 0.250000
O O9 0.575212 0.334873 0.106706
O O10 0.500000 0.333640 0.750000
#
# Coordination Sequence:
#
# PCOD8141895 Si02
#       5
#     4   8   8   8   8
#     4   8  18  38  66  82 106 140 182 238 284 342
#     4  10  21  38  58  80 112 151 194 235 280 328
#     4  10  21  38  58  81 110 153 192 236 282 325
#     4  12  24  35  53  85 119 150 187 231 275 335
#     4   9  18  37  61  84 106 141 184 228 283 337
#
# _framework density 20.20533
#
# number of rings (size 3 to 8) (size 9 to 14) (size 15 to 20)
#    0.667    1.333    0.000    4.000    0.000    6.222 
#    0.000    1.111    0.000    0.000    0.000    0.000 
#    0.000    0.000    0.000    0.000    0.000    0.000 
#
# Total GULP energy -223142.295693 kJ/mol
# GULP energy per Si atom -12396.794205 kJ/mol
# Density = 2.015934 g / cm^3
# Si number density = 20.205330 Si / 1000 Ang^3
#
#
#
# Elastic Constant Matrix: (Units=GPa)
#
#
# Indices 1 2 3 4 5 6 
#
# 1 105.8226 22.7197 57.8188 0.0000 0.9604 0.0000
# 2 22.7197 50.2144 21.3866 0.0000 0.6839 0.0000
# 3 57.8188 21.3866 100.8409 0.0000 -2.9615 0.0000
# 4 0.0000 0.0000 0.0000 5.0253 0.0000 7.8204
# 5 0.9604 0.6839 -2.9615 0.0000 42.7264 0.0000
# 6 0.0000 0.0000 0.0000 7.8204 0.0000 25.0830
#
#
#
# Elastic Compliance Matrix: (Units=1/GPa)
#
#
# Indices 1 2 3 4 5 6 
#
# 1 0.014256 -0.003241 -0.007510 0.000000 -0.000789 0.000000
# 2 -0.003241 0.022648 -0.002960 0.000000 -0.000495 0.000000
# 3 -0.007510 -0.002960 0.014887 0.000000 0.001248 0.000000
# 4 0.000000 0.000000 0.000000 0.386541 0.000000 -0.120515
# 5 -0.000789 -0.000495 0.001248 0.000000 0.023517 0.000000
# 6 0.000000 0.000000 0.000000 -0.120515 0.000000 0.077442
#
#
# Mechanical properties :
#
#
# Convention : Reuss Voigt Hill
#
# Bulk Modulus (GPa) = 41.03334 51.19202 46.11268
# Shear Modulus (GPa) = 8.69817 24.89713 16.79765
#
# Velocity S-wave (km/s) = 2.07707 3.51409 2.88644
# Velocity P-wave (km/s) = 5.10926 6.46962 5.82926
#
# Compressibility (1/GPa) = 0.02437043
#
# Stress axis : x y z
#
# Youngs Moduli (GPa) = 70.14659 44.15361 67.17397
#
# Poissons Ratio (x) = 0.14310 0.50445
# Poissons Ratio (y) = 0.22734 0.19880
# Poissons Ratio (z) = 0.52678 0.13067
#
# Static dielectric constant tensor:
#      x y z
#    x 3.692220 0.000000 0.209980 
#    y 0.000000 3.368740 0.000000 
#    z 0.209980 0.000000 3.709540 
# 
# 
# High freq. dielectric constant tensor:
#      x y z
#    x 1.787890 0.000000 0.022950 
#    y 0.000000 1.767950 0.000000 
#    z 0.022950 0.000000 1.787360 
# 
# From -- ./inp_files/34696.got.cif
#   From: 2010.06.25/outbox.cif.g09.slc.cpg/sg15_18_cif.got.tgz:34696.got - 2010.06.28 07:06:18.
