data_PCOD8141617
_publ_section_title
;
Structure prediction by ZEFSAII (Michael W. Deem and Ramdas Pophale) SiO2 
 PCOD8141617
Probable space group: C 2/C
;
_chemical_formula_sum "Si O2"
_cell_formula_units_Z 52
_cell_length_a 14.737438
_cell_length_b 22.118968
_cell_length_c 11.293983
_cell_angle_alpha 90.000000
_cell_angle_beta 41.542275
_cell_angle_gamma 90.000000
_cell_volume 2441.521056
_symmetry_space_group_name_H-M "C 2/C"
_symmetry_group_IT_number 15
_symmetry_cell_setting 'monoclinic'
loop_
_space_group_symop_operation_xyz
x,y,z
-x,y,1/2-z
-x,-y,-z
x,-y,1/2+z
1/2+x,1/2+y,z
1/2-x,1/2+y,1/2-z
1/2-x,1/2-y,-z
1/2+x,1/2-y,1/2+z
loop_
_atom_site_type_symbol
_atom_site_label
_atom_site_fract_x
_atom_site_fract_y
_atom_site_fract_z
Si Si1 0.158487 0.061467 0.758576
Si Si2 0.593285 0.863035 0.423568
Si Si3 0.672804 0.740124 0.454631
Si Si4 0.947647 0.933152 0.672004
Si Si5 0.000000 0.148724 0.750000
Si Si6 0.647068 0.197052 0.625706
Si Si7 0.707263 0.853517 0.829618
O O1 0.317981 0.078488 0.624508
O O2 0.113896 0.108558 0.701795
O O3 0.133873 0.995671 0.726175
O O4 0.080888 0.062521 0.959805
O O5 0.608378 0.804755 0.491537
O O6 0.654719 0.839162 0.239816
O O7 0.432825 0.882321 0.587735
O O8 0.750000 0.750000 0.500000
O O9 0.557386 0.689964 0.588429
O O10 0.766155 0.712370 0.257033
O O11 0.844501 0.893096 0.692463
O O12 0.000000 0.908448 0.750000
O O13 0.500000 0.228059 0.750000
O O14 0.750000 0.250000 0.500000
O O15 0.672769 0.147724 0.501151
#
# Coordination Sequence:
#
# PCOD8141617 Si02
#       7
#     8   8   8   8   4   8   8
#     4  11  24  43  68  93 128 172 219 277 323 382
#     4  11  24  41  64  98 136 169 212 269 335 385
#     4  12  23  39  65  93 136 175 212 259 330 403
#     4  11  24  44  71  94 123 172 233 269 326 387
#     4  12  22  42  64  94 128 172 216 270 320 386
#     4  10  21  37  60  89 127 164 208 259 318 377
#     4  11  24  41  63  97 130 170 219 270 326 388
#
# _framework density 21.298199
#
# number of rings (size 3 to 8) (size 9 to 14) (size 15 to 20)
#    0.000    0.923    5.385    1.846    0.000    2.462 
#    0.000    0.000    0.000    0.000    0.000    0.000 
#    0.000    0.000    0.000    0.000    0.000    0.000 
#
# Total GULP energy -322121.345497 kJ/mol
# GULP energy per Si atom -12389.282519 kJ/mol
# Density = 2.124972 g / cm^3
# Si number density = 21.298199 Si / 1000 Ang^3
#
#
#
# Elastic Constant Matrix: (Units=GPa)
#
#
# Indices 1 2 3 4 5 6 
#
# 1 115.3250 31.5528 20.8209 0.0002 -10.5452 0.0000
# 2 31.5528 77.6226 10.4245 0.0000 -13.9951 0.0000
# 3 20.8209 10.4245 53.3603 0.0001 -5.4798 -0.0001
# 4 0.0002 0.0000 0.0001 31.8262 -0.0002 -1.9623
# 5 -10.5452 -13.9951 -5.4798 -0.0002 47.0315 0.0001
# 6 0.0000 0.0000 -0.0001 -1.9623 0.0001 23.6536
#
#
#
# Elastic Compliance Matrix: (Units=1/GPa)
#
#
# Indices 1 2 3 4 5 6 
#
# 1 0.010320 -0.003605 -0.003234 0.000000 0.000864 0.000000
# 2 -0.003605 0.015150 -0.001187 0.000000 0.003561 0.000000
# 3 -0.003234 -0.001187 0.020367 0.000000 0.001295 0.000000
# 4 0.000000 0.000000 0.000000 0.031582 0.000000 0.002620
# 5 0.000864 0.003561 0.001295 0.000000 0.022667 0.000000
# 6 0.000000 0.000000 0.000000 0.002620 0.000000 0.042494
#
#
# Mechanical properties :
#
#
# Convention : Reuss Voigt Hill
#
# Bulk Modulus (GPa) = 33.57382 41.32270 37.44826
# Shear Modulus (GPa) = 29.66277 32.73622 31.19950
#
# Velocity S-wave (km/s) = 3.73599 3.92477 3.83154
# Velocity P-wave (km/s) = 5.86584 6.32317 6.09879
#
# Compressibility (1/GPa) = 0.02978511
#
# Stress axis : x y z
#
# Youngs Moduli (GPa) = 96.89592 66.00748 49.09836
#
# Poissons Ratio (x) = 0.23795 0.15878
# Poissons Ratio (y) = 0.34931 0.05829
# Poissons Ratio (z) = 0.31335 0.07837
#
# Static dielectric constant tensor:
#      x y z
#    x 4.110850 0.000000 0.050910 
#    y 0.000000 3.733360 0.000000 
#    z 0.050910 0.000000 3.874700 
# 
# 
# High freq. dielectric constant tensor:
#      x y z
#    x 1.851660 0.000000 0.003190 
#    y 0.000000 1.812730 0.000000 
#    z 0.003190 0.000000 1.838430 
# 
# From -- ./inp_files/42322.got.cif
#   From: 2010.06.25/outbox.cif.g09.slc.cpg/sg15_22_cif.got.tgz:42322.got - 2010.06.28 07:06:18.
