data_PCOD8141413
_publ_section_title
;
Structure prediction by ZEFSAII (Michael W. Deem and Ramdas Pophale) SiO2 
 PCOD8141413
Probable space group: C 2/C
;
_chemical_formula_sum "Si O2"
_cell_formula_units_Z 52
_cell_length_a 11.942760
_cell_length_b 21.228842
_cell_length_c 12.627088
_cell_angle_alpha 90.000000
_cell_angle_beta 128.136685
_cell_angle_gamma 90.000000
_cell_volume 2517.995293
_symmetry_space_group_name_H-M "C 2/C"
_symmetry_group_IT_number 15
_symmetry_cell_setting 'monoclinic'
loop_
_space_group_symop_operation_xyz
x,y,z
-x,y,1/2-z
-x,-y,-z
x,-y,1/2+z
1/2+x,1/2+y,z
1/2-x,1/2+y,1/2-z
1/2-x,1/2-y,-z
1/2+x,1/2-y,1/2+z
loop_
_atom_site_type_symbol
_atom_site_label
_atom_site_fract_x
_atom_site_fract_y
_atom_site_fract_z
Si Si1 0.522664 0.333304 0.934916
Si Si2 0.253873 0.175488 0.733639
Si Si3 0.401348 0.534287 0.355736
Si Si4 0.250569 0.217543 0.114282
Si Si5 0.838914 0.581302 0.147664
Si Si6 0.500000 0.763220 0.250000
Si Si7 0.841378 0.924419 0.169017
O O1 0.468293 0.399489 0.856237
O O2 0.408102 0.302012 0.946089
O O3 0.577151 0.284979 0.876309
O O4 0.655575 0.349484 0.083909
O O5 0.191188 0.235400 0.761101
O O6 0.401418 0.192071 0.762799
O O7 0.264900 0.117569 0.821662
O O8 0.500000 0.500000 0.500000
O O9 0.243944 0.547463 0.306879
O O10 0.377037 0.492048 0.238962
O O11 0.349962 0.156493 0.169355
O O12 0.250000 0.250000 0.000000
O O13 0.000000 0.554743 0.250000
O O14 0.746479 0.565056 0.989409
O O15 0.000000 0.891694 0.250000
#
# Coordination Sequence:
#
# PCOD8141413 Si02
#       7
#     8   8   8   8   8   4   8
#     4  10  22  39  62  92 123 173 229 273 324 399
#     4  11  22  38  65  93 129 170 220 273 334 406
#     4  11  22  43  66  95 127 178 234 277 324 403
#     4  10  21  36  62  95 132 168 211 272 341 398
#     4  11  25  41  63 102 138 167 221 285 340 398
#     4  10  24  40  56  94 134 172 214 270 354 410
#     4  12  23  41  73  96 124 177 230 278 335 401
#
# _framework density 20.651347999999999
#
# number of rings (size 3 to 8) (size 9 to 14) (size 15 to 20)
#    0.000    1.231    4.615    1.385    3.231    0.615 
#    1.385    1.538    0.000    0.000    0.000    0.000 
#    0.000    0.000    0.000    0.000    0.000    0.000 
#
# Total GULP energy -322227.777354 kJ/mol
# GULP energy per Si atom -12393.376052 kJ/mol
# Density = 2.060435 g / cm^3
# Si number density = 20.651348 Si / 1000 Ang^3
#
#
#
# Elastic Constant Matrix: (Units=GPa)
#
#
# Indices 1 2 3 4 5 6 
#
# 1 93.9982 49.7977 33.5041 0.0000 -3.4718 0.0000
# 2 49.7977 110.1352 24.2129 0.0000 -7.3579 0.0000
# 3 33.5041 24.2129 95.7688 0.0000 4.7000 0.0000
# 4 0.0000 0.0000 0.0000 38.3296 0.0000 -12.2139
# 5 -3.4718 -7.3579 4.7000 0.0000 34.1193 0.0000
# 6 0.0000 0.0000 0.0000 -12.2139 0.0000 35.9629
#
#
#
# Elastic Compliance Matrix: (Units=1/GPa)
#
#
# Indices 1 2 3 4 5 6 
#
# 1 0.015205 -0.005977 -0.003847 0.000000 0.000788 0.000000
# 2 -0.005977 0.012167 -0.001092 0.000000 0.002166 0.000000
# 3 -0.003847 -0.001092 0.012177 0.000000 -0.002304 0.000000
# 4 0.000000 0.000000 0.000000 0.029256 0.000000 0.009936
# 5 0.000788 0.002166 -0.002304 0.000000 0.030174 0.000000
# 6 0.000000 0.000000 0.000000 0.009936 0.000000 0.031181
#
#
# Mechanical properties :
#
#
# Convention : Reuss Voigt Hill
#
# Bulk Modulus (GPa) = 56.43888 57.21462 56.82675
# Shear Modulus (GPa) = 31.66662 34.50820 33.08741
#
# Velocity S-wave (km/s) = 3.92010 4.09221 4.00708
# Velocity P-wave (km/s) = 6.91942 7.07767 6.99899
#
# Compressibility (1/GPa) = 0.01771828
#
# Stress axis : x y z
#
# Youngs Moduli (GPa) = 65.76765 82.19140 82.12391
#
# Poissons Ratio (x) = 0.49122 0.31593
# Poissons Ratio (y) = 0.39306 0.08964
# Poissons Ratio (z) = 0.25301 0.08971
#
# Static dielectric constant tensor:
#      x y z
#    x 3.921550 0.000000 -0.216670 
#    y 0.000000 3.893760 0.000000 
#    z -0.216670 0.000000 3.625550 
# 
# 
# High freq. dielectric constant tensor:
#      x y z
#    x 1.807140 0.000000 -0.017730 
#    y 0.000000 1.811980 0.000000 
#    z -0.017730 0.000000 1.801370 
# 
# From -- ./inp_files/89120.got.cif
#   From: 2010.06.25/outbox.cif.g09.slc.cpg/sg15_45_cif.got.tgz:89120.got - 2010.06.28 07:06:18.
