data_PCOD8141875
_publ_section_title
;
Structure prediction by ZEFSAII (Michael W. Deem and Ramdas Pophale) SiO2 
 PCOD8141875
Probable space group: C 2/C
;
_chemical_formula_sum "Si O2"
_cell_formula_units_Z 56
_cell_length_a 20.876508
_cell_length_b 9.500469
_cell_length_c 14.452880
_cell_angle_alpha 90.000000
_cell_angle_beta 77.012701
_cell_angle_gamma 90.000000
_cell_volume 2793.209085
_symmetry_space_group_name_H-M "C 2/C"
_symmetry_group_IT_number 15
_symmetry_cell_setting 'monoclinic'
loop_
_space_group_symop_operation_xyz
x,y,z
-x,y,1/2-z
-x,-y,-z
x,-y,1/2+z
1/2+x,1/2+y,z
1/2-x,1/2+y,1/2-z
1/2-x,1/2-y,-z
1/2+x,1/2-y,1/2+z
loop_
_atom_site_type_symbol
_atom_site_label
_atom_site_fract_x
_atom_site_fract_y
_atom_site_fract_z
Si Si1 0.988053 0.496096 0.611351
Si Si2 0.840565 0.011968 0.143124
Si Si3 0.874628 0.417763 0.403238
Si Si4 0.617228 0.795972 0.294003
Si Si5 0.619153 0.206934 0.395109
Si Si6 0.746295 0.584784 0.491774
Si Si7 0.725983 0.001773 0.822205
O O1 0.953108 0.638555 0.657828
O O2 0.941327 0.360911 0.643413
O O3 0.000000 0.500000 0.500000
O O4 0.059313 0.488484 0.637771
O O5 0.884481 0.132847 0.176040
O O6 0.817600 0.048523 0.047369
O O7 0.774632 0.987706 0.221819
O O8 0.884666 0.872427 0.122724
O O9 0.865813 0.310909 0.320343
O O10 0.883157 0.328612 0.494587
O O11 0.813496 0.523854 0.425840
O O12 0.673183 0.872064 0.336671
O O13 0.687394 0.146795 0.331342
O O14 0.750000 0.750000 0.500000
O O15 0.734115 0.514214 0.595291
#
# Coordination Sequence:
#
# PCOD8141875 Si02
#       7
#     8   8   8   8   8   8   8
#     4   9  20  41  64  82 112 155 210 243 291 367
#     4  12  23  36  60  93 129 153 196 258 314 355
#     4  10  21  40  65  84 115 167 212 243 297 375
#     4  11  21  37  62  89 117 163 201 251 295 365
#     4   9  22  38  60  89 118 160 201 256 307 354
#     4  11  23  36  60  93 127 160 201 253 307 361
#     4  10  21  38  56  85 127 163 203 234 304 379
#
# _framework density 20.048624
#
# number of rings (size 3 to 8) (size 9 to 14) (size 15 to 20)
#    0.000    1.714    2.857    2.143    2.000    1.143 
#    0.000    2.857    0.000    3.429    0.000    0.000 
#    0.000    0.000    0.000    0.000    0.000    0.000 
#
# Total GULP energy -347171.306950 kJ/mol
# GULP energy per Si atom -12398.975248 kJ/mol
# Density = 2.000299 g / cm^3
# Si number density = 20.048624 Si / 1000 Ang^3
#
#
#
# Elastic Constant Matrix: (Units=GPa)
#
#
# Indices 1 2 3 4 5 6 
#
# 1 65.7516 38.8121 20.5708 0.0000 9.7089 0.0000
# 2 38.8121 154.3749 29.3519 0.0000 3.8858 0.0000
# 3 20.5708 29.3519 76.6440 0.0000 6.4690 0.0000
# 4 0.0000 0.0000 0.0000 24.6417 0.0000 4.6684
# 5 9.7089 3.8858 6.4690 0.0000 29.2135 0.0000
# 6 0.0000 0.0000 0.0000 4.6684 0.0000 13.4472
#
#
#
# Elastic Compliance Matrix: (Units=1/GPa)
#
#
# Indices 1 2 3 4 5 6 
#
# 1 0.019420 -0.004146 -0.003186 0.000000 -0.005197 0.000000
# 2 -0.004146 0.007875 -0.001968 0.000000 0.000766 0.000000
# 3 -0.003186 -0.001968 0.014822 0.000000 -0.001962 0.000000
# 4 0.000000 0.000000 0.000000 0.043439 0.000000 -0.015080
# 5 -0.005197 0.000766 -0.001962 0.000000 0.036291 0.000000
# 6 0.000000 0.000000 0.000000 -0.015080 0.000000 0.079600
#
#
# Mechanical properties :
#
#
# Convention : Reuss Voigt Hill
#
# Bulk Modulus (GPa) = 42.52139 52.69337 47.60738
# Shear Modulus (GPa) = 21.94098 27.32952 24.63525
#
# Velocity S-wave (km/s) = 3.31174 3.69611 3.50919
# Velocity P-wave (km/s) = 5.98988 6.67494 6.34167
#
# Compressibility (1/GPa) = 0.02351757
#
# Stress axis : x y z
#
# Youngs Moduli (GPa) = 51.49276 126.98508 67.46943
#
# Poissons Ratio (x) = 0.52648 0.21495
# Poissons Ratio (y) = 0.21349 0.13276
# Poissons Ratio (z) = 0.16405 0.24987
#
# Static dielectric constant tensor:
#      x y z
#    x 3.970740 0.000000 0.099670 
#    y 0.000000 3.517870 0.000000 
#    z 0.099670 0.000000 3.883550 
# 
# 
# High freq. dielectric constant tensor:
#      x y z
#    x 1.772250 0.000000 0.006920 
#    y 0.000000 1.764720 0.000000 
#    z 0.006920 0.000000 1.794280 
# 
# From -- ./inp_files/171795.got.cif
#   From: 2010.06.25/outbox.cif.g09.slc.cpg/sg15_86_cif.got.tgz:171795.got - 2010.06.28 07:06:18.
