data_PCOD8141101
_publ_section_title
;
Structure prediction by ZEFSAII (Michael W. Deem and Ramdas Pophale) SiO2 
 PCOD8141101
Probable space group: C 2/C
;
_chemical_formula_sum "Si O2"
_cell_formula_units_Z 56
_cell_length_a 21.320781
_cell_length_b 12.493757
_cell_length_c 19.260532
_cell_angle_alpha 90.000000
_cell_angle_beta 145.377079
_cell_angle_gamma 90.000000
_cell_volume 2915.043427
_symmetry_space_group_name_H-M "C 2/C"
_symmetry_group_IT_number 15
_symmetry_cell_setting 'monoclinic'
loop_
_space_group_symop_operation_xyz
x,y,z
-x,y,1/2-z
-x,-y,-z
x,-y,1/2+z
1/2+x,1/2+y,z
1/2-x,1/2+y,1/2-z
1/2-x,1/2-y,-z
1/2+x,1/2-y,1/2+z
loop_
_atom_site_type_symbol
_atom_site_label
_atom_site_fract_x
_atom_site_fract_y
_atom_site_fract_z
Si Si1 0.796669 0.922776 0.676835
Si Si2 0.512238 0.303841 0.896781
Si Si3 0.209103 0.135234 0.482531
Si Si4 0.055277 0.588101 0.129703
Si Si5 0.427974 0.088429 0.752099
Si Si6 0.176277 0.745715 0.155689
Si Si7 0.166461 0.411291 0.135783
O O1 0.797060 0.933724 0.593735
O O2 0.707499 0.836161 0.622164
O O3 0.914448 0.889114 0.814106
O O4 0.763760 0.037838 0.677930
O O5 0.589309 0.352775 0.906908
O O6 0.464281 0.184890 0.836692
O O7 0.573202 0.307164 0.026927
O O8 0.250000 0.250000 0.500000
O O9 0.297170 0.088481 0.617303
O O10 0.049529 0.531884 0.199469
O O11 0.138210 0.688089 0.192975
O O12 0.103613 0.495206 0.125846
O O13 0.932402 0.633067 0.002173
O O14 0.500000 0.105821 0.750000
O O15 0.280215 0.819794 0.267958
#
# Coordination Sequence:
#
# PCOD8141101 Si02
#       7
#     8   8   8   8   8   8   8
#     4  11  21  34  53  82 113 145 180 225 279 330
#     4  12  20  31  54  83 116 142 177 227 287 334
#     4  12  20  32  53  85 115 145 173 226 284 331
#     4  10  21  35  57  81 105 146 187 226 270 330
#     4  12  20  33  56  82 111 142 183 229 277 332
#     4  11  21  36  54  79 111 148 187 226 271 324
#     4  10  21  37  55  77 112 145 184 228 272 327
#
# _framework density 19.210691000000001
#
# number of rings (size 3 to 8) (size 9 to 14) (size 15 to 20)
#    0.000    0.857    4.286    6.429    0.000    0.571 
#    0.000    1.429    0.000    5.143    0.000    0.000 
#    0.000    0.000    0.000    0.000    0.000    0.000 
#
# Total GULP energy -347042.942362 kJ/mol
# GULP energy per Si atom -12394.390799 kJ/mol
# Density = 1.916697 g / cm^3
# Si number density = 19.210691 Si / 1000 Ang^3
#
#
#
# Elastic Constant Matrix: (Units=GPa)
#
#
# Indices 1 2 3 4 5 6 
#
# 1 58.4250 30.9630 15.1250 0.0000 11.6894 0.0000
# 2 30.9630 45.9154 35.4321 0.0000 -0.7704 0.0000
# 3 15.1250 35.4321 126.6266 0.0000 7.6363 0.0000
# 4 0.0000 0.0000 0.0000 21.7076 0.0000 -0.2865
# 5 11.6894 -0.7704 7.6363 0.0000 32.7300 0.0000
# 6 0.0000 0.0000 0.0000 -0.2865 0.0000 22.8611
#
#
#
# Elastic Compliance Matrix: (Units=1/GPa)
#
#
# Indices 1 2 3 4 5 6 
#
# 1 0.031699 -0.024570 0.003861 0.000000 -0.012800 0.000000
# 2 -0.024570 0.047025 -0.010974 0.000000 0.012442 0.000000
# 3 0.003861 -0.010974 0.010757 0.000000 -0.004147 0.000000
# 4 0.000000 0.000000 0.000000 0.046074 0.000000 0.000577
# 5 -0.012800 0.012442 -0.004147 0.000000 0.036385 0.000000
# 6 0.000000 0.000000 0.000000 0.000577 0.000000 0.043750
#
#
# Mechanical properties :
#
#
# Convention : Reuss Voigt Hill
#
# Bulk Modulus (GPa) = 38.29331 43.77858 41.03594
# Shear Modulus (GPa) = 17.37553 25.42287 21.39920
#
# Velocity S-wave (km/s) = 3.01071 3.64176 3.34117
# Velocity P-wave (km/s) = 5.66237 6.36564 6.02428
#
# Compressibility (1/GPa) = 0.02611422
#
# Stress axis : x y z
#
# Youngs Moduli (GPa) = 31.54705 21.26520 92.96400
#
# Poissons Ratio (x) = 0.52249 -0.35891
# Poissons Ratio (y) = 0.77511 1.02018
# Poissons Ratio (z) = -0.12180 0.23336
#
# Static dielectric constant tensor:
#      x y z
#    x 3.963740 0.000000 -0.166380 
#    y 0.000000 2.946860 0.000000 
#    z -0.166380 0.000000 3.861570 
# 
# 
# High freq. dielectric constant tensor:
#      x y z
#    x 1.747910 0.000000 0.017240 
#    y 0.000000 1.698710 0.000000 
#    z 0.017240 0.000000 1.758240 
# 
# From -- ./inp_files/255425.got.cif
#   From: 2010.06.25/outbox.cif.g09.slc.cpg/sg15_128_cif.got.tgz:255425.got - 2010.06.28 07:06:18.
