data_PCOD8141129
_publ_section_title
;
Structure prediction by ZEFSAII (Michael W. Deem and Ramdas Pophale) SiO2 
 PCOD8141129
Probable space group: C 2/C
;
_chemical_formula_sum "Si O2"
_cell_formula_units_Z 48
_cell_length_a 26.342033
_cell_length_b 12.088152
_cell_length_c 17.608262
_cell_angle_alpha 90.000000
_cell_angle_beta 27.920260
_cell_angle_gamma 90.000000
_cell_volume 2625.405112
_symmetry_space_group_name_H-M "C 2/C"
_symmetry_group_IT_number 15
_symmetry_cell_setting 'monoclinic'
loop_
_space_group_symop_operation_xyz
x,y,z
-x,y,1/2-z
-x,-y,-z
x,-y,1/2+z
1/2+x,1/2+y,z
1/2-x,1/2+y,1/2-z
1/2-x,1/2-y,-z
1/2+x,1/2-y,1/2+z
loop_
_atom_site_type_symbol
_atom_site_label
_atom_site_fract_x
_atom_site_fract_y
_atom_site_fract_z
Si Si1 0.752940 0.709755 0.320543
Si Si2 0.322732 0.425871 0.293188
Si Si3 0.377216 0.438396 0.394848
Si Si4 0.301115 0.326381 0.777355
Si Si5 0.105085 0.820188 0.572774
Si Si6 0.539382 0.695024 0.992644
O O1 0.735116 0.834007 0.378931
O O2 0.709785 0.619169 0.435489
O O3 0.692053 0.693972 0.321524
O O4 0.884090 0.698720 0.131132
O O5 0.342592 0.409472 0.355723
O O6 0.281319 0.546483 0.325147
O O7 0.437514 0.402933 0.098825
O O8 0.500000 0.397315 0.250000
O O9 0.366800 0.569245 0.418585
O O10 0.413010 0.276873 0.662463
O O11 0.205760 0.261716 0.945491
O O12 0.077762 0.852277 0.522744
O O13 0.000000 0.762350 0.750000
#
# Coordination Sequence:
#
# PCOD8141129 Si02
#       6
#     8   8   8   8   8   8
#     4   9  22  35  57  85 116 139 192 231 269 334
#     4  10  21  35  59  86 109 147 189 226 275 335
#     4  11  20  36  60  84 114 147 186 232 278 329
#     4  11  19  38  62  78 115 151 181 234 285 317
#     4  10  22  36  57  85 112 144 190 232 274 334
#     4   9  20  36  57  86 105 145 192 227 274 334
#
# _framework density 18.282893000000001
#
# number of rings (size 3 to 8) (size 9 to 14) (size 15 to 20)
#    1.000    1.000    0.000    5.000    0.000    2.667 
#    0.000    1.667    0.000    0.000    0.000    0.000 
#    0.000    0.000    0.000    0.000    0.000    0.000 
#
# Total GULP energy -297391.076452 kJ/mol
# GULP energy per Si atom -12391.294852 kJ/mol
# Density = 1.824128 g / cm^3
# Si number density = 18.282893 Si / 1000 Ang^3
#
#
#
# Elastic Constant Matrix: (Units=GPa)
#
#
# Indices 1 2 3 4 5 6 
#
# 1 49.7260 8.5091 -5.4442 0.0000 1.9011 0.0000
# 2 8.5091 54.4300 29.0754 0.0000 -13.9664 0.0000
# 3 -5.4442 29.0754 89.6234 0.0000 -4.6572 0.0000
# 4 0.0000 0.0000 0.0000 31.9842 0.0000 5.9482
# 5 1.9011 -13.9664 -4.6572 0.0000 31.4175 0.0000
# 6 0.0000 0.0000 0.0000 5.9482 0.0000 27.2355
#
#
#
# Elastic Compliance Matrix: (Units=1/GPa)
#
#
# Indices 1 2 3 4 5 6 
#
# 1 0.021584 -0.005890 0.003042 0.000000 -0.003474 0.000000
# 2 -0.005890 0.026594 -0.008417 0.000000 0.010931 0.000000
# 3 0.003042 -0.008417 0.013977 0.000000 -0.001854 0.000000
# 4 0.000000 0.000000 0.000000 0.032589 0.000000 -0.007117
# 5 -0.003474 0.010931 -0.001854 0.000000 0.036624 0.000000
# 6 0.000000 0.000000 0.000000 -0.007117 0.000000 0.038271
#
#
# Mechanical properties :
#
#
# Convention : Reuss Voigt Hill
#
# Bulk Modulus (GPa) = 25.23799 28.67332 26.95566
# Shear Modulus (GPa) = 24.34518 28.90339 26.62428
#
# Velocity S-wave (km/s) = 3.65304 3.98036 3.82021
# Velocity P-wave (km/s) = 5.62380 6.06973 5.85101
#
# Compressibility (1/GPa) = 0.03962281
#
# Stress axis : x y z
#
# Youngs Moduli (GPa) = 46.33074 37.60205 71.54627
#
# Poissons Ratio (x) = 0.22149 -0.21761
# Poissons Ratio (y) = 0.27290 0.60224
# Poissons Ratio (z) = -0.14092 0.31651
#
# Static dielectric constant tensor:
#      x y z
#    x 3.376500 0.000000 0.110300 
#    y 0.000000 3.122210 0.000000 
#    z 0.110300 0.000000 3.507170 
# 
# 
# High freq. dielectric constant tensor:
#      x y z
#    x 1.719160 0.000000 0.017080 
#    y 0.000000 1.685180 0.000000 
#    z 0.017080 0.000000 1.711650 
# 
# From -- ./inp_files/222273.got.cif
#   From: 2010.06.25/outbox.cif.g09.slc.cpg/sg15_112_cif.got.tgz:222273.got - 2010.06.28 07:06:18.
