data_PCOD8141953
_publ_section_title
;
Structure prediction by ZEFSAII (Michael W. Deem and Ramdas Pophale) SiO2 
 PCOD8141953
Probable space group: C 2/C
;
_chemical_formula_sum "Si O2"
_cell_formula_units_Z 48
_cell_length_a 5.197445
_cell_length_b 24.841484
_cell_length_c 22.316301
_cell_angle_alpha 90.000000
_cell_angle_beta 128.710472
_cell_angle_gamma 90.000000
_cell_volume 2248.330888
_symmetry_space_group_name_H-M "C 2/C"
_symmetry_group_IT_number 15
_symmetry_cell_setting 'monoclinic'
loop_
_space_group_symop_operation_xyz
x,y,z
-x,y,1/2-z
-x,-y,-z
x,-y,1/2+z
1/2+x,1/2+y,z
1/2-x,1/2+y,1/2-z
1/2-x,1/2-y,-z
1/2+x,1/2-y,1/2+z
loop_
_atom_site_type_symbol
_atom_site_label
_atom_site_fract_x
_atom_site_fract_y
_atom_site_fract_z
Si Si1 0.242054 0.766317 0.662477
Si Si2 0.459127 0.488291 0.062667
Si Si3 0.448986 0.155143 0.908920
Si Si4 0.758346 0.893425 0.339402
Si Si5 0.358513 0.910279 0.956636
Si Si6 0.758717 0.664789 0.336925
O O1 0.500000 0.744232 0.750000
O O2 0.125940 0.718754 0.601528
O O3 0.420279 0.811101 0.648110
O O4 0.923093 0.791293 0.648239
O O5 0.751792 0.455062 0.137171
O O6 0.441273 0.546950 0.091488
O O7 0.500000 0.500000 0.000000
O O8 0.152547 0.447732 0.023114
O O9 0.658313 0.144860 0.879578
O O10 0.105695 0.123283 0.861287
O O11 0.675874 0.137519 0.998883
O O12 0.500000 0.886895 0.250000
O O13 0.395775 0.884460 0.896659
O O14 0.500000 0.642689 0.250000
#
# Coordination Sequence:
#
# PCOD8141953 Si02
#       6
#     8   8   8   8   8   8
#     4  10  21  38  59  87 123 157 196 248 302 347
#     4  10  21  42  61  83 123 158 196 253 303 350
#     4  11  22  38  64  89 122 159 195 251 300 357
#     4  11  22  38  61  93 120 154 205 247 298 361
#     4  10  23  40  61  87 119 160 201 246 305 353
#     4  10  23  41  60  89 123 159 201 245 292 361
#
# _framework density 21.349169
#
# number of rings (size 3 to 8) (size 9 to 14) (size 15 to 20)
#    0.000    1.667    1.667    2.500    2.333    2.667 
#    3.000    0.000    0.000    0.000    0.000    0.000 
#    0.000    0.000    0.000    0.000    0.000    0.000 
#
# Total GULP energy -297467.748796 kJ/mol
# GULP energy per Si atom -12394.489533 kJ/mol
# Density = 2.130058 g / cm^3
# Si number density = 21.349169 Si / 1000 Ang^3
#
#
#
# Elastic Constant Matrix: (Units=GPa)
#
#
# Indices 1 2 3 4 5 6 
#
# 1 65.2696 2.9198 0.1636 0.0000 -14.0223 0.0000
# 2 2.9198 98.9073 40.8391 0.0000 -17.6050 0.0000
# 3 0.1636 40.8391 76.0613 0.0000 -22.0411 0.0000
# 4 0.0000 0.0000 0.0000 31.1595 0.0000 -10.4049
# 5 -14.0223 -17.6050 -22.0411 0.0000 31.2878 0.0000
# 6 0.0000 0.0000 0.0000 -10.4049 0.0000 27.7080
#
#
#
# Elastic Compliance Matrix: (Units=1/GPa)
#
#
# Indices 1 2 3 4 5 6 
#
# 1 0.017414 0.000094 0.002751 0.000000 0.009795 0.000000
# 2 0.000094 0.013221 -0.006196 0.000000 0.003116 0.000000
# 3 0.002751 -0.006196 0.019872 0.000000 0.011745 0.000000
# 4 0.000000 0.000000 0.000000 0.036694 0.000000 0.013779
# 5 0.009795 0.003116 0.011745 0.000000 0.046379 0.000000
# 6 0.000000 0.000000 0.000000 0.013779 0.000000 0.041265
#
#
# Mechanical properties :
#
#
# Convention : Reuss Voigt Hill
#
# Bulk Modulus (GPa) = 22.82900 36.45369 29.64134
# Shear Modulus (GPa) = 25.49088 31.11878 28.30483
#
# Velocity S-wave (km/s) = 3.45918 3.82201 3.64511
# Velocity P-wave (km/s) = 5.16439 6.04889 5.62405
#
# Compressibility (1/GPa) = 0.04380394
#
# Stress axis : x y z
#
# Youngs Moduli (GPa) = 57.42395 75.63964 50.32324
#
# Poissons Ratio (x) = -0.00708 -0.13842
# Poissons Ratio (y) = -0.00538 0.31178
# Poissons Ratio (z) = -0.15796 0.46863
#
# Static dielectric constant tensor:
#      x y z
#    x 3.752220 0.000000 -0.019160 
#    y 0.000000 4.375790 0.000000 
#    z -0.019160 0.000000 3.894600 
# 
# 
# High freq. dielectric constant tensor:
#      x y z
#    x 1.842240 0.000000 -0.010700 
#    y 0.000000 1.839840 0.000000 
#    z -0.010700 0.000000 1.826020 
# 
# From -- ./inp_files/185240.got.cif
#   From: 2010.06.25/outbox.cif.g09.slc.cpg/sg15_93_cif.got.tgz:185240.got - 2010.06.28 07:06:18.
