data_PCOD8141019
_publ_section_title
;
Structure prediction by ZEFSAII (Michael W. Deem and Ramdas Pophale) SiO2 
 PCOD8141019
Probable space group: C 2/C
;
_chemical_formula_sum "Si O2"
_cell_formula_units_Z 48
_cell_length_a 22.942573
_cell_length_b 16.066621
_cell_length_c 13.616516
_cell_angle_alpha 90.000000
_cell_angle_beta 32.599855
_cell_angle_gamma 90.000000
_cell_volume 2704.176233
_symmetry_space_group_name_H-M "C 2/C"
_symmetry_group_IT_number 15
_symmetry_cell_setting 'monoclinic'
loop_
_space_group_symop_operation_xyz
x,y,z
-x,y,1/2-z
-x,-y,-z
x,-y,1/2+z
1/2+x,1/2+y,z
1/2-x,1/2+y,1/2-z
1/2-x,1/2-y,-z
1/2+x,1/2-y,1/2+z
loop_
_atom_site_type_symbol
_atom_site_label
_atom_site_fract_x
_atom_site_fract_y
_atom_site_fract_z
Si Si1 0.459695 0.201253 0.907777
Si Si2 0.235890 0.875000 0.750000
Si Si3 0.679913 0.774637 0.195784
Si Si4 0.117472 0.951253 0.092223
Si Si5 0.874303 0.975363 0.195784
Si Si6 0.651521 0.375000 0.446957
O O1 0.500000 0.159335 0.750000
O O2 0.556318 0.203820 0.848445
O O3 0.363149 0.142900 0.082974
O O4 0.422491 0.294408 0.932513
O O5 0.178403 0.797248 0.779684
O O6 0.208088 0.952752 0.720316
O O7 0.196123 0.892900 0.917027
O O8 0.730750 0.856501 0.174048
O O9 0.750000 0.750000 0.000000
O O10 0.154762 0.953820 0.151555
O O11 0.000000 0.909335 0.250000
O O12 0.105004 0.044408 0.067486
O O13 0.845203 0.893498 0.174047
O O14 0.000000 0.000000 0.000000
#
# Coordination Sequence:
#
# PCOD8141019 Si02
#       6
#     8   8   8   8   8   8
#     4  11  21  35  57  85 114 143 182 242 285 331
#     4  10  22  36  55  89 110 146 188 228 300 336
#     4  11  20  35  59  82 115 144 188 242 281 335
#     4  11  21  35  57  85 114 143 182 242 285 331
#     4  11  20  35  59  82 115 144 188 242 281 335
#     4  10  21  34  58  89 102 144 191 230 296 321
#
# _framework density 17.750322000000001
#
# number of rings (size 3 to 8) (size 9 to 14) (size 15 to 20)
#    0.000    1.333    6.667    2.500    0.000    0.000 
#    0.000    6.667    0.000    0.000    0.000    0.000 
#    0.000    0.000    0.000    0.000    0.000    0.000 
#
# Total GULP energy -297499.582619 kJ/mol
# GULP energy per Si atom -12395.815942 kJ/mol
# Density = 1.770992 g / cm^3
# Si number density = 17.750322 Si / 1000 Ang^3
#
#
#
# Elastic Constant Matrix: (Units=GPa)
#
#
# Indices 1 2 3 4 5 6 
#
# 1 148.1640 32.6828 75.3251 0.0000 2.2354 0.0000
# 2 32.6828 56.5843 51.9410 0.0000 1.2623 0.0000
# 3 75.3251 51.9410 133.1886 0.0000 -3.2171 0.0000
# 4 0.0000 0.0000 0.0000 28.1212 0.0000 -0.3099
# 5 2.2354 1.2623 -3.2171 0.0000 53.1150 0.0000
# 6 0.0000 0.0000 0.0000 -0.3099 0.0000 32.8502
#
#
#
# Elastic Compliance Matrix: (Units=1/GPa)
#
#
# Indices 1 2 3 4 5 6 
#
# 1 0.009525 -0.000819 -0.005084 0.000000 -0.000689 0.000000
# 2 -0.000819 0.027688 -0.010365 0.000000 -0.001251 0.000000
# 3 -0.005084 -0.010365 0.014458 0.000000 0.001336 0.000000
# 4 0.000000 0.000000 0.000000 0.035564 0.000000 0.000336
# 5 -0.000689 -0.001251 0.001336 0.000000 0.018967 0.000000
# 6 0.000000 0.000000 0.000000 0.000336 0.000000 0.030444
#
#
# Mechanical properties :
#
#
# Convention : Reuss Voigt Hill
#
# Bulk Modulus (GPa) = 52.26101 73.09273 62.67687
# Shear Modulus (GPa) = 28.48021 34.68314 31.58168
#
# Velocity S-wave (km/s) = 4.00995 4.42514 4.22265
# Velocity P-wave (km/s) = 7.13764 8.20834 7.69164
#
# Compressibility (1/GPa) = 0.01913472
#
# Stress axis : x y z
#
# Youngs Moduli (GPa) = 104.98577 36.11665 69.16724
#
# Poissons Ratio (x) = 0.02959 0.35165
# Poissons Ratio (y) = 0.08603 0.71689
# Poissons Ratio (z) = 0.53375 0.37434
#
# Static dielectric constant tensor:
#      x y z
#    x 3.611230 0.000000 -0.022310 
#    y 0.000000 3.258390 0.000000 
#    z -0.022310 0.000000 3.270880 
# 
# 
# High freq. dielectric constant tensor:
#      x y z
#    x 1.703470 0.000000 -0.001990 
#    y 0.000000 1.666710 0.000000 
#    z -0.001990 0.000000 1.673190 
# 
# From -- ./inp_files/173621.got.cif
#   From: 2010.06.25/outbox.cif.g09.slc.cpg/sg15_87_cif.got.tgz:173621.got - 2010.06.28 07:06:18.
