data_PCOD8141817
_publ_section_title
;
Structure prediction by ZEFSAII (Michael W. Deem and Ramdas Pophale) SiO2 
 PCOD8141817
Probable space group: C 2/C
;
_chemical_formula_sum "Si O2"
_cell_formula_units_Z 48
_cell_length_a 24.699777
_cell_length_b 9.583251
_cell_length_c 11.474693
_cell_angle_alpha 90.000000
_cell_angle_beta 57.214772
_cell_angle_gamma 90.000000
_cell_volume 2283.448603
_symmetry_space_group_name_H-M "C 2/C"
_symmetry_group_IT_number 15
_symmetry_cell_setting 'monoclinic'
loop_
_space_group_symop_operation_xyz
x,y,z
-x,y,1/2-z
-x,-y,-z
x,-y,1/2+z
1/2+x,1/2+y,z
1/2-x,1/2+y,1/2-z
1/2-x,1/2-y,-z
1/2+x,1/2-y,1/2+z
loop_
_atom_site_type_symbol
_atom_site_label
_atom_site_fract_x
_atom_site_fract_y
_atom_site_fract_z
Si Si1 0.817872 0.279086 0.860180
Si Si2 0.866845 0.221518 0.197224
Si Si3 0.369470 0.940961 0.001114
Si Si4 0.572765 0.223459 0.629453
Si Si5 0.748207 0.930582 0.762291
Si Si6 0.629944 0.572489 0.876031
O O1 0.804105 0.384241 0.770991
O O2 0.854354 0.144412 0.766483
O O3 0.750000 0.250000 0.000000
O O4 0.870556 0.342990 0.886314
O O5 0.889639 0.350280 0.090455
O O6 0.880545 0.257170 0.315021
O O7 0.789427 0.197787 0.270247
O O8 0.903559 0.077387 0.115447
O O9 0.295732 0.996371 0.089157
O O10 0.419359 0.068263 0.931412
O O11 0.500000 0.248502 0.750000
O O12 0.587833 0.335734 0.511541
O O13 0.799784 0.040109 0.647473
#
# Coordination Sequence:
#
# PCOD8141817 Si02
#       6
#     8   8   8   8   8   8
#     4  12  19  38  66 103 142 169 202 276 353 416
#     4  10  25  43  69 103 128 179 229 278 344 397
#     4  12  24  42  68 102 142 176 223 273 344 414
#     4  12  29  49  67  93 137 193 236 275 322 394
#     4  10  21  37  66 106 135 168 214 278 355 405
#     4  10  24  41  69 100 137 170 225 284 334 403
#
# _framework density 21.020837
#
# number of rings (size 3 to 8) (size 9 to 14) (size 15 to 20)
#    1.000    0.000    5.000    1.000    7.000    2.000 
#    0.000    0.833    0.000    0.000    0.000    0.000 
#    0.000    0.000    0.000    0.000    0.000    0.000 
#
# Total GULP energy -297426.139067 kJ/mol
# GULP energy per Si atom -12392.755794 kJ/mol
# Density = 2.097299 g / cm^3
# Si number density = 21.020837 Si / 1000 Ang^3
#
#
#
# Elastic Constant Matrix: (Units=GPa)
#
#
# Indices 1 2 3 4 5 6 
#
# 1 34.2378 14.2825 31.3465 0.0000 -3.7054 0.0000
# 2 14.2825 131.6332 61.4356 0.0000 1.5608 0.0000
# 3 31.3465 61.4356 109.5873 0.0000 -2.1029 0.0000
# 4 0.0000 0.0000 0.0000 36.8044 0.0000 0.7078
# 5 -3.7054 1.5608 -2.1029 0.0000 37.2831 0.0000
# 6 0.0000 0.0000 0.0000 0.7078 0.0000 16.0109
#
#
#
# Elastic Compliance Matrix: (Units=1/GPa)
#
#
# Indices 1 2 3 4 5 6 
#
# 1 0.040135 0.001267 -0.012128 0.000000 0.003252 0.000000
# 2 0.001267 0.010350 -0.006178 0.000000 -0.000656 0.000000
# 3 -0.012128 -0.006178 0.016057 0.000000 -0.000041 0.000000
# 4 0.000000 0.000000 0.000000 0.027194 0.000000 -0.001202
# 5 0.003252 -0.000656 -0.000041 0.000000 0.027170 0.000000
# 6 0.000000 0.000000 0.000000 -0.001202 0.000000 0.062510
#
#
# Mechanical properties :
#
#
# Convention : Reuss Voigt Hill
#
# Bulk Modulus (GPa) = 30.80272 54.39860 42.60066
# Shear Modulus (GPa) = 21.89960 29.24593 25.57276
#
# Velocity S-wave (km/s) = 3.23120 3.73404 3.49168
# Velocity P-wave (km/s) = 5.34847 6.67273 6.04696
#
# Compressibility (1/GPa) = 0.03246466
#
# Stress axis : x y z
#
# Youngs Moduli (GPa) = 24.91609 96.61542 62.27937
#
# Poissons Ratio (x) = -0.12243 0.75533
# Poissons Ratio (y) = -0.03157 0.38473
# Poissons Ratio (z) = 0.30219 0.59684
#
# Static dielectric constant tensor:
#      x y z
#    x 3.357620 0.000000 0.196870 
#    y 0.000000 4.039540 0.000000 
#    z 0.196870 0.000000 3.882320 
# 
# 
# High freq. dielectric constant tensor:
#      x y z
#    x 1.780300 0.000000 0.014030 
#    y 0.000000 1.843160 0.000000 
#    z 0.014030 0.000000 1.818830 
# 
# From -- ./inp_files/65049.got.cif
#   From: 2010.06.25/outbox.cif.g09.slc.cpg/sg15_33_cif.got.tgz:65049.got - 2010.06.28 07:06:18.
