data_PCOD8141202
_publ_section_title
;
Structure prediction by ZEFSAII (Michael W. Deem and Ramdas Pophale) SiO2 
 PCOD8141202
Probable space group: C 2/C
;
_chemical_formula_sum "Si O2"
_cell_formula_units_Z 60
_cell_length_a 25.146865
_cell_length_b 21.952571
_cell_length_c 8.640580
_cell_angle_alpha 90.000000
_cell_angle_beta 133.289292
_cell_angle_gamma 90.000000
_cell_volume 3472.037467
_symmetry_space_group_name_H-M "C 2/C"
_symmetry_group_IT_number 15
_symmetry_cell_setting 'monoclinic'
loop_
_space_group_symop_operation_xyz
x,y,z
-x,y,1/2-z
-x,-y,-z
x,-y,1/2+z
1/2+x,1/2+y,z
1/2-x,1/2+y,1/2-z
1/2-x,1/2-y,-z
1/2+x,1/2-y,1/2+z
loop_
_atom_site_type_symbol
_atom_site_label
_atom_site_fract_x
_atom_site_fract_y
_atom_site_fract_z
Si Si1 0.353788 0.253071 0.422614
Si Si2 0.288694 0.631794 0.617852
Si Si3 0.862812 0.317334 0.644881
Si Si4 0.296406 0.703608 0.337844
Si Si5 0.398688 0.464633 0.434052
Si Si6 0.920313 0.792669 0.856147
Si Si7 0.050290 0.071331 0.126579
Si Si8 0.500000 0.205048 0.250000
O O1 0.330970 0.317281 0.301535
O O2 0.385392 0.204531 0.362027
O O3 0.285674 0.220868 0.371671
O O4 0.414488 0.264278 0.673665
O O5 0.201102 0.631392 0.482424
O O6 0.297970 0.644653 0.453254
O O7 0.322991 0.565836 0.724949
O O8 0.830158 0.258006 0.502206
O O9 0.935595 0.337506 0.694263
O O10 0.340583 0.693942 0.268834
O O11 0.400687 0.538214 0.410264
O O12 0.411835 0.445195 0.635402
O O13 0.465095 0.446067 0.453043
O O14 0.957708 0.857544 0.918862
O O15 0.970003 0.748257 0.055554
#
# Coordination Sequence:
#
# PCOD8141202 Si02
#       8
#     8   8   8   8   8   8   8   4
#     4   9  16  30  47  66  90 123 164 186 228 290
#     4   9  16  32  52  61  89 125 163 194 242 275
#     4   8  17  31  46  70  91 124 152 193 234 294
#     4   8  17  28  45  69  91 121 153 194 232 278
#     4  10  21  36  45  65  89 128 163 208 227 274
#     4  11  20  29  45  68  94 132 154 199 229 283
#     4  10  23  32  47  64  91 124 169 197 240 262
#     4  10  22  30  44  72 104 120 158 194 242 288
#
# _framework density 17.280919000000001
#
# number of rings (size 3 to 8) (size 9 to 14) (size 15 to 20)
#    0.000    2.667    1.333    2.000    7.467    1.600 
#    0.000    0.000    0.000    0.000    0.000    0.000 
#    0.000    1.067    0.000    0.000    0.000    0.267 
#
# Total GULP energy -371705.873034 kJ/mol
# GULP energy per Si atom -12390.195768 kJ/mol
# Density = 1.724159 g / cm^3
# Si number density = 17.280919 Si / 1000 Ang^3
#
#
#
# Elastic Constant Matrix: (Units=GPa)
#
#
# Indices 1 2 3 4 5 6 
#
# 1 86.8820 15.2932 21.1921 0.0000 14.2075 0.0000
# 2 15.2932 29.3431 26.5026 0.0000 6.5371 0.0000
# 3 21.1921 26.5026 63.5391 0.0000 3.1185 0.0000
# 4 0.0000 0.0000 0.0000 20.9364 0.0000 2.8179
# 5 14.2075 6.5371 3.1185 0.0000 23.9419 0.0000
# 6 0.0000 0.0000 0.0000 2.8179 0.0000 17.1795
#
#
#
# Elastic Compliance Matrix: (Units=1/GPa)
#
#
# Indices 1 2 3 4 5 6 
#
# 1 0.013930 -0.002890 -0.003093 0.000000 -0.007074 0.000000
# 2 -0.002890 0.058956 -0.023069 0.000000 -0.011378 0.000000
# 3 -0.003093 -0.023069 0.026160 0.000000 0.004727 0.000000
# 4 0.000000 0.000000 0.000000 0.048842 0.000000 -0.008011
# 5 -0.007074 -0.011378 0.004727 0.000000 0.048457 0.000000
# 6 0.000000 0.000000 0.000000 -0.008011 0.000000 0.059523
#
#
# Mechanical properties :
#
#
# Convention : Reuss Voigt Hill
#
# Bulk Modulus (GPa) = 24.42486 33.97112 29.19799
# Shear Modulus (GPa) = 15.26162 20.19665 17.72913
#
# Velocity S-wave (km/s) = 2.97501 3.42237 3.20650
# Velocity P-wave (km/s) = 5.09564 5.94287 5.53549
#
# Compressibility (1/GPa) = 0.04094189
#
# Stress axis : x y z
#
# Youngs Moduli (GPa) = 71.78787 16.96176 38.22615
#
# Poissons Ratio (x) = 0.04902 0.11824
# Poissons Ratio (y) = 0.20749 0.88182
# Poissons Ratio (z) = 0.22206 0.39128
#
# Static dielectric constant tensor:
#      x y z
#    x 3.794070 0.000000 0.080070 
#    y 0.000000 2.890340 0.000000 
#    z 0.080070 0.000000 3.133910 
# 
# 
# High freq. dielectric constant tensor:
#      x y z
#    x 1.673160 0.000000 -0.009150 
#    y 0.000000 1.612050 0.000000 
#    z -0.009150 0.000000 1.661030 
# 
# From -- ./inp_files/67661.got.cif
#   From: 2010.06.25/outbox.cif.g09.slc.cpg/sg15_34_cif.got.tgz:67661.got - 2010.06.28 07:06:18.
