data_PCOD8141436
_publ_section_title
;
Structure prediction by ZEFSAII (Michael W. Deem and Ramdas Pophale) SiO2 
 PCOD8141436
Probable space group: C 2/C
;
_chemical_formula_sum "Si O2"
_cell_formula_units_Z 56
_cell_length_a 11.168118
_cell_length_b 18.994298
_cell_length_c 11.625673
_cell_angle_alpha 90.000000
_cell_angle_beta 84.838471
_cell_angle_gamma 90.000000
_cell_volume 2456.160330
_symmetry_space_group_name_H-M "C 2/C"
_symmetry_group_IT_number 15
_symmetry_cell_setting 'monoclinic'
loop_
_space_group_symop_operation_xyz
x,y,z
-x,y,1/2-z
-x,-y,-z
x,-y,1/2+z
1/2+x,1/2+y,z
1/2-x,1/2+y,1/2-z
1/2-x,1/2-y,-z
1/2+x,1/2-y,1/2+z
loop_
_atom_site_type_symbol
_atom_site_label
_atom_site_fract_x
_atom_site_fract_y
_atom_site_fract_z
Si Si1 0.000000 0.537308 0.250000
Si Si2 0.336151 0.077603 0.861254
Si Si3 0.132343 0.040842 0.713431
Si Si4 0.936349 0.274814 0.007963
Si Si5 0.132614 0.118978 0.253502
Si Si6 0.000000 0.693635 0.750000
Si Si7 0.795984 0.138558 0.995752
Si Si8 0.647401 0.861001 0.896396
O O1 0.924985 0.488883 0.344030
O O2 0.909370 0.585127 0.187956
O O3 0.208216 0.060894 0.818340
O O4 0.387414 0.145636 0.792490
O O5 0.317741 0.094625 0.995383
O O6 0.185336 0.075471 0.594067
O O7 0.000000 0.069959 0.750000
O O8 0.131842 0.957337 0.693179
O O9 0.843842 0.339293 0.997822
O O10 0.958562 0.260647 0.142434
O O11 0.881681 0.204712 0.956232
O O12 0.059880 0.295444 0.932395
O O13 0.171610 0.110260 0.381675
O O14 0.229362 0.167208 0.174801
O O15 0.000000 0.153095 0.250000
#
# Coordination Sequence:
#
# PCOD8141436 Si02
#       8
#     4   8   8   8   8   4   8   8
#     4  11  20  36  64 104 140 179 216 294 346 397
#     4  10  21  36  64 102 138 174 224 290 340 404
#     4  11  25  43  67  98 137 191 229 282 343 414
#     4  10  23  44  72 100 139 185 225 290 335 420
#     4  11  27  43  68 100 141 183 226 291 343 413
#     4   9  18  40  66 100 136 171 232 276 358 385
#     4  11  25  48  68 100 143 186 230 278 354 403
#     4  11  23  40  67 104 136 179 234 275 344 413
#
# _framework density 22.799813
#
# number of rings (size 3 to 8) (size 9 to 14) (size 15 to 20)
#    0.000    1.429    2.857    1.286    5.000    1.143 
#    6.429    0.714    0.000    0.000    0.000    0.000 
#    0.000    0.000    0.000    0.000    0.000    0.000 
#
# Total GULP energy -347300.867280 kJ/mol
# GULP energy per Si atom -12403.602403 kJ/mol
# Density = 2.274792 g / cm^3
# Si number density = 22.799813 Si / 1000 Ang^3
#
#
#
# Elastic Constant Matrix: (Units=GPa)
#
#
# Indices 1 2 3 4 5 6 
#
# 1 160.6482 17.6349 49.1858 0.0000 -8.0963 0.0000
# 2 17.6349 57.1796 18.0181 0.0000 -5.6670 0.0000
# 3 49.1858 18.0181 111.3924 0.0000 -4.7008 0.0000
# 4 0.0000 0.0000 0.0000 24.8964 0.0000 7.7394
# 5 -8.0963 -5.6670 -4.7008 0.0000 37.7268 0.0000
# 6 0.0000 0.0000 0.0000 7.7394 0.0000 25.5575
#
#
#
# Elastic Compliance Matrix: (Units=1/GPa)
#
#
# Indices 1 2 3 4 5 6 
#
# 1 0.007327 -0.001215 -0.002996 0.000000 0.001017 0.000000
# 2 -0.001215 0.018850 -0.002417 0.000000 0.002270 0.000000
# 3 -0.002996 -0.002417 0.010705 0.000000 0.000328 0.000000
# 4 0.000000 0.000000 0.000000 0.044341 0.000000 -0.013427
# 5 0.001017 0.002270 0.000328 0.000000 0.027106 0.000000
# 6 0.000000 0.000000 0.000000 -0.013427 0.000000 0.043194
#
#
# Mechanical properties :
#
#
# Convention : Reuss Voigt Hill
#
# Bulk Modulus (GPa) = 42.32524 55.43309 48.87916
# Shear Modulus (GPa) = 28.96000 33.92824 31.44412
#
# Velocity S-wave (km/s) = 3.56783 3.86177 3.71771
# Velocity P-wave (km/s) = 5.96462 6.65207 6.31770
#
# Compressibility (1/GPa) = 0.02362656
#
# Stress axis : x y z
#
# Youngs Moduli (GPa) = 136.48971 53.05056 93.41615
#
# Poissons Ratio (x) = 0.06445 0.27984
# Poissons Ratio (y) = 0.16582 0.22577
# Poissons Ratio (z) = 0.40888 0.12821
#
# Static dielectric constant tensor:
#      x y z
#    x 4.520080 0.000000 0.147300 
#    y 0.000000 3.911680 0.000000 
#    z 0.147300 0.000000 4.182540 
# 
# 
# High freq. dielectric constant tensor:
#      x y z
#    x 1.914090 0.000000 0.008310 
#    y 0.000000 1.891120 0.000000 
#    z 0.008310 0.000000 1.901650 
# 
# From -- ./inp_files/89005.got.cif
#   From: 2010.06.25/outbox.cif.g09.slc.cpg/sg15_45_cif.got.tgz:89005.got - 2010.06.28 07:06:18.
