data_PCOD8141263
_publ_section_title
;
Structure prediction by ZEFSAII (Michael W. Deem and Ramdas Pophale) SiO2 
 PCOD8141263
Probable space group: C 2/C
;
_chemical_formula_sum "Si O2"
_cell_formula_units_Z 60
_cell_length_a 15.101517
_cell_length_b 14.160488
_cell_length_c 15.310023
_cell_angle_alpha 90.000000
_cell_angle_beta 97.969769
_cell_angle_gamma 90.000000
_cell_volume 3242.347492
_symmetry_space_group_name_H-M "C 2/C"
_symmetry_group_IT_number 15
_symmetry_cell_setting 'monoclinic'
loop_
_space_group_symop_operation_xyz
x,y,z
-x,y,1/2-z
-x,-y,-z
x,-y,1/2+z
1/2+x,1/2+y,z
1/2-x,1/2+y,1/2-z
1/2-x,1/2-y,-z
1/2+x,1/2-y,1/2+z
loop_
_atom_site_type_symbol
_atom_site_label
_atom_site_fract_x
_atom_site_fract_y
_atom_site_fract_z
Si Si1 0.113404 0.752472 0.888192
Si Si2 0.251132 0.411604 0.565792
Si Si3 0.069298 0.607635 0.334865
Si Si4 0.199306 0.556596 0.871153
Si Si5 0.332853 0.516966 0.735358
Si Si6 0.000000 0.885291 0.750000
Si Si7 0.577668 0.813304 0.569280
Si Si8 0.896585 0.779318 0.255825
O O1 0.203108 0.810393 0.917123
O O2 0.149389 0.657025 0.845295
O O3 0.040372 0.814351 0.826976
O O4 0.064384 0.731479 0.972578
O O5 0.261132 0.442356 0.466136
O O6 0.294335 0.485633 0.637290
O O7 0.146598 0.400521 0.573289
O O8 0.121462 0.518094 0.376460
O O9 0.137330 0.687713 0.304184
O O10 0.000000 0.576247 0.250000
O O11 0.017357 0.648505 0.411562
O O12 0.259131 0.516214 0.800745
O O13 0.419777 0.453661 0.774243
O O14 0.353137 0.625283 0.718195
O O15 0.617915 0.735491 0.642421
O O16 0.000000 0.784442 0.250000
#
# Coordination Sequence:
#
# PCOD8141263 Si02
#       8
#     8   8   8   8   8   4   8   8
#     4  10  21  38  57  85 114 149 200 231 290 343
#     4  10  21  36  56  87 113 151 194 230 283 358
#     4   9  20  35  56  86 113 145 196 234 279 346
#     4  11  22  37  61  83 116 154 192 234 296 339
#     4  11  20  39  59  83 118 153 186 243 289 338
#     4  10  24  40  56  90 118 146 198 244 284 342
#     4   9  17  36  59  77 114 149 190 236 280 336
#     4   9  17  33  57  81 105 149 188 225 283 338
#
# _framework density 18.505112
#
# number of rings (size 3 to 8) (size 9 to 14) (size 15 to 20)
#    0.000    2.400    0.667    4.800    0.933    3.200 
#    7.200    2.667    0.000    0.000    0.000    0.000 
#    0.000    0.000    0.000    0.000    0.000    0.000 
#
# Total GULP energy -371765.054263 kJ/mol
# GULP energy per Si atom -12392.168475 kJ/mol
# Density = 1.846299 g / cm^3
# Si number density = 18.505112 Si / 1000 Ang^3
#
#
#
# Elastic Constant Matrix: (Units=GPa)
#
#
# Indices 1 2 3 4 5 6 
#
# 1 54.2611 44.8473 38.7519 0.0000 -3.0571 0.0000
# 2 44.8473 127.8016 35.2732 0.0000 11.3955 0.0000
# 3 38.7519 35.2732 60.8717 0.0000 -0.2086 0.0000
# 4 0.0000 0.0000 0.0000 27.7390 0.0000 5.0356
# 5 -3.0571 11.3955 -0.2086 0.0000 29.5443 0.0000
# 6 0.0000 0.0000 0.0000 5.0356 0.0000 22.4243
#
#
#
# Elastic Compliance Matrix: (Units=1/GPa)
#
#
# Indices 1 2 3 4 5 6 
#
# 1 0.041808 -0.009563 -0.021047 0.000000 0.007866 0.000000
# 2 -0.009563 0.011908 -0.000831 0.000000 -0.005589 0.000000
# 3 -0.021047 -0.000831 0.030303 0.000000 -0.001643 0.000000
# 4 0.000000 0.000000 0.000000 0.037582 0.000000 -0.008440
# 5 0.007866 -0.005589 -0.001643 0.000000 0.036805 0.000000
# 6 0.000000 0.000000 0.000000 -0.008440 0.000000 0.046490
#
#
# Mechanical properties :
#
#
# Convention : Reuss Voigt Hill
#
# Bulk Modulus (GPa) = 47.31337 53.40881 50.36109
# Shear Modulus (GPa) = 18.19333 24.21230 21.20282
#
# Velocity S-wave (km/s) = 3.13893 3.62112 3.38861
# Velocity P-wave (km/s) = 6.22578 6.81232 6.52564
#
# Compressibility (1/GPa) = 0.02113567
#
# Stress axis : x y z
#
# Youngs Moduli (GPa) = 23.91883 83.97466 32.99999
#
# Poissons Ratio (x) = 0.80308 0.69455
# Poissons Ratio (y) = 0.22875 0.02744
# Poissons Ratio (z) = 0.50342 0.06982
#
# Static dielectric constant tensor:
#      x y z
#    x 3.363980 0.000000 -0.136970 
#    y 0.000000 4.276790 0.000000 
#    z -0.136970 0.000000 3.480460 
# 
# 
# High freq. dielectric constant tensor:
#      x y z
#    x 1.712520 0.000000 -0.014700 
#    y 0.000000 1.726170 0.000000 
#    z -0.014700 0.000000 1.711770 
# 
# From -- ./inp_files/154000.got.cif
#   From: 2010.06.25/outbox.cif.g09.slc.cpg/sg15_77_cif.got.tgz:154000.got - 2010.06.28 07:06:18.
