data_PCOD8141740
_publ_section_title
;
Structure prediction by ZEFSAII (Michael W. Deem and Ramdas Pophale) SiO2 
 PCOD8141740
Probable space group: C 2/C
;
_chemical_formula_sum "Si O2"
_cell_formula_units_Z 64
_cell_length_a 13.975155
_cell_length_b 8.663788
_cell_length_c 32.067176
_cell_angle_alpha 90.000000
_cell_angle_beta 128.220693
_cell_angle_gamma 90.000000
_cell_volume 3050.318282
_symmetry_space_group_name_H-M "C 2/C"
_symmetry_group_IT_number 15
_symmetry_cell_setting 'monoclinic'
loop_
_space_group_symop_operation_xyz
x,y,z
-x,y,1/2-z
-x,-y,-z
x,-y,1/2+z
1/2+x,1/2+y,z
1/2-x,1/2+y,1/2-z
1/2-x,1/2-y,-z
1/2+x,1/2-y,1/2+z
loop_
_atom_site_type_symbol
_atom_site_label
_atom_site_fract_x
_atom_site_fract_y
_atom_site_fract_z
Si Si1 0.473220 0.269895 0.046503
Si Si2 0.658497 0.501329 0.632772
Si Si3 0.076935 0.595733 0.389434
Si Si4 0.811950 0.772203 0.930068
Si Si5 0.365675 0.808831 0.141183
Si Si6 0.819360 0.565160 0.411636
Si Si7 0.636235 0.704019 0.208075
Si Si8 0.687094 0.029929 0.188185
O O1 0.539372 0.393030 0.094377
O O2 0.413283 0.138691 0.059419
O O3 0.574580 0.182782 0.046334
O O4 0.374446 0.345795 0.988582
O O5 0.636757 0.355932 0.596655
O O6 0.783638 0.601112 0.655458
O O7 0.650902 0.432708 0.677431
O O8 0.166073 0.711188 0.389069
O O9 0.126579 0.421578 0.396605
O O10 0.942244 0.605606 0.332985
O O11 0.840830 0.592169 0.941721
O O12 0.304396 0.651311 0.109172
O O13 0.502744 0.752875 0.189446
O O14 0.813009 0.524551 0.361320
O O15 0.703578 0.856407 0.209298
O O16 0.706227 0.641403 0.267452
#
# Coordination Sequence:
#
# PCOD8141740 Si02
#       8
#     8   8   8   8   8   8   8   8
#     4  10  21  37  63  87 122 167 202 257 317 369
#     4  10  22  41  65  90 127 163 210 263 316 377
#     4   9  21  40  57  88 123 152 207 259 302 378
#     4  11  20  38  62  90 121 162 209 256 314 375
#     4   9  22  41  61  88 126 163 200 264 313 372
#     4  10  21  39  58  88 127 155 205 260 306 375
#     4  11  23  42  66  89 123 167 206 259 323 379
#     4  10  23  40  62  88 119 162 204 253 320 374
#
# _framework density 20.981417
#
# number of rings (size 3 to 8) (size 9 to 14) (size 15 to 20)
#    0.000    2.000    1.250    1.125    7.000    0.500 
#    2.250    2.500    0.000    0.000    0.000    0.000 
#    0.000    0.000    0.000    0.000    0.000    0.000 
#
# Total GULP energy -396432.224463 kJ/mol
# GULP energy per Si atom -12388.507014 kJ/mol
# Density = 2.093366 g / cm^3
# Si number density = 20.981417 Si / 1000 Ang^3
#
#
#
# Elastic Constant Matrix: (Units=GPa)
#
#
# Indices 1 2 3 4 5 6 
#
# 1 75.1461 22.1287 19.8427 0.0000 15.2208 0.0000
# 2 22.1287 89.4138 17.2738 0.0000 15.6518 0.0000
# 3 19.8427 17.2738 70.5456 0.0000 10.3322 0.0000
# 4 0.0000 0.0000 0.0000 32.3517 0.0000 -2.9752
# 5 15.2208 15.6518 10.3322 0.0000 21.4685 0.0000
# 6 0.0000 0.0000 0.0000 -2.9752 0.0000 33.6896
#
#
#
# Elastic Compliance Matrix: (Units=1/GPa)
#
#
# Indices 1 2 3 4 5 6 
#
# 1 0.016429 -0.001968 -0.002844 0.000000 -0.008844 0.000000
# 2 -0.001968 0.013298 -0.001600 0.000000 -0.007530 0.000000
# 3 -0.002844 -0.001600 0.016031 0.000000 -0.004533 0.000000
# 4 0.000000 0.000000 0.000000 0.031163 0.000000 0.002752
# 5 -0.008844 -0.007530 -0.004533 0.000000 0.060522 0.000000
# 6 0.000000 0.000000 0.000000 0.002752 0.000000 0.029926
#
#
# Mechanical properties :
#
#
# Convention : Reuss Voigt Hill
#
# Bulk Modulus (GPa) = 30.36342 39.28844 34.82593
# Shear Modulus (GPa) = 26.15457 29.22598 27.69027
#
# Velocity S-wave (km/s) = 3.53449 3.73627 3.63678
# Velocity P-wave (km/s) = 5.58210 6.11383 5.85401
#
# Compressibility (1/GPa) = 0.03293436
#
# Stress axis : x y z
#
# Youngs Moduli (GPa) = 60.86641 75.19790 62.38038
#
# Poissons Ratio (x) = 0.14802 0.17740
# Poissons Ratio (y) = 0.11981 0.09979
# Poissons Ratio (z) = 0.17309 0.12030
#
# Static dielectric constant tensor:
#      x y z
#    x 3.981660 0.000000 0.233490 
#    y 0.000000 4.023570 0.000000 
#    z 0.233490 0.000000 3.487750 
# 
# 
# High freq. dielectric constant tensor:
#      x y z
#    x 1.820200 0.000000 0.013540 
#    y 0.000000 1.832300 0.000000 
#    z 0.013540 0.000000 1.801380 
# 
# From -- ./inp_files/295134.got.cif
#   From: 2010.06.25/outbox.cif.g09.slc.cpg/sg15_148_cif.got.tgz:295134.got - 2010.06.28 07:06:18.
