data_PCOD8141506
_publ_section_title
;
Structure prediction by ZEFSAII (Michael W. Deem and Ramdas Pophale) SiO2 
 PCOD8141506
Probable space group: C 2/C
;
_chemical_formula_sum "Si O2"
_cell_formula_units_Z 64
_cell_length_a 23.200014
_cell_length_b 17.255052
_cell_length_c 19.124110
_cell_angle_alpha 90.000000
_cell_angle_beta 25.810654
_cell_angle_gamma 90.000000
_cell_volume 3333.286817
_symmetry_space_group_name_H-M "C 2/C"
_symmetry_group_IT_number 15
_symmetry_cell_setting 'monoclinic'
loop_
_space_group_symop_operation_xyz
x,y,z
-x,y,1/2-z
-x,-y,-z
x,-y,1/2+z
1/2+x,1/2+y,z
1/2-x,1/2+y,1/2-z
1/2-x,1/2-y,-z
1/2+x,1/2-y,1/2+z
loop_
_atom_site_type_symbol
_atom_site_label
_atom_site_fract_x
_atom_site_fract_y
_atom_site_fract_z
Si Si1 0.236163 0.495946 0.895065
Si Si2 0.315781 0.237916 0.130733
Si Si3 0.993570 0.397126 0.115361
Si Si4 0.233081 0.491639 0.190867
Si Si5 0.645747 0.394658 0.843925
Si Si6 0.149276 0.887391 0.328084
Si Si7 0.350535 0.523974 0.416723
Si Si8 0.253059 0.316009 0.053934
O O1 0.345057 0.440073 0.739894
O O2 0.246292 0.579116 0.843253
O O3 0.270656 0.508804 0.937804
O O4 0.092462 0.455322 0.047645
O O5 0.175827 0.195407 0.296854
O O6 0.334001 0.296188 0.175776
O O7 0.310255 0.282207 0.063337
O O8 0.429647 0.172270 0.007378
O O9 0.911758 0.451115 0.150170
O O10 0.891124 0.355883 0.280402
O O11 0.240390 0.570035 0.228806
O O12 0.333865 0.430856 0.116272
O O13 0.278770 0.511462 0.062826
O O14 0.500185 0.403030 0.035439
O O15 0.500000 0.493526 0.250000
O O16 0.350721 0.617478 0.419232
O O17 0.250000 0.250000 0.000000
#
# Coordination Sequence:
#
# PCOD8141506 Si02
#       8
#     8   8   8   8   8   8   8   8
#     4  10  22  35  58  80 108 154 191 243 284 333
#     4  11  22  35  55  84 116 155 186 242 294 345
#     4  10  22  39  53  82 119 151 199 227 287 356
#     4  10  21  38  57  80 110 156 191 240 279 343
#     4  10  21  37  57  81 116 148 196 240 290 347
#     4  11  20  37  56  83 114 147 196 240 292 340
#     4  11  21  35  55  82 108 146 193 230 280 342
#     4  11  23  34  53  81 121 159 181 225 290 347
#
# _framework density 19.200267
#
# number of rings (size 3 to 8) (size 9 to 14) (size 15 to 20)
#    0.000    1.500    2.500    5.250    1.750    8.500 
#    0.000    0.000    0.000    0.750    0.000    0.000 
#    0.000    0.000    0.000    0.000    0.000    0.000 
#
# Total GULP energy -396627.236144 kJ/mol
# GULP energy per Si atom -12394.601129 kJ/mol
# Density = 1.915657 g / cm^3
# Si number density = 19.200267 Si / 1000 Ang^3
#
#
#
# Elastic Constant Matrix: (Units=GPa)
#
#
# Indices 1 2 3 4 5 6 
#
# 1 114.2857 40.2106 32.6398 -0.0003 2.3718 -0.0004
# 2 40.2106 69.9874 23.7857 -0.0034 2.3021 0.0018
# 3 32.6398 23.7857 78.4021 -0.0030 -10.5446 0.0017
# 4 -0.0003 -0.0034 -0.0030 31.3714 0.0018 -0.3597
# 5 2.3718 2.3021 -10.5446 0.0018 32.9870 -0.0007
# 6 -0.0004 0.0018 0.0017 -0.3597 -0.0007 27.3968
#
#
#
# Elastic Compliance Matrix: (Units=1/GPa)
#
#
# Indices 1 2 3 4 5 6 
#
# 1 0.011693 -0.005510 -0.003404 -0.000001 -0.001544 0.000001
# 2 -0.005510 0.018775 -0.003683 0.000002 -0.002091 -0.000001
# 3 -0.003404 -0.003683 0.016047 0.000001 0.005631 -0.000001
# 4 -0.000001 0.000002 0.000001 0.031881 -0.000002 0.000419
# 5 -0.001544 -0.002091 0.005631 -0.000002 0.032372 0.000001
# 6 0.000001 -0.000001 -0.000001 0.000419 0.000001 0.036506
#
#
# Mechanical properties :
#
#
# Convention : Reuss Voigt Hill
#
# Bulk Modulus (GPa) = 46.90549 50.66083 48.78316
# Shear Modulus (GPa) = 27.84353 29.42032 28.63192
#
# Velocity S-wave (km/s) = 3.81223 3.91869 3.86583
# Velocity P-wave (km/s) = 6.62270 6.84964 6.73713
#
# Compressibility (1/GPa) = 0.02131946
#
# Stress axis : x y z
#
# Youngs Moduli (GPa) = 85.52125 53.26284 62.31860
#
# Poissons Ratio (x) = 0.29350 0.21212
# Poissons Ratio (y) = 0.47126 0.22953
# Poissons Ratio (z) = 0.29110 0.19617
#
# Static dielectric constant tensor:
#      x y z
#    x 3.455530 0.000000 -0.129880 
#    y 0.000000 3.550650 0.000000 
#    z -0.129880 0.000000 3.524950 
# 
# 
# High freq. dielectric constant tensor:
#      x y z
#    x 1.736920 0.000000 -0.013770 
#    y 0.000000 1.731670 0.000000 
#    z -0.013770 0.000000 1.742700 
# 
# From -- ./inp_files/216136.got.cif
#   From: 2010.06.25/outbox.cif.g09.slc.cpg/sg15_109_cif.got.tgz:216136.got - 2010.06.28 07:06:18.
