data_PCOD8141004
_publ_section_title
;
Structure prediction by ZEFSAII (Michael W. Deem and Ramdas Pophale) SiO2 
 PCOD8141004
Probable space group: C 2/C
;
_chemical_formula_sum "Si O2"
_cell_formula_units_Z 52
_cell_length_a 10.869522
_cell_length_b 24.266377
_cell_length_c 14.508824
_cell_angle_alpha 90.000000
_cell_angle_beta 139.076013
_cell_angle_gamma 90.000000
_cell_volume 2506.841183
_symmetry_space_group_name_H-M "C 2/C"
_symmetry_group_IT_number 15
_symmetry_cell_setting 'monoclinic'
loop_
_space_group_symop_operation_xyz
x,y,z
-x,y,1/2-z
-x,-y,-z
x,-y,1/2+z
1/2+x,1/2+y,z
1/2-x,1/2+y,1/2-z
1/2-x,1/2-y,-z
1/2+x,1/2-y,1/2+z
loop_
_atom_site_type_symbol
_atom_site_label
_atom_site_fract_x
_atom_site_fract_y
_atom_site_fract_z
Si Si1 0.951368 0.222509 0.613725
Si Si2 0.990618 0.106167 0.902620
Si Si3 0.073426 0.361077 0.191093
Si Si4 0.638160 0.250956 0.626115
Si Si5 0.249442 0.917692 0.915987
Si Si6 0.500000 0.481787 0.250000
Si Si7 0.914300 0.130093 0.343697
O O1 0.750000 0.250000 0.500000
O O2 0.006897 0.236103 0.539127
O O3 0.929138 0.156666 0.613368
O O4 0.135588 0.242496 0.778518
O O5 0.780614 0.116589 0.815794
O O6 0.996414 0.052475 0.842618
O O7 0.104000 0.102960 0.064037
O O8 0.063883 0.303644 0.131646
O O9 0.000000 0.348417 0.250000
O O10 0.956423 0.409418 0.073929
O O11 0.620888 0.304361 0.680022
O O12 0.251598 0.894343 0.813094
O O13 0.110225 0.884499 0.905154
O O14 0.186413 0.981333 0.870448
#
# Coordination Sequence:
#
# PCOD8141004 Si02
#       7
#     8   8   8   8   8   4   8
#     4  10  21  36  58  86 121 161 200 241 292 360
#     4  10  22  40  64  85 119 160 206 249 304 363
#     4  11  22  37  60  95 124 157 204 250 307 365
#     4  10  21  34  57  90 121 166 190 240 307 365
#     4  10  22  38  62  88 120 163 201 261 299 352
#     4  10  24  42  66  84 114 170 216 248 314 348
#     4   9  19  38  56  91 121 157 199 242 311 362
#
# _framework density 20.743236
#
# number of rings (size 3 to 8) (size 9 to 14) (size 15 to 20)
#    0.000    2.154    1.538    1.385    6.462    3.692 
#    0.000    0.000    0.000    0.000    0.000    0.000 
#    0.000    0.000    0.000    0.000    0.000    0.000 
#
# Total GULP energy -322108.244336 kJ/mol
# GULP energy per Si atom -12388.778628 kJ/mol
# Density = 2.069602 g / cm^3
# Si number density = 20.743236 Si / 1000 Ang^3
#
#
#
# Elastic Constant Matrix: (Units=GPa)
#
#
# Indices 1 2 3 4 5 6 
#
# 1 35.8079 28.4048 11.8543 0.0000 4.0836 0.0000
# 2 28.4048 129.9847 30.5328 0.0000 -3.3941 0.0000
# 3 11.8543 30.5328 100.0890 0.0000 -11.3195 0.0000
# 4 0.0000 0.0000 0.0000 23.0136 0.0000 -11.6446
# 5 4.0836 -3.3941 -11.3195 0.0000 30.5645 0.0000
# 6 0.0000 0.0000 0.0000 -11.6446 0.0000 25.6863
#
#
#
# Elastic Compliance Matrix: (Units=1/GPa)
#
#
# Indices 1 2 3 4 5 6 
#
# 1 0.035321 -0.007253 -0.002709 0.000000 -0.006528 0.000000
# 2 -0.007253 0.009776 -0.001974 0.000000 0.001324 0.000000
# 3 -0.002709 -0.001974 0.011408 0.000000 0.004368 0.000000
# 4 0.000000 0.000000 0.000000 0.056387 0.000000 0.025562
# 5 -0.006528 0.001324 0.004368 0.000000 0.035354 0.000000
# 6 0.000000 0.000000 0.000000 0.025562 0.000000 0.050520
#
#
# Mechanical properties :
#
#
# Convention : Reuss Voigt Hill
#
# Bulk Modulus (GPa) = 30.64223 45.27394 37.95808
# Shear Modulus (GPa) = 21.41185 28.85885 25.13535
#
# Velocity S-wave (km/s) = 3.21632 3.73398 3.48478
# Velocity P-wave (km/s) = 5.34764 6.36109 5.87625
#
# Compressibility (1/GPa) = 0.03263470
#
# Stress axis : x y z
#
# Youngs Moduli (GPa) = 28.31152 102.28869 87.65769
#
# Poissons Ratio (x) = 0.74186 0.23748
# Poissons Ratio (y) = 0.20533 0.17300
# Poissons Ratio (z) = 0.07670 0.20188
#
# Static dielectric constant tensor:
#      x y z
#    x 3.319690 0.000000 0.024270 
#    y 0.000000 3.707460 0.000000 
#    z 0.024270 0.000000 4.075690 
# 
# 
# High freq. dielectric constant tensor:
#      x y z
#    x 1.804450 0.000000 -0.024160 
#    y 0.000000 1.800850 0.000000 
#    z -0.024160 0.000000 1.834480 
# 
# From -- ./inp_files/148140.got.cif
#   From: 2010.06.25/outbox.cif.g09.slc.cpg/sg15_75_cif.got.tgz:148140.got - 2010.06.28 07:06:18.
