data_PCOD8141133
_publ_section_title
;
Structure prediction by ZEFSAII (Michael W. Deem and Ramdas Pophale) SiO2 
 PCOD8141133
Probable space group: C 2/C
;
_chemical_formula_sum "Si O2"
_cell_formula_units_Z 64
_cell_length_a 13.717155
_cell_length_b 19.497682
_cell_length_c 11.664110
_cell_angle_alpha 90.000000
_cell_angle_beta 81.899246
_cell_angle_gamma 90.000000
_cell_volume 3088.470055
_symmetry_space_group_name_H-M "C 2/C"
_symmetry_group_IT_number 15
_symmetry_cell_setting 'monoclinic'
loop_
_space_group_symop_operation_xyz
x,y,z
-x,y,1/2-z
-x,-y,-z
x,-y,1/2+z
1/2+x,1/2+y,z
1/2-x,1/2+y,1/2-z
1/2-x,1/2-y,-z
1/2+x,1/2-y,1/2+z
loop_
_atom_site_type_symbol
_atom_site_label
_atom_site_fract_x
_atom_site_fract_y
_atom_site_fract_z
Si Si1 0.662133 0.195213 0.033170
Si Si2 0.349965 0.727922 0.291766
Si Si3 0.622472 0.935135 0.410082
Si Si4 0.714116 0.123544 0.687341
Si Si5 0.401532 0.084239 0.007196
Si Si6 0.518220 0.710924 0.433822
Si Si7 0.566931 0.657780 0.844699
Si Si8 0.140655 0.310269 0.804289
O O1 0.642719 0.178686 0.168550
O O2 0.750000 0.250000 0.000000
O O3 0.684642 0.122008 0.970590
O O4 0.562242 0.225253 0.996387
O O5 0.318824 0.803474 0.252633
O O6 0.415731 0.735314 0.394254
O O7 0.406773 0.688498 0.179243
O O8 0.251386 0.686843 0.337068
O O9 0.663655 0.934950 0.273247
O O10 0.506415 0.919838 0.427485
O O11 0.642111 0.009506 0.458752
O O12 0.676910 0.119440 0.563771
O O13 0.832396 0.114814 0.670982
O O14 0.415035 0.127821 0.122215
O O15 0.494944 0.648233 0.525951
O O16 0.500000 0.633169 0.750000
O O17 0.588208 0.738718 0.838300
#
# Coordination Sequence:
#
# PCOD8141133 Si02
#       8
#     8   8   8   8   8   8   8   8
#     4  12  21  38  62  95 127 165 205 262 321 376
#     4  10  21  35  59  90 123 161 198 255 316 376
#     4  11  25  41  62  91 126 168 213 252 319 391
#     4  11  22  41  61  86 127 166 207 256 319 381
#     4  11  26  41  62  93 125 171 210 257 310 392
#     4  11  20  33  56  89 123 156 196 248 315 370
#     4  11  22  35  61  95 125 155 205 264 314 375
#     4  11  22  37  60  93 128 158 206 257 318 371
#
# _framework density 20.722235000000001
#
# number of rings (size 3 to 8) (size 9 to 14) (size 15 to 20)
#    0.000    1.000    3.750    4.125    3.500    2.000 
#    0.000    0.000    0.000    0.750    3.250    0.000 
#    0.000    0.000    0.000    0.000    0.000    0.000 
#
# Total GULP energy -396808.262097 kJ/mol
# GULP energy per Si atom -12400.258191 kJ/mol
# Density = 2.067507 g / cm^3
# Si number density = 20.722235 Si / 1000 Ang^3
#
#
#
# Elastic Constant Matrix: (Units=GPa)
#
#
# Indices 1 2 3 4 5 6 
#
# 1 94.0070 14.1460 42.8802 0.0000 10.2238 0.0000
# 2 14.1460 64.1475 23.6150 0.0000 -3.3173 0.0000
# 3 42.8802 23.6150 128.7490 0.0000 0.3879 0.0000
# 4 0.0000 0.0000 0.0000 20.8172 0.0000 -4.3567
# 5 10.2238 -3.3173 0.3879 0.0000 35.6630 0.0000
# 6 0.0000 0.0000 0.0000 -4.3567 0.0000 22.8606
#
#
#
# Elastic Compliance Matrix: (Units=1/GPa)
#
#
# Indices 1 2 3 4 5 6 
#
# 1 0.013160 -0.001602 -0.004078 0.000000 -0.003877 0.000000
# 2 -0.001602 0.017003 -0.002592 0.000000 0.002069 0.000000
# 3 -0.004078 -0.002592 0.009598 0.000000 0.000824 0.000000
# 4 0.000000 0.000000 0.000000 0.050033 0.000000 0.009535
# 5 -0.003877 0.002069 0.000824 0.000000 0.029335 0.000000
# 6 0.000000 0.000000 0.000000 0.009535 0.000000 0.045561
#
#
# Mechanical properties :
#
#
# Convention : Reuss Voigt Hill
#
# Bulk Modulus (GPa) = 43.06627 49.79843 46.43235
# Shear Modulus (GPa) = 26.45904 29.61898 28.03901
#
# Velocity S-wave (km/s) = 3.57717 3.78475 3.68243
# Velocity P-wave (km/s) = 6.15543 6.57136 6.36679
#
# Compressibility (1/GPa) = 0.02322003
#
# Stress axis : x y z
#
# Youngs Moduli (GPa) = 75.98714 58.81216 104.18875
#
# Poissons Ratio (x) = 0.09419 0.42484
# Poissons Ratio (y) = 0.12169 0.27001
# Poissons Ratio (z) = 0.30984 0.15242
#
# Static dielectric constant tensor:
#      x y z
#    x 3.916930 0.000000 -0.072880 
#    y 0.000000 3.314820 0.000000 
#    z -0.072880 0.000000 3.998070 
# 
# 
# High freq. dielectric constant tensor:
#      x y z
#    x 1.820910 0.000000 -0.003130 
#    y 0.000000 1.751420 0.000000 
#    z -0.003130 0.000000 1.834110 
# 
# From -- ./inp_files/98782.got.cif
#   From: 2010.06.25/outbox.cif.g09.slc.cpg/sg15_50_cif.got.tgz:98782.got - 2010.06.28 07:06:18.
