data_PCOD8141033
_publ_section_title
;
Structure prediction by ZEFSAII (Michael W. Deem and Ramdas Pophale) SiO2 
 PCOD8141033
Probable space group: C 2/C
;
_chemical_formula_sum "Si O2"
_cell_formula_units_Z 60
_cell_length_a 26.792566
_cell_length_b 16.195431
_cell_length_c 19.641742
_cell_angle_alpha 90.000000
_cell_angle_beta 20.309878
_cell_angle_gamma 90.000000
_cell_volume 2958.272043
_symmetry_space_group_name_H-M "C 2/C"
_symmetry_group_IT_number 15
_symmetry_cell_setting 'monoclinic'
loop_
_space_group_symop_operation_xyz
x,y,z
-x,y,1/2-z
-x,-y,-z
x,-y,1/2+z
1/2+x,1/2+y,z
1/2-x,1/2+y,1/2-z
1/2-x,1/2-y,-z
1/2+x,1/2-y,1/2+z
loop_
_atom_site_type_symbol
_atom_site_label
_atom_site_fract_x
_atom_site_fract_y
_atom_site_fract_z
Si Si1 0.989763 0.675246 0.936590
Si Si2 0.798290 0.443169 0.762483
Si Si3 0.000000 0.303753 0.750000
Si Si4 0.739668 0.421686 0.073172
Si Si5 0.048391 0.831678 0.080986
Si Si6 0.197847 0.265077 0.279834
Si Si7 0.306173 0.935850 0.134644
Si Si8 0.095696 0.520027 0.740620
O O1 0.126608 0.722837 0.795748
O O2 0.045572 0.616068 0.803486
O O3 0.927278 0.618821 0.077943
O O4 0.864925 0.733959 0.064276
O O5 0.750524 0.494156 0.756969
O O6 0.842529 0.507946 0.762853
O O7 0.667435 0.391724 0.960600
O O8 0.955775 0.250976 0.871114
O O9 0.136818 0.355682 0.596219
O O10 0.597208 0.381947 0.225685
O O11 0.707024 0.440460 0.194178
O O12 0.787840 0.502998 0.968080
O O13 0.097654 0.805381 0.942166
O O14 0.197772 0.347488 0.324836
O O15 0.463993 0.955886 0.902025
#
# Coordination Sequence:
#
# PCOD8141033 Si02
#       8
#     8   8   4   8   8   8   8   8
#     4  10  21  34  61  90 119 161 202 257 299 357
#     4  10  21  37  60  84 120 161 206 240 289 369
#     4  12  22  36  54  86 134 158 184 228 308 386
#     4  12  23  36  58  87 125 160 194 245 300 369
#     4  11  24  34  54  93 122 157 191 243 304 354
#     4  11  19  36  58  92 126 152 202 252 304 352
#     4  11  19  37  60  86 116 159 200 241 296 352
#     4  11  19  38  59  83 120 167 204 230 300 376
#
# _framework density 20.282111
#
# number of rings (size 3 to 8) (size 9 to 14) (size 15 to 20)
#    0.000    1.067    5.333    2.800    1.867    0.533 
#    0.000    1.333    0.000    0.000    0.000   35.467 
#    0.000    0.000    0.000    0.000    0.000    0.000 
#
# Total GULP energy -371882.728829 kJ/mol
# GULP energy per Si atom -12396.090961 kJ/mol
# Density = 2.023595 g / cm^3
# Si number density = 20.282111 Si / 1000 Ang^3
#
#
#
# Elastic Constant Matrix: (Units=GPa)
#
#
# Indices 1 2 3 4 5 6 
#
# 1 668.5794 -121.3886 -342.7274 0.0127 -132.5921 0.0036
# 2 -121.3886 114.4121 123.0787 -0.0011 20.8387 -0.0011
# 3 -342.7274 123.0787 296.5634 -0.0045 59.6388 -0.0024
# 4 0.0127 -0.0011 -0.0045 46.6477 -0.0036 -2.3219
# 5 -132.5921 20.8387 59.6388 -0.0036 46.1777 -0.0001
# 6 0.0036 -0.0011 -0.0024 -2.3219 -0.0001 31.0199
#
#
#
# Elastic Compliance Matrix: (Units=1/GPa)
#
#
# Indices 1 2 3 4 5 6 
#
# 1 0.006623 -0.001428 0.005799 0.000000 0.012172 0.000000
# 2 -0.001428 0.016210 -0.008216 0.000000 -0.000805 0.000000
# 3 0.005799 -0.008216 0.012684 0.000000 0.003978 0.000000
# 4 0.000000 0.000000 0.000000 0.021517 0.000001 0.001611
# 5 0.012172 -0.000805 0.003978 0.000001 0.051832 -0.000001
# 6 0.000000 0.000000 0.000000 0.001611 -0.000001 0.032358
#
#
# Mechanical properties :
#
#
# Convention : Reuss Voigt Hill
#
# Bulk Modulus (GPa) = 35.93851 44.16448 40.05149
# Shear Modulus (GPa) = 31.60747 119.47520 75.54134
#
# Velocity S-wave (km/s) = 3.95193 7.68340 6.10951
# Velocity P-wave (km/s) = 6.21140 10.02672 8.34016
#
# Compressibility (1/GPa) = 0.02782531
#
# Stress axis : x y z
#
# Youngs Moduli (GPa) = 150.98966 61.68969 78.84240
#
# Poissons Ratio (x) = 0.08811 -0.45720
# Poissons Ratio (y) = 0.21566 0.64779
# Poissons Ratio (z) = -0.87557 0.50686
#
# Static dielectric constant tensor:
#      x y z
#    x 4.197680 0.000000 1.303940 
#    y 0.000000 3.730490 0.000010 
#    z 1.303940 0.000010 6.721220 
# 
# 
# High freq. dielectric constant tensor:
#      x y z
#    x 1.783670 0.000000 -0.011180 
#    y 0.000000 1.787710 0.000000 
#    z -0.011180 0.000000 1.774260 
# 
# From -- ./inp_files/257851.got.cif
#   From: 2010.06.25/outbox.cif.g09.slc.cpg/sg15_129_cif.got.tgz:257851.got - 2010.06.28 07:06:18.
