data_PCOD8141486
_publ_section_title
;
Structure prediction by ZEFSAII (Michael W. Deem and Ramdas Pophale) SiO2 
 PCOD8141486
Probable space group: C 2/C
;
_chemical_formula_sum "Si O2"
_cell_formula_units_Z 48
_cell_length_a 14.221147
_cell_length_b 29.558983
_cell_length_c 5.515603
_cell_angle_alpha 90.000000
_cell_angle_beta 78.640047
_cell_angle_gamma 90.000000
_cell_volume 2273.130875
_symmetry_space_group_name_H-M "C 2/C"
_symmetry_group_IT_number 15
_symmetry_cell_setting 'monoclinic'
loop_
_space_group_symop_operation_xyz
x,y,z
-x,y,1/2-z
-x,-y,-z
x,-y,1/2+z
1/2+x,1/2+y,z
1/2-x,1/2+y,1/2-z
1/2-x,1/2-y,-z
1/2+x,1/2-y,1/2+z
loop_
_atom_site_type_symbol
_atom_site_label
_atom_site_fract_x
_atom_site_fract_y
_atom_site_fract_z
Si Si1 0.677202 0.848556 0.439585
Si Si2 0.000000 0.864535 0.250000
Si Si3 0.000000 0.342210 0.250000
Si Si4 0.594375 0.777021 0.832539
Si Si5 0.167128 0.886594 0.846804
Si Si6 0.153868 0.183995 0.971711
Si Si7 0.613454 0.476197 0.681376
O O1 0.576952 0.869347 0.379873
O O2 0.658215 0.802746 0.601041
O O3 0.728956 0.887211 0.574754
O O4 0.750535 0.835795 0.192383
O O5 0.055469 0.832985 0.407442
O O6 0.921919 0.896258 0.424719
O O7 0.931681 0.312559 0.449864
O O8 0.500000 0.756860 0.750000
O O9 0.653794 0.738232 0.943516
O O10 0.153961 0.835590 0.745644
O O11 0.162260 0.926281 0.650116
O O12 0.500000 0.471623 0.750000
O O13 0.648666 0.499412 0.413190
#
# Coordination Sequence:
#
# PCOD8141486 Si02
#       7
#     8   4   4   8   8   8   8
#     4  10  23  38  56  82 115 154 211 254 306 356
#     4  10  22  34  52  84 123 156 199 246 290 358
#     4  10  22  38  58  74 113 156 205 256 306 356
#     4  10  21  37  55  81 116 161 205 250 305 358
#     4  11  24  37  59  88 121 158 205 250 305 367
#     4  11  21  35  57  82 118 157 200 250 298 357
#     4  10  23  40  65  93 129 167 201 247 310 386
#
# _framework density 21.116247999999999
#
# number of rings (size 3 to 8) (size 9 to 14) (size 15 to 20)
#    0.000    1.667    0.833    3.000   10.500    4.000 
#    0.000    0.000    0.000    0.000    0.000    1.167 
#    0.000    0.000    0.000    0.000    0.000    0.000 
#
# Total GULP energy -297400.014359 kJ/mol
# GULP energy per Si atom -12391.667265 kJ/mol
# Density = 2.106819 g / cm^3
# Si number density = 21.116248 Si / 1000 Ang^3
#
#
#
# Elastic Constant Matrix: (Units=GPa)
#
#
# Indices 1 2 3 4 5 6 
#
# 1 130.8271 35.2114 32.3994 0.0000 25.7353 0.0000
# 2 35.2114 57.1108 24.5797 0.0000 6.3198 0.0000
# 3 32.3994 24.5797 87.9713 0.0000 14.8760 0.0000
# 4 0.0000 0.0000 0.0000 36.2541 0.0000 14.0149
# 5 25.7353 6.3198 14.8760 0.0000 26.7973 0.0000
# 6 0.0000 0.0000 0.0000 14.0149 0.0000 19.0420
#
#
#
# Elastic Compliance Matrix: (Units=1/GPa)
#
#
# Indices 1 2 3 4 5 6 
#
# 1 0.011093 -0.005398 -0.001094 0.000000 -0.008773 0.000000
# 2 -0.005398 0.022606 -0.004749 0.000000 0.002489 0.000000
# 3 -0.001094 -0.004749 0.014049 0.000000 -0.005628 0.000000
# 4 0.000000 0.000000 0.000000 0.038552 0.000000 -0.028374
# 5 -0.008773 0.002489 -0.005628 0.000000 0.048280 0.000000
# 6 0.000000 0.000000 0.000000 -0.028374 0.000000 0.073399
#
#
# Mechanical properties :
#
#
# Convention : Reuss Voigt Hill
#
# Bulk Modulus (GPa) = 39.57773 51.14336 45.36054
# Shear Modulus (GPa) = 20.93067 28.66659 24.79863
#
# Velocity S-wave (km/s) = 3.15177 3.68851 3.43065
# Velocity P-wave (km/s) = 5.65936 6.51250 6.10086
#
# Compressibility (1/GPa) = 0.02526674
#
# Stress axis : x y z
#
# Youngs Moduli (GPa) = 90.14538 44.23517 71.17977
#
# Poissons Ratio (x) = 0.23878 0.07786
# Poissons Ratio (y) = 0.48659 0.33805
# Poissons Ratio (z) = 0.09860 0.21008
#
# Static dielectric constant tensor:
#      x y z
#    x 4.072210 0.000000 0.479180 
#    y 0.000000 3.420970 0.000000 
#    z 0.479180 0.000000 2.565360 
# 
# 
# High freq. dielectric constant tensor:
#      x y z
#    x 1.830090 0.000000 0.017000 
#    y 0.000000 1.773090 0.000000 
#    z 0.017000 0.000000 1.841310 
# 
# From -- ./inp_files/8728.got.cif
#   From: 2010.06.25/outbox.cif.g09.slc.cpg/sg15_5_cif.got.tgz:8728.got - 2010.06.28 07:06:18.
