data_PCOD8141673
_publ_section_title
;
Structure prediction by ZEFSAII (Michael W. Deem and Ramdas Pophale) SiO2 
 PCOD8141673
Probable space group: C 2/C
;
_chemical_formula_sum "Si O2"
_cell_formula_units_Z 48
_cell_length_a 31.170206
_cell_length_b 14.659537
_cell_length_c 15.665747
_cell_angle_alpha 90.000000
_cell_angle_beta 19.517650
_cell_angle_gamma 90.000000
_cell_volume 2391.574438
_symmetry_space_group_name_H-M "C 2/C"
_symmetry_group_IT_number 15
_symmetry_cell_setting 'monoclinic'
loop_
_space_group_symop_operation_xyz
x,y,z
-x,y,1/2-z
-x,-y,-z
x,-y,1/2+z
1/2+x,1/2+y,z
1/2-x,1/2+y,1/2-z
1/2-x,1/2-y,-z
1/2+x,1/2-y,1/2+z
loop_
_atom_site_type_symbol
_atom_site_label
_atom_site_fract_x
_atom_site_fract_y
_atom_site_fract_z
Si Si1 0.752597 0.729065 0.134219
Si Si2 0.857858 0.426940 0.549834
Si Si3 0.949558 0.769567 0.627349
Si Si4 0.848663 0.366146 0.044195
Si Si5 0.409881 0.084028 0.148247
Si Si6 0.717990 0.335015 0.118829
O O1 0.766946 0.646670 0.174485
O O2 0.655181 0.695061 0.243659
O O3 0.696030 0.818394 0.285343
O O4 0.887305 0.757293 0.837875
O O5 0.807995 0.527947 0.621756
O O6 0.853813 0.413878 0.658652
O O7 0.000000 0.411413 0.250000
O O8 0.005885 0.673113 0.490945
O O9 0.063788 0.844836 0.417279
O O10 0.776452 0.317252 0.102149
O O11 0.000000 0.354771 0.750000
O O12 0.288176 0.078790 0.441811
O O13 0.500000 0.000000 0.000000
O O14 0.750000 0.250000 0.000000
#
# Coordination Sequence:
#
# PCOD8141673 Si02
#       6
#     8   8   8   8   8   8
#     4  11  22  39  67  88 133 166 214 263 323 395
#     4  11  22  39  64  94 120 163 217 263 309 379
#     4  10  22  39  62  92 122 173 208 255 335 381
#     4  11  23  40  64  95 122 162 217 266 316 378
#     4  11  20  37  66  93 124 159 218 265 315 379
#     4  10  21  37  61  90 122 162 206 263 316 379
#
# _framework density 20.070461000000002
#
# number of rings (size 3 to 8) (size 9 to 14) (size 15 to 20)
#    0.000    1.333    1.667    7.000    0.000    0.000 
#    0.000    0.833    7.333    0.000    0.000    0.000 
#    0.000    0.000    0.000    0.000    0.000    0.000 
#
# Total GULP energy -297619.811964 kJ/mol
# GULP energy per Si atom -12400.825499 kJ/mol
# Density = 2.002478 g / cm^3
# Si number density = 20.070461 Si / 1000 Ang^3
#
#
#
# Elastic Constant Matrix: (Units=GPa)
#
#
# Indices 1 2 3 4 5 6 
#
# 1 128.8943 30.5696 41.2275 0.0000 -2.5245 0.0000
# 2 30.5696 92.0634 46.2588 0.0000 -6.1402 0.0000
# 3 41.2275 46.2588 145.5451 -0.0001 3.3114 0.0001
# 4 0.0000 0.0000 -0.0001 32.2004 0.0000 -4.0458
# 5 -2.5245 -6.1402 3.3114 0.0000 31.3490 -0.0001
# 6 0.0000 0.0000 0.0001 -4.0458 -0.0001 18.3748
#
#
#
# Elastic Compliance Matrix: (Units=1/GPa)
#
#
# Indices 1 2 3 4 5 6 
#
# 1 0.008837 -0.001946 -0.001897 0.000000 0.000531 0.000000
# 2 -0.001946 0.013637 -0.003850 0.000000 0.002921 0.000000
# 3 -0.001897 -0.003850 0.008673 0.000000 -0.001823 0.000000
# 4 0.000000 0.000000 0.000000 0.031939 0.000000 0.007032
# 5 0.000531 0.002921 -0.001823 0.000000 0.032706 0.000000
# 6 0.000000 0.000000 0.000000 0.007032 0.000000 0.055971
#
#
# Mechanical properties :
#
#
# Convention : Reuss Voigt Hill
#
# Bulk Modulus (GPa) = 63.44080 66.95718 65.19899
# Shear Modulus (GPa) = 29.00195 32.94798 30.97497
#
# Velocity S-wave (km/s) = 3.80545 4.05608 3.93276
# Velocity P-wave (km/s) = 7.14046 7.44105 7.29231
#
# Compressibility (1/GPa) = 0.01576273
#
# Stress axis : x y z
#
# Youngs Moduli (GPa) = 113.16222 73.32823 115.29998
#
# Poissons Ratio (x) = 0.14268 0.21870
# Poissons Ratio (y) = 0.22019 0.44386
# Poissons Ratio (z) = 0.21465 0.28229
#
# Static dielectric constant tensor:
#      x y z
#    x 3.141590 0.000000 -1.326110 
#    y 0.000000 3.808120 -0.000010 
#    z -1.326110 -0.000010 1.061040 
# 
# 
# High freq. dielectric constant tensor:
#      x y z
#    x 1.801010 0.000000 0.008780 
#    y 0.000000 1.764590 0.000000 
#    z 0.008780 0.000000 1.785440 
# 
# From -- ./inp_files/182414.got.cif
#   From: 2010.06.25/outbox.cif.g09.slc.cpg/sg15_92_cif.got.tgz:182414.got - 2010.06.28 07:06:18.
