data_PCOD8141288
_publ_section_title
;
Structure prediction by ZEFSAII (Michael W. Deem and Ramdas Pophale) SiO2 
 PCOD8141288
Probable space group: C 2/C
;
_chemical_formula_sum "Si O2"
_cell_formula_units_Z 48
_cell_length_a 12.166007
_cell_length_b 13.336172
_cell_length_c 22.354640
_cell_angle_alpha 90.000000
_cell_angle_beta 146.385603
_cell_angle_gamma 90.000000
_cell_volume 2007.907299
_symmetry_space_group_name_H-M "C 2/C"
_symmetry_group_IT_number 15
_symmetry_cell_setting 'monoclinic'
loop_
_space_group_symop_operation_xyz
x,y,z
-x,y,1/2-z
-x,-y,-z
x,-y,1/2+z
1/2+x,1/2+y,z
1/2-x,1/2+y,1/2-z
1/2-x,1/2-y,-z
1/2+x,1/2-y,1/2+z
loop_
_atom_site_type_symbol
_atom_site_label
_atom_site_fract_x
_atom_site_fract_y
_atom_site_fract_z
Si Si1 0.274142 0.898127 0.772311
Si Si2 0.416799 0.299862 0.917366
Si Si3 0.232656 0.012909 0.435835
Si Si4 0.698793 0.293596 0.860448
Si Si5 0.815386 0.416799 0.357613
Si Si6 0.215168 0.647104 0.448157
O O1 0.097574 0.872131 0.646191
O O2 0.300289 0.840534 0.847563
O O3 0.482969 0.877704 0.834245
O O4 0.221354 0.015629 0.761845
O O5 0.303098 0.201287 0.841027
O O6 0.312634 0.346808 0.927548
O O7 0.648886 0.279774 0.037097
O O8 0.114638 0.117133 0.367137
O O9 0.457703 0.050252 0.535578
O O10 0.199065 0.934843 0.366707
O O11 0.183914 0.949981 0.473480
O O12 0.500000 0.233043 0.750000
O O13 0.250000 0.750000 0.500000
#
# Coordination Sequence:
#
# PCOD8141288 Si02
#       6
#     8   8   8   8   8   8
#     4  10  21  36  57  92 132 166 211 265 327 388
#     4  11  20  35  63  93 127 172 212 264 326 378
#     4   8  15  31  55  81 119 160 203 256 317 371
#     4  10  21  39  59  85 121 178 226 260 300 388
#     4   8  15  32  54  81 125 165 197 252 317 373
#     4  11  17  33  58  96 131 153 199 278 330 382
#
# _framework density 23.905484999999999
#
# number of rings (size 3 to 8) (size 9 to 14) (size 15 to 20)
#    0.000    2.333    3.333    2.500    0.000    0.667 
#    6.000    0.000    0.000   10.000    0.000    2.333 
#    0.000    0.000    0.000    0.000    0.000    0.000 
#
# Total GULP energy -297369.057976 kJ/mol
# GULP energy per Si atom -12390.377416 kJ/mol
# Density = 2.385108 g / cm^3
# Si number density = 23.905485 Si / 1000 Ang^3
#
#
#
# Elastic Constant Matrix: (Units=GPa)
#
#
# Indices 1 2 3 4 5 6 
#
# 1 89.3107 47.1252 37.1077 0.0001 -22.8711 0.0000
# 2 47.1252 80.3217 63.3930 0.0001 -16.6300 0.0000
# 3 37.1077 63.3930 146.2916 -0.0015 -19.7590 -0.0002
# 4 0.0001 0.0001 -0.0015 42.2746 -0.0004 -9.8265
# 5 -22.8711 -16.6300 -19.7590 -0.0004 29.5393 0.0000
# 6 0.0000 0.0000 -0.0002 -9.8265 0.0000 34.0853
#
#
#
# Elastic Compliance Matrix: (Units=1/GPa)
#
#
# Indices 1 2 3 4 5 6 
#
# 1 0.018199 -0.009269 0.000658 0.000000 0.009313 0.000000
# 2 -0.009269 0.024550 -0.008124 0.000000 0.001211 0.000000
# 3 0.000658 -0.008124 0.010598 0.000000 0.003025 0.000000
# 4 0.000000 0.000000 0.000000 0.025354 0.000001 0.007309
# 5 0.009313 0.001211 0.003025 0.000001 0.043769 0.000000
# 6 0.000000 0.000000 0.000000 0.007309 0.000000 0.031445
#
#
# Mechanical properties :
#
#
# Convention : Reuss Voigt Hill
#
# Bulk Modulus (GPa) = 50.30715 67.90841 59.10778
# Shear Modulus (GPa) = 25.77191 32.39971 29.08581
#
# Velocity S-wave (km/s) = 3.28697 3.68547 3.49191
# Velocity P-wave (km/s) = 5.95780 6.82488 6.40603
#
# Compressibility (1/GPa) = 0.01987789
#
# Stress axis : x y z
#
# Youngs Moduli (GPa) = 54.94816 40.73281 94.36070
#
# Poissons Ratio (x) = 0.37754 -0.06208
# Poissons Ratio (y) = 0.50929 0.76657
# Poissons Ratio (z) = -0.03615 0.33091
#
# Static dielectric constant tensor:
#      x y z
#    x 4.132790 0.000000 0.046500 
#    y 0.000000 4.800520 0.000000 
#    z 0.046500 0.000000 4.632240 
# 
# 
# High freq. dielectric constant tensor:
#      x y z
#    x 1.943950 0.000000 0.007330 
#    y 0.000000 1.922090 0.000000 
#    z 0.007330 0.000000 1.954980 
# 
# From -- ./inp_files/239019.got.cif
#   From: 2010.06.25/outbox.cif.g09.slc.cpg/sg15_120_cif.got.tgz:239019.got - 2010.06.28 07:06:18.
