data_PCOD8141323
_publ_section_title
;
Structure prediction by ZEFSAII (Michael W. Deem and Ramdas Pophale) SiO2 
 PCOD8141323
Probable space group: C 2/C
;
_chemical_formula_sum "Si O2"
_cell_formula_units_Z 40
_cell_length_a 19.470393
_cell_length_b 12.879974
_cell_length_c 8.469516
_cell_angle_alpha 90.000000
_cell_angle_beta 64.708662
_cell_angle_gamma 90.000000
_cell_volume 1920.381056
_symmetry_space_group_name_H-M "C 2/C"
_symmetry_group_IT_number 15
_symmetry_cell_setting 'monoclinic'
loop_
_space_group_symop_operation_xyz
x,y,z
-x,y,1/2-z
-x,-y,-z
x,-y,1/2+z
1/2+x,1/2+y,z
1/2-x,1/2+y,1/2-z
1/2-x,1/2-y,-z
1/2+x,1/2-y,1/2+z
loop_
_atom_site_type_symbol
_atom_site_label
_atom_site_fract_x
_atom_site_fract_y
_atom_site_fract_z
Si Si1 0.080395 0.645728 0.106325
Si Si2 0.234165 0.630266 0.513152
Si Si3 0.918674 0.441289 0.246675
Si Si4 0.090103 0.126920 0.637023
Si Si5 0.822342 0.991240 0.186670
O O1 0.111561 0.560689 0.201256
O O2 0.122784 0.756951 0.062695
O O3 0.000000 0.681219 0.250000
O O4 0.075427 0.590410 0.941233
O O5 0.250000 0.750000 0.500000
O O6 0.142653 0.627395 0.601056
O O7 0.271438 0.575157 0.326987
O O8 0.264210 0.575127 0.640853
O O9 0.000000 0.427315 0.250000
O O10 0.112696 0.050970 0.473017
O O11 0.000000 0.118623 0.750000
O O12 0.134076 0.091034 0.748785
#
# Coordination Sequence:
#
# PCOD8141323 Si02
#       5
#     8   8   8   8   8
#     4  10  21  36  59  90 118 151 195 245 295 341
#     4  11  24  41  61  88 122 158 196 243 303 353
#     4  11  22  39  61  88 120 156 199 245 290 354
#     4  10  21  40  63  88 119 159 203 245 294 352
#     4  10  23  40  60  88 120 156 199 250 298 352
#
# _framework density 20.829198999999999
#
# number of rings (size 3 to 8) (size 9 to 14) (size 15 to 20)
#    0.000    1.600    0.000    5.400    0.000    6.400 
#    0.000   10.000    0.000    1.200    0.000    0.000 
#    0.000    0.000    0.000    0.000    0.000    0.000 
#
# Total GULP energy -247861.973675 kJ/mol
# GULP energy per Si atom -12393.098684 kJ/mol
# Density = 2.078179 g / cm^3
# Si number density = 20.829199 Si / 1000 Ang^3
#
#
#
# Elastic Constant Matrix: (Units=GPa)
#
#
# Indices 1 2 3 4 5 6 
#
# 1 92.6830 62.0242 53.7964 0.0000 -13.6170 0.0000
# 2 62.0242 191.4222 65.5761 0.0000 15.0083 0.0000
# 3 53.7964 65.5761 126.7305 0.0000 8.8471 0.0000
# 4 0.0000 0.0000 0.0000 37.2533 0.0000 23.5292
# 5 -13.6170 15.0083 8.8471 0.0000 32.6336 0.0000
# 6 0.0000 0.0000 0.0000 23.5292 0.0000 70.5626
#
#
#
# Elastic Compliance Matrix: (Units=1/GPa)
#
#
# Indices 1 2 3 4 5 6 
#
# 1 0.019954 -0.005160 -0.006674 0.000000 0.012508 0.000000
# 2 -0.005160 0.007824 -0.001485 0.000000 -0.005349 0.000000
# 3 -0.006674 -0.001485 0.011863 0.000000 -0.005318 0.000000
# 4 0.000000 0.000000 0.000000 0.034005 0.000000 -0.011339
# 5 0.012508 -0.005349 -0.005318 0.000000 0.039764 0.000000
# 6 0.000000 0.000000 0.000000 -0.011339 0.000000 0.017953
#
#
# Mechanical properties :
#
#
# Convention : Reuss Voigt Hill
#
# Bulk Modulus (GPa) = 76.89589 85.95877 81.42733
# Shear Modulus (GPa) = 30.80067 43.38584 37.09326
#
# Velocity S-wave (km/s) = 3.84959 4.56887 4.22457
# Velocity P-wave (km/s) = 7.53370 8.31810 7.93560
#
# Compressibility (1/GPa) = 0.01300460
#
# Stress axis : x y z
#
# Youngs Moduli (GPa) = 50.11574 127.81266 84.29471
#
# Poissons Ratio (x) = 0.65950 0.56254
# Poissons Ratio (y) = 0.25859 0.12515
# Poissons Ratio (z) = 0.33445 0.18976
#
# Static dielectric constant tensor:
#      x y z
#    x 3.721460 0.000000 -0.115820 
#    y 0.000000 4.133680 0.000000 
#    z -0.115820 0.000000 3.961560 
# 
# 
# High freq. dielectric constant tensor:
#      x y z
#    x 1.805870 0.000000 -0.009020 
#    y 0.000000 1.831620 0.000000 
#    z -0.009020 0.000000 1.832240 
# 
# From -- ./inp_files/54048.got.cif
#   From: 2010.06.25/outbox.cif.g09.slc.cpg/sg15_28_cif.got.tgz:54048.got - 2010.06.28 07:06:18.
