data_PCOD8141639
_publ_section_title
;
Structure prediction by ZEFSAII (Michael W. Deem and Ramdas Pophale) SiO2 
 PCOD8141639
Probable space group: C 2/C
;
_chemical_formula_sum "Si O2"
_cell_formula_units_Z 40
_cell_length_a 21.888486
_cell_length_b 10.328659
_cell_length_c 9.049385
_cell_angle_alpha 90.000000
_cell_angle_beta 109.247247
_cell_angle_gamma 90.000000
_cell_volume 1931.518897
_symmetry_space_group_name_H-M "C 2/C"
_symmetry_group_IT_number 15
_symmetry_cell_setting 'monoclinic'
loop_
_space_group_symop_operation_xyz
x,y,z
-x,y,1/2-z
-x,-y,-z
x,-y,1/2+z
1/2+x,1/2+y,z
1/2-x,1/2+y,1/2-z
1/2-x,1/2-y,-z
1/2+x,1/2-y,1/2+z
loop_
_atom_site_type_symbol
_atom_site_label
_atom_site_fract_x
_atom_site_fract_y
_atom_site_fract_z
Si Si1 0.059853 0.912777 0.488628
Si Si2 0.563492 0.131153 0.370399
Si Si3 0.577113 0.358323 0.812265
Si Si4 0.185888 0.331813 0.454649
Si Si5 0.640836 0.986413 0.677514
O O1 0.044550 0.780207 0.390135
O O2 0.102422 0.873995 0.664369
O O3 0.096400 0.006828 0.405422
O O4 0.000000 0.000000 0.500000
O O5 0.500000 0.063777 0.250000
O O6 0.584301 0.055830 0.535859
O O7 0.615604 0.116964 0.279385
O O8 0.500000 0.324685 0.750000
O O9 0.618453 0.246463 0.922038
O O10 0.250000 0.250000 0.500000
O O11 0.190380 0.419687 0.603915
O O12 0.182545 0.408086 0.298379
#
# Coordination Sequence:
#
# PCOD8141639 Si02
#       5
#     8   8   8   8   8
#     4  10  21  37  60  96 133 170 219 261 327 377
#     4  11  21  39  66  98 138 171 211 272 325 389
#     4  10  22  38  64  94 131 167 218 272 322 382
#     4  11  25  47  67  92 134 171 222 272 326 394
#     4  10  25  43  63  98 126 173 226 258 333 401
#
# _framework density 20.70909
#
# number of rings (size 3 to 8) (size 9 to 14) (size 15 to 20)
#    0.000    1.600    2.000    2.400    8.400    4.800 
#    0.000    2.000    0.000    0.000    0.000    0.000 
#    0.000    0.000    0.000    0.000    0.000    0.000 
#
# Total GULP energy -247796.465601 kJ/mol
# GULP energy per Si atom -12389.823280 kJ/mol
# Density = 2.066196 g / cm^3
# Si number density = 20.709090 Si / 1000 Ang^3
#
#
#
# Elastic Constant Matrix: (Units=GPa)
#
#
# Indices 1 2 3 4 5 6 
#
# 1 85.5053 53.6519 48.1340 0.0000 8.1439 0.0000
# 2 53.6519 126.8662 60.7125 0.0000 -2.3050 0.0000
# 3 48.1340 60.7125 157.0839 0.0000 -11.5464 0.0000
# 4 0.0000 0.0000 0.0000 38.0192 0.0000 -7.8217
# 5 8.1439 -2.3050 -11.5464 0.0000 21.9059 0.0000
# 6 0.0000 0.0000 0.0000 -7.8217 0.0000 32.1012
#
#
#
# Elastic Compliance Matrix: (Units=1/GPa)
#
#
# Indices 1 2 3 4 5 6 
#
# 1 0.018808 -0.006170 -0.004099 0.000000 -0.009802 0.000000
# 2 -0.006170 0.011716 -0.002474 0.000000 0.002223 0.000000
# 3 -0.004099 -0.002474 0.009021 0.000000 0.006018 0.000000
# 4 0.000000 0.000000 0.000000 0.027691 0.000000 0.006747
# 5 -0.009802 0.002223 0.006018 0.000000 0.052700 0.000000
# 6 0.000000 0.000000 0.000000 0.006747 0.000000 0.032795
#
#
# Mechanical properties :
#
#
# Convention : Reuss Voigt Hill
#
# Bulk Modulus (GPa) = 71.13422 77.16133 74.14777
# Shear Modulus (GPa) = 27.33683 32.20238 29.76961
#
# Velocity S-wave (km/s) = 3.63718 3.94761 3.79557
# Velocity P-wave (km/s) = 7.21544 7.62356 7.42231
#
# Compressibility (1/GPa) = 0.01405793
#
# Stress axis : x y z
#
# Youngs Moduli (GPa) = 53.16913 85.35174 110.85761
#
# Poissons Ratio (x) = 0.52666 0.45438
# Poissons Ratio (y) = 0.32808 0.27428
# Poissons Ratio (z) = 0.21793 0.21117
#
# Static dielectric constant tensor:
#      x y z
#    x 3.222460 0.000000 -0.189570 
#    y 0.000000 3.933730 0.000000 
#    z -0.189570 0.000000 4.381110 
# 
# 
# High freq. dielectric constant tensor:
#      x y z
#    x 1.758410 0.000000 -0.013410 
#    y 0.000000 1.818310 0.000000 
#    z -0.013410 0.000000 1.842860 
# 
# From -- ./inp_files/46270.got.cif
#   From: 2010.06.25/outbox.cif.g09.slc.cpg/sg15_24_cif.got.tgz:46270.got - 2010.06.28 07:06:18.
