data_PCOD8141305
_publ_section_title
;
Structure prediction by ZEFSAII (Michael W. Deem and Ramdas Pophale) SiO2 
 PCOD8141305
Probable space group: C 2/C
;
_chemical_formula_sum "Si O2"
_cell_formula_units_Z 56
_cell_length_a 22.656655
_cell_length_b 12.760764
_cell_length_c 22.613888
_cell_angle_alpha 90.000000
_cell_angle_beta 24.276065
_cell_angle_gamma 90.000000
_cell_volume 2688.008667
_symmetry_space_group_name_H-M "C 2/C"
_symmetry_group_IT_number 15
_symmetry_cell_setting 'monoclinic'
loop_
_space_group_symop_operation_xyz
x,y,z
-x,y,1/2-z
-x,-y,-z
x,-y,1/2+z
1/2+x,1/2+y,z
1/2-x,1/2+y,1/2-z
1/2-x,1/2-y,-z
1/2+x,1/2-y,1/2+z
loop_
_atom_site_type_symbol
_atom_site_label
_atom_site_fract_x
_atom_site_fract_y
_atom_site_fract_z
Si Si1 0.859143 0.643577 0.520434
Si Si2 0.020052 0.446418 0.341793
Si Si3 0.903984 0.852981 0.080753
Si Si4 0.472117 0.351651 0.151057
Si Si5 0.155657 0.959503 0.477467
Si Si6 0.908245 0.334750 0.109901
Si Si7 0.900230 0.763907 0.892843
O O1 0.685790 0.655981 0.674961
O O2 0.914673 0.626193 0.536511
O O3 0.909158 0.543181 0.436569
O O4 0.939284 0.744777 0.420093
O O5 0.173148 0.477798 0.172931
O O6 0.037859 0.425552 0.395570
O O7 0.957307 0.346101 0.365822
O O8 0.962531 0.883698 0.091266
O O9 0.888064 0.953469 0.052374
O O10 0.750687 0.797862 0.228603
O O11 0.002027 0.768367 0.959605
O O12 0.569081 0.446341 0.088876
O O13 0.108964 0.849090 0.547380
O O14 0.000000 0.807878 0.750000
O O15 0.750000 0.750000 0.000000
#
# Coordination Sequence:
#
# PCOD8141305 Si02
#       7
#     8   8   8   8   8   8   8
#     4  10  21  36  58  89 125 162 200 240 296 367
#     4  11  22  38  61  86 121 160 201 254 306 356
#     4   9  18  32  53  86 123 160 198 240 294 364
#     4  10  21  36  58  89 125 162 200 241 295 367
#     4  11  22  38  61  86 121 160 201 253 307 357
#     4   9  18  32  53  86 123 160 198 240 294 364
#     4  12  26  44  64  92 120 154 208 263 309 352
#
# _framework density 20.833265000000001
#
# number of rings (size 3 to 8) (size 9 to 14) (size 15 to 20)
#    0.000    1.714    2.857    1.714    2.000    2.286 
#    0.000    0.000    0.000    1.714    0.000    0.000 
#    0.000    0.000    0.000    0.000    0.000    0.000 
#
# Total GULP energy -347070.270664 kJ/mol
# GULP energy per Si atom -12395.366809 kJ/mol
# Density = 2.078585 g / cm^3
# Si number density = 20.833265 Si / 1000 Ang^3
#
#
#
# Elastic Constant Matrix: (Units=GPa)
#
#
# Indices 1 2 3 4 5 6 
#
# 1 29.5698 17.3189 14.5867 0.0018 -7.5223 -0.0015
# 2 17.3189 123.5999 80.1766 -0.0032 -17.9626 -0.0001
# 3 14.5867 80.1766 155.8271 -0.0014 -18.0159 -0.0007
# 4 0.0018 -0.0032 -0.0014 43.8031 -0.0004 -4.5471
# 5 -7.5223 -17.9626 -18.0159 -0.0004 25.0494 0.0010
# 6 -0.0015 -0.0001 -0.0007 -4.5471 0.0010 11.6263
#
#
#
# Elastic Compliance Matrix: (Units=1/GPa)
#
#
# Indices 1 2 3 4 5 6 
#
# 1 0.038476 -0.003701 -0.000729 -0.000001 0.008376 0.000004
# 2 -0.003701 0.013005 -0.005885 0.000001 0.003982 -0.000001
# 3 -0.000729 -0.005885 0.009816 0.000000 0.002621 0.000000
# 4 -0.000001 0.000001 0.000000 0.023796 0.000000 0.009306
# 5 0.008376 0.003982 0.002621 0.000000 0.047177 -0.000003
# 6 0.000004 -0.000001 0.000000 0.009306 -0.000003 0.089652
#
#
# Mechanical properties :
#
#
# Convention : Reuss Voigt Hill
#
# Bulk Modulus (GPa) = 24.58906 59.24014 41.91460
# Shear Modulus (GPa) = 19.52299 29.22339 24.37319
#
# Velocity S-wave (km/s) = 3.06454 3.74936 3.42412
# Velocity P-wave (km/s) = 4.93460 6.87319 5.98293
#
# Compressibility (1/GPa) = 0.04066850
#
# Stress axis : x y z
#
# Youngs Moduli (GPa) = 25.98994 76.89256 101.86989
#
# Poissons Ratio (x) = 0.28459 0.07426
# Poissons Ratio (y) = 0.09619 0.59946
# Poissons Ratio (z) = 0.01895 0.45248
#
# Static dielectric constant tensor:
#      x y z
#    x 3.504110 0.000000 -0.106840 
#    y 0.000000 3.600050 0.000030 
#    z -0.106840 0.000030 3.934000 
# 
# 
# High freq. dielectric constant tensor:
#      x y z
#    x 1.787310 0.000000 -0.010210 
#    y 0.000000 1.808830 0.000000 
#    z -0.010210 0.000000 1.830730 
# 
# From -- ./inp_files/303258.got.cif
#   From: 2010.06.25/outbox.cif.g09.slc.cpg/sg15_152_cif.got.tgz:303258.got - 2010.06.28 07:06:18.
