data_PCOD8141335
_publ_section_title
;
Structure prediction by ZEFSAII (Michael W. Deem and Ramdas Pophale) SiO2 
 PCOD8141335
Probable space group: C 2/C
;
_chemical_formula_sum "Si O2"
_cell_formula_units_Z 56
_cell_length_a 13.078816
_cell_length_b 8.703283
_cell_length_c 21.048411
_cell_angle_alpha 90.000000
_cell_angle_beta 74.804697
_cell_angle_gamma 90.000000
_cell_volume 2312.146025
_symmetry_space_group_name_H-M "C 2/C"
_symmetry_group_IT_number 15
_symmetry_cell_setting 'monoclinic'
loop_
_space_group_symop_operation_xyz
x,y,z
-x,y,1/2-z
-x,-y,-z
x,-y,1/2+z
1/2+x,1/2+y,z
1/2-x,1/2+y,1/2-z
1/2-x,1/2-y,-z
1/2+x,1/2-y,1/2+z
loop_
_atom_site_type_symbol
_atom_site_label
_atom_site_fract_x
_atom_site_fract_y
_atom_site_fract_z
Si Si1 0.159672 0.318791 0.850296
Si Si2 0.983207 0.207730 0.177854
Si Si3 0.699604 0.154047 0.872123
Si Si4 0.836039 0.084272 0.029920
Si Si5 0.881624 0.686425 0.282323
Si Si6 0.669130 0.094563 0.622668
Si Si7 0.500007 0.425150 0.403128
O O1 0.173242 0.475532 0.888084
O O2 0.174710 0.359238 0.774266
O O3 0.246693 0.194029 0.852667
O O4 0.042856 0.246326 0.881643
O O5 0.870521 0.269598 0.172617
O O6 0.000000 0.238618 0.250000
O O7 0.070797 0.297282 0.120170
O O8 0.998137 0.026779 0.161272
O O9 0.683631 0.242299 0.941736
O O10 0.820653 0.175385 0.828408
O O11 0.728168 0.982302 0.052167
O O12 0.925093 0.008446 0.058879
O O13 0.880057 0.089796 0.950643
O O14 0.879428 0.534882 0.324668
O O15 0.000000 0.743919 0.250000
#
# Coordination Sequence:
#
# PCOD8141335 Si02
#       7
#     8   8   8   8   8   8   8
#     4  11  21  35  57  89 119 152 196 246 304 351
#     4  11  21  37  60  89 122 159 201 242 299 360
#     4  10  22  38  61  86 118 155 193 249 300 360
#     4   8  18  40  58  81 116 159 205 240 295 349
#     4  11  22  38  58  83 119 157 194 241 303 365
#     4  10  21  36  60  85 117 159 199 245 293 362
#     4   9  20  36  59  84 117 159 200 247 289 353
#
# _framework density 24.219923999999999
#
# number of rings (size 3 to 8) (size 9 to 14) (size 15 to 20)
#    0.000    2.000    0.000    4.714    0.000    4.000 
#    0.000    0.714    0.000   12.000    0.000    0.000 
#    0.000    0.000    0.000    0.000    0.000    0.000 
#
# Total GULP energy -347184.015444 kJ/mol
# GULP energy per Si atom -12399.429123 kJ/mol
# Density = 2.416480 g / cm^3
# Si number density = 24.219924 Si / 1000 Ang^3
#
#
#
# Elastic Constant Matrix: (Units=GPa)
#
#
# Indices 1 2 3 4 5 6 
#
# 1 58.0912 34.7410 29.2736 0.0000 -36.3388 0.0000
# 2 34.7410 152.3929 44.5292 0.0000 -31.3100 0.0000
# 3 29.2736 44.5292 93.8432 0.0000 -42.1319 0.0000
# 4 0.0000 0.0000 0.0000 15.1344 0.0000 -4.8281
# 5 -36.3388 -31.3100 -42.1319 0.0000 38.0819 0.0000
# 6 0.0000 0.0000 0.0000 -4.8281 0.0000 37.2006
#
#
#
# Elastic Compliance Matrix: (Units=1/GPa)
#
#
# Indices 1 2 3 4 5 6 
#
# 1 0.048838 -0.002804 0.011889 0.000000 0.057451 0.000000
# 2 -0.002804 0.008188 -0.002363 0.000000 0.001442 0.000000
# 3 0.011889 -0.002363 0.024419 0.000000 0.036418 0.000000
# 4 0.000000 0.000000 0.000000 0.068929 0.000000 0.008946
# 5 0.057451 0.001442 0.036418 0.000000 0.122557 0.000000
# 6 0.000000 0.000000 0.000000 0.008946 0.000000 0.028042
#
#
# Mechanical properties :
#
#
# Convention : Reuss Voigt Hill
#
# Bulk Modulus (GPa) = 10.53863 57.93499 34.23681
# Shear Modulus (GPa) = 15.66615 31.13560 23.40087
#
# Velocity S-wave (km/s) = 2.54604 3.58933 3.11172
# Velocity P-wave (km/s) = 3.60608 6.41483 5.20355
#
# Compressibility (1/GPa) = 0.09488898
#
# Stress axis : x y z
#
# Youngs Moduli (GPa) = 20.47566 122.13035 40.95175
#
# Poissons Ratio (x) = 0.34246 -0.48688
# Poissons Ratio (y) = 0.05741 0.09678
# Poissons Ratio (z) = -0.24344 0.28864
#
# Static dielectric constant tensor:
#      x y z
#    x 4.446220 0.000000 -0.417320 
#    y 0.000000 4.367350 0.000000 
#    z -0.417320 0.000000 4.475880 
# 
# 
# High freq. dielectric constant tensor:
#      x y z
#    x 1.963270 0.000000 -0.018660 
#    y 0.000000 1.965610 0.000000 
#    z -0.018660 0.000000 1.949380 
# 
# From -- ./inp_files/273086.got.cif
#   From: 2010.06.25/outbox.cif.g09.slc.cpg/sg15_137_cif.got.tgz:273086.got - 2010.06.28 07:06:18.
