data_PCOD8141321
_publ_section_title
;
Structure prediction by ZEFSAII (Michael W. Deem and Ramdas Pophale) SiO2 
 PCOD8141321
Probable space group: C 2/C
;
_chemical_formula_sum "Si O2"
_cell_formula_units_Z 64
_cell_length_a 29.294756
_cell_length_b 16.073589
_cell_length_c 9.732163
_cell_angle_alpha 90.000000
_cell_angle_beta 138.964991
_cell_angle_gamma 90.000000
_cell_volume 3008.569947
_symmetry_space_group_name_H-M "C 2/C"
_symmetry_group_IT_number 15
_symmetry_cell_setting 'monoclinic'
loop_
_space_group_symop_operation_xyz
x,y,z
-x,y,1/2-z
-x,-y,-z
x,-y,1/2+z
1/2+x,1/2+y,z
1/2-x,1/2+y,1/2-z
1/2-x,1/2-y,-z
1/2+x,1/2-y,1/2+z
loop_
_atom_site_type_symbol
_atom_site_label
_atom_site_fract_x
_atom_site_fract_y
_atom_site_fract_z
Si Si1 0.572334 0.229664 0.856617
Si Si2 0.189513 0.537013 0.492117
Si Si3 0.043658 0.541890 0.719345
Si Si4 0.673216 0.784603 0.845008
Si Si5 0.619420 0.352853 0.734935
Si Si6 0.277274 0.488568 0.442241
Si Si7 0.985278 0.067055 0.858462
Si Si8 0.656823 0.648297 0.016565
O O1 0.500000 0.271051 0.750000
O O2 0.549632 0.142244 0.735501
O O3 0.615825 0.280914 0.840884
O O4 0.625704 0.227051 0.103923
O O5 0.122413 0.489614 0.396303
O O6 0.166749 0.619190 0.362529
O O7 0.233424 0.482368 0.483131
O O8 0.237110 0.560019 0.730529
O O9 0.000000 0.510428 0.750000
O O10 0.000000 0.500000 0.500000
O O11 0.648502 0.736209 0.923927
O O12 0.750000 0.750000 0.000000
O O13 0.540295 0.358955 0.503986
O O14 0.663564 0.333501 0.695598
O O15 0.650327 0.438301 0.870663
O O16 0.283471 0.585494 0.405538
O O17 0.908658 0.098928 0.686710
O O18 0.000000 0.020311 0.750000
O O19 0.000000 0.000000 0.000000
#
# Coordination Sequence:
#
# PCOD8141321 Si02
#       8
#     8   8   8   8   8   8   8   8
#     4  11  25  47  71 102 139 183 238 290 354 423
#     4  12  25  44  70 100 134 180 230 285 352 416
#     4  11  25  48  75 102 134 178 235 296 352 415
#     4  12  25  44  70 100 140 189 229 289 359 427
#     4  11  24  41  65 100 139 184 223 285 338 405
#     4  12  23  42  65  99 141 180 230 279 346 421
#     4  10  21  36  59  89 128 173 221 264 316 391
#     4  11  24  42  63  98 140 182 234 281 338 415
#
# _framework density 21.272565
#
# number of rings (size 3 to 8) (size 9 to 14) (size 15 to 20)
#    0.000    0.750    3.750    4.500    0.000    3.500 
#    0.000    3.125    0.000    0.000    0.000    0.000 
#    0.000    0.000    0.000    0.000    0.000    0.000 
#
# Total GULP energy -396494.475588 kJ/mol
# GULP energy per Si atom -12390.452362 kJ/mol
# Density = 2.122415 g / cm^3
# Si number density = 21.272565 Si / 1000 Ang^3
#
#
#
# Elastic Constant Matrix: (Units=GPa)
#
#
# Indices 1 2 3 4 5 6 
#
# 1 136.9835 42.4202 43.6183 0.0000 -10.7522 0.0000
# 2 42.4202 85.7673 26.1874 0.0000 -15.0627 0.0000
# 3 43.6183 26.1874 129.4220 0.0000 -19.5777 0.0000
# 4 0.0000 0.0000 0.0000 38.7261 0.0000 4.9024
# 5 -10.7522 -15.0627 -19.5777 0.0000 39.5005 0.0000
# 6 0.0000 0.0000 0.0000 4.9024 0.0000 59.4365
#
#
#
# Elastic Compliance Matrix: (Units=1/GPa)
#
#
# Indices 1 2 3 4 5 6 
#
# 1 0.009238 -0.003874 -0.002349 0.000000 -0.000127 0.000000
# 2 -0.003874 0.014596 -0.001043 0.000000 0.003994 0.000000
# 3 -0.002349 -0.001043 0.009267 0.000000 0.003556 0.000000
# 4 0.000000 0.000000 0.000000 0.026095 0.000000 -0.002152
# 5 -0.000127 0.003994 0.003556 0.000000 0.028567 0.000000
# 6 0.000000 0.000000 0.000000 -0.002152 0.000000 0.017002
#
#
# Mechanical properties :
#
#
# Convention : Reuss Voigt Hill
#
# Bulk Modulus (GPa) = 53.85546 64.06940 58.96243
# Shear Modulus (GPa) = 39.84491 43.52910 41.68700
#
# Velocity S-wave (km/s) = 4.33259 4.52846 4.43161
# Velocity P-wave (km/s) = 7.09931 7.58461 7.34597
#
# Compressibility (1/GPa) = 0.01856822
#
# Stress axis : x y z
#
# Youngs Moduli (GPa) = 108.25140 68.51368 107.90694
#
# Poissons Ratio (x) = 0.26543 0.25343
# Poissons Ratio (y) = 0.41938 0.11260
# Poissons Ratio (z) = 0.25424 0.07149
#
# Static dielectric constant tensor:
#      x y z
#    x 3.816560 0.000000 -0.200760 
#    y 0.000000 3.819040 0.000000 
#    z -0.200760 0.000000 3.937510 
# 
# 
# High freq. dielectric constant tensor:
#      x y z
#    x 1.851120 0.000000 -0.003370 
#    y 0.000000 1.817890 0.000000 
#    z -0.003370 0.000000 1.853360 
# 
# From -- ./inp_files/70607.got.cif
#   From: 2010.06.25/outbox.cif.g09.slc.cpg/sg15_36_cif.got.tgz:70607.got - 2010.06.28 07:06:18.
