data_PCOD8141805
_publ_section_title
;
Structure prediction by ZEFSAII (Michael W. Deem and Ramdas Pophale) SiO2 
 PCOD8141805
Probable space group: C 2/C
;
_chemical_formula_sum "Si O2"
_cell_formula_units_Z 64
_cell_length_a 28.054933
_cell_length_b 19.009243
_cell_length_c 9.172257
_cell_angle_alpha 90.000000
_cell_angle_beta 41.116845
_cell_angle_gamma 90.000000
_cell_volume 3216.695426
_symmetry_space_group_name_H-M "C 2/C"
_symmetry_group_IT_number 15
_symmetry_cell_setting 'monoclinic'
loop_
_space_group_symop_operation_xyz
x,y,z
-x,y,1/2-z
-x,-y,-z
x,-y,1/2+z
1/2+x,1/2+y,z
1/2-x,1/2+y,1/2-z
1/2-x,1/2-y,-z
1/2+x,1/2-y,1/2+z
loop_
_atom_site_type_symbol
_atom_site_label
_atom_site_fract_x
_atom_site_fract_y
_atom_site_fract_z
Si Si1 0.719122 0.782900 0.712232
Si Si2 0.938568 0.308096 0.514010
Si Si3 0.671868 0.594305 0.545168
Si Si4 0.220412 0.989265 0.200629
Si Si5 0.550086 0.035908 0.500960
Si Si6 0.300073 0.218442 0.761701
Si Si7 0.431831 0.290932 0.305544
Si Si8 0.813030 0.559951 0.747147
O O1 0.750000 0.750000 0.500000
O O2 0.633300 0.787849 0.907868
O O3 0.756617 0.858732 0.656006
O O4 0.741513 0.720621 0.768901
O O5 0.925436 0.386775 0.608203
O O6 0.952650 0.261753 0.625995
O O7 0.000000 0.298669 0.250000
O O8 0.669178 0.531979 0.430777
O O9 0.675727 0.566201 0.703774
O O10 0.597577 0.637912 0.702281
O O11 0.282505 0.951732 0.154347
O O12 0.256007 0.042018 0.003338
O O13 0.500000 0.000000 0.500000
O O14 0.615771 0.986449 0.395976
O O15 0.500000 0.053041 0.750000
O O16 0.370184 0.263620 0.557343
O O17 0.330920 0.141613 0.726824
O O18 0.250000 0.250000 0.000000
O O19 0.500000 0.307783 0.250000
#
# Coordination Sequence:
#
# PCOD8141805 Si02
#       8
#     8   8   8   8   8   8   8   8
#     4  11  20  40  65  91 129 169 223 263 317 381
#     4  11  25  43  62  94 129 181 218 265 318 388
#     4  10  21  42  65  96 126 164 210 271 332 381
#     4  10  21  37  65  93 120 157 208 270 322 385
#     4  11  26  38  58  89 134 178 217 252 310 396
#     4  11  25  38  66  97 126 168 217 275 318 377
#     4  11  26  44  65  92 133 170 216 270 329 391
#     4  11  22  37  61  89 127 165 213 263 320 370
#
# _framework density 19.896197000000001
#
# number of rings (size 3 to 8) (size 9 to 14) (size 15 to 20)
#    0.000    1.250    2.500    4.500    7.000    2.000 
#    0.000    0.625    0.000    0.000    0.000    0.000 
#    0.000    0.000    0.000    0.000    0.000    0.000 
#
# Total GULP energy -396553.296971 kJ/mol
# GULP energy per Si atom -12392.290530 kJ/mol
# Density = 1.985091 g / cm^3
# Si number density = 19.896197 Si / 1000 Ang^3
#
#
#
# Elastic Constant Matrix: (Units=GPa)
#
#
# Indices 1 2 3 4 5 6 
#
# 1 165.0205 63.5471 54.0483 0.0000 -6.2435 0.0000
# 2 63.5471 117.3273 40.8577 0.0000 -6.3331 0.0000
# 3 54.0483 40.8577 102.2805 0.0000 2.5043 0.0000
# 4 0.0000 0.0000 0.0000 38.7246 0.0000 17.3348
# 5 -6.2435 -6.3331 2.5043 0.0000 38.3632 0.0000
# 6 0.0000 0.0000 0.0000 17.3348 0.0000 54.0810
#
#
#
# Elastic Compliance Matrix: (Units=1/GPa)
#
#
# Indices 1 2 3 4 5 6 
#
# 1 0.008440 -0.003432 -0.003113 0.000000 0.001010 0.000000
# 2 -0.003432 0.011436 -0.002792 0.000000 0.001511 0.000000
# 3 -0.003113 -0.002792 0.012581 0.000000 -0.001789 0.000000
# 4 0.000000 0.000000 0.000000 0.030149 0.000000 -0.009664
# 5 0.001010 0.001511 -0.001789 0.000000 0.026597 0.000000
# 6 0.000000 0.000000 0.000000 -0.009664 0.000000 0.021588
#
#
# Mechanical properties :
#
#
# Convention : Reuss Voigt Hill
#
# Bulk Modulus (GPa) = 72.55750 77.94828 75.25289
# Shear Modulus (GPa) = 37.29673 41.31212 39.30442
#
# Velocity S-wave (km/s) = 4.33432 4.56168 4.44945
# Velocity P-wave (km/s) = 7.84829 8.18583 8.01883
#
# Compressibility (1/GPa) = 0.01378217
#
# Stress axis : x y z
#
# Youngs Moduli (GPa) = 118.49031 87.44406 79.48406
#
# Poissons Ratio (x) = 0.30014 0.24746
# Poissons Ratio (y) = 0.40670 0.22188
# Poissons Ratio (z) = 0.36890 0.24410
#
# Static dielectric constant tensor:
#      x y z
#    x 3.724910 0.000000 0.169530 
#    y 0.000000 3.795500 0.000000 
#    z 0.169530 0.000000 3.544390 
# 
# 
# High freq. dielectric constant tensor:
#      x y z
#    x 1.784580 0.000000 0.017960 
#    y 0.000000 1.782290 0.000000 
#    z 0.017960 0.000000 1.770240 
# 
# From -- ./inp_files/70598.got.cif
#   From: 2010.06.25/outbox.cif.g09.slc.cpg/sg15_36_cif.got.tgz:70598.got - 2010.06.28 07:06:18.
