data_PCOD8141151
_publ_section_title
;
Structure prediction by ZEFSAII (Michael W. Deem and Ramdas Pophale) SiO2 
 PCOD8141151
Probable space group: C 2/C
;
_chemical_formula_sum "Si O2"
_cell_formula_units_Z 56
_cell_length_a 11.988814
_cell_length_b 19.820434
_cell_length_c 12.944705
_cell_angle_alpha 90.000000
_cell_angle_beta 73.542404
_cell_angle_gamma 90.000000
_cell_volume 2949.942717
_symmetry_space_group_name_H-M "C 2/C"
_symmetry_group_IT_number 15
_symmetry_cell_setting 'monoclinic'
loop_
_space_group_symop_operation_xyz
x,y,z
-x,y,1/2-z
-x,-y,-z
x,-y,1/2+z
1/2+x,1/2+y,z
1/2-x,1/2+y,1/2-z
1/2-x,1/2-y,-z
1/2+x,1/2-y,1/2+z
loop_
_atom_site_type_symbol
_atom_site_label
_atom_site_fract_x
_atom_site_fract_y
_atom_site_fract_z
Si Si1 0.827301 0.381523 0.059695
Si Si2 0.019744 0.723736 0.483906
Si Si3 0.685014 0.192582 0.265605
Si Si4 0.907345 0.809407 0.354484
Si Si5 0.870176 0.563514 0.329308
Si Si6 0.873701 0.723241 0.831436
Si Si7 0.364303 0.079017 0.769055
O O1 0.693200 0.360332 0.086870
O O2 0.837534 0.429457 0.155457
O O3 0.870834 0.422468 0.950362
O O4 0.910907 0.317460 0.058054
O O5 0.082264 0.682782 0.375620
O O6 0.113112 0.739215 0.549824
O O7 0.971958 0.792505 0.445329
O O8 0.645853 0.241854 0.183156
O O9 0.708452 0.119472 0.208822
O O10 0.798059 0.219927 0.294886
O O11 0.000000 0.842626 0.250000
O O12 0.812816 0.489059 0.333567
O O13 0.000000 0.565123 0.250000
O O14 0.812995 0.649230 0.829896
O O15 0.000000 0.725385 0.750000
O O16 0.500000 0.081525 0.750000
#
# Coordination Sequence:
#
# PCOD8141151 Si02
#       7
#     8   8   8   8   8   8   8
#     4  12  20  37  61  83 116 159 195 238 294 356
#     4  11  20  33  54  91 115 152 192 237 302 338
#     4  11  20  36  55  87 121 146 196 250 285 348
#     4  10  21  35  60  87 116 151 201 244 286 346
#     4  11  23  36  58  92 121 147 195 247 294 348
#     4  11  21  35  55  85 118 160 195 233 298 353
#     4  10  22  37  56  85 121 156 190 236 300 362
#
# _framework density 18.983419000000001
#
# number of rings (size 3 to 8) (size 9 to 14) (size 15 to 20)
#    0.000    1.143    7.143    1.286    2.000    3.429 
#    0.000    0.000    0.000    1.714    0.000    0.000 
#    0.000    0.000    0.000    0.000    0.000    0.000 
#
# Total GULP energy -347116.209043 kJ/mol
# GULP energy per Si atom -12397.007466 kJ/mol
# Density = 1.894021 g / cm^3
# Si number density = 18.983419 Si / 1000 Ang^3
#
#
#
# Elastic Constant Matrix: (Units=GPa)
#
#
# Indices 1 2 3 4 5 6 
#
# 1 79.6646 43.2135 40.2505 0.0000 15.1631 0.0000
# 2 43.2135 84.6263 30.9260 0.0000 14.3604 0.0000
# 3 40.2505 30.9260 95.2963 0.0000 29.9620 0.0000
# 4 0.0000 0.0000 0.0000 19.4046 0.0000 2.1216
# 5 15.1631 14.3604 29.9620 0.0000 41.4285 0.0000
# 6 0.0000 0.0000 0.0000 2.1216 0.0000 27.0387
#
#
#
# Elastic Compliance Matrix: (Units=1/GPa)
#
#
# Indices 1 2 3 4 5 6 
#
# 1 0.019816 -0.007986 -0.005654 0.000000 -0.000396 0.000000
# 2 -0.007986 0.016747 -0.001496 0.000000 -0.001800 0.000000
# 3 -0.005654 -0.001496 0.016248 0.000000 -0.009163 0.000000
# 4 0.000000 0.000000 0.000000 0.051980 0.000000 -0.004079
# 5 -0.000396 -0.001800 -0.009163 0.000000 0.031534 0.000000
# 6 0.000000 0.000000 0.000000 -0.004079 0.000000 0.037304
#
#
# Mechanical properties :
#
#
# Convention : Reuss Voigt Hill
#
# Bulk Modulus (GPa) = 44.36482 54.26301 49.31392
# Shear Modulus (GPa) = 23.65039 27.25417 25.45228
#
# Velocity S-wave (km/s) = 3.53348 3.79315 3.66562
# Velocity P-wave (km/s) = 6.32996 6.91596 6.62944
#
# Compressibility (1/GPa) = 0.02254038
#
# Stress axis : x y z
#
# Youngs Moduli (GPa) = 50.46335 59.71373 61.54612
#
# Poissons Ratio (x) = 0.47686 0.34797
# Poissons Ratio (y) = 0.40298 0.09205
# Poissons Ratio (z) = 0.28531 0.08931
#
# Static dielectric constant tensor:
#      x y z
#    x 3.419050 0.000000 0.177410 
#    y 0.000000 3.696430 0.000000 
#    z 0.177410 0.000000 3.670570 
# 
# 
# High freq. dielectric constant tensor:
#      x y z
#    x 1.723610 0.000000 0.017250 
#    y 0.000000 1.705150 0.000000 
#    z 0.017250 0.000000 1.752020 
# 
# From -- ./inp_files/88894.got.cif
#   From: 2010.06.25/outbox.cif.g09.slc.cpg/sg15_45_cif.got.tgz:88894.got - 2010.06.28 07:06:18.
