data_PCOD8141689
_publ_section_title
;
Structure prediction by ZEFSAII (Michael W. Deem and Ramdas Pophale) SiO2 
 PCOD8141689
Probable space group: C 2/C
;
_chemical_formula_sum "Si O2"
_cell_formula_units_Z 64
_cell_length_a 28.286531
_cell_length_b 18.070168
_cell_length_c 11.774705
_cell_angle_alpha 90.000000
_cell_angle_beta 151.025824
_cell_angle_gamma 90.000000
_cell_volume 2915.478397
_symmetry_space_group_name_H-M "C 2/C"
_symmetry_group_IT_number 15
_symmetry_cell_setting 'monoclinic'
loop_
_space_group_symop_operation_xyz
x,y,z
-x,y,1/2-z
-x,-y,-z
x,-y,1/2+z
1/2+x,1/2+y,z
1/2-x,1/2+y,1/2-z
1/2-x,1/2-y,-z
1/2+x,1/2-y,1/2+z
loop_
_atom_site_type_symbol
_atom_site_label
_atom_site_fract_x
_atom_site_fract_y
_atom_site_fract_z
Si Si1 0.554245 0.751235 0.476579
Si Si2 0.737299 0.268131 0.217388
Si Si3 0.106554 0.145558 0.008041
Si Si4 0.703378 0.081728 0.590120
Si Si5 0.897584 0.146820 0.231835
Si Si6 0.891081 0.021086 0.050819
Si Si7 0.075541 0.528299 0.499732
Si Si8 0.042995 0.398648 0.575397
O O1 0.500000 0.780127 0.250000
O O2 0.666443 0.740561 0.677492
O O3 0.505879 0.675953 0.424011
O O4 0.546626 0.811791 0.560609
O O5 0.802844 0.195853 0.338805
O O6 0.810529 0.332770 0.406927
O O7 0.677733 0.291926 0.978426
O O8 0.112308 0.137685 0.155100
O O9 0.000000 0.178393 0.750000
O O10 0.120449 0.067596 0.970907
O O11 0.679302 0.035311 0.655549
O O12 0.633877 0.067160 0.337672
O O13 0.814911 0.056472 0.799019
O O14 0.874463 0.064762 0.134822
O O15 0.000000 0.043824 0.250000
O O16 0.051713 0.442637 0.475420
O O17 0.000000 0.561067 0.250000
O O18 0.059357 0.579859 0.577776
#
# Coordination Sequence:
#
# PCOD8141689 Si02
#       8
#     8   8   8   8   8   8   8   8
#     4  10  22  41  67  93 127 173 208 270 323 407
#     4  10  23  43  63  98 135 164 223 265 333 393
#     4  11  26  42  68 103 128 173 230 282 314 393
#     4  10  22  38  65  92 129 171 207 281 318 387
#     4  10  22  46  71  93 130 183 213 266 349 386
#     4  10  23  46  64  90 132 173 227 270 325 384
#     4   9  20  38  58  91 133 166 207 255 329 406
#     4  10  21  37  61  98 124 167 209 260 336 392
#
# _framework density 21.951799999999999
#
# number of rings (size 3 to 8) (size 9 to 14) (size 15 to 20)
#    0.000    2.000    0.000    2.625    5.250    5.000 
#    9.000    0.000    0.000    0.000    0.000    0.000 
#    0.000    0.000    0.000    0.000    0.000    0.000 
#
# Total GULP energy -396509.718975 kJ/mol
# GULP energy per Si atom -12390.928718 kJ/mol
# Density = 2.190184 g / cm^3
# Si number density = 21.951800 Si / 1000 Ang^3
#
#
#
# Elastic Constant Matrix: (Units=GPa)
#
#
# Indices 1 2 3 4 5 6 
#
# 1 85.6854 55.0851 33.0842 0.0000 3.4699 0.0000
# 2 55.0851 120.0342 31.0530 0.0000 5.5798 0.0000
# 3 33.0842 31.0530 72.4721 0.0000 13.2361 0.0000
# 4 0.0000 0.0000 0.0000 33.1471 0.0000 2.6000
# 5 3.4699 5.5798 13.2361 0.0000 26.4525 0.0000
# 6 0.0000 0.0000 0.0000 2.6000 0.0000 30.5032
#
#
#
# Elastic Compliance Matrix: (Units=1/GPa)
#
#
# Indices 1 2 3 4 5 6 
#
# 1 0.018304 -0.007014 -0.005703 0.000000 0.001932 0.000000
# 2 -0.007014 0.012057 -0.001836 0.000000 -0.000705 0.000000
# 3 -0.005703 -0.001836 0.018689 0.000000 -0.008216 0.000000
# 4 0.000000 0.000000 0.000000 0.030372 0.000000 -0.002589
# 5 0.001932 -0.000705 -0.008216 0.000000 0.041810 0.000000
# 6 0.000000 0.000000 0.000000 -0.002589 0.000000 0.033004
#
#
# Mechanical properties :
#
#
# Convention : Reuss Voigt Hill
#
# Bulk Modulus (GPa) = 50.14013 57.40403 53.77208
# Shear Modulus (GPa) = 26.31714 28.61852 27.46783
#
# Velocity S-wave (km/s) = 3.46621 3.61459 3.54118
# Velocity P-wave (km/s) = 6.23780 6.60509 6.42407
#
# Compressibility (1/GPa) = 0.01994411
#
# Stress axis : x y z
#
# Youngs Moduli (GPa) = 54.63375 82.93601 53.50699
#
# Poissons Ratio (x) = 0.58173 0.30517
# Poissons Ratio (y) = 0.38321 0.09822
# Poissons Ratio (z) = 0.31159 0.15224
#
# Static dielectric constant tensor:
#      x y z
#    x 3.997150 0.000000 0.169930 
#    y 0.000000 3.842290 0.000000 
#    z 0.169930 0.000000 4.013390 
# 
# 
# High freq. dielectric constant tensor:
#      x y z
#    x 1.855570 0.000000 0.008160 
#    y 0.000000 1.858930 0.000000 
#    z 0.008160 0.000000 1.862540 
# 
# From -- ./inp_files/127318.got.cif
#   From: 2010.06.25/outbox.cif.g09.slc.cpg/sg15_64_cif.got.tgz:127318.got - 2010.06.28 07:06:18.
