data_PCOD8141084
_publ_section_title
;
Structure prediction by ZEFSAII (Michael W. Deem and Ramdas Pophale) SiO2 
 PCOD8141084
Probable space group: C 2/C
;
_chemical_formula_sum "Si O2"
_cell_formula_units_Z 48
_cell_length_a 9.842871
_cell_length_b 17.889492
_cell_length_c 21.516858
_cell_angle_alpha 90.000000
_cell_angle_beta 41.754093
_cell_angle_gamma 90.000000
_cell_volume 2523.076800
_symmetry_space_group_name_H-M "C 2/C"
_symmetry_group_IT_number 15
_symmetry_cell_setting 'monoclinic'
loop_
_space_group_symop_operation_xyz
x,y,z
-x,y,1/2-z
-x,-y,-z
x,-y,1/2+z
1/2+x,1/2+y,z
1/2-x,1/2+y,1/2-z
1/2-x,1/2-y,-z
1/2+x,1/2-y,1/2+z
loop_
_atom_site_type_symbol
_atom_site_label
_atom_site_fract_x
_atom_site_fract_y
_atom_site_fract_z
Si Si1 0.429409 0.689222 0.361272
Si Si2 0.521986 0.683095 0.816079
Si Si3 0.543878 0.852378 0.307675
Si Si4 0.340467 0.925387 0.482831
Si Si5 0.665578 0.172748 0.334717
Si Si6 0.153396 0.413458 0.485058
O O1 0.496236 0.772764 0.358440
O O2 0.329412 0.638693 0.448719
O O3 0.260976 0.704555 0.365789
O O4 0.634999 0.643880 0.271053
O O5 0.500000 0.690917 0.750000
O O6 0.544980 0.764456 0.838258
O O7 0.329879 0.646574 0.915956
O O8 0.717085 0.631466 0.764378
O O9 0.500000 0.850709 0.250000
O O10 0.413702 0.916474 0.386525
O O11 0.537494 0.917675 0.459296
O O12 0.248009 0.007461 0.527553
O O13 0.504736 0.108010 0.405845
#
# Coordination Sequence:
#
# PCOD8141084 Si02
#       6
#     8   8   8   8   8   8
#     4   9  17  35  57  81 106 146 193 230 271 329
#     4  11  20  36  57  86 111 146 191 230 280 325
#     4  11  20  38  59  83 111 146 190 234 277 327
#     4  10  21  35  56  84 115 150 187 224 279 340
#     4   9  18  35  56  80 110 146 186 234 278 319
#     4  10  21  36  54  84 118 149 183 229 280 336
#
# _framework density 19.024391000000001
#
# number of rings (size 3 to 8) (size 9 to 14) (size 15 to 20)
#    0.000    2.000    5.000    1.000    0.000    1.333 
#    3.000    1.667    0.000    0.000    0.000    0.000 
#    0.000    0.000    0.000    0.000    0.000    0.000 
#
# Total GULP energy -297418.973741 kJ/mol
# GULP energy per Si atom -12392.457239 kJ/mol
# Density = 1.898109 g / cm^3
# Si number density = 19.024391 Si / 1000 Ang^3
#
#
#
# Elastic Constant Matrix: (Units=GPa)
#
#
# Indices 1 2 3 4 5 6 
#
# 1 67.2760 32.2990 40.1691 0.0046 -1.3338 -0.0041
# 2 32.2990 69.8018 43.9037 0.0162 3.8208 -0.0069
# 3 40.1691 43.9037 108.4923 0.0208 4.4603 -0.0180
# 4 0.0046 0.0162 0.0208 25.8899 -0.0071 1.2550
# 5 -1.3338 3.8208 4.4603 -0.0071 26.3555 0.0049
# 6 -0.0041 -0.0069 -0.0180 1.2550 0.0049 15.2774
#
#
#
# Elastic Compliance Matrix: (Units=1/GPa)
#
#
# Indices 1 2 3 4 5 6 
#
# 1 0.021296 -0.006680 -0.005302 0.000006 0.002944 -0.000005
# 2 -0.006680 0.021371 -0.006076 -0.000008 -0.002408 0.000002
# 3 -0.005302 -0.006076 0.013709 -0.000007 -0.001708 0.000013
# 4 0.000006 -0.000008 -0.000007 0.038780 0.000014 -0.003186
# 5 0.002944 -0.002408 -0.001708 0.000014 0.038730 -0.000016
# 6 -0.000005 0.000002 0.000013 -0.003186 -0.000016 0.065718
#
#
# Mechanical properties :
#
#
# Convention : Reuss Voigt Hill
#
# Bulk Modulus (GPa) = 49.36070 53.14596 51.25333
# Shear Modulus (GPa) = 20.62094 22.11779 21.36936
#
# Velocity S-wave (km/s) = 3.29587 3.41339 3.35515
# Velocity P-wave (km/s) = 6.36286 6.59783 6.48141
#
# Compressibility (1/GPa) = 0.02025903
#
# Stress axis : x y z
#
# Youngs Moduli (GPa) = 46.95828 46.79327 72.94274
#
# Poissons Ratio (x) = 0.31258 0.38678
# Poissons Ratio (y) = 0.31368 0.44319
# Poissons Ratio (z) = 0.24899 0.28431
#
# Static dielectric constant tensor:
#      x y z
#    x 3.285080 0.000000 -0.118430 
#    y 0.000000 3.381320 0.000000 
#    z -0.118430 0.000000 3.671670 
# 
# 
# High freq. dielectric constant tensor:
#      x y z
#    x 1.717770 0.000000 -0.007480 
#    y 0.000000 1.718320 0.000000 
#    z -0.007480 0.000000 1.753840 
# 
# From -- ./inp_files/233721.got.cif
#   From: 2010.06.25/outbox.cif.g09.slc.cpg/sg15_117_cif.got.tgz:233721.got - 2010.06.28 07:06:18.
