data_PCOD8141674
_publ_section_title
;
Structure prediction by ZEFSAII (Michael W. Deem and Ramdas Pophale) SiO2 
 PCOD8141674
Probable space group: C 2/C
;
_chemical_formula_sum "Si O2"
_cell_formula_units_Z 44
_cell_length_a 27.109125
_cell_length_b 9.714246
_cell_length_c 7.819919
_cell_angle_alpha 90.000000
_cell_angle_beta 92.206938
_cell_angle_gamma 90.000000
_cell_volume 2057.806805
_symmetry_space_group_name_H-M "C 2/C"
_symmetry_group_IT_number 15
_symmetry_cell_setting 'monoclinic'
loop_
_space_group_symop_operation_xyz
x,y,z
-x,y,1/2-z
-x,-y,-z
x,-y,1/2+z
1/2+x,1/2+y,z
1/2-x,1/2+y,1/2-z
1/2-x,1/2-y,-z
1/2+x,1/2-y,1/2+z
loop_
_atom_site_type_symbol
_atom_site_label
_atom_site_fract_x
_atom_site_fract_y
_atom_site_fract_z
Si Si1 0.020464 0.855603 0.567277
Si Si2 0.000000 0.663493 0.250000
Si Si3 0.602711 0.958757 0.801337
Si Si4 0.780928 0.315530 0.247776
Si Si5 0.882675 0.717846 0.867605
Si Si6 0.298324 0.112775 0.360390
O O1 0.080504 0.846847 0.595305
O O2 0.000000 0.817105 0.750000
O O3 0.003843 0.749726 0.423178
O O4 0.000000 0.000000 0.500000
O O5 0.951694 0.573809 0.275758
O O6 0.645348 0.886095 0.693983
O O7 0.606723 0.125923 0.801746
O O8 0.610320 0.902413 0.991690
O O9 0.826123 0.231268 0.346107
O O10 0.732260 0.222643 0.258598
O O11 0.773355 0.461959 0.339667
O O12 0.795905 0.342165 0.054893
#
# Coordination Sequence:
#
# PCOD8141674 Si02
#       6
#     8   4   8   8   8   8
#     4  11  24  42  61  84 125 167 203 260 305 373
#     4  10  24  40  60  96 120 158 218 246 318 366
#     4  10  21  37  61  90 123 154 201 261 305 363
#     4  10  21  39  59  92 118 164 203 254 314 373
#     4  10  22  37  62  90 119 159 206 252 316 364
#     4  10  21  38  62  87 129 157 205 257 310 366
#
# _framework density 21.381986000000001
#
# number of rings (size 3 to 8) (size 9 to 14) (size 15 to 20)
#    0.000    1.818    0.909    4.364    6.364    4.364 
#    3.273    0.000    0.000    0.000    0.000    0.000 
#    0.000    0.000    0.000    0.000    0.000    0.000 
#
# Total GULP energy -272602.648938 kJ/mol
# GULP energy per Si atom -12391.029497 kJ/mol
# Density = 2.133332 g / cm^3
# Si number density = 21.381986 Si / 1000 Ang^3
#
#
#
# Elastic Constant Matrix: (Units=GPa)
#
#
# Indices 1 2 3 4 5 6 
#
# 1 164.5996 63.5430 31.5418 0.0000 27.7525 0.0000
# 2 63.5430 76.0096 11.0014 0.0000 11.1195 0.0000
# 3 31.5418 11.0014 69.9469 0.0000 10.5669 0.0000
# 4 0.0000 0.0000 0.0000 11.7737 0.0000 6.0560
# 5 27.7525 11.1195 10.5669 0.0000 36.7089 0.0000
# 6 0.0000 0.0000 0.0000 6.0560 0.0000 40.1653
#
#
#
# Elastic Compliance Matrix: (Units=1/GPa)
#
#
# Indices 1 2 3 4 5 6 
#
# 1 0.010303 -0.007525 -0.002750 0.000000 -0.004718 0.000000
# 2 -0.007525 0.019437 0.000383 0.000000 -0.000309 0.000000
# 3 -0.002750 0.000383 0.015870 0.000000 -0.002605 0.000000
# 4 0.000000 0.000000 0.000000 0.092076 0.000000 -0.013883
# 5 -0.004718 -0.000309 -0.002605 0.000000 0.031652 0.000000
# 6 0.000000 0.000000 0.000000 -0.013883 0.000000 0.026990
#
#
# Mechanical properties :
#
#
# Convention : Reuss Voigt Hill
#
# Bulk Modulus (GPa) = 38.72041 58.08094 48.40067
# Shear Modulus (GPa) = 22.25000 31.36089 26.80545
#
# Velocity S-wave (km/s) = 3.22933 3.83390 3.54453
# Velocity P-wave (km/s) = 5.66153 6.84258 6.27988
#
# Compressibility (1/GPa) = 0.02582618
#
# Stress axis : x y z
#
# Youngs Moduli (GPa) = 97.06276 51.44950 63.01250
#
# Poissons Ratio (x) = 0.38714 0.17326
# Poissons Ratio (y) = 0.73036 -0.02412
# Poissons Ratio (z) = 0.26688 -0.01970
#
# Static dielectric constant tensor:
#      x y z
#    x 4.210030 0.000000 0.353520 
#    y 0.000000 3.817220 0.000000 
#    z 0.353520 0.000000 4.178260 
# 
# 
# High freq. dielectric constant tensor:
#      x y z
#    x 1.847750 0.000000 0.017530 
#    y 0.000000 1.807150 0.000000 
#    z 0.017530 0.000000 1.861770 
# 
# From -- ./inp_files/68391.got.cif
#   From: 2010.06.25/outbox.cif.g09.slc.cpg/sg15_35_cif.got.tgz:68391.got - 2010.06.28 07:06:18.
