data_PCOD8141939
_publ_section_title
;
Structure prediction by ZEFSAII (Michael W. Deem and Ramdas Pophale) SiO2 
 PCOD8141939
Probable space group: C 2/C
;
_chemical_formula_sum "Si O2"
_cell_formula_units_Z 56
_cell_length_a 5.146651
_cell_length_b 23.350724
_cell_length_c 24.242095
_cell_angle_alpha 90.000000
_cell_angle_beta 74.574738
_cell_angle_gamma 90.000000
_cell_volume 2808.422494
_symmetry_space_group_name_H-M "C 2/C"
_symmetry_group_IT_number 15
_symmetry_cell_setting 'monoclinic'
loop_
_space_group_symop_operation_xyz
x,y,z
-x,y,1/2-z
-x,-y,-z
x,-y,1/2+z
1/2+x,1/2+y,z
1/2-x,1/2+y,1/2-z
1/2-x,1/2-y,-z
1/2+x,1/2-y,1/2+z
loop_
_atom_site_type_symbol
_atom_site_label
_atom_site_fract_x
_atom_site_fract_y
_atom_site_fract_z
Si Si1 0.669541 0.077827 0.131712
Si Si2 0.466872 0.399192 0.312584
Si Si3 0.302223 0.721946 0.411659
Si Si4 0.596212 0.655292 0.911221
Si Si5 0.264914 0.330644 0.536966
Si Si6 0.602205 0.630292 0.183652
Si Si7 0.394541 0.051882 0.858169
O O1 0.743657 0.110230 0.071276
O O2 0.389333 0.099718 0.172490
O O3 0.897762 0.087562 0.164678
O O4 0.653648 0.011517 0.116056
O O5 0.500000 0.371774 0.250000
O O6 0.450094 0.348489 0.359246
O O7 0.726455 0.439331 0.310827
O O8 0.208084 0.439749 0.329333
O O9 0.284837 0.789090 0.400625
O O10 0.533293 0.712839 0.443917
O O11 0.374334 0.689725 0.350968
O O12 0.022681 0.699473 0.452832
O O13 0.784744 0.598863 0.908770
O O14 0.368303 0.655489 0.970388
O O15 0.500000 0.646035 0.250000
#
# Coordination Sequence:
#
# PCOD8141939 Si02
#       7
#     8   8   8   8   8   8   8
#     4  10  21  39  58  90 116 151 196 247 288 354
#     4  10  23  40  55  85 120 153 199 234 290 353
#     4  10  22  39  60  88 117 150 201 240 293 350
#     4  10  24  38  63  85 121 157 194 240 299 349
#     4  10  22  38  63  86 119 153 197 242 295 348
#     4  10  21  38  59  85 114 153 195 245 294 344
#     4  10  23  37  60  86 116 154 196 235 302 341
#
# _framework density 19.940020000000001
#
# number of rings (size 3 to 8) (size 9 to 14) (size 15 to 20)
#    0.857    1.143    0.000    2.571    4.000    4.000 
#    2.571    0.714    0.000    0.000    0.000    0.000 
#    0.000    0.000    0.000    0.000    0.000    0.000 
#
# Total GULP energy -347162.545828 kJ/mol
# GULP energy per Si atom -12398.662351 kJ/mol
# Density = 1.989464 g / cm^3
# Si number density = 19.940020 Si / 1000 Ang^3
#
#
#
# Elastic Constant Matrix: (Units=GPa)
#
#
# Indices 1 2 3 4 5 6 
#
# 1 66.4068 16.8537 22.9787 0.0000 -14.0868 0.0000
# 2 16.8537 124.5721 64.7251 0.0000 -0.8945 0.0000
# 3 22.9787 64.7251 132.0728 0.0000 2.5585 0.0000
# 4 0.0000 0.0000 0.0000 11.6237 0.0000 -0.2885
# 5 -14.0868 -0.8945 2.5585 0.0000 21.7175 0.0000
# 6 0.0000 0.0000 0.0000 -0.2885 0.0000 18.1917
#
#
#
# Elastic Compliance Matrix: (Units=1/GPa)
#
#
# Indices 1 2 3 4 5 6 
#
# 1 0.019056 -0.000854 -0.003143 0.000000 0.012696 0.000000
# 2 -0.000854 0.010833 -0.005170 0.000000 0.000501 0.000000
# 3 -0.003143 -0.005170 0.010720 0.000000 -0.003514 0.000000
# 4 0.000000 0.000000 0.000000 0.086065 0.000000 0.001365
# 5 0.012696 0.000501 -0.003514 0.000000 0.054715 0.000000
# 6 0.000000 0.000000 0.000000 0.001365 0.000000 0.054992
#
#
# Mechanical properties :
#
#
# Convention : Reuss Voigt Hill
#
# Bulk Modulus (GPa) = 44.89281 59.12961 52.01121
# Shear Modulus (GPa) = 19.07377 24.87285 21.97331
#
# Velocity S-wave (km/s) = 3.09618 3.53566 3.32320
# Velocity P-wave (km/s) = 5.94513 6.81073 6.39260
#
# Compressibility (1/GPa) = 0.02227528
#
# Stress axis : x y z
#
# Youngs Moduli (GPa) = 52.47674 92.31186 93.28228
#
# Poissons Ratio (x) = 0.07883 0.29318
# Poissons Ratio (y) = 0.04482 0.48227
# Poissons Ratio (z) = 0.16493 0.47725
#
# Static dielectric constant tensor:
#      x y z
#    x 3.771750 0.000000 -0.040840 
#    y 0.000000 3.515960 0.000000 
#    z -0.040840 0.000000 3.544520 
# 
# 
# High freq. dielectric constant tensor:
#      x y z
#    x 1.793820 0.000000 -0.006580 
#    y 0.000000 1.769340 0.000000 
#    z -0.006580 0.000000 1.770760 
# 
# From -- ./inp_files/286316.got.cif
#   From: 2010.06.25/outbox.cif.g09.slc.cpg/sg15_144_cif.got.tgz:286316.got - 2010.06.28 07:06:18.
