data_PCOD8141605
_publ_section_title
;
Structure prediction by ZEFSAII (Michael W. Deem and Ramdas Pophale) SiO2 
 PCOD8141605
Probable space group: C 2/C
;
_chemical_formula_sum "Si O2"
_cell_formula_units_Z 64
_cell_length_a 29.732170
_cell_length_b 19.478857
_cell_length_c 9.216657
_cell_angle_alpha 90.000000
_cell_angle_beta 37.120700
_cell_angle_gamma 90.000000
_cell_volume 3221.350429
_symmetry_space_group_name_H-M "C 2/C"
_symmetry_group_IT_number 15
_symmetry_cell_setting 'monoclinic'
loop_
_space_group_symop_operation_xyz
x,y,z
-x,y,1/2-z
-x,-y,-z
x,-y,1/2+z
1/2+x,1/2+y,z
1/2-x,1/2+y,1/2-z
1/2-x,1/2-y,-z
1/2+x,1/2-y,1/2+z
loop_
_atom_site_type_symbol
_atom_site_label
_atom_site_fract_x
_atom_site_fract_y
_atom_site_fract_z
Si Si1 0.388713 0.430748 0.744573
Si Si2 0.792589 0.561517 0.472940
Si Si3 0.692153 0.202111 0.232549
Si Si4 0.960056 0.210879 0.996845
Si Si5 0.210193 0.429648 0.190710
Si Si6 0.620424 0.439287 0.406003
Si Si7 0.188174 0.294428 0.077940
Si Si8 0.434423 0.700534 0.522414
O O1 0.430738 0.367072 0.562988
O O2 0.416168 0.499276 0.591986
O O3 0.299706 0.422274 0.962068
O O4 0.416508 0.434487 0.839703
O O5 0.812375 0.628482 0.330361
O O6 0.823457 0.495873 0.305878
O O7 0.822647 0.568593 0.560494
O O8 0.706156 0.545480 0.708352
O O9 0.714838 0.194323 0.342945
O O10 0.611612 0.237291 0.428745
O O11 0.750000 0.250000 0.000000
O O12 0.891213 0.257807 0.218812
O O13 0.000000 0.235021 0.750000
O O14 0.029922 0.223754 0.920804
O O15 0.177165 0.365453 0.189380
O O16 0.615416 0.367935 0.330316
O O17 0.250000 0.250000 0.000000
O O18 0.500000 0.677111 0.250000
#
# Coordination Sequence:
#
# PCOD8141605 Si02
#       8
#     8   8   8   8   8   8   8   8
#     4  10  21  39  57  88 124 170 210 253 306 370
#     4  10  21  39  64  98 124 165 213 264 320 374
#     4  12  24  40  69  95 123 172 219 262 322 376
#     4  12  28  42  61  93 130 171 212 258 326 376
#     4  10  21  39  66  93 131 160 212 270 316 373
#     4  10  21  37  60  86 126 168 212 252 302 372
#     4  12  24  42  66  94 129 167 217 272 314 374
#     4  12  24  44  61  88 134 170 208 262 316 380
#
# _framework density 19.867443999999999
#
# number of rings (size 3 to 8) (size 9 to 14) (size 15 to 20)
#    0.000    1.000    5.000    1.500    5.250    2.000 
#    0.000    0.000    0.000    1.500    0.000    0.000 
#    0.000    0.000    0.000    0.000    0.000    0.000 
#
# Total GULP energy -396776.233532 kJ/mol
# GULP energy per Si atom -12399.257298 kJ/mol
# Density = 1.982223 g / cm^3
# Si number density = 19.867444 Si / 1000 Ang^3
#
#
#
# Elastic Constant Matrix: (Units=GPa)
#
#
# Indices 1 2 3 4 5 6 
#
# 1 117.7225 50.9957 27.4994 0.0000 35.6277 0.0000
# 2 50.9957 154.0292 26.5564 0.0000 21.6104 0.0000
# 3 27.4994 26.5564 61.3099 0.0000 31.1373 0.0000
# 4 0.0000 0.0000 0.0000 28.7472 0.0000 8.5917
# 5 35.6277 21.6104 31.1373 0.0000 35.9184 0.0000
# 6 0.0000 0.0000 0.0000 8.5917 0.0000 37.3848
#
#
#
# Elastic Compliance Matrix: (Units=1/GPa)
#
#
# Indices 1 2 3 4 5 6 
#
# 1 0.013255 -0.002887 0.001966 0.000000 -0.013115 0.000000
# 2 -0.002887 0.007811 -0.002065 0.000000 -0.000045 0.000000
# 3 0.001966 -0.002065 0.029805 0.000000 -0.026545 0.000000
# 4 0.000000 0.000000 0.000000 0.037352 0.000000 -0.008584
# 5 -0.013115 -0.000045 -0.026545 0.000000 0.063888 0.000000
# 6 0.000000 0.000000 0.000000 -0.008584 0.000000 0.028722
#
#
# Mechanical properties :
#
#
# Convention : Reuss Voigt Hill
#
# Bulk Modulus (GPa) = 22.27326 60.35161 41.31244
# Shear Modulus (GPa) = 24.78062 35.61075 30.19569
#
# Velocity S-wave (km/s) = 3.53554 4.23829 3.90276
# Velocity P-wave (km/s) = 5.28224 7.37522 6.41467
#
# Compressibility (1/GPa) = 0.04489688
#
# Stress axis : x y z
#
# Youngs Moduli (GPa) = 75.44193 128.03096 33.55195
#
# Poissons Ratio (x) = 0.36968 -0.06596
# Poissons Ratio (y) = 0.21783 0.06929
# Poissons Ratio (z) = -0.14832 0.26442
#
# Static dielectric constant tensor:
#      x y z
#    x 3.612850 0.000000 0.210460 
#    y 0.000000 3.769630 0.000000 
#    z 0.210460 0.000000 3.528550 
# 
# 
# High freq. dielectric constant tensor:
#      x y z
#    x 1.778560 0.000000 0.022250 
#    y 0.000000 1.780340 0.000000 
#    z 0.022250 0.000000 1.759810 
# 
# From -- ./inp_files/70570.got.cif
#   From: 2010.06.25/outbox.cif.g09.slc.cpg/sg15_36_cif.got.tgz:70570.got - 2010.06.28 07:06:18.
