data_PCOD8141645
_publ_section_title
;
Structure prediction by ZEFSAII (Michael W. Deem and Ramdas Pophale) SiO2 
 PCOD8141645
Probable space group: C 2/C
;
_chemical_formula_sum "Si O2"
_cell_formula_units_Z 40
_cell_length_a 16.700215
_cell_length_b 9.400845
_cell_length_c 25.672267
_cell_angle_alpha 90.000000
_cell_angle_beta 28.824856
_cell_angle_gamma 90.000000
_cell_volume 1943.214501
_symmetry_space_group_name_H-M "C 2/C"
_symmetry_group_IT_number 15
_symmetry_cell_setting 'monoclinic'
loop_
_space_group_symop_operation_xyz
x,y,z
-x,y,1/2-z
-x,-y,-z
x,-y,1/2+z
1/2+x,1/2+y,z
1/2-x,1/2+y,1/2-z
1/2-x,1/2-y,-z
1/2+x,1/2-y,1/2+z
loop_
_atom_site_type_symbol
_atom_site_label
_atom_site_fract_x
_atom_site_fract_y
_atom_site_fract_z
Si Si1 0.142106 0.953738 0.958596
Si Si2 0.648774 0.079097 0.576948
Si Si3 0.347427 0.891420 0.749855
Si Si4 0.450833 0.624104 0.338200
Si Si5 0.383365 0.594593 0.682701
O O1 0.284645 0.872698 0.845240
O O2 0.229081 0.081593 0.941829
O O3 0.048257 0.860389 0.055989
O O4 0.000000 0.000000 0.000000
O O5 0.527282 0.215630 0.651661
O O6 0.758165 0.083449 0.461367
O O7 0.541277 0.934130 0.638471
O O8 0.309017 0.740748 0.745947
O O9 0.251363 0.018898 0.776559
O O10 0.500000 0.618694 0.250000
O O11 0.574742 0.514138 0.294901
#
# Coordination Sequence:
#
# PCOD8141645 Si02
#       5
#     8   8   8   8   8
#     4   9  20  38  59  82 113 152 187 228 284 339
#     4  10  21  37  61  85 112 154 194 225 279 347
#     4  11  21  38  60  83 115 151 190 236 281 335
#     4  10  21  38  58  85 117 147 187 238 284 330
#     4  10  23  38  57  85 116 148 191 236 283 338
#
# _framework density 20.58445
#
# number of rings (size 3 to 8) (size 9 to 14) (size 15 to 20)
#    0.000    2.000    0.000    3.000    0.000    9.600 
#    0.000    2.000    0.000    0.000    0.000    0.000 
#    0.000    0.000    0.000    0.000    0.000    0.000 
#
# Total GULP energy -247791.165167 kJ/mol
# GULP energy per Si atom -12389.558258 kJ/mol
# Density = 2.053760 g / cm^3
# Si number density = 20.584450 Si / 1000 Ang^3
#
#
#
# Elastic Constant Matrix: (Units=GPa)
#
#
# Indices 1 2 3 4 5 6 
#
# 1 77.2119 37.0182 54.3828 -0.0019 12.3991 0.0017
# 2 37.0182 106.5117 39.9380 -0.0044 5.0467 0.0023
# 3 54.3828 39.9380 135.9819 -0.0089 32.2281 0.0023
# 4 -0.0019 -0.0044 -0.0089 25.1666 0.0014 -3.6931
# 5 12.3991 5.0467 32.2281 0.0014 39.5754 -0.0012
# 6 0.0017 0.0023 0.0023 -3.6931 -0.0012 31.0601
#
#
#
# Elastic Compliance Matrix: (Units=1/GPa)
#
#
# Indices 1 2 3 4 5 6 
#
# 1 0.019692 -0.004387 -0.006515 -0.000002 -0.000305 0.000000
# 2 -0.004387 0.011596 -0.002016 0.000001 0.001537 0.000000
# 3 -0.006515 -0.002016 0.012400 0.000004 -0.007800 0.000000
# 4 -0.000002 0.000001 0.000004 0.040441 -0.000004 0.004808
# 5 -0.000305 0.001537 -0.007800 -0.000004 0.031519 0.000001
# 6 0.000000 0.000000 0.000000 0.004808 0.000001 0.032767
#
#
# Mechanical properties :
#
#
# Convention : Reuss Voigt Hill
#
# Bulk Modulus (GPa) = 56.01060 64.70929 60.35995
# Shear Modulus (GPa) = 27.74671 31.71818 29.73244
#
# Velocity S-wave (km/s) = 3.67542 3.92966 3.80467
# Velocity P-wave (km/s) = 6.72910 7.21761 6.97763
#
# Compressibility (1/GPa) = 0.01785376
#
# Stress axis : x y z
#
# Youngs Moduli (GPa) = 50.78201 86.23463 80.64581
#
# Poissons Ratio (x) = 0.37829 0.52538
# Poissons Ratio (y) = 0.22277 0.16256
# Poissons Ratio (z) = 0.33083 0.17383
#
# Static dielectric constant tensor:
#      x y z
#    x 3.673700 0.000000 0.145130 
#    y 0.000000 3.449810 0.000000 
#    z 0.145130 0.000000 4.234590 
# 
# 
# High freq. dielectric constant tensor:
#      x y z
#    x 1.799960 0.000000 0.006950 
#    y 0.000000 1.779750 0.000000 
#    z 0.006950 0.000000 1.824470 
# 
# From -- ./inp_files/150800.got.cif
#   From: 2010.06.25/outbox.cif.g09.slc.cpg/sg15_76_cif.got.tgz:150800.got - 2010.06.28 07:06:18.
