data_PCOD8141054
_publ_section_title
;
Structure prediction by ZEFSAII (Michael W. Deem and Ramdas Pophale) SiO2 
 PCOD8141054
Probable space group: C 2/C
;
_chemical_formula_sum "Si O2"
_cell_formula_units_Z 64
_cell_length_a 10.741775
_cell_length_b 15.280105
_cell_length_c 22.021088
_cell_angle_alpha 90.000000
_cell_angle_beta 112.647645
_cell_angle_gamma 90.000000
_cell_volume 3335.732828
_symmetry_space_group_name_H-M "C 2/C"
_symmetry_group_IT_number 15
_symmetry_cell_setting 'monoclinic'
loop_
_space_group_symop_operation_xyz
x,y,z
-x,y,1/2-z
-x,-y,-z
x,-y,1/2+z
1/2+x,1/2+y,z
1/2-x,1/2+y,1/2-z
1/2-x,1/2-y,-z
1/2+x,1/2-y,1/2+z
loop_
_atom_site_type_symbol
_atom_site_label
_atom_site_fract_x
_atom_site_fract_y
_atom_site_fract_z
Si Si1 0.894175 0.965630 0.901567
Si Si2 0.804435 0.610876 0.675611
Si Si3 0.182764 0.663545 0.016999
Si Si4 0.318760 0.487865 0.019176
Si Si5 0.917565 0.579132 0.955896
Si Si6 0.306050 0.692490 0.164726
Si Si7 0.904801 0.618804 0.822263
Si Si8 0.117804 0.183212 0.192222
O O1 0.842529 0.883066 0.853504
O O2 0.810061 0.051154 0.872333
O O3 0.870679 0.942280 0.967503
O O4 0.049969 0.987855 0.915924
O O5 0.751734 0.709536 0.663689
O O6 0.832480 0.578371 0.749704
O O7 0.935881 0.610876 0.658212
O O8 0.239842 0.579108 0.992093
O O9 0.213947 0.649988 0.094815
O O10 0.250000 0.750000 0.000000
O O11 0.018302 0.664157 0.978825
O O12 0.223382 0.415542 0.033932
O O13 0.874277 0.564147 0.877584
O O14 0.000000 0.500000 0.000000
O O15 0.459010 0.685139 0.172762
O O16 0.300576 0.651236 0.231762
O O17 0.847759 0.717499 0.820220
#
# Coordination Sequence:
#
# PCOD8141054 Si02
#       8
#     8   8   8   8   8   8   8   8
#     4  11  20  36  56  81 115 153 188 225 295 346
#     4   9  18  33  59  85 107 144 181 236 278 343
#     4  11  19  33  62  86 109 145 190 237 283 335
#     4  10  23  36  51  82 121 145 186 235 284 350
#     4  10  21  35  53  83 114 142 183 241 280 326
#     4   9  17  33  54  86 106 134 194 232 272 320
#     4   9  18  37  58  81 111 142 191 232 285 323
#     4   9  18  33  58  81 110 141 185 242 270 330
#
# _framework density 19.186188999999999
#
# number of rings (size 3 to 8) (size 9 to 14) (size 15 to 20)
#    0.000    2.250    1.250    5.250    0.000    2.000 
#    0.000    0.625    0.000    0.000    0.000    0.000 
#    0.000    0.000    0.000    0.000    0.000    0.000 
#
# Total GULP energy -396468.587093 kJ/mol
# GULP energy per Si atom -12389.643347 kJ/mol
# Density = 1.914252 g / cm^3
# Si number density = 19.186189 Si / 1000 Ang^3
#
#
#
# Elastic Constant Matrix: (Units=GPa)
#
#
# Indices 1 2 3 4 5 6 
#
# 1 89.4115 24.5970 30.7551 0.0000 -4.0132 0.0000
# 2 24.5970 52.9532 19.4555 0.0000 -11.6804 0.0000
# 3 30.7551 19.4555 108.0446 0.0000 -17.0749 0.0000
# 4 0.0000 0.0000 0.0000 33.6578 0.0000 -0.6222
# 5 -4.0132 -11.6804 -17.0749 0.0000 25.3225 0.0000
# 6 0.0000 0.0000 0.0000 -0.6222 0.0000 27.6515
#
#
#
# Elastic Compliance Matrix: (Units=1/GPa)
#
#
# Indices 1 2 3 4 5 6 
#
# 1 0.013795 -0.005790 -0.003314 0.000000 -0.002719 0.000000
# 2 -0.005790 0.024086 -0.001207 0.000000 0.009379 0.000000
# 3 -0.003314 -0.001207 0.011467 0.000000 0.006650 0.000000
# 4 0.000000 0.000000 0.000000 0.029723 0.000000 0.000669
# 5 -0.002719 0.009379 0.006650 0.000000 0.047870 0.000000
# 6 0.000000 0.000000 0.000000 0.000669 0.000000 0.036179
#
#
# Mechanical properties :
#
#
# Convention : Reuss Voigt Hill
#
# Bulk Modulus (GPa) = 34.81076 44.44718 39.62897
# Shear Modulus (GPa) = 25.86413 29.03313 27.44863
#
# Velocity S-wave (km/s) = 3.67558 3.89425 3.78649
# Velocity P-wave (km/s) = 6.01633 6.59066 6.31003
#
# Compressibility (1/GPa) = 0.02872675
#
# Stress axis : x y z
#
# Youngs Moduli (GPa) = 72.49059 41.51741 87.20642
#
# Poissons Ratio (x) = 0.24039 0.28899
# Poissons Ratio (y) = 0.41972 0.10525
# Poissons Ratio (z) = 0.24022 0.05011
#
# Static dielectric constant tensor:
#      x y z
#    x 3.482190 0.000000 0.010970 
#    y 0.000000 3.324510 0.000000 
#    z 0.010970 0.000000 3.877290 
# 
# 
# High freq. dielectric constant tensor:
#      x y z
#    x 1.715420 0.000000 0.002110 
#    y 0.000000 1.719250 0.000000 
#    z 0.002110 0.000000 1.770360 
# 
# From -- ./inp_files/238781.got.cif
#   From: 2010.06.25/outbox.cif.g09.slc.cpg/sg15_120_cif.got.tgz:238781.got - 2010.06.28 07:06:18.
