data_PCOD8141031
_publ_section_title
;
Structure prediction by ZEFSAII (Michael W. Deem and Ramdas Pophale) SiO2 
 PCOD8141031
Probable space group: C 2/C
;
_chemical_formula_sum "Si O2"
_cell_formula_units_Z 56
_cell_length_a 12.323555
_cell_length_b 26.535482
_cell_length_c 9.292280
_cell_angle_alpha 90.000000
_cell_angle_beta 111.026923
_cell_angle_gamma 90.000000
_cell_volume 2836.342174
_symmetry_space_group_name_H-M "C 2/C"
_symmetry_group_IT_number 15
_symmetry_cell_setting 'monoclinic'
loop_
_space_group_symop_operation_xyz
x,y,z
-x,y,1/2-z
-x,-y,-z
x,-y,1/2+z
1/2+x,1/2+y,z
1/2-x,1/2+y,1/2-z
1/2-x,1/2-y,-z
1/2+x,1/2-y,1/2+z
loop_
_atom_site_type_symbol
_atom_site_label
_atom_site_fract_x
_atom_site_fract_y
_atom_site_fract_z
Si Si1 0.291210 0.561719 0.846020
Si Si2 0.461192 0.397487 0.024768
Si Si3 0.863444 0.347427 0.205376
Si Si4 0.000000 0.185753 0.750000
Si Si5 0.267990 0.263455 0.174894
Si Si6 0.372832 0.494362 0.132311
Si Si7 0.226903 0.199133 0.405994
Si Si8 0.500000 0.355016 0.750000
O O1 0.177020 0.596083 0.771435
O O2 0.286972 0.517901 0.723760
O O3 0.404405 0.595188 0.866352
O O4 0.309527 0.538525 0.013798
O O5 0.442015 0.389862 0.845307
O O6 0.429641 0.347006 0.097289
O O7 0.386283 0.445741 0.034875
O O8 0.820324 0.306152 0.303158
O O9 0.000000 0.344403 0.250000
O O10 0.811689 0.341087 0.019790
O O11 0.900036 0.220258 0.771943
O O12 0.249179 0.210086 0.248276
O O13 0.250000 0.250000 0.000000
O O14 0.500000 0.511868 0.250000
O O15 0.250000 0.250000 0.500000
O O16 0.096068 0.180209 0.369108
#
# Coordination Sequence:
#
# PCOD8141031 Si02
#       8
#     8   8   8   4   8   8   8   4
#     4  11  21  39  56  91 115 158 199 249 314 374
#     4  11  19  34  57  89 122 153 189 258 321 362
#     4  11  24  43  63  85 130 172 212 252 307 377
#     4  12  20  40  59  86 132 156 202 261 314 366
#     4  11  24  38  63  91 121 165 210 262 313 362
#     4  10  21  34  61  88 125 150 197 257 320 376
#     4  10  23  38  58  88 117 166 209 253 307 370
#     4  12  22  34  63  88 124 150 214 261 312 362
#
# _framework density 19.743739999999999
#
# number of rings (size 3 to 8) (size 9 to 14) (size 15 to 20)
#    0.000    1.143    5.000    3.429    9.000    0.000 
#    0.000    0.714    0.000    0.000    0.000    0.000 
#    0.000    0.000    0.000    0.000    0.000    0.000 
#
# Total GULP energy -347091.361590 kJ/mol
# GULP energy per Si atom -12396.120057 kJ/mol
# Density = 1.969880 g / cm^3
# Si number density = 19.743740 Si / 1000 Ang^3
#
#
#
# Elastic Constant Matrix: (Units=GPa)
#
#
# Indices 1 2 3 4 5 6 
#
# 1 106.1563 31.5837 29.3594 0.0000 9.5886 0.0000
# 2 31.5837 64.8079 32.7467 0.0000 -1.3473 0.0000
# 3 29.3594 32.7467 119.5308 0.0000 -16.1865 0.0000
# 4 0.0000 0.0000 0.0000 36.1220 0.0000 -4.5919
# 5 9.5886 -1.3473 -16.1865 0.0000 33.7712 0.0000
# 6 0.0000 0.0000 0.0000 -4.5919 0.0000 19.7518
#
#
#
# Elastic Compliance Matrix: (Units=1/GPa)
#
#
# Indices 1 2 3 4 5 6 
#
# 1 0.011872 -0.004749 -0.002243 0.000000 -0.004635 0.000000
# 2 -0.004749 0.019906 -0.004274 0.000000 0.000094 0.000000
# 3 -0.002243 -0.004274 0.010856 0.000000 0.005669 0.000000
# 4 0.000000 0.000000 0.000000 0.028527 0.000000 0.006632
# 5 -0.004635 0.000094 0.005669 0.000000 0.033648 0.000000
# 6 0.000000 0.000000 0.000000 0.006632 0.000000 0.052170
#
#
# Mechanical properties :
#
#
# Convention : Reuss Voigt Hill
#
# Bulk Modulus (GPa) = 49.74641 53.09717 51.42179
# Shear Modulus (GPa) = 26.85120 31.04936 28.95028
#
# Velocity S-wave (km/s) = 3.69180 3.96993 3.83339
# Velocity P-wave (km/s) = 6.58963 6.92570 6.75975
#
# Compressibility (1/GPa) = 0.02010195
#
# Stress axis : x y z
#
# Youngs Moduli (GPa) = 84.23278 50.23536 92.11808
#
# Poissons Ratio (x) = 0.23856 0.20659
# Poissons Ratio (y) = 0.40001 0.39375
# Poissons Ratio (z) = 0.18891 0.21473
#
# Static dielectric constant tensor:
#      x y z
#    x 3.443130 0.000000 -0.433290 
#    y 0.000000 3.822280 0.000000 
#    z -0.433290 0.000000 3.915860 
# 
# 
# High freq. dielectric constant tensor:
#      x y z
#    x 1.731520 0.000000 -0.025110 
#    y 0.000000 1.771780 0.000000 
#    z -0.025110 0.000000 1.777350 
# 
# From -- ./inp_files/34385.got.cif
#   From: 2010.06.25/outbox.cif.g09.slc.cpg/sg15_18_cif.got.tgz:34385.got - 2010.06.28 07:06:18.
