data_PCOD8141429
_publ_section_title
;
Structure prediction by ZEFSAII (Michael W. Deem and Ramdas Pophale) SiO2 
 PCOD8141429
Probable space group: C 2/C
;
_chemical_formula_sum "Si O2"
_cell_formula_units_Z 48
_cell_length_a 23.753267
_cell_length_b 11.914534
_cell_length_c 12.595337
_cell_angle_alpha 90.000000
_cell_angle_beta 140.218914
_cell_angle_gamma 90.000000
_cell_volume 2280.827711
_symmetry_space_group_name_H-M "C 2/C"
_symmetry_group_IT_number 15
_symmetry_cell_setting 'monoclinic'
loop_
_space_group_symop_operation_xyz
x,y,z
-x,y,1/2-z
-x,-y,-z
x,-y,1/2+z
1/2+x,1/2+y,z
1/2-x,1/2+y,1/2-z
1/2-x,1/2-y,-z
1/2+x,1/2-y,1/2+z
loop_
_atom_site_type_symbol
_atom_site_label
_atom_site_fract_x
_atom_site_fract_y
_atom_site_fract_z
Si Si1 0.268380 0.318262 0.367720
Si Si2 0.467536 0.072195 0.808943
Si Si3 0.989027 0.880512 0.115470
Si Si4 0.634195 0.559858 0.667376
Si Si5 0.727912 0.083074 0.025889
Si Si6 0.070120 0.354863 0.024967
O O1 0.345318 0.354482 0.398457
O O2 0.277084 0.184849 0.396685
O O3 0.283555 0.377247 0.503711
O O4 0.175365 0.357376 0.184441
O O5 0.500000 0.137971 0.750000
O O6 0.366489 0.035841 0.646855
O O7 0.472418 0.152944 0.918072
O O8 0.532305 0.965561 0.913911
O O9 0.000000 0.929472 0.250000
O O10 0.079219 0.879942 0.180061
O O11 0.957526 0.752965 0.081421
O O12 0.916146 0.951191 0.948364
O O13 0.725077 0.520967 0.851087
#
# Coordination Sequence:
#
# PCOD8141429 Si02
#       6
#     8   8   8   8   8   8
#     4  10  21  40  65  88 127 167 208 259 321 370
#     4  10  21  36  63  92 123 165 215 258 314 382
#     4  11  24  42  62  90 128 164 207 261 323 381
#     4  11  23  41  65  91 121 170 212 259 314 393
#     4  10  21  40  62  93 124 165 213 267 308 375
#     4  10  21  41  60  91 131 165 199 272 318 371
#
# _framework density 21.044992000000001
#
# number of rings (size 3 to 8) (size 9 to 14) (size 15 to 20)
#    0.000    1.667    1.667    2.500    2.333    0.000 
#    0.000    1.667    0.000    0.000    0.000    0.000 
#    0.000    0.000    0.000    0.000    0.000    0.000 
#
# Total GULP energy -297615.864358 kJ/mol
# GULP energy per Si atom -12400.661015 kJ/mol
# Density = 2.099709 g / cm^3
# Si number density = 21.044992 Si / 1000 Ang^3
#
#
#
# Elastic Constant Matrix: (Units=GPa)
#
#
# Indices 1 2 3 4 5 6 
#
# 1 130.0873 17.6881 15.4630 0.0000 -20.7377 0.0000
# 2 17.6881 55.2413 16.7737 0.0000 5.3183 0.0000
# 3 15.4630 16.7737 84.6532 0.0000 -0.6345 0.0000
# 4 0.0000 0.0000 0.0000 24.3459 0.0000 -2.7742
# 5 -20.7377 5.3183 -0.6345 0.0000 27.7101 0.0000
# 6 0.0000 0.0000 0.0000 -2.7742 0.0000 26.8014
#
#
#
# Elastic Compliance Matrix: (Units=1/GPa)
#
#
# Indices 1 2 3 4 5 6 
#
# 1 0.009519 -0.003496 -0.000988 0.000000 0.007772 0.000000
# 2 -0.003496 0.020951 -0.003563 0.000000 -0.006719 0.000000
# 3 -0.000988 -0.003563 0.012701 0.000000 0.000235 0.000000
# 4 0.000000 0.000000 0.000000 0.041565 0.000000 0.004302
# 5 0.007772 -0.006719 0.000235 0.000000 0.043199 0.000000
# 6 0.000000 0.000000 0.000000 0.004302 0.000000 0.037757
#
#
# Mechanical properties :
#
#
# Convention : Reuss Voigt Hill
#
# Bulk Modulus (GPa) = 36.93217 41.09236 39.01227
# Shear Modulus (GPa) = 26.20387 30.44195 28.32291
#
# Velocity S-wave (km/s) = 3.53248 3.80744 3.67253
# Velocity P-wave (km/s) = 5.85022 6.23676 6.04658
#
# Compressibility (1/GPa) = 0.02707666
#
# Stress axis : x y z
#
# Youngs Moduli (GPa) = 105.05362 47.73113 78.73340
#
# Poissons Ratio (x) = 0.16688 0.07777
# Poissons Ratio (y) = 0.36730 0.28053
# Poissons Ratio (z) = 0.10376 0.17007
#
# Static dielectric constant tensor:
#      x y z
#    x 3.890500 0.000000 -0.106550 
#    y 0.000000 3.425950 0.000000 
#    z -0.106550 0.000000 3.863220 
# 
# 
# High freq. dielectric constant tensor:
#      x y z
#    x 1.832190 0.000000 -0.006470 
#    y 0.000000 1.800220 0.000000 
#    z -0.006470 0.000000 1.835410 
# 
# From -- ./inp_files/111789.got.cif
#   From: 2010.06.25/outbox.cif.g09.slc.cpg/sg15_56_cif.got.tgz:111789.got - 2010.06.28 07:06:18.
