data_PCOD8141044
_publ_section_title
;
Structure prediction by ZEFSAII (Michael W. Deem and Ramdas Pophale) SiO2 
 PCOD8141044
Probable space group: C 2/C
;
_chemical_formula_sum "Si O2"
_cell_formula_units_Z 56
_cell_length_a 26.176452
_cell_length_b 17.429578
_cell_length_c 9.248455
_cell_angle_alpha 90.000000
_cell_angle_beta 44.976632
_cell_angle_gamma 90.000000
_cell_volume 2982.460117
_symmetry_space_group_name_H-M "C 2/C"
_symmetry_group_IT_number 15
_symmetry_cell_setting 'monoclinic'
loop_
_space_group_symop_operation_xyz
x,y,z
-x,y,1/2-z
-x,-y,-z
x,-y,1/2+z
1/2+x,1/2+y,z
1/2-x,1/2+y,1/2-z
1/2-x,1/2-y,-z
1/2+x,1/2-y,1/2+z
loop_
_atom_site_type_symbol
_atom_site_label
_atom_site_fract_x
_atom_site_fract_y
_atom_site_fract_z
Si Si1 0.577747 0.252644 0.621521
Si Si2 0.437651 0.037994 0.468745
Si Si3 0.758257 0.581403 0.160950
Si Si4 0.794643 0.178484 0.472896
Si Si5 0.300600 0.815025 0.832274
Si Si6 0.706535 0.909430 0.374386
Si Si7 0.580361 0.092645 0.698955
O O1 0.500000 0.296037 0.750000
O O2 0.623770 0.301313 0.644103
O O3 0.628096 0.224410 0.384327
O O4 0.548384 0.177216 0.762659
O O5 0.500000 0.079402 0.250000
O O6 0.362840 0.079786 0.586787
O O7 0.455888 0.042127 0.602377
O O8 0.432774 0.948474 0.429797
O O9 0.700268 0.611839 0.158970
O O10 0.753768 0.633699 0.313754
O O11 0.749202 0.490034 0.201923
O O12 0.835261 0.597002 0.934004
O O13 0.750000 0.250000 0.500000
O O14 0.758136 0.151493 0.694739
O O15 0.250000 0.750000 0.000000
O O16 0.320917 0.875633 0.917604
#
# Coordination Sequence:
#
# PCOD8141044 Si02
#       7
#     8   8   8   8   8   8   8
#     4  11  24  37  60  83 119 153 196 244 302 348
#     4  11  22  32  49  77 117 160 189 233 281 347
#     4  10  21  35  60  84 114 149 192 245 288 340
#     4  12  19  41  61  83 115 155 195 238 291 350
#     4  11  21  38  59  86 113 154 198 244 282 351
#     4  11  22  35  57  86 116 148 201 239 289 347
#     4  10  21  35  50  78 116 156 194 224 284 351
#
# _framework density 18.776444999999999
#
# number of rings (size 3 to 8) (size 9 to 14) (size 15 to 20)
#    0.000    1.143    5.714    1.714   12.000    0.000 
#    0.000    0.000    0.000    0.857    0.000    0.000 
#    0.000    0.000    0.000    0.000    0.000    0.000 
#
# Total GULP energy -346933.347359 kJ/mol
# GULP energy per Si atom -12390.476691 kJ/mol
# Density = 1.873371 g / cm^3
# Si number density = 18.776445 Si / 1000 Ang^3
#
#
#
# Elastic Constant Matrix: (Units=GPa)
#
#
# Indices 1 2 3 4 5 6 
#
# 1 87.5873 40.9652 35.6882 0.0000 -7.1746 0.0000
# 2 40.9652 86.1857 40.7183 0.0000 0.3448 0.0000
# 3 35.6882 40.7183 76.8105 0.0000 9.2511 0.0000
# 4 0.0000 0.0000 0.0000 31.6664 0.0000 7.2914
# 5 -7.1746 0.3448 9.2511 0.0000 37.1885 0.0000
# 6 0.0000 0.0000 0.0000 7.2914 0.0000 6.6799
#
#
#
# Elastic Compliance Matrix: (Units=1/GPa)
#
#
# Indices 1 2 3 4 5 6 
#
# 1 0.016466 -0.005297 -0.005393 0.000000 0.004567 0.000000
# 2 -0.005297 0.017323 -0.006783 0.000000 0.000505 0.000000
# 3 -0.005393 -0.006783 0.019832 0.000000 -0.005911 0.000000
# 4 0.000000 0.000000 0.000000 0.042181 0.000000 -0.046042
# 5 0.004567 0.000505 -0.005911 0.000000 0.029237 0.000000
# 6 0.000000 0.000000 0.000000 -0.046042 0.000000 0.199959
#
#
# Mechanical properties :
#
#
# Convention : Reuss Voigt Hill
#
# Bulk Modulus (GPa) = 53.54372 53.92519 53.73446
# Shear Modulus (GPa) = 13.65491 23.98775 18.82133
#
# Velocity S-wave (km/s) = 2.69966 3.57815 3.16949
# Velocity P-wave (km/s) = 6.18837 6.77147 6.48648
#
# Compressibility (1/GPa) = 0.01867633
#
# Stress axis : x y z
#
# Youngs Moduli (GPa) = 60.73104 57.72618 50.42297
#
# Poissons Ratio (x) = 0.30578 0.27191
# Poissons Ratio (y) = 0.32170 0.34201
# Poissons Ratio (z) = 0.32750 0.39155
#
# Static dielectric constant tensor:
#      x y z
#    x 3.673880 0.000000 0.050210 
#    y 0.000000 3.507280 0.000000 
#    z 0.050210 0.000000 3.584630 
# 
# 
# High freq. dielectric constant tensor:
#      x y z
#    x 1.735590 0.000000 0.019210 
#    y 0.000000 1.718700 0.000000 
#    z 0.019210 0.000000 1.715880 
# 
# From -- ./inp_files/62675.got.cif
#   From: 2010.06.25/outbox.cif.g09.slc.cpg/sg15_32_cif.got.tgz:62675.got - 2010.06.28 07:06:18.
