data_PCOD8141340
_publ_section_title
;
Structure prediction by ZEFSAII (Michael W. Deem and Ramdas Pophale) SiO2 
 PCOD8141340
Probable space group: C 2/C
;
_chemical_formula_sum "Si O2"
_cell_formula_units_Z 64
_cell_length_a 15.080026
_cell_length_b 25.966785
_cell_length_c 12.858512
_cell_angle_alpha 90.000000
_cell_angle_beta 39.289214
_cell_angle_gamma 90.000000
_cell_volume 3188.423672
_symmetry_space_group_name_H-M "C 2/C"
_symmetry_group_IT_number 15
_symmetry_cell_setting 'monoclinic'
loop_
_space_group_symop_operation_xyz
x,y,z
-x,y,1/2-z
-x,-y,-z
x,-y,1/2+z
1/2+x,1/2+y,z
1/2-x,1/2+y,1/2-z
1/2-x,1/2-y,-z
1/2+x,1/2-y,1/2+z
loop_
_atom_site_type_symbol
_atom_site_label
_atom_site_fract_x
_atom_site_fract_y
_atom_site_fract_z
Si Si1 0.284653 0.136819 0.040501
Si Si2 0.727394 0.949941 0.310517
Si Si3 0.342633 0.530278 0.356137
Si Si4 0.047468 0.792309 0.822865
Si Si5 0.005858 0.611816 0.359330
Si Si6 0.806863 0.139184 0.609924
Si Si7 0.530734 0.182071 0.926033
Si Si8 0.128247 0.491921 0.711601
O O1 0.230170 0.081164 0.127583
O O2 0.203084 0.184340 0.171413
O O3 0.264200 0.134073 0.936878
O O4 0.447603 0.148943 0.914026
O O5 0.635510 0.918452 0.477796
O O6 0.830256 0.914235 0.148479
O O7 0.618641 0.976585 0.328485
O O8 0.832012 0.988613 0.273893
O O9 0.500000 0.543428 0.250000
O O10 0.269444 0.507699 0.525085
O O11 0.000000 0.777417 0.750000
O O12 0.024447 0.743095 0.916762
O O13 0.956837 0.835526 0.961518
O O14 0.000000 0.636201 0.250000
O O15 0.037102 0.660721 0.404935
O O16 0.128185 0.568536 0.243260
O O17 0.695966 0.171419 0.777620
O O18 0.000000 0.505569 0.750000
#
# Coordination Sequence:
#
# PCOD8141340 Si02
#       8
#     8   8   8   8   8   8   8   8
#     4  11  22  38  58  93 125 153 200 244 303 368
#     4  11  22  38  62  89 122 166 202 246 303 360
#     4  12  25  40  58  90 131 171 200 242 303 370
#     4  10  21  40  58  87 126 154 188 248 309 370
#     4  10  21  39  59  90 115 150 202 262 291 351
#     4  10  21  36  60  87 121 154 195 246 300 368
#     4  11  22  35  66  88 113 153 203 249 313 349
#     4  11  22  38  65  90 125 158 203 251 298 360
#
# _framework density 20.072614999999999
#
# number of rings (size 3 to 8) (size 9 to 14) (size 15 to 20)
#    0.000    1.250    3.750    4.125    3.500    2.500 
#    2.250    0.000    0.000    7.500    0.000    0.000 
#    0.000    0.000    0.000    0.000    0.000    0.000 
#
# Total GULP energy -396519.484136 kJ/mol
# GULP energy per Si atom -12391.233879 kJ/mol
# Density = 2.002693 g / cm^3
# Si number density = 20.072615 Si / 1000 Ang^3
#
#
#
# Elastic Constant Matrix: (Units=GPa)
#
#
# Indices 1 2 3 4 5 6 
#
# 1 48.9505 24.3842 17.7089 0.0000 14.9372 0.0000
# 2 24.3842 114.3170 34.5318 0.0000 23.9777 0.0000
# 3 17.7089 34.5318 82.8205 0.0000 12.8737 0.0000
# 4 0.0000 0.0000 0.0000 30.1497 0.0000 12.8582
# 5 14.9372 23.9777 12.8737 0.0000 31.5965 0.0000
# 6 0.0000 0.0000 0.0000 12.8582 0.0000 26.8652
#
#
#
# Elastic Compliance Matrix: (Units=1/GPa)
#
#
# Indices 1 2 3 4 5 6 
#
# 1 0.025537 -0.002703 -0.002963 0.000000 -0.008814 0.000000
# 2 -0.002703 0.011622 -0.003305 0.000000 -0.006195 0.000000
# 3 -0.002963 -0.003305 0.014390 0.000000 -0.001954 0.000000
# 4 0.000000 0.000000 0.000000 0.041674 0.000000 -0.019946
# 5 -0.008814 -0.006195 -0.001954 0.000000 0.041313 0.000000
# 6 0.000000 0.000000 0.000000 -0.019946 0.000000 0.046770
#
#
# Mechanical properties :
#
#
# Convention : Reuss Voigt Hill
#
# Bulk Modulus (GPa) = 29.75674 44.37085 37.06380
# Shear Modulus (GPa) = 23.75860 29.01981 26.38921
#
# Velocity S-wave (km/s) = 3.44413 3.80642 3.62979
# Velocity P-wave (km/s) = 5.53830 6.43984 6.00601
#
# Compressibility (1/GPa) = 0.03360583
#
# Stress axis : x y z
#
# Youngs Moduli (GPa) = 39.15895 86.04445 69.49482
#
# Poissons Ratio (x) = 0.23261 0.20593
# Poissons Ratio (y) = 0.10586 0.22966
# Poissons Ratio (z) = 0.11604 0.28435
#
# Static dielectric constant tensor:
#      x y z
#    x 3.450660 0.000000 0.145830 
#    y 0.000000 3.784940 0.000000 
#    z 0.145830 0.000000 3.824350 
# 
# 
# High freq. dielectric constant tensor:
#      x y z
#    x 1.752930 0.000000 0.006850 
#    y 0.000000 1.782910 0.000000 
#    z 0.006850 0.000000 1.789570 
# 
# From -- ./inp_files/101302.got.cif
#   From: 2010.06.25/outbox.cif.g09.slc.cpg/sg15_51_cif.got.tgz:101302.got - 2010.06.28 07:06:18.
