data_PCOD8141482
_publ_section_title
;
Structure prediction by ZEFSAII (Michael W. Deem and Ramdas Pophale) SiO2 
 PCOD8141482
Probable space group: C 2/C
;
_chemical_formula_sum "Si O2"
_cell_formula_units_Z 32
_cell_length_a 7.732224
_cell_length_b 18.184314
_cell_length_c 14.593043
_cell_angle_alpha 90.000000
_cell_angle_beta 140.009206
_cell_angle_gamma 90.000000
_cell_volume 1318.656055
_symmetry_space_group_name_H-M "C 2/C"
_symmetry_group_IT_number 15
_symmetry_cell_setting 'monoclinic'
loop_
_space_group_symop_operation_xyz
x,y,z
-x,y,1/2-z
-x,-y,-z
x,-y,1/2+z
1/2+x,1/2+y,z
1/2-x,1/2+y,1/2-z
1/2-x,1/2-y,-z
1/2+x,1/2-y,1/2+z
loop_
_atom_site_type_symbol
_atom_site_label
_atom_site_fract_x
_atom_site_fract_y
_atom_site_fract_z
Si Si1 0.848922 0.329194 0.398017
Si Si2 0.704938 0.475431 0.406590
Si Si3 0.187804 0.785990 0.146993
Si Si4 0.211114 0.423896 0.408254
O O1 0.681921 0.386465 0.394349
O O2 0.657166 0.286404 0.245987
O O3 0.994042 0.274689 0.526604
O O4 0.061471 0.376033 0.425496
O O5 0.500000 0.510254 0.250000
O O6 0.629997 0.509016 0.476753
O O7 0.000000 0.500000 0.500000
O O8 0.500000 0.768759 0.250000
O O9 0.397898 0.633994 0.929341
O O10 0.000000 0.458683 0.250000
#
# Coordination Sequence:
#
# PCOD8141482 Si02
#       4
#     8   8   8   8
#     4   9  18  31  50  79 109 138 179 230 271 317
#     4  10  21  37  55  79 112 147 183 227 275 327
#     4   9  16  30  53  81 107 140 184 226 265 325
#     4   8  16  32  54  81 107 139 187 233 265 317
#
# _framework density 24.267132
#
# number of rings (size 3 to 8) (size 9 to 14) (size 15 to 20)
#    0.000    3.500    0.000    3.000    0.000    8.000 
#    0.000   15.000    0.000    0.000    0.000    0.000 
#    0.000    0.000    0.000    0.000    0.000    0.000 
#
# Total GULP energy -198233.416346 kJ/mol
# GULP energy per Si atom -12389.588522 kJ/mol
# Density = 2.421190 g / cm^3
# Si number density = 24.267132 Si / 1000 Ang^3
#
#
#
# Elastic Constant Matrix: (Units=GPa)
#
#
# Indices 1 2 3 4 5 6 
#
# 1 62.0424 22.7425 45.2688 -0.0008 -25.3941 -0.0001
# 2 22.7425 136.6441 128.3494 0.0003 -22.0463 0.0002
# 3 45.2688 128.3494 234.3862 -0.0036 -25.3687 -0.0003
# 4 -0.0008 0.0003 -0.0036 54.8681 -0.0015 -1.2040
# 5 -25.3941 -22.0463 -25.3687 -0.0015 41.7353 -0.0001
# 6 -0.0001 0.0002 -0.0003 -1.2040 -0.0001 16.1840
#
#
#
# Elastic Compliance Matrix: (Units=1/GPa)
#
#
# Indices 1 2 3 4 5 6 
#
# 1 0.023863 0.002337 -0.004478 0.000000 0.013032 0.000000
# 2 0.002337 0.015696 -0.008558 0.000000 0.004511 0.000000
# 3 -0.004478 -0.008558 0.009670 0.000001 -0.001368 0.000000
# 4 0.000000 0.000000 0.000001 0.018255 0.000001 0.001358
# 5 0.013032 0.004511 -0.001368 0.000001 0.033442 0.000000
# 6 0.000000 0.000000 0.000000 0.001358 0.000000 0.061890
#
#
# Mechanical properties :
#
#
# Convention : Reuss Voigt Hill
#
# Bulk Modulus (GPa) = 35.93206 91.75489 63.84348
# Shear Modulus (GPa) = 25.84110 38.33828 32.08969
#
# Velocity S-wave (km/s) = 3.26676 3.97904 3.64036
# Velocity P-wave (km/s) = 5.39147 7.68133 6.63592
#
# Compressibility (1/GPa) = 0.02783030
#
# Stress axis : x y z
#
# Youngs Moduli (GPa) = 41.90626 63.71175 103.41566
#
# Poissons Ratio (x) = -0.14892 0.46312
# Poissons Ratio (y) = -0.09795 0.88504
# Poissons Ratio (z) = 0.18766 0.54525
#
# Static dielectric constant tensor:
#      x y z
#    x 4.476960 0.000000 -0.464330 
#    y 0.000000 4.987910 0.000000 
#    z -0.464330 0.000000 4.977250 
# 
# 
# High freq. dielectric constant tensor:
#      x y z
#    x 1.971650 0.000000 -0.019210 
#    y 0.000000 1.951240 0.000000 
#    z -0.019210 0.000000 1.969300 
# 
# From -- ./inp_files/146917.got.cif
#   From: 2010.06.25/outbox.cif.g09.slc.cpg/sg15_74_cif.got.tgz:146917.got - 2010.06.28 07:06:18.
