data_PCOD8141491
_publ_section_title
;
Structure prediction by ZEFSAII (Michael W. Deem and Ramdas Pophale) SiO2 
 PCOD8141491
Probable space group: C 2/C
;
_chemical_formula_sum "Si O2"
_cell_formula_units_Z 64
_cell_length_a 15.321650
_cell_length_b 29.261569
_cell_length_c 12.470871
_cell_angle_alpha 90.000000
_cell_angle_beta 144.838263
_cell_angle_gamma 90.000000
_cell_volume 3219.858752
_symmetry_space_group_name_H-M "C 2/C"
_symmetry_group_IT_number 15
_symmetry_cell_setting 'monoclinic'
loop_
_space_group_symop_operation_xyz
x,y,z
-x,y,1/2-z
-x,-y,-z
x,-y,1/2+z
1/2+x,1/2+y,z
1/2-x,1/2+y,1/2-z
1/2-x,1/2-y,-z
1/2+x,1/2-y,1/2+z
loop_
_atom_site_type_symbol
_atom_site_label
_atom_site_fract_x
_atom_site_fract_y
_atom_site_fract_z
Si Si1 0.180436 0.389342 0.921879
Si Si2 0.310288 0.802750 0.946857
Si Si3 0.173547 0.507095 0.401270
Si Si4 0.838315 0.293709 0.219405
Si Si5 0.184545 0.042877 0.631835
Si Si6 0.828165 0.124968 0.350033
Si Si7 0.814795 0.137062 0.775814
Si Si8 0.136781 0.964707 0.735799
O O1 0.239657 0.441911 0.983112
O O2 0.236254 0.366299 0.867386
O O3 0.000000 0.386048 0.750000
O O4 0.254966 0.361236 0.094040
O O5 0.211796 0.758483 0.821116
O O6 0.238567 0.844683 0.811950
O O7 0.298674 0.813727 0.062088
O O8 0.482245 0.795622 0.081213
O O9 0.188227 0.488306 0.295524
O O10 0.255948 0.467943 0.553663
O O11 0.000000 0.508683 0.250000
O O12 0.749299 0.320528 0.222286
O O13 0.251158 0.091714 0.732675
O O14 0.036066 0.048492 0.406201
O O15 0.133761 0.016216 0.687122
O O16 0.803120 0.072540 0.289000
O O17 0.003714 0.137090 0.543911
#
# Coordination Sequence:
#
# PCOD8141491 Si02
#       8
#     8   8   8   8   8   8   8   8
#     4  11  23  39  58  84 121 162 202 249 302 353
#     4  10  22  42  67  94 124 155 192 241 299 358
#     4  11  23  35  53  80 115 156 199 251 301 345
#     4  10  22  42  67  94 124 155 192 241 299 358
#     4  10  21  37  56  80 114 158 203 244 288 346
#     4  11  23  39  62  89 119 159 205 248 296 355
#     4  11  23  39  62  89 119 159 205 248 296 355
#     4  10  21  37  56  80 114 158 203 244 288 346
#
# _framework density 19.876649
#
# number of rings (size 3 to 8) (size 9 to 14) (size 15 to 20)
#    0.000    1.500    2.500    2.250    1.750    5.000 
#    0.000    0.625    0.000    0.000    0.000    0.000 
#    0.000    0.000    0.000    0.000    0.000    0.000 
#
# Total GULP energy -396791.408762 kJ/mol
# GULP energy per Si atom -12399.731524 kJ/mol
# Density = 1.983141 g / cm^3
# Si number density = 19.876649 Si / 1000 Ang^3
#
#
#
# Elastic Constant Matrix: (Units=GPa)
#
#
# Indices 1 2 3 4 5 6 
#
# 1 99.6956 25.5774 24.8180 0.0000 -0.0217 0.0000
# 2 25.5774 65.1400 30.9176 0.0000 -2.7971 0.0000
# 3 24.8180 30.9176 92.2305 0.0000 -2.7288 0.0000
# 4 0.0000 0.0000 0.0000 29.7876 0.0000 0.6582
# 5 -0.0217 -2.7971 -2.7288 0.0000 24.8357 0.0000
# 6 0.0000 0.0000 0.0000 0.6582 0.0000 32.5567
#
#
#
# Elastic Compliance Matrix: (Units=1/GPa)
#
#
# Indices 1 2 3 4 5 6 
#
# 1 0.011427 -0.003621 -0.001879 0.000000 -0.000604 0.000000
# 2 -0.003621 0.019452 -0.005499 0.000000 0.001583 0.000000
# 3 -0.001879 -0.005499 0.013216 0.000000 0.000831 0.000000
# 4 0.000000 0.000000 0.000000 0.033586 0.000000 -0.000679
# 5 -0.000604 0.001583 0.000831 0.000000 0.040534 0.000000
# 6 0.000000 0.000000 0.000000 -0.000679 0.000000 0.030729
#
#
# Mechanical properties :
#
#
# Convention : Reuss Voigt Hill
#
# Bulk Modulus (GPa) = 45.25678 46.63244 45.94461
# Shear Modulus (GPa) = 28.04140 29.15287 28.59713
#
# Velocity S-wave (km/s) = 3.76010 3.83389 3.79717
# Velocity P-wave (km/s) = 6.45518 6.56583 6.51074
#
# Compressibility (1/GPa) = 0.02209614
#
# Stress axis : x y z
#
# Youngs Moduli (GPa) = 87.51096 51.40986 75.66543
#
# Poissons Ratio (x) = 0.18616 0.14217
# Poissons Ratio (y) = 0.31688 0.41611
# Poissons Ratio (z) = 0.16443 0.28272
#
# Static dielectric constant tensor:
#      x y z
#    x 3.592480 0.000000 0.007240 
#    y 0.000000 3.463600 0.000000 
#    z 0.007240 0.000000 3.639500 
# 
# 
# High freq. dielectric constant tensor:
#      x y z
#    x 1.780140 0.000000 0.001870 
#    y 0.000000 1.759650 0.000000 
#    z 0.001870 0.000000 1.779770 
# 
# From -- ./inp_files/101342.got.cif
#   From: 2010.06.25/outbox.cif.g09.slc.cpg/sg15_51_cif.got.tgz:101342.got - 2010.06.28 07:06:18.
