data_PCOD8141361
_publ_section_title
;
Structure prediction by ZEFSAII (Michael W. Deem and Ramdas Pophale) SiO2 
 PCOD8141361
Probable space group: C 2/C
;
_chemical_formula_sum "Si O2"
_cell_formula_units_Z 64
_cell_length_a 21.612632
_cell_length_b 17.574011
_cell_length_c 24.389820
_cell_angle_alpha 90.000000
_cell_angle_beta 160.887283
_cell_angle_gamma 90.000000
_cell_volume 3033.209913
_symmetry_space_group_name_H-M "C 2/C"
_symmetry_group_IT_number 15
_symmetry_cell_setting 'monoclinic'
loop_
_space_group_symop_operation_xyz
x,y,z
-x,y,1/2-z
-x,-y,-z
x,-y,1/2+z
1/2+x,1/2+y,z
1/2-x,1/2+y,1/2-z
1/2-x,1/2-y,-z
1/2+x,1/2-y,1/2+z
loop_
_atom_site_type_symbol
_atom_site_label
_atom_site_fract_x
_atom_site_fract_y
_atom_site_fract_z
Si Si1 0.317768 0.864145 0.000890
Si Si2 0.350705 0.579129 0.030696
Si Si3 0.779860 0.776155 0.783617
Si Si4 0.937300 0.583147 0.391440
Si Si5 0.397939 0.368873 0.385940
Si Si6 0.150129 0.459645 0.259664
Si Si7 0.052090 0.778568 0.694015
Si Si8 0.689000 0.490892 0.267450
O O1 0.219609 0.913680 0.966122
O O2 0.165299 0.822396 0.836066
O O3 0.442351 0.925367 0.071676
O O4 0.464903 0.799403 0.145467
O O5 0.381176 0.665033 0.033969
O O6 0.550054 0.532216 0.194365
O O7 0.192433 0.539160 0.860191
O O8 0.589614 0.826195 0.631490
O O9 0.736814 0.688247 0.762614
O O10 0.824958 0.767003 0.756896
O O11 0.931446 0.816975 0.949290
O O12 0.845501 0.544768 0.260433
O O13 0.814100 0.552761 0.339734
O O14 0.159803 0.565636 0.578492
O O15 0.303764 0.405240 0.360483
O O16 0.445373 0.439750 0.385344
#
# Coordination Sequence:
#
# PCOD8141361 Si02
#       8
#     8   8   8   8   8   8   8   8
#     4  12  26  39  57  81 121 168 209 247 287 344
#     4  12  23  40  55  78 115 157 206 249 292 345
#     4  12  21  37  59  88 119 160 192 250 304 363
#     4  10  21  36  61  82 112 147 198 251 312 357
#     4  11  22  35  59  83 119 150 199 243 305 357
#     4  11  22  38  57  84 112 158 203 249 294 353
#     4  12  23  39  54  81 118 163 207 241 285 349
#     4  10  21  38  58  83 108 152 200 252 300 358
#
# _framework density 21.099758999999999
#
# number of rings (size 3 to 8) (size 9 to 14) (size 15 to 20)
#    0.000    0.750    3.750    4.875    3.500    3.000 
#    0.000    0.000    0.000    0.000    0.000    0.875 
#    0.000    2.000    0.000    0.375    0.000    0.250 
#
# Total GULP energy -396545.738949 kJ/mol
# GULP energy per Si atom -12392.054342 kJ/mol
# Density = 2.105174 g / cm^3
# Si number density = 21.099759 Si / 1000 Ang^3
#
#
#
# Elastic Constant Matrix: (Units=GPa)
#
#
# Indices 1 2 3 4 5 6 
#
# 1 67.6174 29.4397 24.0804 -0.0600 8.1351 0.0314
# 2 29.4397 68.6196 -3.6678 -0.0436 7.7694 0.0691
# 3 24.0804 -3.6678 65.2345 -0.1398 -0.9069 0.1351
# 4 -0.0600 -0.0436 -0.1398 32.5188 -0.0265 7.8376
# 5 8.1351 7.7694 -0.9069 -0.0265 24.4842 0.0717
# 6 0.0314 0.0691 0.1351 7.8376 0.0717 26.3546
#
#
#
# Elastic Compliance Matrix: (Units=1/GPa)
#
#
# Indices 1 2 3 4 5 6 
#
# 1 0.022826 -0.009729 -0.009040 -0.000030 -0.004832 0.000067
# 2 -0.009729 0.019303 0.004639 0.000042 -0.002721 -0.000068
# 3 -0.009040 0.004639 0.018959 0.000106 0.002234 -0.000136
# 4 -0.000030 0.000042 0.000106 0.033127 0.000065 -0.009852
# 5 -0.004832 -0.002721 0.002234 0.000065 0.043395 -0.000136
# 6 0.000067 -0.000068 -0.000136 -0.009852 -0.000136 0.040875
#
#
# Mechanical properties :
#
#
# Convention : Reuss Voigt Hill
#
# Bulk Modulus (GPa) = 30.46239 33.46401 31.96320
# Shear Modulus (GPa) = 22.96878 26.77946 24.87412
#
# Velocity S-wave (km/s) = 3.30294 3.56643 3.43721
# Velocity P-wave (km/s) = 5.38652 5.73180 5.56184
#
# Compressibility (1/GPa) = 0.03282737
#
# Stress axis : x y z
#
# Youngs Moduli (GPa) = 43.81025 51.80481 52.74608
#
# Poissons Ratio (x) = 0.50401 0.47683
# Poissons Ratio (y) = 0.42623 -0.24469
# Poissons Ratio (z) = 0.39605 -0.24033
#
# Static dielectric constant tensor:
#      x y z
#    x 3.430080 -0.000130 0.036280 
#    y -0.000130 4.099530 -0.000510 
#    z 0.036280 -0.000510 4.074410 
# 
# 
# High freq. dielectric constant tensor:
#      x y z
#    x 1.779470 -0.000010 -0.009810 
#    y -0.000010 1.825390 -0.000040 
#    z -0.009810 -0.000040 1.847040 
# 
# From -- ./inp_files/280512.got.cif
#   From: 2010.06.25/outbox.cif.g09.slc.cpg/sg15_141_cif.got.tgz:280512.got - 2010.06.28 07:06:18.
