data_PCOD8141528
_publ_section_title
;
Structure prediction by ZEFSAII (Michael W. Deem and Ramdas Pophale) SiO2 
 PCOD8141528
Probable space group: C 2/C
;
_chemical_formula_sum "Si O2"
_cell_formula_units_Z 64
_cell_length_a 28.092092
_cell_length_b 9.512666
_cell_length_c 23.925395
_cell_angle_alpha 90.000000
_cell_angle_beta 31.693588
_cell_angle_gamma 90.000000
_cell_volume 3359.046645
_symmetry_space_group_name_H-M "C 2/C"
_symmetry_group_IT_number 15
_symmetry_cell_setting 'monoclinic'
loop_
_space_group_symop_operation_xyz
x,y,z
-x,y,1/2-z
-x,-y,-z
x,-y,1/2+z
1/2+x,1/2+y,z
1/2-x,1/2+y,1/2-z
1/2-x,1/2-y,-z
1/2+x,1/2-y,1/2+z
loop_
_atom_site_type_symbol
_atom_site_label
_atom_site_fract_x
_atom_site_fract_y
_atom_site_fract_z
Si Si1 0.104698 0.368548 0.644047
Si Si2 0.477674 0.667957 0.958600
Si Si3 0.154077 0.675795 0.595800
Si Si4 0.366553 0.665388 0.782565
Si Si5 0.871374 0.839173 0.775929
Si Si6 0.837183 0.334433 0.535796
Si Si7 0.975248 0.161264 0.463936
Si Si8 0.835547 0.342207 0.038317
O O1 0.162900 0.508726 0.599193
O O2 0.125949 0.249305 0.667517
O O3 0.130975 0.305844 0.557617
O O4 0.000000 0.412251 0.750000
O O5 0.557162 0.713747 0.837094
O O6 0.456355 0.503510 0.978586
O O7 0.506490 0.713232 0.991716
O O8 0.386685 0.747886 0.032425
O O9 0.250000 0.750000 0.500000
O O10 0.095667 0.750393 0.702658
O O11 0.114843 0.694961 0.572360
O O12 0.377286 0.501903 0.786835
O O13 0.270165 0.694687 0.850335
O O14 0.769598 0.798282 0.859156
O O15 0.937280 0.797484 0.659758
O O16 0.884618 0.237882 0.534143
O O17 0.853101 0.495983 0.536132
#
# Coordination Sequence:
#
# PCOD8141528 Si02
#       8
#     8   8   8   8   8   8   8   8
#     4  11  21  35  59  88 118 148 185 233 283 340
#     4  10  22  40  54  82 109 146 193 234 281 334
#     4   9  20  36  55  84 117 145 181 226 275 340
#     4  10  21  39  58  82 115 151 184 234 285 339
#     4   9  20  37  57  82 113 148 188 229 285 341
#     4   9  20  37  55  82 111 145 182 230 281 337
#     4  10  22  37  58  77 112 147 188 239 280 330
#     4  10  21  37  58  80 114 145 184 231 283 336
#
# _framework density 19.053024000000001
#
# number of rings (size 3 to 8) (size 9 to 14) (size 15 to 20)
#    0.000    2.250    1.250    1.125    3.500    4.500 
#    0.000    0.000    0.000    0.000    0.000    0.000 
#    0.000    0.000    0.000    0.000    0.000    0.000 
#
# Total GULP energy -396822.144580 kJ/mol
# GULP energy per Si atom -12400.692018 kJ/mol
# Density = 1.900966 g / cm^3
# Si number density = 19.053024 Si / 1000 Ang^3
#
#
#
# Elastic Constant Matrix: (Units=GPa)
#
#
# Indices 1 2 3 4 5 6 
#
# 1 107.6615 55.1060 19.6650 0.0387 0.1385 -0.0154
# 2 55.1060 61.5911 19.6705 0.1208 -1.0150 -0.0995
# 3 19.6650 19.6705 44.6844 0.1047 -6.0287 -0.1042
# 4 0.0387 0.1208 0.1047 19.8288 -0.0762 0.7843
# 5 0.1385 -1.0150 -6.0287 -0.0762 29.0795 0.0570
# 6 -0.0154 -0.0995 -0.1042 0.7843 0.0570 40.4681
#
#
#
# Elastic Compliance Matrix: (Units=1/GPa)
#
#
# Indices 1 2 3 4 5 6 
#
# 1 0.017188 -0.015057 -0.001047 0.000062 -0.000824 -0.000033
# 2 -0.015057 0.032117 -0.007562 -0.000130 -0.000375 0.000057
# 3 -0.001047 -0.007562 0.026886 -0.000075 0.005315 0.000044
# 4 0.000062 -0.000130 -0.000075 0.050472 0.000114 -0.000979
# 5 -0.000824 -0.000375 0.005315 0.000114 0.035481 -0.000040
# 6 -0.000033 0.000057 0.000044 -0.000979 -0.000040 0.024730
#
#
# Mechanical properties :
#
#
# Convention : Reuss Voigt Hill
#
# Bulk Modulus (GPa) = 34.65211 44.75777 39.70494
# Shear Modulus (GPa) = 20.50636 25.84164 23.17400
#
# Velocity S-wave (km/s) = 3.28423 3.68680 3.49132
# Velocity P-wave (km/s) = 5.71036 6.45488 6.09400
#
# Compressibility (1/GPa) = 0.02885827
#
# Stress axis : x y z
#
# Youngs Moduli (GPa) = 58.18125 31.13597 37.19375
#
# Poissons Ratio (x) = 0.46882 0.03895
# Poissons Ratio (y) = 0.87605 0.28126
# Poissons Ratio (z) = 0.06093 0.23545
#
# Static dielectric constant tensor:
#      x y z
#    x 3.445750 -0.000010 0.124660 
#    y -0.000010 3.458080 0.000030 
#    z 0.124660 0.000030 3.678150 
# 
# 
# High freq. dielectric constant tensor:
#      x y z
#    x 1.733460 0.000000 0.000240 
#    y 0.000000 1.736620 0.000000 
#    z 0.000240 0.000000 1.747820 
# 
# From -- ./inp_files/255342.got.cif
#   From: 2010.06.25/outbox.cif.g09.slc.cpg/sg15_128_cif.got.tgz:255342.got - 2010.06.28 07:06:18.
