data_PCOD8141240
_publ_section_title
;
Structure prediction by ZEFSAII (Michael W. Deem and Ramdas Pophale) SiO2 
 PCOD8141240
Probable space group: C 2/C
;
_chemical_formula_sum "Si O2"
_cell_formula_units_Z 64
_cell_length_a 8.812802
_cell_length_b 13.611874
_cell_length_c 25.976093
_cell_angle_alpha 90.000000
_cell_angle_beta 98.088480
_cell_angle_gamma 90.000000
_cell_volume 3085.060994
_symmetry_space_group_name_H-M "C 2/C"
_symmetry_group_IT_number 15
_symmetry_cell_setting 'monoclinic'
loop_
_space_group_symop_operation_xyz
x,y,z
-x,y,1/2-z
-x,-y,-z
x,-y,1/2+z
1/2+x,1/2+y,z
1/2-x,1/2+y,1/2-z
1/2-x,1/2-y,-z
1/2+x,1/2-y,1/2+z
loop_
_atom_site_type_symbol
_atom_site_label
_atom_site_fract_x
_atom_site_fract_y
_atom_site_fract_z
Si Si1 0.534924 0.274120 0.597041
Si Si2 0.088870 0.114410 0.668190
Si Si3 0.360186 0.710416 0.587476
Si Si4 0.953299 0.888942 0.493552
Si Si5 0.551885 0.087584 0.368178
Si Si6 0.665235 0.592484 0.190603
Si Si7 0.818234 0.398440 0.088963
Si Si8 0.856412 0.685642 0.281041
O O1 0.676390 0.209348 0.581920
O O2 0.467586 0.344092 0.550420
O O3 0.566808 0.337164 0.649377
O O4 0.403876 0.200168 0.607788
O O5 0.182387 0.084292 0.622306
O O6 0.171765 0.200670 0.704245
O O7 0.923057 0.153525 0.641260
O O8 0.078474 0.011178 0.698846
O O9 0.427160 0.665996 0.538418
O O10 0.408328 0.824359 0.591388
O O11 0.772933 0.885328 0.469296
O O12 0.000000 0.000000 0.500000
O O13 0.673063 0.072276 0.328491
O O14 0.391011 0.114516 0.332153
O O15 0.558786 0.988712 0.403362
O O16 0.701314 0.646579 0.246570
O O17 0.000000 0.685765 0.250000
#
# Coordination Sequence:
#
# PCOD8141240 Si02
#       8
#     8   8   8   8   8   8   8   8
#     4  11  21  35  54  81 110 136 179 227 264 311
#     4   9  18  36  56  76 106 144 178 216 270 323
#     4   9  18  35  57  77 101 141 184 216 255 324
#     4  11  21  37  58  78 106 147 181 213 269 328
#     4   8  16  34  55  76 104 141 180 215 261 324
#     4   9  18  33  54  77 107 145 179 214 267 325
#     4  10  21  36  55  81 110 138 173 227 278 314
#     4   9  17  32  56  80 103 140 186 222 254 317
#
# _framework density 20.745132999999999
#
# number of rings (size 3 to 8) (size 9 to 14) (size 15 to 20)
#    0.000    2.500    0.000    4.500    0.000    1.000 
#    0.000   13.125    0.000    0.000    0.000    0.000 
#    0.000    0.000    0.000    0.000    0.000    0.000 
#
# Total GULP energy -396582.831382 kJ/mol
# GULP energy per Si atom -12393.213481 kJ/mol
# Density = 2.069792 g / cm^3
# Si number density = 20.745133 Si / 1000 Ang^3
#
#
#
# Elastic Constant Matrix: (Units=GPa)
#
#
# Indices 1 2 3 4 5 6 
#
# 1 30.8214 36.5936 28.6241 0.0000 20.5488 0.0000
# 2 36.5936 139.1376 40.5924 0.0000 29.9835 0.0000
# 3 28.6241 40.5924 93.0829 0.0000 37.8931 0.0000
# 4 0.0000 0.0000 0.0000 33.0044 0.0000 3.1773
# 5 20.5488 29.9835 37.8931 0.0000 29.5081 0.0000
# 6 0.0000 0.0000 0.0000 3.1773 0.0000 25.1870
#
#
#
# Elastic Compliance Matrix: (Units=1/GPa)
#
#
# Indices 1 2 3 4 5 6 
#
# 1 0.070645 -0.010156 -0.003079 0.000000 -0.034922 0.000000
# 2 -0.010156 0.010670 0.000010 0.000000 -0.003782 0.000000
# 3 -0.003079 0.000010 0.022666 0.000000 -0.026972 0.000000
# 4 0.000000 0.000000 0.000000 0.030672 0.000000 -0.003869
# 5 -0.034922 -0.003782 -0.026972 0.000000 0.096688 0.000000
# 6 0.000000 0.000000 0.000000 -0.003869 0.000000 0.040191
#
#
# Mechanical properties :
#
#
# Convention : Reuss Voigt Hill
#
# Bulk Modulus (GPa) = 12.89808 52.74023 32.81915
# Shear Modulus (GPa) = 15.44037 28.02201 21.73119
#
# Velocity S-wave (km/s) = 2.73113 3.67928 3.24007
# Velocity P-wave (km/s) = 4.02198 6.59754 5.46369
#
# Compressibility (1/GPa) = 0.07753093
#
# Stress axis : x y z
#
# Youngs Moduli (GPa) = 14.15523 93.71654 44.11934
#
# Poissons Ratio (x) = 0.95179 0.13583
# Poissons Ratio (y) = 0.14376 -0.00042
# Poissons Ratio (z) = 0.04358 -0.00089
#
# Static dielectric constant tensor:
#      x y z
#    x 3.585660 0.000000 0.421150 
#    y 0.000000 3.976890 0.000000 
#    z 0.421150 0.000000 3.913270 
# 
# 
# High freq. dielectric constant tensor:
#      x y z
#    x 1.773860 0.000000 0.023810 
#    y 0.000000 1.823930 0.000000 
#    z 0.023810 0.000000 1.813370 
# 
# From -- ./inp_files/288841.got.cif
#   From: 2010.06.25/outbox.cif.g09.slc.cpg/sg15_145_cif.got.tgz:288841.got - 2010.06.28 07:06:18.
