data_PCOD8141727
_publ_section_title
;
Structure prediction by ZEFSAII (Michael W. Deem and Ramdas Pophale) SiO2 
 PCOD8141727
Probable space group: C 2/C
;
_chemical_formula_sum "Si O2"
_cell_formula_units_Z 44
_cell_length_a 26.088197
_cell_length_b 12.704766
_cell_length_c 8.821625
_cell_angle_alpha 90.000000
_cell_angle_beta 50.304083
_cell_angle_gamma 90.000000
_cell_volume 2249.763938
_symmetry_space_group_name_H-M "C 2/C"
_symmetry_group_IT_number 15
_symmetry_cell_setting 'monoclinic'
loop_
_space_group_symop_operation_xyz
x,y,z
-x,y,1/2-z
-x,-y,-z
x,-y,1/2+z
1/2+x,1/2+y,z
1/2-x,1/2+y,1/2-z
1/2-x,1/2-y,-z
1/2+x,1/2-y,1/2+z
loop_
_atom_site_type_symbol
_atom_site_label
_atom_site_fract_x
_atom_site_fract_y
_atom_site_fract_z
Si Si1 0.000000 0.474370 0.750000
Si Si2 0.603801 0.442446 0.267517
Si Si3 0.804245 0.997847 0.654061
Si Si4 0.925866 0.623902 0.664065
Si Si5 0.476920 0.353883 0.625409
Si Si6 0.269502 0.870761 0.460194
O O1 0.050756 0.545066 0.749511
O O2 0.041836 0.400783 0.558938
O O3 0.653648 0.426536 0.314401
O O4 0.542030 0.361776 0.393530
O O5 0.578610 0.563378 0.322353
O O6 0.644703 0.422827 0.035876
O O7 0.764752 0.074068 0.617358
O O8 0.753648 0.923434 0.839301
O O9 0.945833 0.739750 0.677747
O O10 0.847556 0.613952 0.795731
O O11 0.500000 0.384128 0.750000
O O12 0.250000 0.750000 0.500000
#
# Coordination Sequence:
#
# PCOD8141727 Si02
#       6
#     4   8   8   8   8   8
#     4  10  24  40  62  84 116 162 208 262 284 340
#     4  10  21  37  62  94 125 148 197 243 319 366
#     4  10  21  41  61  90 123 162 198 250 295 368
#     4  11  22  41  61  87 120 160 209 246 301 347
#     4  11  21  36  64  94 124 154 189 259 310 364
#     4  11  24  40  64  87 124 165 203 247 300 362
#
# _framework density 19.557607000000001
#
# number of rings (size 3 to 8) (size 9 to 14) (size 15 to 20)
#    0.000    1.455    2.727    3.273    0.000    2.909 
#    0.000    3.636    0.000    0.000    0.000    0.000 
#    0.000    0.000    0.000    0.000    0.000    0.000 
#
# Total GULP energy -272873.014870 kJ/mol
# GULP energy per Si atom -12403.318858 kJ/mol
# Density = 1.951309 g / cm^3
# Si number density = 19.557607 Si / 1000 Ang^3
#
#
#
# Elastic Constant Matrix: (Units=GPa)
#
#
# Indices 1 2 3 4 5 6 
#
# 1 96.6674 23.7908 52.4371 0.0000 -6.3406 0.0000
# 2 23.7908 73.6102 29.2322 0.0000 -3.5482 0.0000
# 3 52.4371 29.2322 119.7253 0.0000 -5.2551 0.0000
# 4 0.0000 0.0000 0.0000 20.5185 0.0000 -0.2021
# 5 -6.3406 -3.5482 -5.2551 0.0000 39.0482 0.0000
# 6 0.0000 0.0000 0.0000 -0.2021 0.0000 25.4289
#
#
#
# Elastic Compliance Matrix: (Units=1/GPa)
#
#
# Indices 1 2 3 4 5 6 
#
# 1 0.013979 -0.002266 -0.005511 0.000000 0.001322 0.000000
# 2 -0.002266 0.015441 -0.002749 0.000000 0.000665 0.000000
# 3 -0.005511 -0.002749 0.011455 0.000000 0.000397 0.000000
# 4 0.000000 0.000000 0.000000 0.048740 0.000000 0.000387
# 5 0.001322 0.000665 0.000397 0.000000 0.025938 0.000000
# 6 0.000000 0.000000 0.000000 0.000387 0.000000 0.039328
#
#
# Mechanical properties :
#
#
# Convention : Reuss Voigt Hill
#
# Bulk Modulus (GPa) = 50.44478 55.65814 53.05146
# Shear Modulus (GPa) = 27.39137 29.30197 28.34667
#
# Velocity S-wave (km/s) = 3.74645 3.87491 3.81122
# Velocity P-wave (km/s) = 6.67558 6.96708 6.82289
#
# Compressibility (1/GPa) = 0.01982366
#
# Stress axis : x y z
#
# Youngs Moduli (GPa) = 71.53821 64.76308 87.30017
#
# Poissons Ratio (x) = 0.14672 0.48112
# Poissons Ratio (y) = 0.16207 0.23995
# Poissons Ratio (z) = 0.39426 0.17801
#
# Static dielectric constant tensor:
#      x y z
#    x 3.722890 0.000000 -0.031650 
#    y 0.000000 3.333060 0.000000 
#    z -0.031650 0.000000 3.759490 
# 
# 
# High freq. dielectric constant tensor:
#      x y z
#    x 1.779440 0.000000 -0.002140 
#    y 0.000000 1.742510 0.000000 
#    z -0.002140 0.000000 1.780790 
# 
# From -- ./inp_files/54414.got.cif
#   From: 2010.06.25/outbox.cif.g09.slc.cpg/sg15_28_cif.got.tgz:54414.got - 2010.06.28 07:06:18.
