data_PCOD8141565
_publ_section_title
;
Structure prediction by ZEFSAII (Michael W. Deem and Ramdas Pophale) SiO2 
 PCOD8141565
Probable space group: C 2/C
;
_chemical_formula_sum "Si O2"
_cell_formula_units_Z 48
_cell_length_a 16.780444
_cell_length_b 17.157647
_cell_length_c 8.079635
_cell_angle_alpha 90.000000
_cell_angle_beta 87.277941
_cell_angle_gamma 90.000000
_cell_volume 2323.606655
_symmetry_space_group_name_H-M "C 2/C"
_symmetry_group_IT_number 15
_symmetry_cell_setting 'monoclinic'
loop_
_space_group_symop_operation_xyz
x,y,z
-x,y,1/2-z
-x,-y,-z
x,-y,1/2+z
1/2+x,1/2+y,z
1/2-x,1/2+y,1/2-z
1/2-x,1/2-y,-z
1/2+x,1/2-y,1/2+z
loop_
_atom_site_type_symbol
_atom_site_label
_atom_site_fract_x
_atom_site_fract_y
_atom_site_fract_z
Si Si1 0.605501 0.398268 0.591430
Si Si2 0.940702 0.462779 0.878696
Si Si3 0.834883 0.046413 0.755967
Si Si4 0.344128 0.914429 0.175233
Si Si5 0.045078 0.848484 0.078303
Si Si6 0.588885 0.753950 0.288008
O O1 0.626469 0.459830 0.734841
O O2 0.660594 0.419334 0.429323
O O3 0.513083 0.397352 0.540435
O O4 0.623313 0.312650 0.662531
O O5 0.897072 0.531391 0.784985
O O6 0.000000 0.413732 0.750000
O O7 0.876199 0.411166 0.982167
O O8 0.000000 0.500000 0.000000
O O9 0.743651 0.049852 0.819818
O O10 0.882568 0.096352 0.883819
O O11 0.349322 0.825308 0.237321
O O12 0.000000 0.820543 0.250000
O O13 0.082892 0.775470 0.978344
O O14 0.500000 0.782216 0.250000
#
# Coordination Sequence:
#
# PCOD8141565 Si02
#       6
#     8   8   8   8   8   8
#     4  10  21  37  59  82 115 158 197 232 280 348
#     4   9  19  37  58  80 108 152 198 232 277 344
#     4  11  21  36  57  86 119 151 193 240 288 344
#     4  11  22  37  60  87 118 150 190 245 296 341
#     4   9  20  37  58  85 115 155 197 234 281 342
#     4  10  21  38  58  83 114 152 196 242 290 341
#
# _framework density 20.657541999999999
#
# number of rings (size 3 to 8) (size 9 to 14) (size 15 to 20)
#    0.000    2.000    0.000    4.000    0.000    6.667 
#    0.000    5.000    0.000    0.000    0.000    0.000 
#    0.000    0.000    0.000    0.000    0.000    0.000 
#
# Total GULP energy -297428.189256 kJ/mol
# GULP energy per Si atom -12392.841219 kJ/mol
# Density = 2.061052 g / cm^3
# Si number density = 20.657542 Si / 1000 Ang^3
#
#
#
# Elastic Constant Matrix: (Units=GPa)
#
#
# Indices 1 2 3 4 5 6 
#
# 1 94.6090 32.5432 38.2999 0.0000 -1.7159 0.0000
# 2 32.5432 102.4506 41.2577 0.0000 9.3456 0.0000
# 3 38.2999 41.2577 109.5888 0.0000 -5.6855 0.0000
# 4 0.0000 0.0000 0.0000 25.1222 0.0000 -1.7179
# 5 -1.7159 9.3456 -5.6855 0.0000 25.2303 0.0000
# 6 0.0000 0.0000 0.0000 -1.7179 0.0000 20.0382
#
#
#
# Elastic Compliance Matrix: (Units=1/GPa)
#
#
# Indices 1 2 3 4 5 6 
#
# 1 0.012945 -0.002854 -0.003388 0.000000 0.001174 0.000000
# 2 -0.002854 0.012880 -0.004158 0.000000 -0.005902 0.000000
# 3 -0.003388 -0.004158 0.012084 0.000000 0.004033 0.000000
# 4 0.000000 0.000000 0.000000 0.040040 0.000000 0.003433
# 5 0.001174 -0.005902 0.004033 0.000000 0.042810 0.000000
# 6 0.000000 0.000000 0.000000 0.003433 0.000000 0.050199
#
#
# Mechanical properties :
#
#
# Convention : Reuss Voigt Hill
#
# Bulk Modulus (GPa) = 58.45401 58.98333 58.71867
# Shear Modulus (GPa) = 25.32143 27.04797 26.18470
#
# Velocity S-wave (km/s) = 3.50490 3.62242 3.56415
# Velocity P-wave (km/s) = 6.68859 6.79050 6.73973
#
# Compressibility (1/GPa) = 0.01710747
#
# Stress axis : x y z
#
# Youngs Moduli (GPa) = 77.25176 77.63837 82.75575
#
# Poissons Ratio (x) = 0.22161 0.28042
# Poissons Ratio (y) = 0.22051 0.34408
# Poissons Ratio (z) = 0.26177 0.32280
#
# Static dielectric constant tensor:
#      x y z
#    x 3.567960 0.000000 -0.076780 
#    y 0.000000 3.483190 0.000000 
#    z -0.076780 0.000000 4.361330 
# 
# 
# High freq. dielectric constant tensor:
#      x y z
#    x 1.799540 0.000000 -0.001310 
#    y 0.000000 1.785120 0.000000 
#    z -0.001310 0.000000 1.827790 
# 
# From -- ./inp_files/47450.got.cif
#   From: 2010.06.25/outbox.cif.g09.slc.cpg/sg15_24_cif.got.tgz:47450.got - 2010.06.28 07:06:18.
