data_PCOD8141141
_publ_section_title
;
Structure prediction by ZEFSAII (Michael W. Deem and Ramdas Pophale) SiO2 
 PCOD8141141
Probable space group: C 2/C
;
_chemical_formula_sum "Si O2"
_cell_formula_units_Z 48
_cell_length_a 23.980785
_cell_length_b 9.315394
_cell_length_c 11.064335
_cell_angle_alpha 90.000000
_cell_angle_beta 120.529394
_cell_angle_gamma 90.000000
_cell_volume 2129.016421
_symmetry_space_group_name_H-M "C 2/C"
_symmetry_group_IT_number 15
_symmetry_cell_setting 'monoclinic'
loop_
_space_group_symop_operation_xyz
x,y,z
-x,y,1/2-z
-x,-y,-z
x,-y,1/2+z
1/2+x,1/2+y,z
1/2-x,1/2+y,1/2-z
1/2-x,1/2-y,-z
1/2+x,1/2-y,1/2+z
loop_
_atom_site_type_symbol
_atom_site_label
_atom_site_fract_x
_atom_site_fract_y
_atom_site_fract_z
Si Si1 0.116261 0.797794 0.868675
Si Si2 0.132064 0.248132 0.658738
Si Si3 0.536401 0.531012 0.668135
Si Si4 0.218370 0.295514 0.122336
Si Si5 0.150682 0.439483 0.240311
Si Si6 0.227464 0.016172 0.003682
O O1 0.120145 0.635577 0.823802
O O2 0.058667 0.874092 0.735043
O O3 0.180553 0.889902 0.911094
O O4 0.103432 0.791360 0.996669
O O5 0.096882 0.139434 0.712603
O O6 0.209879 0.233715 0.743475
O O7 0.112966 0.413001 0.670283
O O8 0.500000 0.592485 0.750000
O O9 0.500000 0.500000 0.500000
O O10 0.155979 0.321352 0.139302
O O11 0.224600 0.442999 0.053257
O O12 0.193241 0.164112 0.010421
O O13 0.227689 0.464107 0.338371
#
# Coordination Sequence:
#
# PCOD8141141 Si02
#       6
#     8   8   8   8   8   8
#     4  12  24  43  71  99 140 183 235 283 355 417
#     4  11  24  44  66 102 138 183 230 283 350 421
#     4  12  27  50  77  99 128 180 248 310 353 410
#     4  10  21  35  60 100 145 179 217 262 337 420
#     4  11  24  37  65 102 145 180 214 272 343 429
#     4  10  21  35  59  99 142 181 218 263 329 429
#
# _framework density 22.54562
#
# number of rings (size 3 to 8) (size 9 to 14) (size 15 to 20)
#    0.000    1.000    5.000    1.500    7.000    0.000 
#    3.000    1.667    0.000    0.000    0.000    0.000 
#    0.000    0.000    0.000    0.000    0.000    0.000 
#
# Total GULP energy -297317.310199 kJ/mol
# GULP energy per Si atom -12388.221258 kJ/mol
# Density = 2.249431 g / cm^3
# Si number density = 22.545620 Si / 1000 Ang^3
#
#
#
# Elastic Constant Matrix: (Units=GPa)
#
#
# Indices 1 2 3 4 5 6 
#
# 1 67.1035 34.3442 19.5206 0.0000 -21.9783 0.0000
# 2 34.3442 131.0103 39.2133 0.0000 -7.8859 0.0000
# 3 19.5206 39.2133 108.8890 0.0000 -12.0124 0.0000
# 4 0.0000 0.0000 0.0000 37.7533 0.0000 -10.1416
# 5 -21.9783 -7.8859 -12.0124 0.0000 35.5891 0.0000
# 6 0.0000 0.0000 0.0000 -10.1416 0.0000 24.1009
#
#
#
# Elastic Compliance Matrix: (Units=1/GPa)
#
#
# Indices 1 2 3 4 5 6 
#
# 1 0.021432 -0.004645 -0.000855 0.000000 0.011918 0.000000
# 2 -0.004645 0.009589 -0.002807 0.000000 -0.001691 0.000000
# 3 -0.000855 -0.002807 0.010616 0.000000 0.002434 0.000000
# 4 0.000000 0.000000 0.000000 0.029864 0.000000 0.012567
# 5 0.011918 -0.001691 0.002434 0.000000 0.035905 0.000000
# 6 0.000000 0.000000 0.000000 0.012567 0.000000 0.046780
#
#
# Mechanical properties :
#
#
# Convention : Reuss Voigt Hill
#
# Bulk Modulus (GPa) = 39.96246 54.79542 47.37894
# Shear Modulus (GPa) = 27.91105 33.75030 30.83068
#
# Velocity S-wave (km/s) = 3.52231 3.87328 3.70196
# Velocity P-wave (km/s) = 5.85712 6.66033 6.27160
#
# Compressibility (1/GPa) = 0.02502348
#
# Stress axis : x y z
#
# Youngs Moduli (GPa) = 46.65980 104.28497 94.19547
#
# Poissons Ratio (x) = 0.48442 0.08049
# Poissons Ratio (y) = 0.21674 0.26442
# Poissons Ratio (z) = 0.03987 0.29274
#
# Static dielectric constant tensor:
#      x y z
#    x 3.744090 0.000000 -0.252480 
#    y 0.000000 4.173900 0.000000 
#    z -0.252480 0.000000 4.134920 
# 
# 
# High freq. dielectric constant tensor:
#      x y z
#    x 1.851800 0.000000 -0.028370 
#    y 0.000000 1.898320 0.000000 
#    z -0.028370 0.000000 1.895500 
# 
# From -- ./inp_files/121622.got.cif
#   From: 2010.06.25/outbox.cif.g09.slc.cpg/sg15_61_cif.got.tgz:121622.got - 2010.06.28 07:06:18.
