data_PCOD8141166
_publ_section_title
;
Structure prediction by ZEFSAII (Michael W. Deem and Ramdas Pophale) SiO2 
 PCOD8141166
Probable space group: C 2/C
;
_chemical_formula_sum "Si O2"
_cell_formula_units_Z 64
_cell_length_a 21.187830
_cell_length_b 9.240649
_cell_length_c 19.606654
_cell_angle_alpha 90.000000
_cell_angle_beta 61.161077
_cell_angle_gamma 90.000000
_cell_volume 3362.685380
_symmetry_space_group_name_H-M "C 2/C"
_symmetry_group_IT_number 15
_symmetry_cell_setting 'monoclinic'
loop_
_space_group_symop_operation_xyz
x,y,z
-x,y,1/2-z
-x,-y,-z
x,-y,1/2+z
1/2+x,1/2+y,z
1/2-x,1/2+y,1/2-z
1/2-x,1/2-y,-z
1/2+x,1/2-y,1/2+z
loop_
_atom_site_type_symbol
_atom_site_label
_atom_site_fract_x
_atom_site_fract_y
_atom_site_fract_z
Si Si1 0.923748 0.114546 0.759395
Si Si2 0.813803 0.892972 0.773372
Si Si3 0.327793 0.401633 0.434400
Si Si4 0.684079 0.102757 0.815169
Si Si5 0.680298 0.707958 0.079103
Si Si6 0.921853 0.570424 0.221918
Si Si7 0.332921 0.144475 0.522577
Si Si8 0.418901 0.023371 0.869872
O O1 0.871607 0.165027 0.848284
O O2 0.933628 0.256365 0.705798
O O3 0.000000 0.065530 0.750000
O O4 0.891369 0.975289 0.736141
O O5 0.811272 0.760759 0.721678
O O6 0.794611 0.823437 0.856393
O O7 0.760649 0.023232 0.779949
O O8 0.354366 0.563803 0.435780
O O9 0.336945 0.312412 0.498802
O O10 0.244652 0.417511 0.456191
O O11 0.650209 0.130171 0.906867
O O12 0.634128 0.989403 0.802680
O O13 0.614166 0.817442 0.109841
O O14 0.750000 0.750000 0.000000
O O15 0.890948 0.547773 0.314228
O O16 0.994653 0.478035 0.174278
O O17 0.393696 0.061178 0.449490
#
# Coordination Sequence:
#
# PCOD8141166 Si02
#       8
#     8   8   8   8   8   8   8   8
#     4  11  20  41  65  90 121 160 222 262 318 374
#     4  11  25  38  58  92 128 170 205 265 320 388
#     4  10  21  35  61  90 116 166 213 261 305 368
#     4  12  24  40  59  94 138 166 211 259 338 381
#     4  11  20  38  61  91 121 155 214 269 304 360
#     4  11  23  39  68  94 125 173 205 277 318 387
#     4  11  21  38  62  90 126 168 215 256 317 387
#     4  11  21  41  65  94 122 166 225 258 320 377
#
# _framework density 19.032406999999999
#
# number of rings (size 3 to 8) (size 9 to 14) (size 15 to 20)
#    0.000    1.000    7.500    0.750    0.000    3.500 
#    0.000    1.250    0.000    3.750    0.000    0.000 
#    0.000    0.000    0.000    0.000    0.000    0.000 
#
# Total GULP energy -396669.294007 kJ/mol
# GULP energy per Si atom -12395.915438 kJ/mol
# Density = 1.898909 g / cm^3
# Si number density = 19.032407 Si / 1000 Ang^3
#
#
#
# Elastic Constant Matrix: (Units=GPa)
#
#
# Indices 1 2 3 4 5 6 
#
# 1 93.7326 56.9970 34.4737 0.0000 3.2780 0.0000
# 2 56.9970 148.1167 57.5545 -0.0001 6.1305 -0.0003
# 3 34.4737 57.5545 95.5462 0.0000 7.6807 -0.0001
# 4 0.0000 -0.0001 0.0000 32.3984 0.0000 -6.9358
# 5 3.2780 6.1305 7.6807 0.0000 33.9313 0.0000
# 6 0.0000 -0.0003 -0.0001 -6.9358 0.0000 5.6545
#
#
#
# Elastic Compliance Matrix: (Units=1/GPa)
#
#
# Indices 1 2 3 4 5 6 
#
# 1 0.014342 -0.004580 -0.002415 0.000000 -0.000011 0.000000
# 2 -0.004580 0.010283 -0.004510 0.000000 -0.000395 0.000001
# 3 -0.002415 -0.004510 0.014229 0.000000 -0.002173 0.000000
# 4 0.000000 0.000000 0.000000 0.041857 0.000000 0.051341
# 5 -0.000011 -0.000395 -0.002173 0.000000 0.030035 0.000000
# 6 0.000000 0.000001 0.000000 0.051341 0.000000 0.239824
#
#
# Mechanical properties :
#
#
# Convention : Reuss Voigt Hill
#
# Bulk Modulus (GPa) = 63.11549 70.60511 66.86030
# Shear Modulus (GPa) = 13.19744 26.95486 20.07615
#
# Velocity S-wave (km/s) = 2.63614 3.76741 3.25135
# Velocity P-wave (km/s) = 6.51918 7.49015 7.02147
#
# Compressibility (1/GPa) = 0.01584397
#
# Stress axis : x y z
#
# Youngs Moduli (GPa) = 69.72340 97.25108 70.28084
#
# Poissons Ratio (x) = 0.44544 0.16972
# Poissons Ratio (y) = 0.31935 0.31695
# Poissons Ratio (z) = 0.16837 0.43857
#
# Static dielectric constant tensor:
#      x y z
#    x 3.342710 0.000000 0.001830 
#    y 0.000000 3.737850 0.000000 
#    z 0.001830 0.000000 3.851240 
# 
# 
# High freq. dielectric constant tensor:
#      x y z
#    x 1.721400 0.000000 -0.007920 
#    y 0.000000 1.758690 0.000000 
#    z -0.007920 0.000000 1.736770 
# 
# From -- ./inp_files/251873.got.cif
#   From: 2010.06.25/outbox.cif.g09.slc.cpg/sg15_126_cif.got.tgz:251873.got - 2010.06.28 07:06:18.
