data_PCOD8141969
_publ_section_title
;
Structure prediction by ZEFSAII (Michael W. Deem and Ramdas Pophale) SiO2 
 PCOD8141969
Probable space group: C 2/C
;
_chemical_formula_sum "Si O2"
_cell_formula_units_Z 56
_cell_length_a 13.733329
_cell_length_b 18.105038
_cell_length_c 17.355940
_cell_angle_alpha 90.000000
_cell_angle_beta 137.587030
_cell_angle_gamma 90.000000
_cell_volume 2910.621561
_symmetry_space_group_name_H-M "C 2/C"
_symmetry_group_IT_number 15
_symmetry_cell_setting 'monoclinic'
loop_
_space_group_symop_operation_xyz
x,y,z
-x,y,1/2-z
-x,-y,-z
x,-y,1/2+z
1/2+x,1/2+y,z
1/2-x,1/2+y,1/2-z
1/2-x,1/2-y,-z
1/2+x,1/2-y,1/2+z
loop_
_atom_site_type_symbol
_atom_site_label
_atom_site_fract_x
_atom_site_fract_y
_atom_site_fract_z
Si Si1 0.010036 0.886871 0.420532
Si Si2 0.220370 0.679570 0.701541
Si Si3 0.469625 0.100999 0.321365
Si Si4 0.079811 0.975618 0.714962
Si Si5 0.755150 0.173607 0.546374
Si Si6 0.108927 0.472625 0.126415
Si Si7 0.662001 0.658562 0.167518
O O1 0.104975 0.868290 0.401610
O O2 0.095112 0.866858 0.547405
O O3 0.859431 0.841264 0.334989
O O4 0.988386 0.975005 0.394501
O O5 0.278598 0.689002 0.649346
O O6 0.100246 0.614780 0.638926
O O7 0.138369 0.755539 0.676519
O O8 0.500000 0.107421 0.250000
O O9 0.608831 0.126735 0.450225
O O10 0.334991 0.151857 0.265723
O O11 0.425026 0.016707 0.314835
O O12 0.089915 0.891178 0.691846
O O13 0.000000 0.977489 0.750000
O O14 0.236197 0.010357 0.820393
O O15 0.750000 0.250000 0.500000
O O16 0.000000 0.500000 0.000000
#
# Coordination Sequence:
#
# PCOD8141969 Si02
#       7
#     8   8   8   8   8   8   8
#     4  11  21  37  60  87 120 153 195 244 298 362
#     4  11  22  37  57  87 118 158 198 239 298 353
#     4  11  21  36  57  87 119 151 190 237 306 354
#     4  10  23  40  61  86 117 161 208 241 288 355
#     4  12  20  33  58  88 122 150 184 241 307 364
#     4  10  21  38  60  84 114 158 197 240 289 355
#     4  11  23  38  60  87 123 155 194 252 296 351
#
# _framework density 19.239877
#
# number of rings (size 3 to 8) (size 9 to 14) (size 15 to 20)
#    0.000    1.143    4.286    3.429    0.000    0.000 
#    0.000    0.714    0.000    1.714    0.000    0.000 
#    0.000    0.000    0.000    0.000    0.000    0.000 
#
# Total GULP energy -347128.553172 kJ/mol
# GULP energy per Si atom -12397.448328 kJ/mol
# Density = 1.919609 g / cm^3
# Si number density = 19.239877 Si / 1000 Ang^3
#
#
#
# Elastic Constant Matrix: (Units=GPa)
#
#
# Indices 1 2 3 4 5 6 
#
# 1 47.0621 33.1779 -4.4120 0.0001 5.5942 0.0000
# 2 33.1779 168.7082 23.9657 0.0000 10.3383 0.0000
# 3 -4.4120 23.9657 52.1979 0.0002 13.8495 0.0002
# 4 0.0001 0.0000 0.0002 22.9789 0.0001 2.1556
# 5 5.5942 10.3383 13.8495 0.0001 25.9076 0.0001
# 6 0.0000 0.0000 0.0002 2.1556 0.0001 14.2458
#
#
#
# Elastic Compliance Matrix: (Units=1/GPa)
#
#
# Indices 1 2 3 4 5 6 
#
# 1 0.026831 -0.005810 0.006825 0.000000 -0.007124 0.000000
# 2 -0.005810 0.007628 -0.004100 0.000000 0.000402 0.000000
# 3 0.006825 -0.004100 0.025140 0.000000 -0.013277 0.000000
# 4 0.000000 0.000000 0.000000 0.044145 0.000000 -0.006680
# 5 -0.007124 0.000402 -0.013277 0.000000 0.047074 0.000000
# 6 0.000000 0.000000 0.000000 -0.006680 0.000000 0.071207
#
#
# Mechanical properties :
#
#
# Convention : Reuss Voigt Hill
#
# Bulk Modulus (GPa) = 18.71600 41.49236 30.10418
# Shear Modulus (GPa) = 20.32502 26.97557 23.65030
#
# Velocity S-wave (km/s) = 3.25376 3.74848 3.50985
# Velocity P-wave (km/s) = 4.88516 6.35196 5.66622
#
# Compressibility (1/GPa) = 0.05343021
#
# Stress axis : x y z
#
# Youngs Moduli (GPa) = 37.27062 131.10229 39.77743
#
# Poissons Ratio (x) = 0.76164 -0.27150
# Poissons Ratio (y) = 0.21652 0.16308
# Poissons Ratio (z) = -0.25439 0.53750
#
# Static dielectric constant tensor:
#      x y z
#    x 3.361710 0.000000 0.005970 
#    y 0.000000 4.211100 0.000000 
#    z 0.005970 0.000000 3.742030 
# 
# 
# High freq. dielectric constant tensor:
#      x y z
#    x 1.719240 0.000000 0.007480 
#    y 0.000000 1.761200 0.000000 
#    z 0.007480 0.000000 1.758560 
# 
# From -- ./inp_files/206271.got.cif
#   From: 2010.06.25/outbox.cif.g09.slc.cpg/sg15_104_cif.got.tgz:206271.got - 2010.06.28 07:06:18.
