data_PCOD8141529
_publ_section_title
;
Structure prediction by ZEFSAII (Michael W. Deem and Ramdas Pophale) SiO2 
 PCOD8141529
Probable space group: C 2/C
;
_chemical_formula_sum "Si O2"
_cell_formula_units_Z 48
_cell_length_a 17.184369
_cell_length_b 18.821497
_cell_length_c 14.670586
_cell_angle_alpha 90.000000
_cell_angle_beta 31.382667
_cell_angle_gamma 90.000000
_cell_volume 2470.959658
_symmetry_space_group_name_H-M "C 2/C"
_symmetry_group_IT_number 15
_symmetry_cell_setting 'monoclinic'
loop_
_space_group_symop_operation_xyz
x,y,z
-x,y,1/2-z
-x,-y,-z
x,-y,1/2+z
1/2+x,1/2+y,z
1/2-x,1/2+y,1/2-z
1/2-x,1/2-y,-z
1/2+x,1/2-y,1/2+z
loop_
_atom_site_type_symbol
_atom_site_label
_atom_site_fract_x
_atom_site_fract_y
_atom_site_fract_z
Si Si1 0.174153 0.908200 0.970130
Si Si2 0.174163 0.908201 0.181548
Si Si3 0.323881 0.823506 0.667937
Si Si4 0.327311 0.053180 0.027249
Si Si5 0.323897 0.823509 0.184280
Si Si6 0.172686 0.553177 0.681879
O O1 0.260560 0.847542 0.828763
O O2 0.231583 0.985604 0.882379
O O3 0.209795 0.894982 0.040202
O O4 0.999993 0.903100 0.122529
O O5 0.260592 0.847547 0.150075
O O6 0.231581 0.985608 0.154450
O O7 0.278162 0.880324 0.636961
O O8 0.499992 0.813534 0.499503
O O9 0.249996 0.749997 0.711786
O O10 0.499997 0.033465 0.870152
O O11 0.294656 0.073379 0.955340
O O12 0.278170 0.880329 0.306696
#
# Coordination Sequence:
#
# PCOD8141529 Si02
#       6
#     8   8   8   8   8   8
#     4  10  21  37  58  83 109 140 180 225 271 319
#     4  10  21  37  58  83 109 140 180 225 271 319
#     4  11  23  37  55  80 111 147 182 220 269 321
#     4   9  19  37  59  82 109 142 180 221 267 320
#     4  11  23  37  55  80 111 147 182 220 269 321
#     4   9  19  37  59  82 109 142 180 221 267 320
#
# _framework density 19.425650999999998
#
# number of rings (size 3 to 8) (size 9 to 14) (size 15 to 20)
#    0.000    2.000    0.000    3.000    0.000   10.000 
#    0.000    0.000    0.000    0.000    0.000    0.000 
#    0.000    0.000    0.000    0.000    0.000    0.000 
#
# Total GULP energy -297754.509658 kJ/mol
# GULP energy per Si atom -12406.437902 kJ/mol
# Density = 1.938144 g / cm^3
# Si number density = 19.425651 Si / 1000 Ang^3
#
#
#
# Elastic Constant Matrix: (Units=GPa)
#
#
# Indices 1 2 3 4 5 6 
#
# 1 67.2738 25.0380 18.7294 0.0124 -4.1386 -0.0070
# 2 25.0380 75.7057 24.7214 0.0215 0.3267 -0.0130
# 3 18.7294 24.7214 70.4888 0.0101 0.9034 -0.0056
# 4 0.0124 0.0215 0.0101 36.3482 -0.0025 -7.3978
# 5 -4.1386 0.3267 0.9034 -0.0025 21.2107 0.0019
# 6 -0.0070 -0.0130 -0.0056 -7.3978 0.0019 29.0365
#
#
#
# Elastic Compliance Matrix: (Units=1/GPa)
#
#
# Indices 1 2 3 4 5 6 
#
# 1 0.017761 -0.004894 -0.003050 -0.000002 0.003671 0.000001
# 2 -0.004894 0.016266 -0.004391 -0.000006 -0.001018 0.000004
# 3 -0.003050 -0.004391 0.016553 -0.000001 -0.001232 0.000000
# 4 -0.000002 -0.000006 -0.000001 0.029016 0.000003 0.007393
# 5 0.003671 -0.001018 -0.001232 0.000003 0.047930 -0.000002
# 6 0.000001 0.000004 0.000000 0.007393 -0.000002 0.036323
#
#
# Mechanical properties :
#
#
# Convention : Reuss Voigt Hill
#
# Bulk Modulus (GPa) = 38.59575 38.93844 38.76709
# Shear Modulus (GPa) = 25.36060 26.98440 26.17250
#
# Velocity S-wave (km/s) = 3.61712 3.73112 3.67456
# Velocity P-wave (km/s) = 6.11198 6.21692 6.16467
#
# Compressibility (1/GPa) = 0.02590959
#
# Stress axis : x y z
#
# Youngs Moduli (GPa) = 56.30320 61.47805 60.41227
#
# Poissons Ratio (x) = 0.30087 0.18425
# Poissons Ratio (y) = 0.27555 0.26529
# Poissons Ratio (z) = 0.17172 0.26997
#
# Static dielectric constant tensor:
#      x y z
#    x 3.621430 -0.000010 0.031460 
#    y -0.000010 3.511660 0.000020 
#    z 0.031460 0.000020 3.590320 
# 
# 
# High freq. dielectric constant tensor:
#      x y z
#    x 1.763790 0.000000 0.000870 
#    y 0.000000 1.753300 0.000000 
#    z 0.000870 0.000000 1.762930 
# 
# From -- ./inp_files/48706.got.cif
#   From: 2010.06.25/outbox.cif.g09.slc.cpg/sg15_25_cif.got.tgz:48706.got - 2010.06.28 07:06:18.
