data_PCOD8141832
_publ_section_title
;
Structure prediction by ZEFSAII (Michael W. Deem and Ramdas Pophale) SiO2 
 PCOD8141832
Probable space group: C 2/C
;
_chemical_formula_sum "Si O2"
_cell_formula_units_Z 40
_cell_length_a 18.653861
_cell_length_b 9.636213
_cell_length_c 16.284900
_cell_angle_alpha 90.000000
_cell_angle_beta 135.767602
_cell_angle_gamma 90.000000
_cell_volume 2041.964787
_symmetry_space_group_name_H-M "C 2/C"
_symmetry_group_IT_number 15
_symmetry_cell_setting 'monoclinic'
loop_
_space_group_symop_operation_xyz
x,y,z
-x,y,1/2-z
-x,-y,-z
x,-y,1/2+z
1/2+x,1/2+y,z
1/2-x,1/2+y,1/2-z
1/2-x,1/2-y,-z
1/2+x,1/2-y,1/2+z
loop_
_atom_site_type_symbol
_atom_site_label
_atom_site_fract_x
_atom_site_fract_y
_atom_site_fract_z
Si Si1 0.128431 0.097603 0.549120
Si Si2 0.368659 0.784200 0.092480
Si Si3 0.133548 0.345532 0.230934
Si Si4 0.942859 0.198155 0.490321
Si Si5 0.525280 0.943608 0.862087
O O1 0.083477 0.171662 0.430369
O O2 0.245376 0.135133 0.663388
O O3 0.060336 0.151425 0.569942
O O4 0.120114 0.933487 0.528510
O O5 0.413877 0.779111 0.222933
O O6 0.386261 0.938289 0.069522
O O7 0.250000 0.750000 0.000000
O O8 0.111574 0.246406 0.137482
O O9 0.075344 0.493262 0.174330
O O10 0.934334 0.315610 0.551984
O O11 0.500000 0.888943 0.750000
#
# Coordination Sequence:
#
# PCOD8141832 Si02
#       5
#     8   8   8   8   8
#     4  10  23  39  58  95 119 151 201 248 301 345
#     4   9  19  39  61  85 119 159 199 233 294 364
#     4  10  21  37  67  82 120 162 197 233 299 366
#     4  11  23  39  61  91 123 150 200 257 291 351
#     4  10  21  40  61  85 117 166 197 241 300 358
#
# _framework density 19.588975999999999
#
# number of rings (size 3 to 8) (size 9 to 14) (size 15 to 20)
#    0.000    2.000    2.000    0.600    2.800    1.600 
#    7.200    9.000    0.000    0.000    0.000    0.000 
#    0.000    0.000    0.000    0.000    0.000    0.000 
#
# Total GULP energy -247949.386536 kJ/mol
# GULP energy per Si atom -12397.469327 kJ/mol
# Density = 1.954439 g / cm^3
# Si number density = 19.588976 Si / 1000 Ang^3
#
#
#
# Elastic Constant Matrix: (Units=GPa)
#
#
# Indices 1 2 3 4 5 6 
#
# 1 85.7061 60.5381 41.7963 0.0000 -6.7794 0.0000
# 2 60.5381 158.9575 72.0975 0.0000 -26.9905 0.0000
# 3 41.7963 72.0975 89.5471 0.0000 -10.9545 0.0000
# 4 0.0000 0.0000 0.0000 21.4495 0.0000 -4.8487
# 5 -6.7794 -26.9905 -10.9545 0.0000 35.9180 0.0000
# 6 0.0000 0.0000 0.0000 -4.8487 0.0000 26.3595
#
#
#
# Elastic Compliance Matrix: (Units=1/GPa)
#
#
# Indices 1 2 3 4 5 6 
#
# 1 0.017032 -0.004849 -0.004257 0.000000 -0.001727 0.000000
# 2 -0.004849 0.012326 -0.006897 0.000000 0.006244 0.000000
# 3 -0.004257 -0.006897 0.018672 0.000000 -0.000292 0.000000
# 4 0.000000 0.000000 0.000000 0.048644 0.000000 0.008948
# 5 -0.001727 0.006244 -0.000292 0.000000 0.032118 0.000000
# 6 0.000000 0.000000 0.000000 0.008948 0.000000 0.039583
#
#
# Mechanical properties :
#
#
# Convention : Reuss Voigt Hill
#
# Bulk Modulus (GPa) = 62.40734 75.89715 69.15225
# Shear Modulus (GPa) = 24.30458 27.39732 25.85095
#
# Velocity S-wave (km/s) = 3.52622 3.74386 3.63666
# Velocity P-wave (km/s) = 6.96466 7.58403 7.28094
#
# Compressibility (1/GPa) = 0.01602376
#
# Stress axis : x y z
#
# Youngs Moduli (GPa) = 58.71188 81.12793 53.55710
#
# Poissons Ratio (x) = 0.39340 0.22799
# Poissons Ratio (y) = 0.28470 0.36939
# Poissons Ratio (z) = 0.24993 0.55955
#
# Static dielectric constant tensor:
#      x y z
#    x 3.895900 0.000000 -0.091760 
#    y 0.000000 3.535730 0.000000 
#    z -0.091760 0.000000 3.677930 
# 
# 
# High freq. dielectric constant tensor:
#      x y z
#    x 1.776740 0.000000 0.003320 
#    y 0.000000 1.752110 0.000000 
#    z 0.003320 0.000000 1.762530 
# 
# From -- ./inp_files/159511.got.cif
#   From: 2010.06.25/outbox.cif.g09.slc.cpg/sg15_80_cif.got.tgz:159511.got - 2010.06.28 07:06:18.
