data_PCOD8141186
_publ_section_title
;
Structure prediction by ZEFSAII (Michael W. Deem and Ramdas Pophale) SiO2 
 PCOD8141186
Probable space group: C 2/C
;
_chemical_formula_sum "Si O2"
_cell_formula_units_Z 64
_cell_length_a 28.717250
_cell_length_b 9.759408
_cell_length_c 11.853595
_cell_angle_alpha 90.000000
_cell_angle_beta 86.495059
_cell_angle_gamma 90.000000
_cell_volume 3315.914414
_symmetry_space_group_name_H-M "C 2/C"
_symmetry_group_IT_number 15
_symmetry_cell_setting 'monoclinic'
loop_
_space_group_symop_operation_xyz
x,y,z
-x,y,1/2-z
-x,-y,-z
x,-y,1/2+z
1/2+x,1/2+y,z
1/2-x,1/2+y,1/2-z
1/2-x,1/2-y,-z
1/2+x,1/2-y,1/2+z
loop_
_atom_site_type_symbol
_atom_site_label
_atom_site_fract_x
_atom_site_fract_y
_atom_site_fract_z
Si Si1 0.244470 0.644195 0.396133
Si Si2 0.996339 0.135475 0.072176
Si Si3 0.988895 0.379310 0.921182
Si Si4 0.930960 0.541483 0.240581
Si Si5 0.568490 0.726975 0.235387
Si Si6 0.326141 0.078457 0.277456
Si Si7 0.790589 0.648654 0.519167
Si Si8 0.175174 0.268815 0.250490
O O1 0.250000 0.750000 0.500000
O O2 0.202781 0.667446 0.310608
O O3 0.234976 0.493702 0.446045
O O4 0.290634 0.657281 0.311633
O O5 0.955872 0.123026 0.172771
O O6 0.045800 0.187064 0.117749
O O7 0.977845 0.240508 0.983884
O O8 0.000000 0.000000 0.000000
O O9 0.940576 0.419040 0.868023
O O10 0.034360 0.363404 0.835602
O O11 0.000000 0.500000 0.000000
O O12 0.943887 0.381264 0.223254
O O13 0.878106 0.577814 0.218875
O O14 0.624218 0.714032 0.222514
O O15 0.322872 0.140879 0.403137
O O16 0.311113 0.919670 0.297356
O O17 0.750000 0.750000 0.500000
O O18 0.821233 0.716361 0.614441
#
# Coordination Sequence:
#
# PCOD8141186 Si02
#       8
#     8   8   8   8   8   8   8   8
#     4  11  22  40  62  89 126 166 204 256 316 374
#     4  11  23  40  63  85 128 165 192 247 317 370
#     4  11  19  36  63  91 119 159 202 248 298 360
#     4  10  21  35  63  98 119 151 213 259 294 356
#     4  10  21  41  60  89 123 161 203 253 306 364
#     4  10  22  38  62  96 124 160 208 261 311 365
#     4  11  22  40  65  88 125 163 205 264 309 366
#     4  10  22  40  64  91 122 166 211 249 316 371
#
# _framework density 19.30086
#
# number of rings (size 3 to 8) (size 9 to 14) (size 15 to 20)
#    0.000    1.500    5.000    0.750    1.750    4.000 
#    2.250    1.250    0.000    0.000    0.000    0.000 
#    0.000    0.000    0.000    0.000    0.000    0.000 
#
# Total GULP energy -396479.204555 kJ/mol
# GULP energy per Si atom -12389.975142 kJ/mol
# Density = 1.925693 g / cm^3
# Si number density = 19.300860 Si / 1000 Ang^3
#
#
#
# Elastic Constant Matrix: (Units=GPa)
#
#
# Indices 1 2 3 4 5 6 
#
# 1 117.4112 21.2361 36.2764 0.0000 12.6641 0.0000
# 2 21.2361 61.7249 27.2931 0.0000 4.2553 0.0000
# 3 36.2764 27.2931 104.9999 0.0000 10.1411 0.0000
# 4 0.0000 0.0000 0.0000 31.9008 0.0000 2.0296
# 5 12.6641 4.2553 10.1411 0.0000 27.7316 0.0000
# 6 0.0000 0.0000 0.0000 2.0296 0.0000 27.7933
#
#
#
# Elastic Compliance Matrix: (Units=1/GPa)
#
#
# Indices 1 2 3 4 5 6 
#
# 1 0.010058 -0.002075 -0.002615 0.000000 -0.003319 0.000000
# 2 -0.002075 0.018766 -0.004120 0.000000 -0.000425 0.000000
# 3 -0.002615 -0.004120 0.011736 0.000000 -0.002465 0.000000
# 4 0.000000 0.000000 0.000000 0.031493 0.000000 -0.002300
# 5 -0.003319 -0.000425 -0.002465 0.000000 0.038542 0.000000
# 6 0.000000 0.000000 0.000000 -0.002300 0.000000 0.036148
#
#
# Mechanical properties :
#
#
# Convention : Reuss Voigt Hill
#
# Bulk Modulus (GPa) = 43.59199 50.41635 47.00417
# Shear Modulus (GPa) = 29.06784 30.77384 29.92084
#
# Velocity S-wave (km/s) = 3.88498 3.99736 3.94157
# Velocity P-wave (km/s) = 6.53901 6.89081 6.71721
#
# Compressibility (1/GPa) = 0.02293999
#
# Stress axis : x y z
#
# Youngs Moduli (GPa) = 99.41959 53.28801 85.20570
#
# Poissons Ratio (x) = 0.11060 0.22282
# Poissons Ratio (y) = 0.20634 0.35103
# Poissons Ratio (z) = 0.25999 0.21954
#
# Static dielectric constant tensor:
#      x y z
#    x 3.244950 0.000000 0.259180 
#    y 0.000000 3.225520 0.000000 
#    z 0.259180 0.000000 3.470560 
# 
# 
# High freq. dielectric constant tensor:
#      x y z
#    x 1.749270 0.000000 0.008800 
#    y 0.000000 1.728130 0.000000 
#    z 0.008800 0.000000 1.769560 
# 
# From -- ./inp_files/125899.got.cif
#   From: 2010.06.25/outbox.cif.g09.slc.cpg/sg15_63_cif.got.tgz:125899.got - 2010.06.28 07:06:18.
