data_PCOD8141531
_publ_section_title
;
Structure prediction by ZEFSAII (Michael W. Deem and Ramdas Pophale) SiO2 
 PCOD8141531
Probable space group: C 2/C
;
_chemical_formula_sum "Si O2"
_cell_formula_units_Z 52
_cell_length_a 12.591185
_cell_length_b 26.279962
_cell_length_c 11.043191
_cell_angle_alpha 90.000000
_cell_angle_beta 43.237973
_cell_angle_gamma 90.000000
_cell_volume 2503.200086
_symmetry_space_group_name_H-M "C 2/C"
_symmetry_group_IT_number 15
_symmetry_cell_setting 'monoclinic'
loop_
_space_group_symop_operation_xyz
x,y,z
-x,y,1/2-z
-x,-y,-z
x,-y,1/2+z
1/2+x,1/2+y,z
1/2-x,1/2+y,1/2-z
1/2-x,1/2-y,-z
1/2+x,1/2-y,1/2+z
loop_
_atom_site_type_symbol
_atom_site_label
_atom_site_fract_x
_atom_site_fract_y
_atom_site_fract_z
Si Si1 0.791350 0.755989 0.605533
Si Si2 0.370888 0.508350 0.260318
Si Si3 0.563673 0.320175 0.330723
Si Si4 0.596772 0.421135 0.437773
Si Si5 0.191878 0.308849 0.912044
Si Si6 0.665063 0.085196 0.553062
Si Si7 0.000000 0.243546 0.250000
O O1 0.750000 0.750000 0.500000
O O2 0.743213 0.699162 0.693777
O O3 0.690843 0.797260 0.767913
O O4 0.968883 0.772968 0.469408
O O5 0.500000 0.490770 0.250000
O O6 0.318244 0.459125 0.227297
O O7 0.217040 0.532174 0.447608
O O8 0.444462 0.551651 0.114715
O O9 0.500000 0.330161 0.250000
O O10 0.533714 0.371224 0.426366
O O11 0.712653 0.402093 0.443857
O O12 0.358796 0.291737 0.825120
O O13 0.166014 0.368869 0.955988
O O14 0.052917 0.279347 0.095072
O O15 0.500000 0.075945 0.750000
#
# Coordination Sequence:
#
# PCOD8141531 Si02
#       7
#     8   8   8   8   8   8   4
#     4  10  22  36  56  83 119 163 202 249 300 363
#     4   9  20  39  63  88 114 151 205 257 312 381
#     4  10  21  37  58  85 119 159 203 246 303 369
#     4  10  21  38  63  87 114 157 203 258 313 370
#     4  11  22  38  56  88 125 161 211 251 311 372
#     4  11  24  38  59  91 124 159 203 258 327 377
#     4  10  24  34  58  86 124 168 202 256 302 368
#
# _framework density 20.773409999999998
#
# number of rings (size 3 to 8) (size 9 to 14) (size 15 to 20)
#    0.000    1.846    0.769    2.308    9.692    1.846 
#    0.000    0.000    0.000    4.615    0.000    0.000 
#    0.000    0.000    0.000    0.000    0.000    0.000 
#
# Total GULP energy -322143.596182 kJ/mol
# GULP energy per Si atom -12390.138315 kJ/mol
# Density = 2.072613 g / cm^3
# Si number density = 20.773410 Si / 1000 Ang^3
#
#
#
# Elastic Constant Matrix: (Units=GPa)
#
#
# Indices 1 2 3 4 5 6 
#
# 1 45.3956 44.9399 40.6855 0.0000 10.4403 0.0000
# 2 44.9399 82.4120 30.5024 0.0000 5.7030 0.0000
# 3 40.6855 30.5024 108.5645 0.0000 12.8852 0.0000
# 4 0.0000 0.0000 0.0000 19.9245 0.0000 10.4887
# 5 10.4403 5.7030 12.8852 0.0000 35.8924 0.0000
# 6 0.0000 0.0000 0.0000 10.4887 0.0000 29.6918
#
#
#
# Elastic Compliance Matrix: (Units=1/GPa)
#
#
# Indices 1 2 3 4 5 6 
#
# 1 0.069893 -0.031449 -0.016229 0.000000 -0.009507 0.000000
# 2 -0.031449 0.027716 0.003588 0.000000 0.003456 0.000000
# 3 -0.016229 0.003588 0.014406 0.000000 -0.001021 0.000000
# 4 0.000000 0.000000 0.000000 0.061655 0.000000 -0.021780
# 5 -0.009507 0.003456 -0.001021 0.000000 0.030444 0.000000
# 6 0.000000 0.000000 0.000000 -0.021780 0.000000 0.041373
#
#
# Mechanical properties :
#
#
# Convention : Reuss Voigt Hill
#
# Bulk Modulus (GPa) = 41.95161 52.06975 47.01068
# Shear Modulus (GPa) = 14.63651 25.11801 19.87726
#
# Velocity S-wave (km/s) = 2.65727 3.48104 3.09667
# Velocity P-wave (km/s) = 5.44550 6.42471 5.95527
#
# Compressibility (1/GPa) = 0.02383699
#
# Stress axis : x y z
#
# Youngs Moduli (GPa) = 14.30753 36.08002 69.41541
#
# Poissons Ratio (x) = 1.13467 1.12653
# Poissons Ratio (y) = 0.44995 -0.24909
# Poissons Ratio (z) = 0.23219 -0.12947
#
# Static dielectric constant tensor:
#      x y z
#    x 3.738100 0.000000 0.204570 
#    y 0.000000 3.721520 0.000000 
#    z 0.204570 0.000000 4.272460 
# 
# 
# High freq. dielectric constant tensor:
#      x y z
#    x 1.797270 0.000000 0.015470 
#    y 0.000000 1.802240 0.000000 
#    z 0.015470 0.000000 1.832890 
# 
# From -- ./inp_files/100616.got.cif
#   From: 2010.06.25/outbox.cif.g09.slc.cpg/sg15_51_cif.got.tgz:100616.got - 2010.06.28 07:06:18.
