data_PCOD8141972
_publ_section_title
;
Structure prediction by ZEFSAII (Michael W. Deem and Ramdas Pophale) SiO2 
 PCOD8141972
Probable space group: C 2/C
;
_chemical_formula_sum "Si O2"
_cell_formula_units_Z 56
_cell_length_a 8.894943
_cell_length_b 16.562569
_cell_length_c 20.839878
_cell_angle_alpha 90.000000
_cell_angle_beta 61.850969
_cell_angle_gamma 90.000000
_cell_volume 2707.063512
_symmetry_space_group_name_H-M "C 2/C"
_symmetry_group_IT_number 15
_symmetry_cell_setting 'monoclinic'
loop_
_space_group_symop_operation_xyz
x,y,z
-x,y,1/2-z
-x,-y,-z
x,-y,1/2+z
1/2+x,1/2+y,z
1/2-x,1/2+y,1/2-z
1/2-x,1/2-y,-z
1/2+x,1/2-y,1/2+z
loop_
_atom_site_type_symbol
_atom_site_label
_atom_site_fract_x
_atom_site_fract_y
_atom_site_fract_z
Si Si1 0.698509 0.463149 0.713654
Si Si2 0.130053 0.169781 0.022539
Si Si3 0.000000 0.222857 0.750000
Si Si4 0.193588 0.478376 0.951988
Si Si5 0.517841 0.567528 0.549055
Si Si6 0.333031 0.317557 0.684429
Si Si7 0.304255 0.396231 0.202835
Si Si8 0.500000 0.204546 0.750000
O O1 0.500000 0.480352 0.750000
O O2 0.774820 0.450441 0.627846
O O3 0.729716 0.388583 0.755378
O O4 0.778041 0.545676 0.726415
O O5 0.258518 0.097645 0.013554
O O6 0.963163 0.161183 0.101584
O O7 0.250000 0.250000 0.000000
O O8 0.040427 0.153776 0.970474
O O9 0.159251 0.276995 0.693082
O O10 0.059062 0.167791 0.797308
O O11 0.294847 0.558864 0.956058
O O12 0.000000 0.500000 0.000000
O O13 0.500000 0.500000 0.500000
O O14 0.392697 0.546527 0.632908
O O15 0.447750 0.255675 0.699980
O O16 0.156172 0.349859 0.195512
#
# Coordination Sequence:
#
# PCOD8141972 Si02
#       8
#     8   8   4   8   8   8   8   4
#     4  12  20  40  68  87 120 164 207 256 308 368
#     4  11  23  40  62  90 128 168 205 256 316 377
#     4  10  24  38  62  90 120 154 208 272 302 366
#     4  11  24  41  63  93 124 163 207 258 317 372
#     4  10  21  38  60  84 123 161 200 249 306 370
#     4  11  22  42  63  90 124 166 213 252 315 371
#     4  11  21  39  62  89 118 158 208 253 308 360
#     4  10  22  36  62  90 120 154 204 262 302 364
#
# _framework density 20.686620999999999
#
# number of rings (size 3 to 8) (size 9 to 14) (size 15 to 20)
#    0.000    1.143    4.286    1.714    0.000    8.571 
#    0.000    1.429    0.000    0.000    0.000    0.000 
#    0.000    0.000    0.000    0.000    0.000    0.000 
#
# Total GULP energy -346888.105036 kJ/mol
# GULP energy per Si atom -12388.860894 kJ/mol
# Density = 2.063954 g / cm^3
# Si number density = 20.686621 Si / 1000 Ang^3
#
#
#
# Elastic Constant Matrix: (Units=GPa)
#
#
# Indices 1 2 3 4 5 6 
#
# 1 128.3393 62.8811 49.0394 0.0000 -10.3563 0.0000
# 2 62.8811 110.2931 29.0214 0.0000 -1.5411 0.0000
# 3 49.0394 29.0214 107.9462 -0.0001 -6.0827 0.0000
# 4 0.0000 0.0000 -0.0001 23.9609 0.0000 -13.1201
# 5 -10.3563 -1.5411 -6.0827 0.0000 28.1178 0.0000
# 6 0.0000 0.0000 0.0000 -13.1201 0.0000 21.5456
#
#
#
# Elastic Compliance Matrix: (Units=1/GPa)
#
#
# Indices 1 2 3 4 5 6 
#
# 1 0.012522 -0.006075 -0.003861 0.000000 0.003444 0.000000
# 2 -0.006075 0.012704 -0.000752 0.000000 -0.001704 0.000000
# 3 -0.003861 -0.000752 0.011275 0.000000 0.000976 0.000000
# 4 0.000000 0.000000 0.000000 0.062612 0.000000 0.038127
# 5 0.003444 -0.001704 0.000976 0.000000 0.036951 0.000000
# 6 0.000000 0.000000 0.000000 0.038127 0.000000 0.069630
#
#
# Mechanical properties :
#
#
# Convention : Reuss Voigt Hill
#
# Bulk Modulus (GPa) = 66.11456 69.82915 67.97185
# Shear Modulus (GPa) = 21.54146 28.43397 24.98771
#
# Velocity S-wave (km/s) = 3.23045 3.71146 3.47928
# Velocity P-wave (km/s) = 6.77819 7.22465 7.00498
#
# Compressibility (1/GPa) = 0.01512526
#
# Stress axis : x y z
#
# Youngs Moduli (GPa) = 79.86255 78.71446 88.69091
#
# Poissons Ratio (x) = 0.47817 0.34245
# Poissons Ratio (y) = 0.48514 0.06668
# Poissons Ratio (z) = 0.30837 0.05918
#
# Static dielectric constant tensor:
#      x y z
#    x 3.945720 0.000000 -0.125840 
#    y 0.000000 4.027650 0.000000 
#    z -0.125840 0.000000 2.905930 
# 
# 
# High freq. dielectric constant tensor:
#      x y z
#    x 1.815250 0.000000 0.006970 
#    y 0.000000 1.809490 0.000000 
#    z 0.006970 0.000000 1.808860 
# 
# From -- ./inp_files/232631.got.cif
#   From: 2010.06.25/outbox.cif.g09.slc.cpg/sg15_117_cif.got.tgz:232631.got - 2010.06.28 07:06:18.
