data_PCOD8141215
_publ_section_title
;
Structure prediction by ZEFSAII (Michael W. Deem and Ramdas Pophale) SiO2 
 PCOD8141215
Probable space group: C 2/C
;
_chemical_formula_sum "Si O2"
_cell_formula_units_Z 60
_cell_length_a 15.896324
_cell_length_b 23.889777
_cell_length_c 8.272142
_cell_angle_alpha 90.000000
_cell_angle_beta 76.985724
_cell_angle_gamma 90.000000
_cell_volume 3060.734925
_symmetry_space_group_name_H-M "C 2/C"
_symmetry_group_IT_number 15
_symmetry_cell_setting 'monoclinic'
loop_
_space_group_symop_operation_xyz
x,y,z
-x,y,1/2-z
-x,-y,-z
x,-y,1/2+z
1/2+x,1/2+y,z
1/2-x,1/2+y,1/2-z
1/2-x,1/2-y,-z
1/2+x,1/2-y,1/2+z
loop_
_atom_site_type_symbol
_atom_site_label
_atom_site_fract_x
_atom_site_fract_y
_atom_site_fract_z
Si Si1 0.054560 0.860937 0.383706
Si Si2 0.232591 0.826307 0.845844
Si Si3 0.902539 0.250275 0.243230
Si Si4 0.200693 0.339822 0.327958
Si Si5 0.500000 0.596834 0.250000
Si Si6 0.167401 0.763160 0.381400
Si Si7 0.218566 0.938313 0.338987
Si Si8 0.188543 0.058423 0.211403
O O1 0.009485 0.866741 0.580644
O O2 0.081652 0.795613 0.355403
O O3 0.131856 0.905082 0.335619
O O4 0.000000 0.876766 0.250000
O O5 0.138955 0.797538 0.854813
O O6 0.311380 0.794144 0.722901
O O7 0.225511 0.890648 0.799438
O O8 0.254760 0.824122 0.023625
O O9 0.894045 0.310737 0.153803
O O10 0.842266 0.250006 0.426635
O O11 0.000000 0.237194 0.250000
O O12 0.256534 0.308381 0.167174
O O13 0.202273 0.406095 0.287522
O O14 0.584784 0.558672 0.234876
O O15 0.237002 0.938206 0.520555
O O16 0.214997 0.001754 0.285806
#
# Coordination Sequence:
#
# PCOD8141215 Si02
#       8
#     8   8   8   8   4   8   8   8
#     4  10  23  36  56  79 124 157 197 240 294 349
#     4  11  22  38  57  81 117 158 195 240 290 356
#     4  11  22  35  59  85 115 150 194 245 298 346
#     4  10  21  40  57  80 116 155 198 242 292 355
#     4  10  24  36  52  86 122 160 192 242 294 348
#     4  10  21  36  53  80 110 153 196 237 289 345
#     4  10  22  38  55  86 107 157 195 237 288 346
#     4  11  23  36  59  80 117 149 198 237 289 348
#
# _framework density 19.603135999999999
#
# number of rings (size 3 to 8) (size 9 to 14) (size 15 to 20)
#    0.000    1.600    0.000    7.200   10.267    2.133 
#    0.000    0.000    0.000    0.000    0.000    9.333 
#    0.000    0.000    0.000    0.000    0.000    0.000 
#
# Total GULP energy -371707.766065 kJ/mol
# GULP energy per Si atom -12390.258869 kJ/mol
# Density = 1.955852 g / cm^3
# Si number density = 19.603136 Si / 1000 Ang^3
#
#
#
# Elastic Constant Matrix: (Units=GPa)
#
#
# Indices 1 2 3 4 5 6 
#
# 1 47.5205 41.1647 42.0701 0.0000 17.5686 0.0000
# 2 41.1647 154.7267 38.6473 0.0000 8.4309 0.0000
# 3 42.0701 38.6473 99.5660 0.0000 15.5026 0.0000
# 4 0.0000 0.0000 0.0000 27.9223 0.0000 -4.0147
# 5 17.5686 8.4309 15.5026 0.0000 21.8664 0.0000
# 6 0.0000 0.0000 0.0000 -4.0147 0.0000 8.2251
#
#
#
# Elastic Compliance Matrix: (Units=1/GPa)
#
#
# Indices 1 2 3 4 5 6 
#
# 1 0.051142 -0.008608 -0.013924 0.000000 -0.027899 0.000000
# 2 -0.008608 0.008621 -0.000302 0.000000 0.003806 0.000000
# 3 -0.013924 -0.000302 0.016057 0.000000 -0.000080 0.000000
# 4 0.000000 0.000000 0.000000 0.038517 0.000000 0.018800
# 5 -0.027899 0.003806 -0.000080 0.000000 0.066737 0.000000
# 6 0.000000 0.000000 0.000000 0.018800 0.000000 0.130755
#
#
# Mechanical properties :
#
#
# Convention : Reuss Voigt Hill
#
# Bulk Modulus (GPa) = 33.16544 60.61973 46.89258
# Shear Modulus (GPa) = 13.60372 23.59817 18.60094
#
# Velocity S-wave (km/s) = 2.63716 3.47334 3.08372
# Velocity P-wave (km/s) = 5.12133 6.86120 6.05409
#
# Compressibility (1/GPa) = 0.03015187
#
# Stress axis : x y z
#
# Youngs Moduli (GPa) = 19.55354 115.99384 62.27998
#
# Poissons Ratio (x) = 0.99848 0.86718
# Poissons Ratio (y) = 0.16832 0.01879
# Poissons Ratio (z) = 0.27226 0.03500
#
# Static dielectric constant tensor:
#      x y z
#    x 3.621460 0.000000 0.007970 
#    y 0.000000 3.771180 0.000000 
#    z 0.007970 0.000000 3.769060 
# 
# 
# High freq. dielectric constant tensor:
#      x y z
#    x 1.723720 0.000000 0.012440 
#    y 0.000000 1.761700 0.000000 
#    z 0.012440 0.000000 1.782540 
# 
# From -- ./inp_files/43182.got.cif
#   From: 2010.06.25/outbox.cif.g09.slc.cpg/sg15_22_cif.got.tgz:43182.got - 2010.06.28 07:06:18.
