data_PCOD8141326
_publ_section_title
;
Structure prediction by ZEFSAII (Michael W. Deem and Ramdas Pophale) SiO2 
 PCOD8141326
Probable space group: C 2/C
;
_chemical_formula_sum "Si O2"
_cell_formula_units_Z 48
_cell_length_a 12.739609
_cell_length_b 20.555437
_cell_length_c 11.945141
_cell_angle_alpha 90.000000
_cell_angle_beta 49.119577
_cell_angle_gamma 90.000000
_cell_volume 2365.049312
_symmetry_space_group_name_H-M "C 2/C"
_symmetry_group_IT_number 15
_symmetry_cell_setting 'monoclinic'
loop_
_space_group_symop_operation_xyz
x,y,z
-x,y,1/2-z
-x,-y,-z
x,-y,1/2+z
1/2+x,1/2+y,z
1/2-x,1/2+y,1/2-z
1/2-x,1/2-y,-z
1/2+x,1/2-y,1/2+z
loop_
_atom_site_type_symbol
_atom_site_label
_atom_site_fract_x
_atom_site_fract_y
_atom_site_fract_z
Si Si1 0.687370 0.603539 0.997443
Si Si2 0.359114 0.079796 0.291343
Si Si3 0.902676 0.362183 0.539498
Si Si4 0.851506 0.965558 0.387487
Si Si5 0.836456 0.446914 0.189969
Si Si6 0.091624 0.238544 0.082085
O O1 0.808611 0.618116 0.000736
O O2 0.614884 0.535591 0.079904
O O3 0.572025 0.661306 0.072369
O O4 0.750911 0.601581 0.828849
O O5 0.500000 0.105537 0.250000
O O6 0.322696 0.127971 0.213260
O O7 0.228505 0.080491 0.467764
O O8 0.389506 0.006887 0.227165
O O9 0.947323 0.286138 0.494641
O O10 0.035154 0.409077 0.452895
O O11 0.757978 0.974895 0.343350
O O12 0.000000 0.934122 0.250000
O O13 0.000000 0.261044 0.250000
O O14 0.250000 0.250000 0.000000
#
# Coordination Sequence:
#
# PCOD8141326 Si02
#       6
#     8   8   8   8   8   8
#     4  10  21  36  59  92 122 158 204 251 310 360
#     4  11  21  35  60  90 121 161 204 253 306 368
#     4  11  19  36  61  89 122 160 207 253 301 361
#     4  11  23  38  56  88 130 163 199 246 312 370
#     4  11  20  36  61  89 128 161 201 256 304 364
#     4  10  21  38  59  88 122 158 202 253 295 355
#
# _framework density 20.295559999999998
#
# number of rings (size 3 to 8) (size 9 to 14) (size 15 to 20)
#    0.000    1.333    3.333    5.500    0.000    2.667 
#    6.000    0.000    0.000    2.000    0.000    0.000 
#    0.000    0.000    0.000    0.000    0.000    0.000 
#
# Total GULP energy -297574.801869 kJ/mol
# GULP energy per Si atom -12398.950078 kJ/mol
# Density = 2.024937 g / cm^3
# Si number density = 20.295560 Si / 1000 Ang^3
#
#
#
# Elastic Constant Matrix: (Units=GPa)
#
#
# Indices 1 2 3 4 5 6 
#
# 1 43.4464 17.5831 37.0565 0.0000 3.4902 0.0000
# 2 17.5831 77.5782 44.6260 0.0000 8.2627 0.0000
# 3 37.0565 44.6260 159.2869 0.0000 4.3126 0.0000
# 4 0.0000 0.0000 0.0000 29.9100 0.0000 6.1476
# 5 3.4902 8.2627 4.3126 0.0000 36.4863 0.0000
# 6 0.0000 0.0000 0.0000 6.1476 0.0000 16.7240
#
#
#
# Elastic Compliance Matrix: (Units=1/GPa)
#
#
# Indices 1 2 3 4 5 6 
#
# 1 0.029458 -0.003107 -0.005944 0.000000 -0.001412 0.000000
# 2 -0.003107 0.016024 -0.003688 0.000000 -0.002896 0.000000
# 3 -0.005944 -0.003688 0.008684 0.000000 0.000377 0.000000
# 4 0.000000 0.000000 0.000000 0.036166 0.000000 -0.013294
# 5 -0.001412 -0.002896 0.000377 0.000000 0.028154 0.000000
# 6 0.000000 0.000000 0.000000 -0.013294 0.000000 0.064681
#
#
# Mechanical properties :
#
#
# Convention : Reuss Voigt Hill
#
# Bulk Modulus (GPa) = 34.85874 53.20475 44.03174
# Shear Modulus (GPa) = 22.91385 28.69379 25.80382
#
# Velocity S-wave (km/s) = 3.36372 3.76413 3.56954
# Velocity P-wave (km/s) = 5.68322 6.72037 6.22344
#
# Compressibility (1/GPa) = 0.02868721
#
# Stress axis : x y z
#
# Youngs Moduli (GPa) = 33.94693 62.40471 115.15463
#
# Poissons Ratio (x) = 0.19388 0.68453
# Poissons Ratio (y) = 0.10547 0.42472
# Poissons Ratio (z) = 0.20179 0.23016
#
# Static dielectric constant tensor:
#      x y z
#    x 3.380390 0.000000 0.136810 
#    y 0.000000 4.241130 0.000000 
#    z 0.136810 0.000000 3.951510 
# 
# 
# High freq. dielectric constant tensor:
#      x y z
#    x 1.765120 0.000000 0.005160 
#    y 0.000000 1.770670 0.000000 
#    z 0.005160 0.000000 1.811120 
# 
# From -- ./inp_files/89383.got.cif
#   From: 2010.06.25/outbox.cif.g09.slc.cpg/sg15_45_cif.got.tgz:89383.got - 2010.06.28 07:06:18.
