data_PCOD8141856
_publ_section_title
;
Structure prediction by ZEFSAII (Michael W. Deem and Ramdas Pophale) SiO2 
 PCOD8141856
Probable space group: C 2/C
;
_chemical_formula_sum "Si O2"
_cell_formula_units_Z 40
_cell_length_a 11.223773
_cell_length_b 30.694550
_cell_length_c 5.247005
_cell_angle_alpha 90.000000
_cell_angle_beta 83.199278
_cell_angle_gamma 90.000000
_cell_volume 1794.920153
_symmetry_space_group_name_H-M "C 2/C"
_symmetry_group_IT_number 15
_symmetry_cell_setting 'monoclinic'
loop_
_space_group_symop_operation_xyz
x,y,z
-x,y,1/2-z
-x,-y,-z
x,-y,1/2+z
1/2+x,1/2+y,z
1/2-x,1/2+y,1/2-z
1/2-x,1/2-y,-z
1/2+x,1/2-y,1/2+z
loop_
_atom_site_type_symbol
_atom_site_label
_atom_site_fract_x
_atom_site_fract_y
_atom_site_fract_z
Si Si1 0.137043 0.020144 0.765357
Si Si2 0.827217 0.724950 0.276154
Si Si3 0.719984 0.613966 0.856745
Si Si4 0.868922 0.629971 0.328576
Si Si5 0.895478 0.197519 0.479340
O O1 0.144761 0.069997 0.850830
O O2 0.000000 0.006381 0.750000
O O3 0.198521 0.009087 0.475805
O O4 0.750000 0.750000 0.500000
O O5 0.890786 0.681949 0.367578
O O6 0.736612 0.706273 0.090817
O O7 0.925458 0.759252 0.137746
O O8 0.817260 0.612927 0.607711
O O9 0.782255 0.616905 0.117859
O O10 0.623188 0.653609 0.848225
O O11 0.000000 0.608908 0.250000
O O12 0.000000 0.189890 0.250000
#
# Coordination Sequence:
#
# PCOD8141856 Si02
#       5
#     8   8   8   8   8
#     4  10  22  41  69  99 129 165 200 249 332 404
#     4  10  21  38  53  83 122 165 220 258 307 368
#     4  11  23  43  63  96 129 160 216 268 314 386
#     4  11  24  40  66  88 127 176 220 265 316 370
#     4  10  23  36  57  85 123 166 209 264 317 368
#
# _framework density 22.285112999999999
#
# number of rings (size 3 to 8) (size 9 to 14) (size 15 to 20)
#    0.000    1.600    2.000    1.800    2.800    5.600 
#    0.000    0.000    0.000   12.000    0.000    0.000 
#    0.000    0.000    0.000    0.000    0.000    0.000 
#
# Total GULP energy -247826.155601 kJ/mol
# GULP energy per Si atom -12391.307780 kJ/mol
# Density = 2.223439 g / cm^3
# Si number density = 22.285113 Si / 1000 Ang^3
#
#
#
# Elastic Constant Matrix: (Units=GPa)
#
#
# Indices 1 2 3 4 5 6 
#
# 1 52.7204 7.6791 20.3323 0.0000 -10.4966 0.0000
# 2 7.6791 119.4361 34.8147 0.0000 11.2608 0.0000
# 3 20.3323 34.8147 140.5448 0.0000 -7.2489 0.0000
# 4 0.0000 0.0000 0.0000 32.5623 0.0000 -3.2478
# 5 -10.4966 11.2608 -7.2489 0.0000 39.7986 0.0000
# 6 0.0000 0.0000 0.0000 -3.2478 0.0000 8.8548
#
#
#
# Elastic Compliance Matrix: (Units=1/GPa)
#
#
# Indices 1 2 3 4 5 6 
#
# 1 0.021186 -0.001148 -0.002499 0.000000 0.005457 0.000000
# 2 -0.001148 0.009453 -0.002351 0.000000 -0.003406 0.000000
# 3 -0.002499 -0.002351 0.008136 0.000000 0.001488 0.000000
# 4 0.000000 0.000000 0.000000 0.031877 0.000000 0.011692
# 5 0.005457 -0.003406 0.001488 0.000000 0.027800 0.000000
# 6 0.000000 0.000000 0.000000 0.011692 0.000000 0.117221
#
#
# Mechanical properties :
#
#
# Convention : Reuss Voigt Hill
#
# Bulk Modulus (GPa) = 37.34461 48.70597 43.02529
# Shear Modulus (GPa) = 21.13316 32.90150 27.01733
#
# Velocity S-wave (km/s) = 3.08280 3.84655 3.48566
# Velocity P-wave (km/s) = 5.42822 6.45222 5.96225
#
# Compressibility (1/GPa) = 0.02677763
#
# Stress axis : x y z
#
# Youngs Moduli (GPa) = 47.20205 105.78704 122.91286
#
# Poissons Ratio (x) = 0.12147 0.30715
# Poissons Ratio (y) = 0.05420 0.28899
# Poissons Ratio (z) = 0.11796 0.24872
#
# Static dielectric constant tensor:
#      x y z
#    x 3.604110 0.000000 0.092960 
#    y 0.000000 4.845920 0.000000 
#    z 0.092960 0.000000 4.261920 
# 
# 
# High freq. dielectric constant tensor:
#      x y z
#    x 1.858470 0.000000 0.005630 
#    y 0.000000 1.872070 0.000000 
#    z 0.005630 0.000000 1.890340 
# 
# From -- ./inp_files/4917.got.cif
#   From: 2010.06.25/outbox.cif.g09.slc.cpg/sg15_3_cif.got.tgz:4917.got - 2010.06.28 07:06:18.
