data_PCOD8141710
_publ_section_title
;
Structure prediction by ZEFSAII (Michael W. Deem and Ramdas Pophale) SiO2 
 PCOD8141710
Probable space group: C 2/C
;
_chemical_formula_sum "Si O2"
_cell_formula_units_Z 56
_cell_length_a 13.632596
_cell_length_b 14.001862
_cell_length_c 25.433055
_cell_angle_alpha 90.000000
_cell_angle_beta 33.893584
_cell_angle_gamma 90.000000
_cell_volume 2707.237001
_symmetry_space_group_name_H-M "C 2/C"
_symmetry_group_IT_number 15
_symmetry_cell_setting 'monoclinic'
loop_
_space_group_symop_operation_xyz
x,y,z
-x,y,1/2-z
-x,-y,-z
x,-y,1/2+z
1/2+x,1/2+y,z
1/2-x,1/2+y,1/2-z
1/2-x,1/2-y,-z
1/2+x,1/2-y,1/2+z
loop_
_atom_site_type_symbol
_atom_site_label
_atom_site_fract_x
_atom_site_fract_y
_atom_site_fract_z
Si Si1 0.775128 0.064232 0.121750
Si Si2 0.500000 0.908179 0.250000
Si Si3 0.257981 0.749842 0.180567
Si Si4 0.727328 0.015705 0.944589
Si Si5 0.735189 0.286413 0.307092
Si Si6 0.000000 0.102605 0.750000
Si Si7 0.957929 0.660803 0.020203
Si Si8 0.042021 0.058770 0.561898
O O1 0.675914 0.151077 0.194932
O O2 0.649563 0.977363 0.159717
O O3 0.862813 0.106098 0.030439
O O4 0.924704 0.030327 0.095882
O O5 0.411646 0.842716 0.245002
O O6 0.290095 0.733314 0.228703
O O7 0.117183 0.833316 0.236296
O O8 0.435411 0.772097 0.068109
O O9 0.807165 0.020872 0.966922
O O10 0.882804 0.030547 0.834690
O O11 0.649389 0.911122 0.969408
O O12 0.584438 0.099865 0.002012
O O13 0.672992 0.218717 0.382856
O O14 0.579284 0.358537 0.359987
#
# Coordination Sequence:
#
# PCOD8141710 Si02
#       8
#     8   4   8   8   8   4   8   8
#     4  10  22  40  62  93 125 161 211 264 308 388
#     4  10  25  41  64  94 128 166 214 259 315 382
#     4  11  22  40  65  95 123 166 216 262 313 378
#     4  10  22  41  64  91 127 168 206 266 318 371
#     4  11  23  44  64  94 129 168 209 267 316 378
#     4  10  21  37  62  90 122 162 220 263 303 380
#     4  10  24  41  62  96 131 161 216 261 313 382
#     4  10  21  41  65  87 126 167 204 257 328 367
#
# _framework density 20.685296999999998
#
# number of rings (size 3 to 8) (size 9 to 14) (size 15 to 20)
#    0.000    1.714    2.857    0.429    2.000    5.714 
#    5.143    1.429    0.000    0.000    0.000    0.000 
#    0.000    0.000    0.000    0.000    0.000    0.000 
#
# Total GULP energy -347120.015638 kJ/mol
# GULP energy per Si atom -12397.143416 kJ/mol
# Density = 2.063822 g / cm^3
# Si number density = 20.685297 Si / 1000 Ang^3
#
#
#
# Elastic Constant Matrix: (Units=GPa)
#
#
# Indices 1 2 3 4 5 6 
#
# 1 100.1277 58.2210 52.6491 0.0000 2.5838 -0.0008
# 2 58.2210 74.6304 41.0444 0.0002 5.3700 0.0004
# 3 52.6491 41.0444 88.7108 0.0019 6.7178 0.0001
# 4 0.0000 0.0002 0.0019 22.3366 0.0001 2.9137
# 5 2.5838 5.3700 6.7178 0.0001 32.2143 0.0000
# 6 -0.0008 0.0004 0.0001 2.9137 0.0000 20.2269
#
#
#
# Elastic Compliance Matrix: (Units=1/GPa)
#
#
# Indices 1 2 3 4 5 6 
#
# 1 0.020821 -0.012745 -0.006599 0.000001 0.001831 0.000001
# 2 -0.012745 0.025827 -0.004203 0.000000 -0.002407 -0.000001
# 3 -0.006599 -0.004203 0.017314 -0.000001 -0.002381 0.000000
# 4 0.000001 0.000000 -0.000001 0.045627 0.000000 -0.006573
# 5 0.001831 -0.002407 -0.002381 0.000000 0.031793 0.000000
# 6 0.000001 -0.000001 0.000000 -0.006573 0.000000 0.050386
#
#
# Mechanical properties :
#
#
# Convention : Reuss Voigt Hill
#
# Bulk Modulus (GPa) = 59.28577 63.03310 61.15943
# Shear Modulus (GPa) = 20.45125 22.39251 21.42188
#
# Velocity S-wave (km/s) = 3.14775 3.29376 3.22158
# Velocity P-wave (km/s) = 6.47566 6.70848 6.59310
#
# Compressibility (1/GPa) = 0.01686745
#
# Stress axis : x y z
#
# Youngs Moduli (GPa) = 48.02907 38.71905 57.75785
#
# Poissons Ratio (x) = 0.49349 0.38112
# Poissons Ratio (y) = 0.61215 0.24276
# Poissons Ratio (z) = 0.31692 0.16274
#
# Static dielectric constant tensor:
#      x y z
#    x 3.721100 0.000000 -0.127430 
#    y 0.000000 3.653750 0.000000 
#    z -0.127430 0.000000 3.715050 
# 
# 
# High freq. dielectric constant tensor:
#      x y z
#    x 1.807780 0.000000 -0.002120 
#    y 0.000000 1.808630 0.000000 
#    z -0.002120 0.000000 1.810540 
# 
# From -- ./inp_files/296583.got.cif
#   From: 2010.06.25/outbox.cif.g09.slc.cpg/sg15_149_cif.got.tgz:296583.got - 2010.06.28 07:06:18.
