data_PCOD8141293
_publ_section_title
;
Structure prediction by ZEFSAII (Michael W. Deem and Ramdas Pophale) SiO2 
 PCOD8141293
Probable space group: C 2/C
;
_chemical_formula_sum "Si O2"
_cell_formula_units_Z 64
_cell_length_a 30.531147
_cell_length_b 13.731366
_cell_length_c 9.451495
_cell_angle_alpha 90.000000
_cell_angle_beta 62.246028
_cell_angle_gamma 90.000000
_cell_volume 3506.539495
_symmetry_space_group_name_H-M "C 2/C"
_symmetry_group_IT_number 15
_symmetry_cell_setting 'monoclinic'
loop_
_space_group_symop_operation_xyz
x,y,z
-x,y,1/2-z
-x,-y,-z
x,-y,1/2+z
1/2+x,1/2+y,z
1/2-x,1/2+y,1/2-z
1/2-x,1/2-y,-z
1/2+x,1/2-y,1/2+z
loop_
_atom_site_type_symbol
_atom_site_label
_atom_site_fract_x
_atom_site_fract_y
_atom_site_fract_z
Si Si1 0.697864 0.600488 0.990122
Si Si2 0.188696 0.593620 0.619350
Si Si3 0.697440 0.620125 0.457339
Si Si4 0.558940 0.409052 0.507953
Si Si5 0.345754 0.299728 0.203382
Si Si6 0.857149 0.788807 0.702464
Si Si7 0.553035 0.395526 0.844667
Si Si8 0.689914 0.901425 0.785570
O O1 0.755493 0.618234 0.924753
O O2 0.683796 0.493264 0.955900
O O3 0.678854 0.680678 0.910582
O O4 0.671342 0.622753 0.177302
O O5 0.154706 0.681423 0.724786
O O6 0.173318 0.495742 0.723236
O O7 0.182409 0.576620 0.462226
O O8 0.689871 0.646641 0.632018
O O9 0.660299 0.693867 0.432209
O O10 0.754261 0.634676 0.328499
O O11 0.597874 0.336893 0.375771
O O12 0.569781 0.420132 0.659022
O O13 0.504416 0.365219 0.563680
O O14 0.563882 0.513514 0.428824
O O15 0.346235 0.183162 0.217287
O O16 0.915753 0.805172 0.638938
#
# Coordination Sequence:
#
# PCOD8141293 Si02
#       8
#     8   8   8   8   8   8   8   8
#     4  11  20  36  55  80 115 147 181 224 277 328
#     4  11  24  38  57  78 113 148 192 234 272 320
#     4  11  24  33  56  86 115 146 185 225 276 338
#     4  10  21  37  56  84 113 144 179 226 279 336
#     4  12  23  37  57  81 115 151 187 228 275 331
#     4  12  21  38  57  81 110 153 185 225 278 330
#     4  10  21  36  58  83 112 144 181 223 281 337
#     4  11  24  40  54  80 112 150 191 235 271 318
#
# _framework density 18.251612999999999
#
# number of rings (size 3 to 8) (size 9 to 14) (size 15 to 20)
#    0.000    1.000    3.750    3.750    8.750    0.000 
#    0.000    0.000    0.000    0.750    0.000    0.000 
#    0.000    0.000    0.000    0.000    0.000    0.000 
#
# Total GULP energy -396882.538531 kJ/mol
# GULP energy per Si atom -12402.579329 kJ/mol
# Density = 1.821007 g / cm^3
# Si number density = 18.251613 Si / 1000 Ang^3
#
#
#
# Elastic Constant Matrix: (Units=GPa)
#
#
# Indices 1 2 3 4 5 6 
#
# 1 74.9912 45.1403 29.4273 0.0000 -1.3276 0.0000
# 2 45.1403 103.0828 44.0877 0.0000 -8.4471 0.0000
# 3 29.4273 44.0877 62.1315 0.0000 -0.7931 0.0000
# 4 0.0000 0.0000 0.0000 30.0339 0.0000 -0.0453
# 5 -1.3276 -8.4471 -0.7931 0.0000 16.9757 0.0000
# 6 0.0000 0.0000 0.0000 -0.0453 0.0000 28.1783
#
#
#
# Elastic Compliance Matrix: (Units=1/GPa)
#
#
# Indices 1 2 3 4 5 6 
#
# 1 0.018984 -0.006636 -0.004308 0.000000 -0.002019 0.000000
# 2 -0.006636 0.016996 -0.008821 0.000000 0.007526 0.000000
# 3 -0.004308 -0.008821 0.024349 0.000000 -0.003589 0.000000
# 4 0.000000 0.000000 0.000000 0.033296 0.000000 0.000053
# 5 -0.002019 0.007526 -0.003589 0.000000 0.062327 0.000000
# 6 0.000000 0.000000 0.000000 0.000053 0.000000 0.035488
#
#
# Mechanical properties :
#
#
# Convention : Reuss Voigt Hill
#
# Bulk Modulus (GPa) = 48.08089 53.05735 50.56912
# Shear Modulus (GPa) = 21.01670 23.14092 22.07881
#
# Velocity S-wave (km/s) = 3.39705 3.56460 3.48183
# Velocity P-wave (km/s) = 6.46430 6.78785 6.62805
#
# Compressibility (1/GPa) = 0.02079828
#
# Stress axis : x y z
#
# Youngs Moduli (GPa) = 52.67502 58.83574 41.06909
#
# Poissons Ratio (x) = 0.39044 0.17694
# Poissons Ratio (y) = 0.34955 0.36229
# Poissons Ratio (z) = 0.22695 0.51901
#
# Static dielectric constant tensor:
#      x y z
#    x 3.344150 0.000000 0.049110 
#    y 0.000000 3.253160 0.000000 
#    z 0.049110 0.000000 3.504720 
# 
# 
# High freq. dielectric constant tensor:
#      x y z
#    x 1.696300 0.000000 0.014500 
#    y 0.000000 1.695150 0.000000 
#    z 0.014500 0.000000 1.717160 
# 
# From -- ./inp_files/69923.got.cif
#   From: 2010.06.25/outbox.cif.g09.slc.cpg/sg15_35_cif.got.tgz:69923.got - 2010.06.28 07:06:18.
