data_PCOD8141060
_publ_section_title
;
Structure prediction by ZEFSAII (Michael W. Deem and Ramdas Pophale) SiO2 
 PCOD8141060
Probable space group: C 2/C
;
_chemical_formula_sum "Si O2"
_cell_formula_units_Z 60
_cell_length_a 10.813493
_cell_length_b 24.626842
_cell_length_c 22.155250
_cell_angle_alpha 90.000000
_cell_angle_beta 149.507900
_cell_angle_gamma 90.000000
_cell_volume 2993.771042
_symmetry_space_group_name_H-M "C 2/C"
_symmetry_group_IT_number 15
_symmetry_cell_setting 'monoclinic'
loop_
_space_group_symop_operation_xyz
x,y,z
-x,y,1/2-z
-x,-y,-z
x,-y,1/2+z
1/2+x,1/2+y,z
1/2-x,1/2+y,1/2-z
1/2-x,1/2-y,-z
1/2+x,1/2-y,1/2+z
loop_
_atom_site_type_symbol
_atom_site_label
_atom_site_fract_x
_atom_site_fract_y
_atom_site_fract_z
Si Si1 0.521445 0.071984 0.826252
Si Si2 0.438721 0.392899 0.927884
Si Si3 0.918780 0.232807 0.807025
Si Si4 0.500000 0.968841 0.750000
Si Si5 0.269069 0.623193 0.686417
Si Si6 0.910628 0.783840 0.989496
Si Si7 0.374316 0.171169 0.440897
Si Si8 0.150108 0.832385 0.725026
O O1 0.500000 0.100492 0.750000
O O2 0.326151 0.094038 0.792867
O O3 0.457237 0.008119 0.790308
O O4 0.796264 0.079554 0.966271
O O5 0.325787 0.377564 0.815775
O O6 0.238706 0.434551 0.868988
O O7 0.470150 0.339502 0.981248
O O8 0.854073 0.183589 0.737114
O O9 0.681849 0.271062 0.713358
O O10 0.011343 0.207935 0.908709
O O11 0.125498 0.270451 0.863862
O O12 0.500000 0.593538 0.750000
O O13 0.056476 0.628222 0.547571
O O14 0.055066 0.733989 0.019833
O O15 0.360259 0.157386 0.363532
O O16 0.115241 0.162332 0.360437
#
# Coordination Sequence:
#
# PCOD8141060 Si02
#       8
#     8   8   8   4   8   8   8   8
#     4  10  25  45  66  97 126 164 222 286 344 379
#     4  12  21  41  71  94 124 176 222 270 335 391
#     4  10  21  35  53  94 138 172 208 262 304 394
#     4  10  26  46  68  96 126 156 228 302 334 380
#     4  12  22  39  67  93 131 177 215 265 333 397
#     4  10  21  35  58  95 134 173 215 248 319 394
#     4  10  21  39  53  94 140 174 209 258 303 400
#     4  10  22  35  61  89 134 176 217 250 317 391
#
# _framework density 20.041613000000002
#
# number of rings (size 3 to 8) (size 9 to 14) (size 15 to 20)
#    0.400    1.067    2.667    2.800    1.867    1.067 
#    2.400    0.000    2.933    1.600    0.000    0.000 
#    0.000    0.000    0.000    0.000    0.000    0.000 
#
# Total GULP energy -371855.008904 kJ/mol
# GULP energy per Si atom -12395.166963 kJ/mol
# Density = 1.999600 g / cm^3
# Si number density = 20.041613 Si / 1000 Ang^3
#
#
#
# Elastic Constant Matrix: (Units=GPa)
#
#
# Indices 1 2 3 4 5 6 
#
# 1 103.9947 32.6234 38.6476 -0.0071 2.9080 0.0074
# 2 32.6234 69.8986 36.3838 -0.0076 -4.5715 0.0070
# 3 38.6476 36.3838 101.6476 -0.0188 -0.0714 -0.0376
# 4 -0.0071 -0.0076 -0.0188 27.9661 -0.0014 -1.8644
# 5 2.9080 -4.5715 -0.0714 -0.0014 29.4568 0.0021
# 6 0.0074 0.0070 -0.0376 -1.8644 0.0021 29.0186
#
#
#
# Elastic Compliance Matrix: (Units=1/GPa)
#
#
# Indices 1 2 3 4 5 6 
#
# 1 0.012134 -0.004156 -0.003127 -0.000001 -0.001850 -0.000006
# 2 -0.004156 0.019226 -0.005299 0.000000 0.003381 -0.000011
# 3 -0.003127 -0.005299 0.012923 0.000008 -0.000482 0.000019
# 4 -0.000001 0.000000 0.000008 0.035911 0.000002 0.002307
# 5 -0.001850 0.003381 -0.000482 0.000002 0.034654 -0.000003
# 6 -0.000006 -0.000011 0.000019 0.002307 -0.000003 0.034609
#
#
# Mechanical properties :
#
#
# Convention : Reuss Voigt Hill
#
# Bulk Modulus (GPa) = 52.30704 54.53896 53.42300
# Shear Modulus (GPa) = 27.62519 28.48070 28.05295
#
# Velocity S-wave (km/s) = 3.71670 3.77381 3.74536
# Velocity P-wave (km/s) = 6.67640 6.80153 6.73925
#
# Compressibility (1/GPa) = 0.01911789
#
# Stress axis : x y z
#
# Youngs Moduli (GPa) = 82.41623 52.01371 77.38039
#
# Poissons Ratio (x) = 0.21619 0.24196
# Poissons Ratio (y) = 0.34256 0.41004
# Poissons Ratio (z) = 0.25770 0.27562
#
# Static dielectric constant tensor:
#      x y z
#    x 3.819760 -0.000010 -0.133880 
#    y -0.000010 3.525580 -0.000030 
#    z -0.133880 -0.000030 3.935510 
# 
# 
# High freq. dielectric constant tensor:
#      x y z
#    x 1.786840 0.000000 -0.002060 
#    y 0.000000 1.745460 0.000000 
#    z -0.002060 0.000000 1.799320 
# 
# From -- ./inp_files/271048.got.cif
#   From: 2010.06.25/outbox.cif.g09.slc.cpg/sg15_136_cif.got.tgz:271048.got - 2010.06.28 07:06:18.
