data_PCOD8141503
_publ_section_title
;
Structure prediction by ZEFSAII (Michael W. Deem and Ramdas Pophale) SiO2 
 PCOD8141503
Probable space group: C 2/C
;
_chemical_formula_sum "Si O2"
_cell_formula_units_Z 44
_cell_length_a 8.942251
_cell_length_b 27.641216
_cell_length_c 9.666330
_cell_angle_alpha 90.000000
_cell_angle_beta 116.544114
_cell_angle_gamma 90.000000
_cell_volume 2137.420281
_symmetry_space_group_name_H-M "C 2/C"
_symmetry_group_IT_number 15
_symmetry_cell_setting 'monoclinic'
loop_
_space_group_symop_operation_xyz
x,y,z
-x,y,1/2-z
-x,-y,-z
x,-y,1/2+z
1/2+x,1/2+y,z
1/2-x,1/2+y,1/2-z
1/2-x,1/2-y,-z
1/2+x,1/2-y,1/2+z
loop_
_atom_site_type_symbol
_atom_site_label
_atom_site_fract_x
_atom_site_fract_y
_atom_site_fract_z
Si Si1 0.316638 0.851623 0.137227
Si Si2 0.355233 0.239645 0.803696
Si Si3 0.500000 0.110888 0.250000
Si Si4 0.916493 0.305910 0.906148
Si Si5 0.217616 0.038144 0.205007
Si Si6 0.829985 0.049839 0.997237
O O1 0.500000 0.871720 0.250000
O O2 0.264692 0.811848 0.230697
O O3 0.308115 0.822360 0.991092
O O4 0.196478 0.896971 0.074579
O O5 0.500000 0.250773 0.750000
O O6 0.214480 0.281312 0.754818
O O7 0.443294 0.233361 0.989719
O O8 0.495530 0.146279 0.116751
O O9 0.334840 0.077935 0.181735
O O10 0.249367 0.038700 0.383953
O O11 0.027839 0.048417 0.088888
O O12 0.254468 0.986327 0.149164
#
# Coordination Sequence:
#
# PCOD8141503 Si02
#       6
#     8   8   4   8   8   8
#     4   9  18  35  62  89 113 153 209 255 302 371
#     4   9  19  36  59  87 118 159 208 261 301 375
#     4  12  24  38  58  94 126 166 204 258 314 376
#     4  10  21  37  56  88 124 160 206 251 315 364
#     4  10  24  39  63  89 127 160 211 254 315 375
#     4  10  21  43  61  91 119 167 205 261 311 378
#
# _framework density 20.585561999999999
#
# number of rings (size 3 to 8) (size 9 to 14) (size 15 to 20)
#    0.000    2.545    1.818    2.182    1.273    7.273 
#    0.000    0.000    0.000    0.000    0.000    0.000 
#    0.000    0.000    0.000    0.000    0.000    0.000 
#
# Total GULP energy -272593.084117 kJ/mol
# GULP energy per Si atom -12390.594733 kJ/mol
# Density = 2.053871 g / cm^3
# Si number density = 20.585562 Si / 1000 Ang^3
#
#
#
# Elastic Constant Matrix: (Units=GPa)
#
#
# Indices 1 2 3 4 5 6 
#
# 1 55.0445 41.9561 24.5586 0.0000 2.6213 0.0000
# 2 41.9561 114.5170 45.4556 0.0000 12.5245 0.0000
# 3 24.5586 45.4556 66.2933 0.0000 8.6862 0.0000
# 4 0.0000 0.0000 0.0000 35.8395 0.0000 4.2854
# 5 2.6213 12.5245 8.6862 0.0000 8.6558 0.0000
# 6 0.0000 0.0000 0.0000 4.2854 0.0000 27.4320
#
#
#
# Elastic Compliance Matrix: (Units=1/GPa)
#
#
# Indices 1 2 3 4 5 6 
#
# 1 0.026717 -0.008826 -0.005134 0.000000 0.009832 0.000000
# 2 -0.008826 0.015800 -0.005664 0.000000 -0.014506 0.000000
# 3 -0.005134 -0.005664 0.022559 0.000000 -0.012888 0.000000
# 4 0.000000 0.000000 0.000000 0.028433 0.000000 -0.004442
# 5 0.009832 -0.014506 -0.012888 0.000000 0.146476 0.000000
# 6 0.000000 0.000000 0.000000 -0.004442 0.000000 0.037148
#
#
# Mechanical properties :
#
#
# Convention : Reuss Voigt Hill
#
# Bulk Modulus (GPa) = 38.71644 51.08838 44.90241
# Shear Modulus (GPa) = 15.38516 22.64442 19.01479
#
# Velocity S-wave (km/s) = 2.73678 3.32025 3.04253
# Velocity P-wave (km/s) = 5.36983 6.29048 5.84830
#
# Compressibility (1/GPa) = 0.02582882
#
# Stress axis : x y z
#
# Youngs Moduli (GPa) = 37.42990 63.28925 44.32913
#
# Poissons Ratio (x) = 0.55857 0.22758
# Poissons Ratio (y) = 0.33035 0.25107
# Poissons Ratio (z) = 0.19216 0.35845
#
# Static dielectric constant tensor:
#      x y z
#    x 3.537660 0.000000 -0.137160 
#    y 0.000000 3.789160 0.000000 
#    z -0.137160 0.000000 3.903430 
# 
# 
# High freq. dielectric constant tensor:
#      x y z
#    x 1.777540 0.000000 -0.000870 
#    y 0.000000 1.809500 0.000000 
#    z -0.000870 0.000000 1.807690 
# 
# From -- ./inp_files/81567.got.cif
#   From: 2010.06.25/outbox.cif.g09.slc.cpg/sg15_41_cif.got.tgz:81567.got - 2010.06.28 07:06:18.
