data_PCOD8141052
_publ_section_title
;
Structure prediction by ZEFSAII (Michael W. Deem and Ramdas Pophale) SiO2 
 PCOD8141052
Probable space group: C 2/C
;
_chemical_formula_sum "Si O2"
_cell_formula_units_Z 64
_cell_length_a 13.178405
_cell_length_b 13.681793
_cell_length_c 21.667326
_cell_angle_alpha 90.000000
_cell_angle_beta 63.843084
_cell_angle_gamma 90.000000
_cell_volume 3506.624331
_symmetry_space_group_name_H-M "C 2/C"
_symmetry_group_IT_number 15
_symmetry_cell_setting 'monoclinic'
loop_
_space_group_symop_operation_xyz
x,y,z
-x,y,1/2-z
-x,-y,-z
x,-y,1/2+z
1/2+x,1/2+y,z
1/2-x,1/2+y,1/2-z
1/2-x,1/2-y,-z
1/2+x,1/2-y,1/2+z
loop_
_atom_site_type_symbol
_atom_site_label
_atom_site_fract_x
_atom_site_fract_y
_atom_site_fract_z
Si Si1 0.348067 0.907750 0.430637
Si Si2 0.373281 0.020681 0.305058
Si Si3 0.474093 0.280104 0.926049
Si Si4 0.725683 0.598696 0.081564
Si Si5 0.209494 0.181059 0.303046
Si Si6 0.849020 0.214240 0.577561
Si Si7 0.627032 0.538122 0.226185
Si Si8 0.789478 0.871248 0.216851
O O1 0.380806 0.994732 0.375728
O O2 0.453183 0.834318 0.414869
O O3 0.297417 0.953439 0.507770
O O4 0.249968 0.843200 0.428942
O O5 0.500000 0.039326 0.250000
O O6 0.317605 0.931099 0.281664
O O7 0.303778 0.120949 0.315768
O O8 0.386742 0.348300 0.912875
O O9 0.599752 0.312574 0.875588
O O10 0.459517 0.295167 0.004164
O O11 0.810159 0.674137 0.092332
O O12 0.689531 0.521107 0.143693
O O13 0.186052 0.127529 0.245127
O O14 0.248819 0.288965 0.274891
O O15 0.868216 0.171532 0.640885
O O16 0.500000 0.571176 0.250000
O O17 0.629249 0.440636 0.265896
#
# Coordination Sequence:
#
# PCOD8141052 Si02
#       8
#     8   8   8   8   8   8   8   8
#     4   8  16  30  53  81 104 136 172 218 267 310
#     4  10  21  36  54  79 104 138 182 219 267 313
#     4   9  16  29  55  82 104 134 172 220 271 306
#     4   9  15  30  54  78 110 135 170 219 265 309
#     4  11  21  34  55  78 108 140 176 222 261 314
#     4   8  15  30  51  80 108 136 170 216 267 312
#     4  11  21  33  52  82 108 141 178 214 264 310
#     4  10  21  35  53  78 108 140 178 216 260 318
#
# _framework density 18.251170999999999
#
# number of rings (size 3 to 8) (size 9 to 14) (size 15 to 20)
#    0.000    2.500    2.500    2.250    0.000    1.000 
#    2.250    2.500    2.750    3.750    0.000    0.000 
#    0.000    0.000    0.000    0.000    0.000    0.000 
#
# Total GULP energy -396616.624821 kJ/mol
# GULP energy per Si atom -12394.269526 kJ/mol
# Density = 1.820963 g / cm^3
# Si number density = 18.251171 Si / 1000 Ang^3
#
#
#
# Elastic Constant Matrix: (Units=GPa)
#
#
# Indices 1 2 3 4 5 6 
#
# 1 53.2908 17.5771 43.6102 0.0000 -9.4214 0.0000
# 2 17.5771 50.5762 35.6272 0.0000 -1.0965 0.0000
# 3 43.6102 35.6272 161.1921 0.0000 -10.8410 0.0000
# 4 0.0000 0.0000 0.0000 20.9963 0.0000 2.5584
# 5 -9.4214 -1.0965 -10.8410 0.0000 23.7515 0.0000
# 6 0.0000 0.0000 0.0000 2.5584 0.0000 15.6058
#
#
#
# Elastic Compliance Matrix: (Units=1/GPa)
#
#
# Indices 1 2 3 4 5 6 
#
# 1 0.026284 -0.005120 -0.005462 0.000000 0.007697 0.000000
# 2 -0.005120 0.024456 -0.004210 0.000000 -0.002824 0.000000
# 3 -0.005462 -0.004210 0.008721 0.000000 0.001620 0.000000
# 4 0.000000 0.000000 0.000000 0.048598 0.000000 -0.007967
# 5 0.007697 -0.002824 0.001620 0.000000 0.045765 0.000000
# 6 0.000000 0.000000 0.000000 -0.007967 0.000000 0.065385
#
#
# Mechanical properties :
#
#
# Convention : Reuss Voigt Hill
#
# Bulk Modulus (GPa) = 33.47077 50.96534 42.21806
# Shear Modulus (GPa) = 19.32353 23.28704 21.30528
#
# Velocity S-wave (km/s) = 3.25738 3.57588 3.42034
# Velocity P-wave (km/s) = 5.70317 6.71076 6.22738
#
# Compressibility (1/GPa) = 0.02987682
#
# Stress axis : x y z
#
# Youngs Moduli (GPa) = 38.04570 40.88965 114.66751
#
# Poissons Ratio (x) = 0.20937 0.62628
# Poissons Ratio (y) = 0.19481 0.48274
# Poissons Ratio (z) = 0.20780 0.17214
#
# Static dielectric constant tensor:
#      x y z
#    x 3.024570 0.000000 0.103400 
#    y 0.000000 3.174530 0.000000 
#    z 0.103400 0.000000 3.898910 
# 
# 
# High freq. dielectric constant tensor:
#      x y z
#    x 1.670760 0.000000 -0.003500 
#    y 0.000000 1.680270 0.000000 
#    z -0.003500 0.000000 1.727470 
# 
# From -- ./inp_files/238737.got.cif
#   From: 2010.06.25/outbox.cif.g09.slc.cpg/sg15_120_cif.got.tgz:238737.got - 2010.06.28 07:06:18.
