data_PCOD8141325
_publ_section_title
;
Structure prediction by ZEFSAII (Michael W. Deem and Ramdas Pophale) SiO2 
 PCOD8141325
Probable space group: C 2/C
;
_chemical_formula_sum "Si O2"
_cell_formula_units_Z 56
_cell_length_a 29.609044
_cell_length_b 10.464851
_cell_length_c 26.937687
_cell_angle_alpha 90.000000
_cell_angle_beta 19.407554
_cell_angle_gamma 90.000000
_cell_volume 2773.505991
_symmetry_space_group_name_H-M "C 2/C"
_symmetry_group_IT_number 15
_symmetry_cell_setting 'monoclinic'
loop_
_space_group_symop_operation_xyz
x,y,z
-x,y,1/2-z
-x,-y,-z
x,-y,1/2+z
1/2+x,1/2+y,z
1/2-x,1/2+y,1/2-z
1/2-x,1/2-y,-z
1/2+x,1/2-y,1/2+z
loop_
_atom_site_type_symbol
_atom_site_label
_atom_site_fract_x
_atom_site_fract_y
_atom_site_fract_z
Si Si1 0.861887 0.463797 0.115989
Si Si2 0.763725 0.617087 0.422333
Si Si3 0.226417 0.221343 0.231610
Si Si4 0.522420 0.021997 0.107826
Si Si5 0.497663 0.540428 0.309651
Si Si6 0.225346 0.404384 0.476906
Si Si7 0.004030 0.240291 0.104129
O O1 0.791142 0.339129 0.212301
O O2 0.766138 0.589874 0.218725
O O3 0.894159 0.426039 0.025785
O O4 0.000000 0.500000 0.000000
O O5 0.643658 0.524971 0.528616
O O6 0.814362 0.576149 0.424567
O O7 0.702301 0.758242 0.485467
O O8 0.893162 0.611933 0.252005
O O9 0.088505 0.189960 0.345043
O O10 0.339874 0.263068 0.074417
O O11 0.459331 0.883802 0.162604
O O12 0.624974 0.010671 0.047888
O O13 0.500000 0.585898 0.250000
O O14 0.618175 0.440305 0.194262
O O15 0.519775 0.661603 0.321358
#
# Coordination Sequence:
#
# PCOD8141325 Si02
#       7
#     8   8   8   8   8   8   8
#     4  11  24  45  65  98 127 163 219 265 321 387
#     4  10  21  38  61  87 127 166 202 251 314 364
#     4  11  23  46  70  88 132 167 207 271 319 384
#     4  11  22  39  64  88 122 159 210 255 304 380
#     4  10  21  36  59  91 122 157 210 248 294 382
#     4  10  21  39  58  91 127 163 201 256 311 364
#     4  11  23  42  65  88 126 168 200 256 329 361
#
# _framework density 20.191050000000001
#
# number of rings (size 3 to 8) (size 9 to 14) (size 15 to 20)
#    0.000    1.429    2.857    3.857    0.000    5.143 
#    2.571    3.571    0.000    0.000    0.000    0.000 
#    0.000    0.000    0.000    0.000    0.000    0.000 
#
# Total GULP energy -347289.453873 kJ/mol
# GULP energy per Si atom -12403.194781 kJ/mol
# Density = 2.014509 g / cm^3
# Si number density = 20.191050 Si / 1000 Ang^3
#
#
#
# Elastic Constant Matrix: (Units=GPa)
#
#
# Indices 1 2 3 4 5 6 
#
# 1 77.9401 37.1160 23.8148 -0.0008 -7.8967 -0.0002
# 2 37.1160 78.4655 36.4645 -0.0168 7.5928 0.0059
# 3 23.8148 36.4645 83.1064 -0.0081 5.3031 0.0036
# 4 -0.0008 -0.0168 -0.0081 34.6491 0.0065 2.1778
# 5 -7.8967 7.5928 5.3031 0.0065 31.7058 -0.0020
# 6 -0.0002 0.0059 0.0036 2.1778 -0.0020 36.9740
#
#
#
# Elastic Compliance Matrix: (Units=1/GPa)
#
#
# Indices 1 2 3 4 5 6 
#
# 1 0.018073 -0.008290 -0.001977 -0.000006 0.006817 0.000002
# 2 -0.008290 0.020041 -0.006044 0.000009 -0.005853 -0.000004
# 3 -0.001977 -0.006044 0.015354 0.000001 -0.001613 -0.000001
# 4 -0.000006 0.000009 0.000001 0.028968 -0.000010 -0.001706
# 5 0.006817 -0.005853 -0.001613 -0.000010 0.034909 0.000004
# 6 0.000002 -0.000004 -0.000001 -0.001706 0.000004 0.027147
#
#
# Mechanical properties :
#
#
# Convention : Reuss Voigt Hill
#
# Bulk Modulus (GPa) = 47.97007 48.25584 48.11296
# Shear Modulus (GPa) = 27.16470 30.14022 28.65246
#
# Velocity S-wave (km/s) = 3.67193 3.86781 3.77114
# Velocity P-wave (km/s) = 6.46429 6.62556 6.54542
#
# Compressibility (1/GPa) = 0.02084633
#
# Stress axis : x y z
#
# Youngs Moduli (GPa) = 55.33193 49.89737 65.12891
#
# Poissons Ratio (x) = 0.41365 0.12873
# Poissons Ratio (y) = 0.45870 0.39366
# Poissons Ratio (z) = 0.10936 0.30160
#
# Static dielectric constant tensor:
#      x y z
#    x 3.919810 -0.000020 0.099680 
#    y -0.000020 3.599460 0.000020 
#    z 0.099680 0.000020 3.666300 
# 
# 
# High freq. dielectric constant tensor:
#      x y z
#    x 1.793540 0.000000 -0.006800 
#    y 0.000000 1.783410 0.000000 
#    z -0.006800 0.000000 1.794650 
# 
# From -- ./inp_files/304265.got.cif
#   From: 2010.06.25/outbox.cif.g09.slc.cpg/sg15_153_cif.got.tgz:304265.got - 2010.06.28 07:06:18.
