data_PCOD8141378
_publ_section_title
;
Structure prediction by ZEFSAII (Michael W. Deem and Ramdas Pophale) SiO2 
 PCOD8141378
Probable space group: C 2/C
;
_chemical_formula_sum "Si O2"
_cell_formula_units_Z 40
_cell_length_a 9.757280
_cell_length_b 28.183667
_cell_length_c 7.539037
_cell_angle_alpha 90.000000
_cell_angle_beta 67.169958
_cell_angle_gamma 90.000000
_cell_volume 1910.789318
_symmetry_space_group_name_H-M "C 2/C"
_symmetry_group_IT_number 15
_symmetry_cell_setting 'monoclinic'
loop_
_space_group_symop_operation_xyz
x,y,z
-x,y,1/2-z
-x,-y,-z
x,-y,1/2+z
1/2+x,1/2+y,z
1/2-x,1/2+y,1/2-z
1/2-x,1/2-y,-z
1/2+x,1/2-y,1/2+z
loop_
_atom_site_type_symbol
_atom_site_label
_atom_site_fract_x
_atom_site_fract_y
_atom_site_fract_z
Si Si1 0.646425 0.642029 0.274187
Si Si2 0.334348 0.040851 0.852893
Si Si3 0.669174 0.146922 0.667256
Si Si4 0.332904 0.703740 0.890863
Si Si5 0.150027 0.036298 0.264885
O O1 0.500000 0.661525 0.250000
O O2 0.679290 0.668875 0.437646
O O3 0.615572 0.588301 0.361064
O O4 0.775784 0.649472 0.063983
O O5 0.500000 0.019535 0.750000
O O6 0.321038 0.092296 0.764831
O O7 0.202399 0.004685 0.869670
O O8 0.297700 0.046974 0.076209
O O9 0.500000 0.164458 0.750000
O O10 0.758047 0.180758 0.755047
O O11 0.500000 0.716414 0.750000
O O12 0.250000 0.750000 0.000000
O O13 0.000000 0.016520 0.250000
#
# Coordination Sequence:
#
# PCOD8141378 Si02
#       5
#     8   8   8   8   8
#     4  10  22  45  66  95 137 174 215 271 330 391
#     4  10  21  38  58  93 131 172 214 259 322 373
#     4  10  24  44  67  96 138 177 216 271 329 391
#     4  12  28  46  72 101 126 170 223 272 340 395
#     4  10  21  36  61  93 124 171 219 257 316 381
#
# _framework density 20.933758000000001
#
# number of rings (size 3 to 8) (size 9 to 14) (size 15 to 20)
#    0.000    1.600    2.000    1.200    5.600    2.400 
#    0.000    0.000    0.000    0.000    0.000    0.000 
#    0.000    0.000    0.000    0.000    0.000    0.000 
#
# Total GULP energy -247805.713829 kJ/mol
# GULP energy per Si atom -12390.285691 kJ/mol
# Density = 2.088611 g / cm^3
# Si number density = 20.933758 Si / 1000 Ang^3
#
#
#
# Elastic Constant Matrix: (Units=GPa)
#
#
# Indices 1 2 3 4 5 6 
#
# 1 110.7795 51.9894 46.3449 0.0000 -15.9181 0.0000
# 2 51.9894 100.4652 32.3188 0.0000 9.2271 0.0000
# 3 46.3449 32.3188 110.5945 0.0000 -15.3710 0.0000
# 4 0.0000 0.0000 0.0000 56.0804 0.0000 19.2537
# 5 -15.9181 9.2271 -15.3710 0.0000 39.8215 0.0000
# 6 0.0000 0.0000 0.0000 19.2537 0.0000 47.7694
#
#
#
# Elastic Compliance Matrix: (Units=1/GPa)
#
#
# Indices 1 2 3 4 5 6 
#
# 1 0.014583 -0.007102 -0.003167 0.000000 0.006253 0.000000
# 2 -0.007102 0.015083 -0.002443 0.000000 -0.007277 0.000000
# 3 -0.003167 -0.002443 0.011608 0.000000 0.003781 0.000000
# 4 0.000000 0.000000 0.000000 0.020695 0.000000 -0.008341
# 5 0.006253 -0.007277 0.003781 0.000000 0.030757 0.000000
# 6 0.000000 0.000000 0.000000 -0.008341 0.000000 0.024296
#
#
# Mechanical properties :
#
#
# Convention : Reuss Voigt Hill
#
# Bulk Modulus (GPa) = 63.08616 64.79393 63.94005
# Shear Modulus (GPa) = 33.84531 41.47998 37.66265
#
# Velocity S-wave (km/s) = 4.02528 4.45622 4.24622
# Velocity P-wave (km/s) = 7.19760 7.58263 7.39262
#
# Compressibility (1/GPa) = 0.01585134
#
# Stress axis : x y z
#
# Youngs Moduli (GPa) = 68.57142 66.29871 86.14437
#
# Poissons Ratio (x) = 0.47087 0.27279
# Poissons Ratio (y) = 0.48701 0.21044
# Poissons Ratio (z) = 0.21714 0.16196
#
# Static dielectric constant tensor:
#      x y z
#    x 3.627940 0.000000 -0.202630 
#    y 0.000000 4.021180 0.000000 
#    z -0.202630 0.000000 3.903440 
# 
# 
# High freq. dielectric constant tensor:
#      x y z
#    x 1.814710 0.000000 -0.021770 
#    y 0.000000 1.817400 0.000000 
#    z -0.021770 0.000000 1.831770 
# 
# From -- ./inp_files/25359.got.cif
#   From: 2010.06.25/outbox.cif.g09.slc.cpg/sg15_13_cif.got.tgz:25359.got - 2010.06.28 07:06:18.
