data_PCOD8141935
_publ_section_title
;
Structure prediction by ZEFSAII (Michael W. Deem and Ramdas Pophale) SiO2 
 PCOD8141935
Probable space group: C 2/C
;
_chemical_formula_sum "Si O2"
_cell_formula_units_Z 44
_cell_length_a 14.270847
_cell_length_b 9.037208
_cell_length_c 25.384597
_cell_angle_alpha 90.000000
_cell_angle_beta 137.301678
_cell_angle_gamma 90.000000
_cell_volume 2220.099689
_symmetry_space_group_name_H-M "C 2/C"
_symmetry_group_IT_number 15
_symmetry_cell_setting 'monoclinic'
loop_
_space_group_symop_operation_xyz
x,y,z
-x,y,1/2-z
-x,-y,-z
x,-y,1/2+z
1/2+x,1/2+y,z
1/2-x,1/2+y,1/2-z
1/2-x,1/2-y,-z
1/2+x,1/2-y,1/2+z
loop_
_atom_site_type_symbol
_atom_site_label
_atom_site_fract_x
_atom_site_fract_y
_atom_site_fract_z
Si Si1 0.000000 0.216379 0.750000
Si Si2 0.620265 0.895800 0.159001
Si Si3 0.276260 0.900722 0.408349
Si Si4 0.219625 0.603807 0.287336
Si Si5 0.350756 0.430984 0.947172
Si Si6 0.304464 0.914211 0.023905
O O1 0.886102 0.119531 0.672250
O O2 0.927235 0.315331 0.764996
O O3 0.648464 0.963996 0.112745
O O4 0.662643 0.723606 0.178430
O O5 0.461351 0.913652 0.108520
O O6 0.713398 0.983639 0.239189
O O7 0.351700 0.746596 0.454347
O O8 0.292326 0.018259 0.460844
O O9 0.259726 0.523882 0.358765
O O10 0.286529 0.492672 0.973778
O O11 0.500000 0.500000 0.000000
O O12 0.250000 0.750000 0.000000
#
# Coordination Sequence:
#
# PCOD8141935 Si02
#       6
#     4   8   8   8   8   8
#     4   8  18  38  58  80 110 152 198 232 282 352
#     4  10  22  39  60  86 118 152 192 242 292 348
#     4  10  22  39  60  85 117 157 194 236 294 356
#     4  10  21  38  59  84 113 151 193 237 288 345
#     4  10  22  40  61  85 116 158 199 239 290 357
#     4  12  24  38  59  89 121 152 194 248 296 346
#
# _framework density 19.818929000000001
#
# number of rings (size 3 to 8) (size 9 to 14) (size 15 to 20)
#    0.000    2.182    0.000    5.455    0.000    8.727 
#    0.000    0.000    0.000    0.000    0.000    0.000 
#    0.000    0.000    0.000    0.000    0.000    0.000 
#
# Total GULP energy -272802.627969 kJ/mol
# GULP energy per Si atom -12400.119453 kJ/mol
# Density = 1.977382 g / cm^3
# Si number density = 19.818929 Si / 1000 Ang^3
#
#
#
# Elastic Constant Matrix: (Units=GPa)
#
#
# Indices 1 2 3 4 5 6 
#
# 1 97.0702 22.3556 33.4094 0.0000 -4.6396 0.0000
# 2 22.3556 77.7959 40.7635 0.0000 -18.2285 0.0000
# 3 33.4094 40.7635 85.9616 0.0000 -3.5663 0.0000
# 4 0.0000 0.0000 0.0000 28.0753 0.0000 -12.7571
# 5 -4.6396 -18.2285 -3.5663 0.0000 53.0911 0.0000
# 6 0.0000 0.0000 0.0000 -12.7571 0.0000 32.3938
#
#
#
# Elastic Compliance Matrix: (Units=1/GPa)
#
#
# Indices 1 2 3 4 5 6 
#
# 1 0.012002 -0.001238 -0.004063 0.000000 0.000351 0.000000
# 2 -0.001238 0.018889 -0.008235 0.000000 0.005824 0.000000
# 3 -0.004063 -0.008235 0.017033 0.000000 -0.002038 0.000000
# 4 0.000000 0.000000 0.000000 0.043381 0.000000 0.017084
# 5 0.000351 0.005824 -0.002038 0.000000 0.020729 0.000000
# 6 0.000000 0.000000 0.000000 0.017084 0.000000 0.037598
#
#
# Mechanical properties :
#
#
# Convention : Reuss Voigt Hill
#
# Bulk Modulus (GPa) = 47.95509 50.43163 49.19336
# Shear Modulus (GPa) = 27.22499 33.66533 30.44516
#
# Velocity S-wave (km/s) = 3.71035 4.12593 3.92365
# Velocity P-wave (km/s) = 6.52723 6.94256 6.73810
#
# Compressibility (1/GPa) = 0.02085284
#
# Stress axis : x y z
#
# Youngs Moduli (GPa) = 83.31877 52.93989 58.71062
#
# Poissons Ratio (x) = 0.06552 0.23855
# Poissons Ratio (y) = 0.10312 0.48347
# Poissons Ratio (z) = 0.33854 0.43595
#
# Static dielectric constant tensor:
#      x y z
#    x 3.739460 0.000000 0.086250 
#    y 0.000000 3.434440 0.000000 
#    z 0.086250 0.000000 3.562380 
# 
# 
# High freq. dielectric constant tensor:
#      x y z
#    x 1.788200 0.000000 0.002670 
#    y 0.000000 1.758990 0.000000 
#    z 0.002670 0.000000 1.779830 
# 
# From -- ./inp_files/236216.got.cif
#   From: 2010.06.25/outbox.cif.g09.slc.cpg/sg15_119_cif.got.tgz:236216.got - 2010.06.28 07:06:18.
