data_PCOD8141809
_publ_section_title
;
Structure prediction by ZEFSAII (Michael W. Deem and Ramdas Pophale) SiO2 
 PCOD8141809
Probable space group: C 2/C
;
_chemical_formula_sum "Si O2"
_cell_formula_units_Z 48
_cell_length_a 14.163243
_cell_length_b 9.577583
_cell_length_c 24.863265
_cell_angle_alpha 90.000000
_cell_angle_beta 40.603174
_cell_angle_gamma 90.000000
_cell_volume 2195.003394
_symmetry_space_group_name_H-M "C 2/C"
_symmetry_group_IT_number 15
_symmetry_cell_setting 'monoclinic'
loop_
_space_group_symop_operation_xyz
x,y,z
-x,y,1/2-z
-x,-y,-z
x,-y,1/2+z
1/2+x,1/2+y,z
1/2-x,1/2+y,1/2-z
1/2-x,1/2-y,-z
1/2+x,1/2-y,1/2+z
loop_
_atom_site_type_symbol
_atom_site_label
_atom_site_fract_x
_atom_site_fract_y
_atom_site_fract_z
Si Si1 0.658709 0.481448 0.455946
Si Si2 0.837332 0.238379 0.759557
Si Si3 0.662516 0.258580 0.116390
Si Si4 0.329671 0.258847 0.834182
Si Si5 0.685836 0.444690 0.757886
Si Si6 0.647962 0.453383 0.581008
O O1 0.500000 0.500000 0.500000
O O2 0.729952 0.630354 0.438050
O O3 0.753776 0.392534 0.372480
O O4 0.653740 0.405974 0.516444
O O5 0.842583 0.201404 0.819315
O O6 0.737698 0.372957 0.790644
O O7 0.998384 0.274800 0.667532
O O8 0.756288 0.103808 0.768095
O O9 0.722483 0.394269 0.058180
O O10 0.500000 0.233754 0.750000
O O11 0.260619 0.347289 0.814880
O O12 0.284988 0.336629 0.908949
O O13 0.515379 0.465793 0.827523
#
# Coordination Sequence:
#
# PCOD8141809 Si02
#       6
#     8   8   8   8   8   8
#     4  12  26  40  66  97 132 163 215 269 318 379
#     4  10  21  37  65  95 126 161 216 264 314 371
#     4  10  22  40  63  91 127 170 206 257 324 382
#     4  10  23  43  67  93 126 171 216 259 316 384
#     4  10  21  38  68  96 125 163 217 269 311 376
#     4  10  21  45  63  88 131 174 205 256 330 379
#
# _framework density 21.867847999999999
#
# number of rings (size 3 to 8) (size 9 to 14) (size 15 to 20)
#    0.000    1.667    1.667    2.000    9.333    1.333 
#    0.000    2.500    0.000    0.000    0.000    0.000 
#    0.000    0.000    0.000    0.000    0.000    0.000 
#
# Total GULP energy -297509.649025 kJ/mol
# GULP energy per Si atom -12396.235376 kJ/mol
# Density = 2.181808 g / cm^3
# Si number density = 21.867848 Si / 1000 Ang^3
#
#
#
# Elastic Constant Matrix: (Units=GPa)
#
#
# Indices 1 2 3 4 5 6 
#
# 1 81.7964 46.7056 18.5378 0.0000 -4.0359 0.0000
# 2 46.7056 130.3716 36.8227 0.0000 -14.7764 0.0000
# 3 18.5378 36.8227 68.1303 0.0000 5.3198 0.0000
# 4 0.0000 0.0000 0.0000 32.3517 0.0000 4.4136
# 5 -4.0359 -14.7764 5.3198 0.0000 26.1151 0.0000
# 6 0.0000 0.0000 0.0000 4.4136 0.0000 40.3800
#
#
#
# Elastic Compliance Matrix: (Units=1/GPa)
#
#
# Indices 1 2 3 4 5 6 
#
# 1 0.015489 -0.005185 -0.001392 0.000000 -0.000256 0.000000
# 2 -0.005185 0.011904 -0.005575 0.000000 0.007070 0.000000
# 3 -0.001392 -0.005575 0.018629 0.000000 -0.007164 0.000000
# 4 0.000000 0.000000 0.000000 0.031378 0.000000 -0.003430
# 5 -0.000256 0.007070 -0.007164 0.000000 0.043712 0.000000
# 6 0.000000 0.000000 0.000000 -0.003430 0.000000 0.025140
#
#
# Mechanical properties :
#
#
# Convention : Reuss Voigt Hill
#
# Bulk Modulus (GPa) = 46.04491 53.82561 49.93526
# Shear Modulus (GPa) = 28.12240 31.65151 29.88696
#
# Velocity S-wave (km/s) = 3.59000 3.80860 3.70091
# Velocity P-wave (km/s) = 6.18755 6.63386 6.41459
#
# Compressibility (1/GPa) = 0.02171793
#
# Stress axis : x y z
#
# Youngs Moduli (GPa) = 64.56280 84.00761 53.67949
#
# Poissons Ratio (x) = 0.43555 0.07473
# Poissons Ratio (y) = 0.33474 0.29926
# Poissons Ratio (z) = 0.08988 0.46834
#
# Static dielectric constant tensor:
#      x y z
#    x 3.832220 0.000000 0.194560 
#    y 0.000000 4.024840 0.000000 
#    z 0.194560 0.000000 3.715820 
# 
# 
# High freq. dielectric constant tensor:
#      x y z
#    x 1.858640 0.000000 0.021660 
#    y 0.000000 1.870780 0.000000 
#    z 0.021660 0.000000 1.836360 
# 
# From -- ./inp_files/295387.got.cif
#   From: 2010.06.25/outbox.cif.g09.slc.cpg/sg15_148_cif.got.tgz:295387.got - 2010.06.28 07:06:18.
