data_PCOD8141691
_publ_section_title
;
Structure prediction by ZEFSAII (Michael W. Deem and Ramdas Pophale) SiO2 
 PCOD8141691
Probable space group: C 2/C
;
_chemical_formula_sum "Si O2"
_cell_formula_units_Z 64
_cell_length_a 18.017738
_cell_length_b 31.527080
_cell_length_c 9.529148
_cell_angle_alpha 90.000000
_cell_angle_beta 34.410116
_cell_angle_gamma 90.000000
_cell_volume 3058.955339
_symmetry_space_group_name_H-M "C 2/C"
_symmetry_group_IT_number 15
_symmetry_cell_setting 'monoclinic'
loop_
_space_group_symop_operation_xyz
x,y,z
-x,y,1/2-z
-x,-y,-z
x,-y,1/2+z
1/2+x,1/2+y,z
1/2-x,1/2+y,1/2-z
1/2-x,1/2-y,-z
1/2+x,1/2-y,1/2+z
loop_
_atom_site_type_symbol
_atom_site_label
_atom_site_fract_x
_atom_site_fract_y
_atom_site_fract_z
Si Si1 0.811378 0.637278 0.800389
Si Si2 0.136520 0.107890 0.594796
Si Si3 0.025076 0.223031 0.550052
Si Si4 0.267678 0.835847 0.674877
Si Si5 0.135693 0.980513 0.237748
Si Si6 0.548880 0.813367 0.874115
Si Si7 0.659268 0.551397 0.995785
Si Si8 0.787824 0.175192 0.806211
O O1 0.750355 0.591008 0.887152
O O2 0.718635 0.667616 0.850597
O O3 0.960121 0.643577 0.508127
O O4 0.828088 0.650020 0.934904
O O5 0.236375 0.121729 0.315758
O O6 0.126173 0.057954 0.641142
O O7 0.169373 0.130902 0.689145
O O8 0.000000 0.125382 0.750000
O O9 0.048874 0.272739 0.481524
O O10 0.894568 0.211107 0.666878
O O11 0.000000 0.213387 0.750000
O O12 0.147775 0.194335 0.316352
O O13 0.370324 0.809266 0.606915
O O14 0.206814 0.965488 0.269051
O O15 0.000000 0.000000 0.500000
O O16 0.205463 0.017736 0.041567
O O17 0.645963 0.811346 0.589225
O O18 0.500000 0.560601 0.250000
#
# Coordination Sequence:
#
# PCOD8141691 Si02
#       8
#     8   8   8   8   8   8   8   8
#     4  12  26  42  64  98 137 174 218 266 338 400
#     4  11  19  38  64  94 132 167 217 259 332 389
#     4  12  22  43  71  97 126 169 236 282 328 388
#     4  11  26  42  65  97 134 179 216 273 337 393
#     4  10  21  37  61  98 139 169 206 275 332 391
#     4  11  26  46  67  91 129 182 225 271 330 400
#     4  10  23  38  64 102 136 168 215 269 333 394
#     4  11  22  42  68  96 125 171 226 279 324 388
#
# _framework density 20.922176
#
# number of rings (size 3 to 8) (size 9 to 14) (size 15 to 20)
#    0.000    1.000    5.000    3.000    8.750    0.500 
#    2.250    0.000    0.000    3.000    0.000    0.000 
#    0.000    0.000    0.000    0.000    0.000    0.000 
#
# Total GULP energy -396562.668482 kJ/mol
# GULP energy per Si atom -12392.583390 kJ/mol
# Density = 2.087456 g / cm^3
# Si number density = 20.922176 Si / 1000 Ang^3
#
#
#
# Elastic Constant Matrix: (Units=GPa)
#
#
# Indices 1 2 3 4 5 6 
#
# 1 70.6779 26.8255 34.7860 0.0000 22.0069 0.0000
# 2 26.8255 125.7314 40.7340 0.0000 -3.5000 0.0000
# 3 34.7860 40.7340 53.5712 0.0000 4.9071 0.0000
# 4 0.0000 0.0000 0.0000 -14.5192 0.0000 14.7113
# 5 22.0069 -3.5000 4.9071 0.0000 43.3619 0.0000
# 6 0.0000 0.0000 0.0000 14.7113 0.0000 17.8381
#
#
#
# Elastic Compliance Matrix: (Units=1/GPa)
#
#
# Indices 1 2 3 4 5 6 
#
# 1 0.025188 -0.000955 -0.014603 0.000000 -0.011208 0.000000
# 2 -0.000955 0.010727 -0.007740 0.000000 0.002226 0.000000
# 3 -0.014603 -0.007740 0.033763 0.000000 0.002966 0.000000
# 4 0.000000 0.000000 0.000000 -0.037521 0.000000 0.030944
# 5 -0.011208 0.002226 0.002966 0.000000 0.028594 0.000000
# 6 0.000000 0.000000 0.000000 0.030944 0.000000 0.030540
#
#
# Mechanical properties :
#
#
# Convention : Reuss Voigt Hill
#
# Bulk Modulus (GPa) = 43.32461 50.51905 46.92183
# Shear Modulus (GPa) = 34.34513 19.17848 26.76181
#
# Velocity S-wave (km/s) = 4.05602 3.03092 3.58035
# Velocity P-wave (km/s) = 6.53357 6.03715 6.29026
#
# Compressibility (1/GPa) = 0.02308157
#
# Stress axis : x y z
#
# Youngs Moduli (GPa) = 39.70116 93.22409 29.61842
#
# Poissons Ratio (x) = 0.08903 0.43251
# Poissons Ratio (y) = 0.03792 0.22925
# Poissons Ratio (z) = 0.57975 0.72157
#
# Static dielectric constant tensor:
#      x y z
#    x 4.116900 0.000000 0.151280 
#    y 0.000000 3.808580 0.000000 
#    z 0.151280 0.000000 3.659270 
# 
# 
# High freq. dielectric constant tensor:
#      x y z
#    x 1.833520 0.000000 0.018600 
#    y 0.000000 1.817050 0.000000 
#    z 0.018600 0.000000 1.793730 
# 
# From -- ./inp_files/52823.got.cif
#   From: 2010.06.25/outbox.cif.g09.slc.cpg/sg15_27_cif.got.tgz:52823.got - 2010.06.28 07:06:18.
