data_PCOD8141635
_publ_section_title
;
Structure prediction by ZEFSAII (Michael W. Deem and Ramdas Pophale) SiO2 
 PCOD8141635
Probable space group: C 2/C
;
_chemical_formula_sum "Si O2"
_cell_formula_units_Z 48
_cell_length_a 16.727337
_cell_length_b 26.337089
_cell_length_c 8.917596
_cell_angle_alpha 90.000000
_cell_angle_beta 33.225190
_cell_angle_gamma 90.000000
_cell_volume 2152.624530
_symmetry_space_group_name_H-M "C 2/C"
_symmetry_group_IT_number 15
_symmetry_cell_setting 'monoclinic'
loop_
_space_group_symop_operation_xyz
x,y,z
-x,y,1/2-z
-x,-y,-z
x,-y,1/2+z
1/2+x,1/2+y,z
1/2-x,1/2+y,1/2-z
1/2-x,1/2-y,-z
1/2+x,1/2-y,1/2+z
loop_
_atom_site_type_symbol
_atom_site_label
_atom_site_fract_x
_atom_site_fract_y
_atom_site_fract_z
Si Si1 0.164993 0.254599 0.979884
Si Si2 0.585882 0.566211 0.354870
Si Si3 0.197482 0.009061 0.451888
Si Si4 0.132561 0.325098 0.447940
Si Si5 0.859004 0.361480 0.399065
Si Si6 0.753380 0.928470 0.360275
O O1 0.242833 0.218330 0.735915
O O2 0.250000 0.250000 0.000000
O O3 0.169063 0.315103 0.938297
O O4 0.000000 0.234397 0.250000
O O5 0.612749 0.548737 0.481455
O O6 0.424132 0.588541 0.594349
O O7 0.585019 0.518236 0.243102
O O8 0.714097 0.605005 0.106339
O O9 0.298464 0.043210 0.404797
O O10 0.284105 0.966823 0.219398
O O11 0.097249 0.338357 0.330922
O O12 0.168135 0.376699 0.479912
O O13 0.000000 0.301080 0.750000
O O14 0.000000 0.391389 0.250000
#
# Coordination Sequence:
#
# PCOD8141635 Si02
#       6
#     8   8   8   8   8   8
#     4   9  21  43  71  93 125 171 220 257 320 397
#     4  11  20  37  66  91 125 170 218 265 311 378
#     4  10  21  37  60  95 127 165 218 272 310 372
#     4  11  25  42  65  97 131 163 211 271 321 382
#     4  10  23  43  64  89 128 170 207 257 324 388
#     4  11  21  37  64  93 126 166 219 264 319 373
#
# _framework density 22.298362999999998
#
# number of rings (size 3 to 8) (size 9 to 14) (size 15 to 20)
#    0.000    1.667    1.667    4.000    7.000    0.000 
#    0.000   14.167    0.000    0.000    0.000    0.000 
#    0.000    0.000    0.000    0.000    0.000    0.000 
#
# Total GULP energy -297371.916434 kJ/mol
# GULP energy per Si atom -12390.496518 kJ/mol
# Density = 2.224761 g / cm^3
# Si number density = 22.298363 Si / 1000 Ang^3
#
#
#
# Elastic Constant Matrix: (Units=GPa)
#
#
# Indices 1 2 3 4 5 6 
#
# 1 93.3635 30.7096 41.6342 0.0012 6.5237 -0.0004
# 2 30.7096 95.8077 47.0033 0.0004 0.7208 0.0000
# 3 41.6342 47.0033 114.3734 0.0010 -1.8533 -0.0002
# 4 0.0012 0.0004 0.0010 12.4389 -0.0008 -4.1249
# 5 6.5237 0.7208 -1.8533 -0.0008 42.2070 0.0002
# 6 -0.0004 0.0000 -0.0002 -4.1249 0.0002 28.0370
#
#
#
# Elastic Compliance Matrix: (Units=1/GPa)
#
#
# Indices 1 2 3 4 5 6 
#
# 1 0.013396 -0.002339 -0.003951 -0.000001 -0.002204 0.000000
# 2 -0.002339 0.013491 -0.004694 0.000000 -0.000075 0.000000
# 3 -0.003951 -0.004694 0.012130 0.000000 0.001223 0.000000
# 4 -0.000001 0.000000 0.000000 0.084516 0.000002 0.012434
# 5 -0.002204 -0.000075 0.001223 0.000002 0.024088 0.000000
# 6 0.000000 0.000000 0.000000 0.012434 0.000000 0.037497
#
#
# Mechanical properties :
#
#
# Convention : Reuss Voigt Hill
#
# Bulk Modulus (GPa) = 58.65303 60.24876 59.45089
# Shear Modulus (GPa) = 23.49964 28.81642 26.15803
#
# Velocity S-wave (km/s) = 3.24986 3.59877 3.42876
# Velocity P-wave (km/s) = 6.35948 6.65930 6.51111
#
# Compressibility (1/GPa) = 0.01704942
#
# Stress axis : x y z
#
# Youngs Moduli (GPa) = 74.64896 74.12500 82.43768
#
# Poissons Ratio (x) = 0.17338 0.32570
# Poissons Ratio (y) = 0.17460 0.38696
# Poissons Ratio (z) = 0.29493 0.34794
#
# Static dielectric constant tensor:
#      x y z
#    x 4.173000 0.000000 0.092150 
#    y 0.000000 4.363210 0.000000 
#    z 0.092150 0.000000 3.896140 
# 
# 
# High freq. dielectric constant tensor:
#      x y z
#    x 1.884770 0.000000 0.004720 
#    y 0.000000 1.872280 0.000000 
#    z 0.004720 0.000000 1.857950 
# 
# From -- ./inp_files/52745.got.cif
#   From: 2010.06.25/outbox.cif.g09.slc.cpg/sg15_27_cif.got.tgz:52745.got - 2010.06.28 07:06:18.
