data_PCOD8141020
_publ_section_title
;
Structure prediction by ZEFSAII (Michael W. Deem and Ramdas Pophale) SiO2 
 PCOD8141020
Probable space group: C 2/C
;
_chemical_formula_sum "Si O2"
_cell_formula_units_Z 56
_cell_length_a 20.022019
_cell_length_b 12.268320
_cell_length_c 22.322079
_cell_angle_alpha 90.000000
_cell_angle_beta 151.330261
_cell_angle_gamma 90.000000
_cell_volume 2630.581660
_symmetry_space_group_name_H-M "C 2/C"
_symmetry_group_IT_number 15
_symmetry_cell_setting 'monoclinic'
loop_
_space_group_symop_operation_xyz
x,y,z
-x,y,1/2-z
-x,-y,-z
x,-y,1/2+z
1/2+x,1/2+y,z
1/2-x,1/2+y,1/2-z
1/2-x,1/2-y,-z
1/2+x,1/2-y,1/2+z
loop_
_atom_site_type_symbol
_atom_site_label
_atom_site_fract_x
_atom_site_fract_y
_atom_site_fract_z
Si Si1 0.720983 0.641284 0.814685
Si Si2 0.225103 0.166805 0.640706
Si Si3 0.584568 0.860420 0.693045
Si Si4 0.064755 0.251039 0.096028
Si Si5 0.274068 0.136706 0.986153
Si Si6 0.657494 0.993506 0.356624
Si Si7 0.197957 0.025586 0.202777
O O1 0.619031 0.733993 0.708267
O O2 0.876639 0.679934 0.915057
O O3 0.687545 0.522722 0.761546
O O4 0.680582 0.630567 0.853146
O O5 0.359812 0.212226 0.782786
O O6 0.274595 0.116664 0.616045
O O7 0.156204 0.070736 0.624947
O O8 0.105026 0.259230 0.534880
O O9 0.422694 0.874194 0.571925
O O10 0.661144 0.905225 0.813231
O O11 0.643390 0.932858 0.684458
O O12 0.092187 0.123215 0.109088
O O13 0.254173 0.035890 0.016156
O O14 0.250000 0.250000 0.000000
O O15 0.500000 0.965150 0.250000
#
# Coordination Sequence:
#
# PCOD8141020 Si02
#       7
#     8   8   8   8   8   8   8
#     4  10  21  34  58  91 118 157 196 256 310 365
#     4  10  21  41  63  90 123 163 204 255 306 365
#     4   9  19  36  53  83 123 149 197 250 310 363
#     4  10  22  39  62  93 124 156 204 257 313 360
#     4  11  21  33  58  88 118 160 199 254 303 372
#     4   9  19  39  59  83 116 165 204 239 309 367
#     4   9  20  37  58  87 119 160 196 251 312 366
#
# _framework density 21.288067999999999
#
# number of rings (size 3 to 8) (size 9 to 14) (size 15 to 20)
#    0.000    2.286    1.429    0.429    6.000    1.714 
#    7.714    0.714    0.000    0.000    0.000    0.000 
#    0.000    0.000    0.000    0.000    0.000    0.000 
#
# Total GULP energy -346936.196568 kJ/mol
# GULP energy per Si atom -12390.578449 kJ/mol
# Density = 2.123962 g / cm^3
# Si number density = 21.288068 Si / 1000 Ang^3
#
#
#
# Elastic Constant Matrix: (Units=GPa)
#
#
# Indices 1 2 3 4 5 6 
#
# 1 95.2811 26.6930 17.1928 0.0017 -21.5121 0.0006
# 2 26.6930 53.8742 19.1978 0.0041 -11.4432 0.0017
# 3 17.1928 19.1978 49.1685 0.0051 -9.9903 0.0021
# 4 0.0017 0.0041 0.0051 20.1122 0.0018 -5.5413
# 5 -21.5121 -11.4432 -9.9903 0.0018 28.2314 0.0005
# 6 0.0006 0.0017 0.0021 -5.5413 0.0005 41.4272
#
#
#
# Elastic Compliance Matrix: (Units=1/GPa)
#
#
# Indices 1 2 3 4 5 6 
#
# 1 0.013903 -0.004652 -0.001374 -0.000001 0.008222 0.000000
# 2 -0.004652 0.024178 -0.007049 -0.000003 0.003761 -0.000001
# 3 -0.001374 -0.007049 0.024542 -0.000006 0.004780 -0.000002
# 4 -0.000001 -0.000003 -0.000006 0.051623 -0.000007 0.006905
# 5 0.008222 0.003761 0.004780 -0.000007 0.044902 -0.000002
# 6 0.000000 -0.000001 -0.000002 0.006905 -0.000002 0.025062
#
#
# Mechanical properties :
#
#
# Convention : Reuss Voigt Hill
#
# Bulk Modulus (GPa) = 27.41909 36.05454 31.73681
# Shear Modulus (GPa) = 22.46988 26.97017 24.72002
#
# Velocity S-wave (km/s) = 3.25239 3.56324 3.41136
# Velocity P-wave (km/s) = 5.19731 5.82255 5.51880
#
# Compressibility (1/GPa) = 0.03647094
#
# Stress axis : x y z
#
# Youngs Moduli (GPa) = 71.92755 41.36061 40.74569
#
# Poissons Ratio (x) = 0.19242 0.05600
# Poissons Ratio (y) = 0.33463 0.28723
# Poissons Ratio (z) = 0.09886 0.29156
#
# Static dielectric constant tensor:
#      x y z
#    x 4.049930 0.000000 -0.084570 
#    y 0.000000 3.782740 0.000000 
#    z -0.084570 0.000000 3.603030 
# 
# 
# High freq. dielectric constant tensor:
#      x y z
#    x 1.832240 0.000000 -0.004070 
#    y 0.000000 1.819900 0.000000 
#    z -0.004070 0.000000 1.812030 
# 
# From -- ./inp_files/280012.got.cif
#   From: 2010.06.25/outbox.cif.g09.slc.cpg/sg15_141_cif.got.tgz:280012.got - 2010.06.28 07:06:18.
