data_PCOD8141422
_publ_section_title
;
Structure prediction by ZEFSAII (Michael W. Deem and Ramdas Pophale) SiO2 
 PCOD8141422
Probable space group: C 2/C
;
_chemical_formula_sum "Si O2"
_cell_formula_units_Z 60
_cell_length_a 19.518612
_cell_length_b 12.744276
_cell_length_c 13.877447
_cell_angle_alpha 90.000000
_cell_angle_beta 59.592377
_cell_angle_gamma 90.000000
_cell_volume 2977.184560
_symmetry_space_group_name_H-M "C 2/C"
_symmetry_group_IT_number 15
_symmetry_cell_setting 'monoclinic'
loop_
_space_group_symop_operation_xyz
x,y,z
-x,y,1/2-z
-x,-y,-z
x,-y,1/2+z
1/2+x,1/2+y,z
1/2-x,1/2+y,1/2-z
1/2-x,1/2-y,-z
1/2+x,1/2-y,1/2+z
loop_
_atom_site_type_symbol
_atom_site_label
_atom_site_fract_x
_atom_site_fract_y
_atom_site_fract_z
Si Si1 0.599474 0.499390 0.035881
Si Si2 0.344407 0.875140 0.430870
Si Si3 0.500000 0.788914 0.250000
Si Si4 0.598207 0.393654 0.738817
Si Si5 0.253313 0.264846 0.852925
Si Si6 0.308693 0.723619 0.811270
Si Si7 0.059547 0.093322 0.876468
Si Si8 0.234841 0.410963 0.528708
O O1 0.576849 0.553412 0.152276
O O2 0.536540 0.402538 0.064076
O O3 0.591234 0.594701 0.963973
O O4 0.687305 0.451302 0.970418
O O5 0.438563 0.864214 0.348634
O O6 0.291521 0.835621 0.378287
O O7 0.326733 0.802847 0.536802
O O8 0.325217 0.997184 0.457969
O O9 0.451495 0.713812 0.210909
O O10 0.690789 0.366404 0.675927
O O11 0.581153 0.473424 0.835477
O O12 0.240040 0.237405 0.751713
O O13 0.397018 0.679604 0.721728
O O14 0.313952 0.832014 0.866885
O O15 0.261688 0.640563 0.909449
#
# Coordination Sequence:
#
# PCOD8141422 Si02
#       8
#     8   8   4   8   8   8   8   8
#     4  11  21  36  64  92 122 159 205 261 317 356
#     4  10  21  38  62  87 122 158 202 259 308 367
#     4  10  22  34  62  90 118 156 204 248 316 364
#     4  11  19  38  60  91 122 152 204 270 305 361
#     4  10  21  36  63  90 116 160 210 256 306 370
#     4  11  24  38  60  90 124 165 208 248 312 380
#     4  11  22  34  63  94 127 156 201 265 320 367
#     4  11  23  42  59  86 128 167 206 252 306 381
#
# _framework density 20.153269000000002
#
# number of rings (size 3 to 8) (size 9 to 14) (size 15 to 20)
#    0.000    1.333    4.000    1.600    3.733    1.067 
#    0.000    2.667    0.000    4.000    0.000    0.000 
#    0.000    0.000    0.000    0.000    0.000    0.000 
#
# Total GULP energy -371922.698925 kJ/mol
# GULP energy per Si atom -12397.423298 kJ/mol
# Density = 2.010740 g / cm^3
# Si number density = 20.153269 Si / 1000 Ang^3
#
#
#
# Elastic Constant Matrix: (Units=GPa)
#
#
# Indices 1 2 3 4 5 6 
#
# 1 81.0061 29.4495 44.7454 0.0000 -9.4159 0.0000
# 2 29.4495 86.0224 31.4388 0.0000 -12.8216 0.0000
# 3 44.7454 31.4388 96.7676 0.0000 -9.7044 0.0000
# 4 0.0000 0.0000 0.0000 34.3468 0.0000 -9.9150
# 5 -9.4159 -12.8216 -9.7044 0.0000 42.8814 0.0000
# 6 0.0000 0.0000 0.0000 -9.9150 0.0000 25.2879
#
#
#
# Elastic Compliance Matrix: (Units=1/GPa)
#
#
# Indices 1 2 3 4 5 6 
#
# 1 0.017496 -0.003276 -0.006895 0.000000 0.001302 0.000000
# 2 -0.003276 0.014204 -0.002810 0.000000 0.002892 0.000000
# 3 -0.006895 -0.002810 0.014529 0.000000 0.000934 0.000000
# 4 0.000000 0.000000 0.000000 0.032831 0.000000 0.012872
# 5 0.001302 0.002892 0.000934 0.000000 0.024682 0.000000
# 6 0.000000 0.000000 0.000000 0.012872 0.000000 0.044592
#
#
# Mechanical properties :
#
#
# Convention : Reuss Voigt Hill
#
# Bulk Modulus (GPa) = 49.34121 52.78485 51.06303
# Shear Modulus (GPa) = 27.61651 31.04737 29.33194
#
# Velocity S-wave (km/s) = 3.70581 3.92926 3.81917
# Velocity P-wave (km/s) = 6.54575 6.84354 6.69630
#
# Compressibility (1/GPa) = 0.02026703
#
# Stress axis : x y z
#
# Youngs Moduli (GPa) = 57.15719 70.40103 68.82763
#
# Poissons Ratio (x) = 0.23060 0.47458
# Poissons Ratio (y) = 0.18722 0.19342
# Poissons Ratio (z) = 0.39411 0.19784
#
# Static dielectric constant tensor:
#      x y z
#    x 3.613880 0.000000 -0.155340 
#    y 0.000000 3.629070 0.000000 
#    z -0.155340 0.000000 3.816750 
# 
# 
# High freq. dielectric constant tensor:
#      x y z
#    x 1.773580 0.000000 -0.005800 
#    y 0.000000 1.768930 0.000000 
#    z -0.005800 0.000000 1.800280 
# 
# From -- ./inp_files/167594.got.cif
#   From: 2010.06.25/outbox.cif.g09.slc.cpg/sg15_84_cif.got.tgz:167594.got - 2010.06.28 07:06:18.
