data_PCOD8141748
_publ_section_title
;
Structure prediction by ZEFSAII (Michael W. Deem and Ramdas Pophale) SiO2 
 PCOD8141748
Probable space group: C 2/C
;
_chemical_formula_sum "Si O2"
_cell_formula_units_Z 40
_cell_length_a 16.944275
_cell_length_b 6.710601
_cell_length_c 18.320737
_cell_angle_alpha 90.000000
_cell_angle_beta 100.310158
_cell_angle_gamma 90.000000
_cell_volume 2049.546167
_symmetry_space_group_name_H-M "C 2/C"
_symmetry_group_IT_number 15
_symmetry_cell_setting 'monoclinic'
loop_
_space_group_symop_operation_xyz
x,y,z
-x,y,1/2-z
-x,-y,-z
x,-y,1/2+z
1/2+x,1/2+y,z
1/2-x,1/2+y,1/2-z
1/2-x,1/2-y,-z
1/2+x,1/2-y,1/2+z
loop_
_atom_site_type_symbol
_atom_site_label
_atom_site_fract_x
_atom_site_fract_y
_atom_site_fract_z
Si Si1 0.454960 0.795880 0.975794
Si Si2 0.171981 0.054109 0.795502
Si Si3 0.344759 0.891622 0.831071
Si Si4 0.564856 0.742818 0.203897
Si Si5 0.946734 0.997884 0.595002
O O1 0.376901 0.789247 0.910013
O O2 0.529334 0.672090 0.955670
O O3 0.419231 0.695750 0.043820
O O4 0.500000 0.000000 0.000000
O O5 0.162647 0.243524 0.739670
O O6 0.120822 0.083753 0.861237
O O7 0.263350 0.012862 0.832313
O O8 0.143565 0.849673 0.753707
O O9 0.413295 0.056545 0.833241
O O10 0.500000 0.818337 0.250000
O O11 0.527412 0.565524 0.150272
#
# Coordination Sequence:
#
# PCOD8141748 Si02
#       5
#     8   8   8   8   8
#     4  11  23  40  65  92 124 168 209 254 310 379
#     4  11  24  40  61  95 127 161 204 264 308 366
#     4  12  23  39  64  92 127 163 207 259 319 362
#     4  10  21  37  63  92 118 158 210 256 304 365
#     4  10  23  42  63  91 127 161 212 256 306 373
#
# _framework density 19.516517
#
# number of rings (size 3 to 8) (size 9 to 14) (size 15 to 20)
#    0.000    1.200    6.000    0.000    2.800    0.800 
#    0.000    1.000    0.000    0.000    0.000    0.000 
#    0.000    0.000    0.000    0.000    0.000    0.000 
#
# Total GULP energy -247857.218443 kJ/mol
# GULP energy per Si atom -12392.860922 kJ/mol
# Density = 1.947210 g / cm^3
# Si number density = 19.516517 Si / 1000 Ang^3
#
#
#
# Elastic Constant Matrix: (Units=GPa)
#
#
# Indices 1 2 3 4 5 6 
#
# 1 95.2404 41.0389 43.2406 0.0000 4.0857 0.0000
# 2 41.0389 72.1547 23.7624 0.0000 -7.9963 0.0000
# 3 43.2406 23.7624 96.4299 0.0000 -4.6260 0.0000
# 4 0.0000 0.0000 0.0000 34.3680 0.0000 -15.6107
# 5 4.0857 -7.9963 -4.6260 0.0000 25.8516 0.0000
# 6 0.0000 0.0000 0.0000 -15.6107 0.0000 -41.6901
#
#
#
# Elastic Compliance Matrix: (Units=1/GPa)
#
#
# Indices 1 2 3 4 5 6 
#
# 1 0.017107 -0.008500 -0.005883 0.000000 -0.006386 0.000000
# 2 -0.008500 0.019736 -0.000700 0.000000 0.007323 0.000000
# 3 -0.005883 -0.000700 0.013329 0.000000 0.003098 0.000000
# 4 0.000000 0.000000 0.000000 0.024867 0.000000 -0.009312
# 5 -0.006386 0.007323 0.003098 0.000000 0.042511 0.000000
# 6 0.000000 0.000000 0.000000 -0.009312 0.000000 -0.020500
#
#
# Mechanical properties :
#
#
# Convention : Reuss Voigt Hill
#
# Bulk Modulus (GPa) = 49.98613 53.32320 51.65466
# Shear Modulus (GPa) = 37.34492 14.09143 25.71818
#
# Velocity S-wave (km/s) = 4.37911 2.68997 3.63404
# Velocity P-wave (km/s) = 7.15797 6.08517 6.64326
#
# Compressibility (1/GPa) = 0.02000555
#
# Stress axis : x y z
#
# Youngs Moduli (GPa) = 58.45431 50.66890 75.02203
#
# Poissons Ratio (x) = 0.43070 0.44134
# Poissons Ratio (y) = 0.49688 0.05255
# Poissons Ratio (z) = 0.34388 0.03549
#
# Static dielectric constant tensor:
#      x y z
#    x 3.644230 0.000000 0.166500 
#    y 0.000000 3.503770 0.000000 
#    z 0.166500 0.000000 3.846410 
# 
# 
# High freq. dielectric constant tensor:
#      x y z
#    x 1.748700 0.000000 0.003200 
#    y 0.000000 1.768560 0.000000 
#    z 0.003200 0.000000 1.766870 
# 
# From -- ./inp_files/207991.got.cif
#   From: 2010.06.25/outbox.cif.g09.slc.cpg/sg15_104_cif.got.tgz:207991.got - 2010.06.28 07:06:18.
