data_PCOD8141799
_publ_section_title
;
Structure prediction by ZEFSAII (Michael W. Deem and Ramdas Pophale) SiO2 
 PCOD8141799
Probable space group: C 2/C
;
_chemical_formula_sum "Si O2"
_cell_formula_units_Z 56
_cell_length_a 17.814815
_cell_length_b 15.475683
_cell_length_c 21.162565
_cell_angle_alpha 90.000000
_cell_angle_beta 28.421227
_cell_angle_gamma 90.000000
_cell_volume 2776.903843
_symmetry_space_group_name_H-M "C 2/C"
_symmetry_group_IT_number 15
_symmetry_cell_setting 'monoclinic'
loop_
_space_group_symop_operation_xyz
x,y,z
-x,y,1/2-z
-x,-y,-z
x,-y,1/2+z
1/2+x,1/2+y,z
1/2-x,1/2+y,1/2-z
1/2-x,1/2-y,-z
1/2+x,1/2-y,1/2+z
loop_
_atom_site_type_symbol
_atom_site_label
_atom_site_fract_x
_atom_site_fract_y
_atom_site_fract_z
Si Si1 0.023405 0.802198 0.126204
Si Si2 0.478334 0.255811 0.945942
Si Si3 0.236757 0.172218 0.584215
Si Si4 0.612530 0.920940 0.353702
Si Si5 0.207611 0.510692 0.408834
Si Si6 0.940175 0.092688 0.566324
Si Si7 0.366667 0.688956 0.297592
O O1 0.166676 0.826659 0.065812
O O2 0.869249 0.781683 0.282783
O O3 0.988652 0.879599 0.102119
O O4 0.088134 0.715205 0.043204
O O5 0.559810 0.173046 0.919862
O O6 0.572294 0.274660 0.813159
O O7 0.507356 0.336333 0.969647
O O8 0.294974 0.238718 0.066010
O O9 0.230890 0.070805 0.599593
O O10 0.675246 0.985833 0.360428
O O11 0.750572 0.909674 0.200468
O O12 0.456677 0.960380 0.436409
O O13 0.337255 0.586098 0.315390
O O14 0.000000 0.000000 0.500000
O O15 0.500000 0.709450 0.250000
#
# Coordination Sequence:
#
# PCOD8141799 Si02
#       7
#     8   8   8   8   8   8   8
#     4  10  23  38  63  92 124 165 204 256 314 373
#     4  11  23  42  63  89 129 164 206 260 314 377
#     4  10  21  41  63  90 127 163 210 251 316 379
#     4  10  21  40  57  93 121 164 205 254 315 369
#     4  10  21  37  65  88 125 161 209 255 309 372
#     4  12  24  38  63  93 129 159 213 261 312 366
#     4  11  24  41  67  92 122 168 211 257 314 376
#
# _framework density 20.166345
#
# number of rings (size 3 to 8) (size 9 to 14) (size 15 to 20)
#    0.000    1.429    2.857    2.143    2.000    1.143 
#    0.000    0.000    0.000    0.000    0.000    0.000 
#    0.000    0.000    0.000    0.000    0.000    0.000 
#
# Total GULP energy -347059.601095 kJ/mol
# GULP energy per Si atom -12394.985753 kJ/mol
# Density = 2.012045 g / cm^3
# Si number density = 20.166345 Si / 1000 Ang^3
#
#
#
# Elastic Constant Matrix: (Units=GPa)
#
#
# Indices 1 2 3 4 5 6 
#
# 1 52.0942 11.5917 21.1362 0.0053 2.2360 -0.0049
# 2 11.5917 104.0827 43.0246 0.0024 -4.6137 -0.0002
# 3 21.1362 43.0246 118.9540 0.0027 -8.2767 -0.0022
# 4 0.0053 0.0024 0.0027 33.2809 0.0011 0.1172
# 5 2.2360 -4.6137 -8.2767 0.0011 25.4265 -0.0012
# 6 -0.0049 -0.0002 -0.0022 0.1172 -0.0012 20.9192
#
#
#
# Elastic Compliance Matrix: (Units=1/GPa)
#
#
# Indices 1 2 3 4 5 6 
#
# 1 0.021014 -0.000996 -0.003596 -0.000003 -0.003199 0.000004
# 2 -0.000996 0.011357 -0.003869 0.000000 0.000889 0.000000
# 3 -0.003596 -0.003869 0.010660 0.000000 0.003084 0.000000
# 4 -0.000003 0.000000 0.000000 0.030048 -0.000001 -0.000168
# 5 -0.003199 0.000889 0.003084 -0.000001 0.040776 0.000002
# 6 0.000004 0.000000 0.000000 -0.000168 0.000002 0.047804
#
#
# Mechanical properties :
#
#
# Convention : Reuss Voigt Hill
#
# Bulk Modulus (GPa) = 38.30099 47.40398 42.85249
# Shear Modulus (GPa) = 26.69750 29.21721 27.95735
#
# Velocity S-wave (km/s) = 3.64244 3.81045 3.72739
# Velocity P-wave (km/s) = 6.06000 6.55110 6.31033
#
# Compressibility (1/GPa) = 0.02610898
#
# Stress axis : x y z
#
# Youngs Moduli (GPa) = 47.58733 88.04831 93.81170
#
# Poissons Ratio (x) = 0.08765 0.33738
# Poissons Ratio (y) = 0.04737 0.36297
# Poissons Ratio (z) = 0.17114 0.34067
#
# Static dielectric constant tensor:
#      x y z
#    x 3.566460 -0.000010 -0.165060 
#    y -0.000010 3.818090 0.000020 
#    z -0.165060 0.000020 4.028040 
# 
# 
# High freq. dielectric constant tensor:
#      x y z
#    x 1.771410 0.000000 -0.009280 
#    y 0.000000 1.793100 0.000000 
#    z -0.009280 0.000000 1.800740 
# 
# From -- ./inp_files/249223.got.cif
#   From: 2010.06.25/outbox.cif.g09.slc.cpg/sg15_125_cif.got.tgz:249223.got - 2010.06.28 07:06:18.
