data_PCOD8141545
_publ_section_title
;
Structure prediction by ZEFSAII (Michael W. Deem and Ramdas Pophale) SiO2 
 PCOD8141545
Probable space group: C 2/C
;
_chemical_formula_sum "Si O2"
_cell_formula_units_Z 32
_cell_length_a 6.185314
_cell_length_b 9.082388
_cell_length_c 22.580661
_cell_angle_alpha 90.000000
_cell_angle_beta 112.833294
_cell_angle_gamma 90.000000
_cell_volume 1169.119055
_symmetry_space_group_name_H-M "C 2/C"
_symmetry_group_IT_number 15
_symmetry_cell_setting 'monoclinic'
loop_
_space_group_symop_operation_xyz
x,y,z
-x,y,1/2-z
-x,-y,-z
x,-y,1/2+z
1/2+x,1/2+y,z
1/2-x,1/2+y,1/2-z
1/2-x,1/2-y,-z
1/2+x,1/2-y,1/2+z
loop_
_atom_site_type_symbol
_atom_site_label
_atom_site_fract_x
_atom_site_fract_y
_atom_site_fract_z
Si Si1 0.641200 0.729231 0.837944
Si Si2 0.267261 0.429514 0.695581
Si Si3 0.857887 0.844146 0.575146
Si Si4 0.547751 0.645722 0.954752
O O1 0.709326 0.608276 0.794525
O O2 0.511619 0.651971 0.879773
O O3 0.877384 0.799337 0.886260
O O4 0.459873 0.857474 0.795934
O O5 0.500000 0.357736 0.750000
O O6 0.240877 0.404105 0.622764
O O7 0.689891 0.706816 0.537926
O O8 0.882815 0.973137 0.527262
O O9 0.750000 0.750000 0.000000
#
# Coordination Sequence:
#
# PCOD8141545 Si02
#       4
#     8   8   8   8
#     4  10  22  40  58  87 120 153 206 250 305 374
#     4  10  23  38  58  86 116 156 201 255 307 371
#     4  10  21  38  57  85 117 156 199 252 302 372
#     4  10  21  37  58  87 120 154 200 250 304 369
#
# _framework density 27.371034999999999
#
# number of rings (size 3 to 8) (size 9 to 14) (size 15 to 20)
#    0.000    2.000    0.000    2.250    3.500    2.000 
#    0.000    0.000    0.000    0.000    0.000    0.000 
#    0.000    0.000    0.000    0.000    0.000    0.000 
#
# Total GULP energy -198282.024378 kJ/mol
# GULP energy per Si atom -12392.626524 kJ/mol
# Density = 2.730874 g / cm^3
# Si number density = 27.371035 Si / 1000 Ang^3
#
#
#
# Elastic Constant Matrix: (Units=GPa)
#
#
# Indices 1 2 3 4 5 6 
#
# 1 161.2205 100.4165 37.1374 0.0000 50.1784 0.0000
# 2 100.4165 232.4401 55.9274 0.0000 38.0274 0.0000
# 3 37.1374 55.9274 72.0888 0.0000 21.4109 0.0000
# 4 0.0000 0.0000 0.0000 29.5079 0.0000 11.2969
# 5 50.1784 38.0274 21.4109 0.0000 75.3290 0.0000
# 6 0.0000 0.0000 0.0000 11.2969 0.0000 49.4444
#
#
#
# Elastic Compliance Matrix: (Units=1/GPa)
#
#
# Indices 1 2 3 4 5 6 
#
# 1 0.009951 -0.003243 -0.001232 0.000000 -0.004641 0.000000
# 2 -0.003243 0.006539 -0.003346 0.000000 -0.000190 0.000000
# 3 -0.001232 -0.003346 0.017865 0.000000 -0.002568 0.000000
# 4 0.000000 0.000000 0.000000 0.037138 0.000000 -0.008485
# 5 -0.004641 -0.000190 -0.002568 0.000000 0.017192 0.000000
# 6 0.000000 0.000000 0.000000 -0.008485 0.000000 0.022163
#
#
# Mechanical properties :
#
#
# Convention : Reuss Voigt Hill
#
# Bulk Modulus (GPa) = 53.43843 94.74579 74.09211
# Shear Modulus (GPa) = 37.67059 49.00746 43.33903
#
# Velocity S-wave (km/s) = 3.71387 4.23600 3.98350
# Velocity P-wave (km/s) = 6.16089 7.65607 6.94881
#
# Compressibility (1/GPa) = 0.01871312
#
# Stress axis : x y z
#
# Youngs Moduli (GPa) = 100.49185 152.91703 55.97492
#
# Poissons Ratio (x) = 0.49595 0.06895
# Poissons Ratio (y) = 0.32592 0.18731
# Poissons Ratio (z) = 0.12378 0.51170
#
# Static dielectric constant tensor:
#      x y z
#    x 5.201640 0.000000 -0.443300 
#    y 0.000000 5.543390 0.000000 
#    z -0.443300 0.000000 5.273190 
# 
# 
# High freq. dielectric constant tensor:
#      x y z
#    x 2.104930 0.000000 -0.018720 
#    y 0.000000 2.120200 0.000000 
#    z -0.018720 0.000000 2.122570 
# 
# From -- ./inp_files/259715.got.cif
#   From: 2010.06.25/outbox.cif.g09.slc.cpg/sg15_130_cif.got.tgz:259715.got - 2010.06.28 07:06:18.
