data_PCOD8141818
_publ_section_title
;
Structure prediction by ZEFSAII (Michael W. Deem and Ramdas Pophale) SiO2 
 PCOD8141818
Probable space group: C 2/C
;
_chemical_formula_sum "Si O2"
_cell_formula_units_Z 52
_cell_length_a 11.576004
_cell_length_b 13.464812
_cell_length_c 19.865895
_cell_angle_alpha 90.000000
_cell_angle_beta 121.881515
_cell_angle_gamma 90.000000
_cell_volume 2629.344472
_symmetry_space_group_name_H-M "C 2/C"
_symmetry_group_IT_number 15
_symmetry_cell_setting 'monoclinic'
loop_
_space_group_symop_operation_xyz
x,y,z
-x,y,1/2-z
-x,-y,-z
x,-y,1/2+z
1/2+x,1/2+y,z
1/2-x,1/2+y,1/2-z
1/2-x,1/2-y,-z
1/2+x,1/2-y,1/2+z
loop_
_atom_site_type_symbol
_atom_site_label
_atom_site_fract_x
_atom_site_fract_y
_atom_site_fract_z
Si Si1 0.214862 0.560118 0.460637
Si Si2 0.535997 0.792981 0.982236
Si Si3 0.720958 0.856858 0.521398
Si Si4 0.500000 0.748696 0.750000
Si Si5 0.471626 0.380912 0.112581
Si Si6 0.503636 0.586501 0.170680
Si Si7 0.210920 0.822576 0.638744
O O1 0.091030 0.636188 0.438795
O O2 0.184167 0.442012 0.454685
O O3 0.318852 0.585159 0.551825
O O4 0.276410 0.581117 0.405811
O O5 0.410773 0.853293 0.972748
O O6 0.478401 0.688094 0.934267
O O7 0.650753 0.767860 0.074257
O O8 0.750000 0.750000 0.500000
O O9 0.851367 0.886737 0.603972
O O10 0.529167 0.682723 0.822031
O O11 0.360474 0.809540 0.717220
O O12 0.554839 0.481623 0.153971
O O13 0.500000 0.586146 0.250000
O O14 0.609210 0.664207 0.170616
#
# Coordination Sequence:
#
# PCOD8141818 Si02
#       7
#     8   8   8   4   8   8   8
#     4  10  21  40  62  93 121 159 212 257 295 358
#     4  11  20  41  63  96 120 158 209 258 296 362
#     4  11  24  39  64  91 126 168 201 245 312 369
#     4  12  20  40  62  94 116 162 202 260 312 354
#     4  10  21  37  66  87 121 160 211 246 303 368
#     4  11  25  41  58  92 127 163 199 254 312 374
#     4  11  23  39  64  88 125 156 210 259 300 367
#
# _framework density 19.776792
#
# number of rings (size 3 to 8) (size 9 to 14) (size 15 to 20)
#    0.000    1.231    5.385    1.385    4.308    1.846 
#    0.000    1.538    1.692    0.000    0.000    0.000 
#    0.000    0.000    0.000    0.000    0.000    0.000 
#
# Total GULP energy -322102.698555 kJ/mol
# GULP energy per Si atom -12388.565329 kJ/mol
# Density = 1.973178 g / cm^3
# Si number density = 19.776792 Si / 1000 Ang^3
#
#
#
# Elastic Constant Matrix: (Units=GPa)
#
#
# Indices 1 2 3 4 5 6 
#
# 1 107.6633 29.0135 30.4528 0.0000 0.3238 0.0000
# 2 29.0135 110.4211 24.1351 0.0000 -8.1816 0.0000
# 3 30.4528 24.1351 66.3577 0.0000 -10.1163 0.0000
# 4 0.0000 0.0000 0.0000 7.8450 0.0000 -2.9980
# 5 0.3238 -8.1816 -10.1163 0.0000 24.3696 0.0000
# 6 0.0000 0.0000 0.0000 -2.9980 0.0000 30.3015
#
#
#
# Elastic Compliance Matrix: (Units=1/GPa)
#
#
# Indices 1 2 3 4 5 6 
#
# 1 0.011229 -0.002108 -0.004822 0.000000 -0.002859 0.000000
# 2 -0.002108 0.010321 -0.002406 0.000000 0.002494 0.000000
# 3 -0.004822 -0.002406 0.019264 0.000000 0.007253 0.000000
# 4 0.000000 0.000000 0.000000 0.132479 0.000000 0.013108
# 5 -0.002859 0.002494 0.007253 0.000000 0.044921 0.000000
# 6 0.000000 0.000000 0.000000 0.013108 0.000000 0.034298
#
#
# Mechanical properties :
#
#
# Convention : Reuss Voigt Hill
#
# Bulk Modulus (GPa) = 45.16613 50.18276 47.67444
# Shear Modulus (GPa) = 17.94910 25.89260 21.92085
#
# Velocity S-wave (km/s) = 3.01588 3.62227 3.33290
# Velocity P-wave (km/s) = 5.91734 6.55165 6.24256
#
# Compressibility (1/GPa) = 0.02214048
#
# Stress axis : x y z
#
# Youngs Moduli (GPa) = 89.05576 96.89078 51.91113
#
# Poissons Ratio (x) = 0.20427 0.25033
# Poissons Ratio (y) = 0.18775 0.12490
# Poissons Ratio (z) = 0.42944 0.23313
#
# Static dielectric constant tensor:
#      x y z
#    x 3.585440 0.000000 -0.201430 
#    y 0.000000 4.060750 0.000000 
#    z -0.201430 0.000000 2.853860 
# 
# 
# High freq. dielectric constant tensor:
#      x y z
#    x 1.765730 0.000000 -0.002560 
#    y 0.000000 1.775430 0.000000 
#    z -0.002560 0.000000 1.760250 
# 
# From -- ./inp_files/197297.got.cif
#   From: 2010.06.25/outbox.cif.g09.slc.cpg/sg15_99_cif.got.tgz:197297.got - 2010.06.28 07:06:18.
