data_PCOD8141840
_publ_section_title
;
Structure prediction by ZEFSAII (Michael W. Deem and Ramdas Pophale) SiO2 
 PCOD8141840
Probable space group: C 2/C
;
_chemical_formula_sum "Si O2"
_cell_formula_units_Z 44
_cell_length_a 5.430593
_cell_length_b 19.627237
_cell_length_c 15.158778
_cell_angle_alpha 90.000000
_cell_angle_beta 76.399742
_cell_angle_gamma 90.000000
_cell_volume 1570.431440
_symmetry_space_group_name_H-M "C 2/C"
_symmetry_group_IT_number 15
_symmetry_cell_setting 'monoclinic'
loop_
_space_group_symop_operation_xyz
x,y,z
-x,y,1/2-z
-x,-y,-z
x,-y,1/2+z
1/2+x,1/2+y,z
1/2-x,1/2+y,1/2-z
1/2-x,1/2-y,-z
1/2+x,1/2-y,1/2+z
loop_
_atom_site_type_symbol
_atom_site_label
_atom_site_fract_x
_atom_site_fract_y
_atom_site_fract_z
Si Si1 0.500000 0.513872 0.250000
Si Si2 0.557543 0.799811 0.153269
Si Si3 0.775549 0.642736 0.207523
Si Si4 0.421830 0.436891 0.437360
Si Si5 0.377942 0.093259 0.007685
Si Si6 0.396406 0.721695 0.905461
O O1 0.744276 0.563048 0.237068
O O2 0.493822 0.470355 0.339124
O O3 0.500000 0.838049 0.250000
O O4 0.294890 0.758901 0.157449
O O5 0.812397 0.749677 0.136544
O O6 0.584447 0.854608 0.075147
O O7 0.500000 0.681208 0.250000
O O8 0.846531 0.638873 0.097233
O O9 0.000000 0.673104 0.250000
O O10 0.622470 0.451841 0.503581
O O11 0.452209 0.357152 0.414891
O O12 0.132292 0.452982 0.491178
O O13 0.250000 0.750000 0.000000
#
# Coordination Sequence:
#
# PCOD8141840 Si02
#       6
#     4   8   8   8   8   8
#     4  10  26  38  62  94 130 164 222 258 322 368
#     4  10  21  37  67  99 130 163 208 263 320 377
#     4  10  23  42  60  87 130 170 225 267 304 374
#     4  10  23  36  64  90 127 161 212 259 322 369
#     4  10  22  38  63  92 125 172 210 263 318 368
#     4  10  21  38  62  90 127 161 202 259 318 380
#
# _framework density 28.017779000000001
#
# number of rings (size 3 to 8) (size 9 to 14) (size 15 to 20)
#    0.545    1.455    0.000    2.182   12.727    1.455 
#    0.000    0.000    0.000   43.636    0.000    0.000 
#    0.000    0.000    0.000    0.000    0.000    0.000 
#
# Total GULP energy -272604.158991 kJ/mol
# GULP energy per Si atom -12391.098136 kJ/mol
# Density = 2.795401 g / cm^3
# Si number density = 28.017779 Si / 1000 Ang^3
#
#
#
# Elastic Constant Matrix: (Units=GPa)
#
#
# Indices 1 2 3 4 5 6 
#
# 1 316.5089 67.8500 111.9630 0.0000 5.3943 0.0000
# 2 67.8500 61.9789 23.3824 0.0000 -12.0474 0.0000
# 3 111.9630 23.3824 218.5453 0.0000 -10.5676 0.0000
# 4 0.0000 0.0000 0.0000 34.4830 0.0000 -2.0722
# 5 5.3943 -12.0474 -10.5676 0.0000 54.2414 0.0000
# 6 0.0000 0.0000 0.0000 -2.0722 0.0000 27.5373
#
#
#
# Elastic Compliance Matrix: (Units=1/GPa)
#
#
# Indices 1 2 3 4 5 6 
#
# 1 0.005048 -0.005119 -0.002138 0.000000 -0.002056 0.000000
# 2 -0.005119 0.022656 0.000471 0.000000 0.005633 0.000000
# 3 -0.002138 0.000471 0.005690 0.000000 0.001426 0.000000
# 4 0.000000 0.000000 0.000000 0.029132 0.000000 0.002192
# 5 -0.002056 0.005633 0.001426 0.000000 0.020169 0.000000
# 6 0.000000 0.000000 0.000000 0.002192 0.000000 0.036479
#
#
# Mechanical properties :
#
#
# Convention : Reuss Voigt Hill
#
# Bulk Modulus (GPa) = 50.45055 111.49153 80.97104
# Shear Modulus (GPa) = 35.87987 49.50817 42.69402
#
# Velocity S-wave (km/s) = 3.58244 4.20816 3.90785
# Velocity P-wave (km/s) = 5.92938 7.96813 7.02313
#
# Compressibility (1/GPa) = 0.01982139
#
# Stress axis : x y z
#
# Youngs Moduli (GPa) = 198.08884 44.13814 175.76160
#
# Poissons Ratio (x) = 0.22596 0.37577
# Poissons Ratio (y) = 1.01411 -0.08281
# Poissons Ratio (z) = 0.42350 -0.02079
#
# Static dielectric constant tensor:
#      x y z
#    x 7.642860 0.000000 -0.251370 
#    y 0.000000 5.615600 0.000000 
#    z -0.251370 0.000000 5.210210 
# 
# 
# High freq. dielectric constant tensor:
#      x y z
#    x 2.168820 0.000000 -0.006920 
#    y 0.000000 2.172150 0.000000 
#    z -0.006920 0.000000 2.142020 
# 
# From -- ./inp_files/129739.got.cif
#   From: 2010.06.25/outbox.cif.g09.slc.cpg/sg15_65_cif.got.tgz:129739.got - 2010.06.28 07:06:18.
