data_PCOD8141583
_publ_section_title
;
Structure prediction by ZEFSAII (Michael W. Deem and Ramdas Pophale) SiO2 
 PCOD8141583
Probable space group: C 2/C
;
_chemical_formula_sum "Si O2"
_cell_formula_units_Z 36
_cell_length_a 21.196617
_cell_length_b 6.904461
_cell_length_c 13.937249
_cell_angle_alpha 90.000000
_cell_angle_beta 107.059502
_cell_angle_gamma 90.000000
_cell_volume 1949.986310
_symmetry_space_group_name_H-M "C 2/C"
_symmetry_group_IT_number 15
_symmetry_cell_setting 'monoclinic'
loop_
_space_group_symop_operation_xyz
x,y,z
-x,y,1/2-z
-x,-y,-z
x,-y,1/2+z
1/2+x,1/2+y,z
1/2-x,1/2+y,1/2-z
1/2-x,1/2-y,-z
1/2+x,1/2-y,1/2+z
loop_
_atom_site_type_symbol
_atom_site_label
_atom_site_fract_x
_atom_site_fract_y
_atom_site_fract_z
Si Si1 0.500000 0.440605 0.750000
Si Si2 0.622574 0.243614 0.864068
Si Si3 0.173932 0.660207 0.371432
Si Si4 0.873832 0.964995 0.287362
Si Si5 0.319847 0.478399 0.968398
O O1 0.545905 0.309137 0.840790
O O2 0.548226 0.569366 0.703511
O O3 0.651827 0.343350 0.780323
O O4 0.621694 0.012747 0.855376
O O5 0.668153 0.317757 0.972445
O O6 0.166503 0.776274 0.267865
O O7 0.244526 0.555649 0.405956
O O8 0.157805 0.802621 0.452778
O O9 0.864817 0.008339 0.394553
#
# Coordination Sequence:
#
# PCOD8141583 Si02
#       5
#     4   8   8   8   8
#     4   8  20  40  54  82 120 144 196 236 262 336
#     4   9  20  39  54  85 115 146 191 232 269 341
#     4  10  21  37  60  85 114 149 185 236 287 335
#     4   9  21  37  57  83 116 149 186 233 280 330
#     4  10  21  37  59  88 113 147 187 237 286 331
#
# _framework density 18.461668
#
# number of rings (size 3 to 8) (size 9 to 14) (size 15 to 20)
#    1.333    1.333    0.000    0.667    3.111    3.556 
#    0.000    1.111    0.000    0.000    0.000    0.000 
#    0.000    0.000    0.000    0.000    0.000    0.000 
#
# Total GULP energy -222989.379110 kJ/mol
# GULP energy per Si atom -12388.298839 kJ/mol
# Density = 1.841965 g / cm^3
# Si number density = 18.461668 Si / 1000 Ang^3
#
#
#
# Elastic Constant Matrix: (Units=GPa)
#
#
# Indices 1 2 3 4 5 6 
#
# 1 73.3147 18.4387 22.4529 0.0000 -0.2219 0.0000
# 2 18.4387 98.6664 29.7454 0.0000 3.8824 0.0000
# 3 22.4529 29.7454 84.3386 0.0000 -23.7140 0.0000
# 4 0.0000 0.0000 0.0000 12.6886 0.0000 4.9516
# 5 -0.2219 3.8824 -23.7140 0.0000 30.9171 0.0000
# 6 0.0000 0.0000 0.0000 4.9516 0.0000 17.7063
#
#
#
# Elastic Compliance Matrix: (Units=1/GPa)
#
#
# Indices 1 2 3 4 5 6 
#
# 1 0.015354 -0.001394 -0.004482 0.000000 -0.003153 0.000000
# 2 -0.001394 0.012323 -0.005626 0.000000 -0.005873 0.000000
# 3 -0.004482 -0.005626 0.019411 0.000000 0.015563 0.000000
# 4 0.000000 0.000000 0.000000 0.088465 0.000000 -0.024739
# 5 -0.003153 -0.005873 0.015563 0.000000 0.044996 0.000000
# 6 0.000000 0.000000 0.000000 -0.024739 0.000000 0.063395
#
#
# Mechanical properties :
#
#
# Convention : Reuss Voigt Hill
#
# Bulk Modulus (GPa) = 41.52545 44.17706 42.85126
# Shear Modulus (GPa) = 18.18336 24.64126 21.41231
#
# Velocity S-wave (km/s) = 3.14176 3.65735 3.40932
# Velocity P-wave (km/s) = 5.97515 6.46653 6.22569
#
# Compressibility (1/GPa) = 0.02408162
#
# Stress axis : x y z
#
# Youngs Moduli (GPa) = 65.13140 81.14913 51.51849
#
# Poissons Ratio (x) = 0.11311 0.23092
# Poissons Ratio (y) = 0.09079 0.28987
# Poissons Ratio (z) = 0.29194 0.45658
#
# Static dielectric constant tensor:
#      x y z
#    x 3.206050 0.000000 0.167310 
#    y 0.000000 3.234960 0.000000 
#    z 0.167310 0.000000 3.233900 
# 
# 
# High freq. dielectric constant tensor:
#      x y z
#    x 1.703400 0.000000 0.013640 
#    y 0.000000 1.708880 0.000000 
#    z 0.013640 0.000000 1.706250 
# 
# From -- ./inp_files/115646.got.cif
#   From: 2010.06.25/outbox.cif.g09.slc.cpg/sg15_58_cif.got.tgz:115646.got - 2010.06.28 07:06:18.
