data_PCOD8141216
_publ_section_title
;
Structure prediction by ZEFSAII (Michael W. Deem and Ramdas Pophale) SiO2 
 PCOD8141216
Probable space group: C 2/C
;
_chemical_formula_sum "Si O2"
_cell_formula_units_Z 48
_cell_length_a 12.826419
_cell_length_b 28.905920
_cell_length_c 13.159224
_cell_angle_alpha 90.000000
_cell_angle_beta 23.690512
_cell_angle_gamma 90.000000
_cell_volume 1960.325817
_symmetry_space_group_name_H-M "C 2/C"
_symmetry_group_IT_number 15
_symmetry_cell_setting 'monoclinic'
loop_
_space_group_symop_operation_xyz
x,y,z
-x,y,1/2-z
-x,-y,-z
x,-y,1/2+z
1/2+x,1/2+y,z
1/2-x,1/2+y,1/2-z
1/2-x,1/2-y,-z
1/2+x,1/2-y,1/2+z
loop_
_atom_site_type_symbol
_atom_site_label
_atom_site_fract_x
_atom_site_fract_y
_atom_site_fract_z
Si Si1 0.110283 0.459425 0.042527
Si Si2 0.660376 0.467423 0.285886
Si Si3 0.330793 0.136438 0.079612
Si Si4 0.058902 0.771394 0.311961
Si Si5 0.014243 0.266807 0.121383
Si Si6 0.082777 0.132518 0.875595
O O1 0.000000 0.471050 0.250000
O O2 0.918933 0.456298 0.117811
O O3 0.299694 0.502896 0.852593
O O4 0.237544 0.408117 0.930456
O O5 0.500000 0.500000 0.500000
O O6 0.515274 0.418738 0.390771
O O7 0.089333 0.140982 0.371006
O O8 0.356156 0.182578 0.989708
O O9 0.608973 0.132953 0.884811
O O10 0.015032 0.826589 0.358118
O O11 0.000000 0.755247 0.250000
O O12 0.859939 0.743496 0.564933
O O13 0.699201 0.264732 0.378706
O O14 0.000000 0.246455 0.250000
#
# Coordination Sequence:
#
# PCOD8141216 Si02
#       6
#     8   8   8   8   8   8
#     4  10  22  41  64  91 124 172 214 261 336 397
#     4  10  21  43  62  90 133 161 212 283 319 393
#     4  11  22  38  61  88 121 159 207 254 306 384
#     4  10  22  42  63  91 128 166 212 269 326 396
#     4  10  21  36  53  80 118 154 192 244 293 344
#     4  11  23  39  64  90 120 164 202 257 325 372
#
# _framework density 24.485724999999999
#
# number of rings (size 3 to 8) (size 9 to 14) (size 15 to 20)
#    0.000    1.667    1.667    2.500    0.000    4.667 
#    3.000    2.500    0.000    0.000    0.000    0.000 
#    0.000    0.000    0.000    0.000    0.000    0.000 
#
# Total GULP energy -297333.177640 kJ/mol
# GULP energy per Si atom -12388.882402 kJ/mol
# Density = 2.442999 g / cm^3
# Si number density = 24.485725 Si / 1000 Ang^3
#
#
#
# Elastic Constant Matrix: (Units=GPa)
#
#
# Indices 1 2 3 4 5 6 
#
# 1 22.0221 18.4711 41.5366 0.0010 16.0887 -0.0007
# 2 18.4711 229.5566 85.8318 0.0008 26.4476 -0.0002
# 3 41.5366 85.8318 164.7134 0.0026 20.9305 -0.0027
# 4 0.0010 0.0008 0.0026 38.0233 -0.0016 17.0048
# 5 16.0887 26.4476 20.9305 -0.0016 40.4621 0.0009
# 6 -0.0007 -0.0002 -0.0027 17.0048 0.0009 23.0310
#
#
#
# Elastic Compliance Matrix: (Units=1/GPa)
#
#
# Indices 1 2 3 4 5 6 
#
# 1 0.122988 0.005250 -0.029007 -0.000006 -0.037330 0.000006
# 2 0.005250 0.005828 -0.003866 0.000000 -0.003897 0.000000
# 3 -0.029007 -0.003866 0.014572 0.000000 0.006523 0.000001
# 4 -0.000006 0.000000 0.000000 0.039265 0.000005 -0.028991
# 5 -0.037330 -0.003897 0.006523 0.000005 0.038731 -0.000005
# 6 0.000006 0.000000 0.000001 -0.028991 -0.000005 0.064825
#
#
# Mechanical properties :
#
#
# Convention : Reuss Voigt Hill
#
# Bulk Modulus (GPa) = 11.34520 78.66345 45.00432
# Shear Modulus (GPa) = 13.48310 38.33344 25.90827
#
# Velocity S-wave (km/s) = 2.34914 3.96099 3.25637
# Velocity P-wave (km/s) = 3.46431 7.28802 5.70599
#
# Compressibility (1/GPa) = 0.08814304
#
# Stress axis : x y z
#
# Youngs Moduli (GPa) = 8.13089 171.57851 68.62702
#
# Poissons Ratio (x) = -0.90085 1.99065
# Poissons Ratio (y) = -0.04269 0.26530
# Poissons Ratio (z) = 0.23585 0.66329
#
# Static dielectric constant tensor:
#      x y z
#    x 3.927850 -0.003010 -0.155820 
#    y -0.003010 41.531000 -0.010520 
#    z -0.155820 -0.010520 4.625180 
# 
# 
# High freq. dielectric constant tensor:
#      x y z
#    x 1.942090 0.000000 0.008210 
#    y 0.000000 1.992650 0.000000 
#    z 0.008210 0.000000 2.001090 
# 
# From -- ./inp_files/157621.got.cif
#   From: 2010.06.25/outbox.cif.g09.slc.cpg/sg15_79_cif.got.tgz:157621.got - 2010.06.28 07:06:18.
