data_PCOD8141248
_publ_section_title
;
Structure prediction by ZEFSAII (Michael W. Deem and Ramdas Pophale) SiO2 
 PCOD8141248
Probable space group: C 2/C
;
_chemical_formula_sum "Si O2"
_cell_formula_units_Z 52
_cell_length_a 19.439019
_cell_length_b 25.452853
_cell_length_c 5.292009
_cell_angle_alpha 90.000000
_cell_angle_beta 94.047650
_cell_angle_gamma 90.000000
_cell_volume 2611.841212
_symmetry_space_group_name_H-M "C 2/C"
_symmetry_group_IT_number 15
_symmetry_cell_setting 'monoclinic'
loop_
_space_group_symop_operation_xyz
x,y,z
-x,y,1/2-z
-x,-y,-z
x,-y,1/2+z
1/2+x,1/2+y,z
1/2-x,1/2+y,1/2-z
1/2-x,1/2-y,-z
1/2+x,1/2-y,1/2+z
loop_
_atom_site_type_symbol
_atom_site_label
_atom_site_fract_x
_atom_site_fract_y
_atom_site_fract_z
Si Si1 0.863443 0.523221 0.777934
Si Si2 0.119687 0.635194 0.595473
Si Si3 0.697875 0.701862 0.511231
Si Si4 0.293243 0.476575 0.138602
Si Si5 0.428034 0.770067 0.106417
Si Si6 0.268058 0.360249 0.976884
Si Si7 0.500000 0.159445 0.250000
O O1 0.899206 0.491821 0.556053
O O2 0.869720 0.585412 0.716067
O O3 0.784872 0.505496 0.814589
O O4 0.116582 0.691425 0.728501
O O5 0.185191 0.636409 0.426287
O O6 0.045530 0.623673 0.446457
O O7 0.750000 0.750000 0.500000
O O8 0.618459 0.720476 0.477095
O O9 0.706404 0.660014 0.287700
O O10 0.709975 0.677455 0.788931
O O11 0.328315 0.511944 0.922949
O O12 0.300433 0.416646 0.049980
O O13 0.500000 0.751094 0.250000
O O14 0.443617 0.803243 0.862666
#
# Coordination Sequence:
#
# PCOD8141248 Si02
#       7
#     8   8   8   8   8   8   4
#     4   9  19  32  51  75 102 138 182 236 284 322
#     4  10  21  36  56  77 106 147 193 231 280 338
#     4  12  23  37  57  88 119 149 189 238 287 330
#     4   9  17  33  53  79 113 148 178 220 284 339
#     4  10  23  38  57  77 110 155 192 226 277 340
#     4  11  23  35  60  88 118 145 189 237 283 338
#     4  10  22  38  56  72 100 154 198 230 272 340
#
# _framework density 19.909326
#
# number of rings (size 3 to 8) (size 9 to 14) (size 15 to 20)
#    0.000    1.846    1.538    2.308    6.462    2.462 
#    0.000    0.769    0.000    0.000    0.000    0.000 
#    0.000   12.308    0.000    0.000    0.000    0.000 
#
# Total GULP energy -322171.333751 kJ/mol
# GULP energy per Si atom -12391.205144 kJ/mol
# Density = 1.986401 g / cm^3
# Si number density = 19.909326 Si / 1000 Ang^3
#
#
#
# Elastic Constant Matrix: (Units=GPa)
#
#
# Indices 1 2 3 4 5 6 
#
# 1 54.8034 19.1178 2.7161 0.0000 2.8380 0.0000
# 2 19.1178 64.5155 8.3984 0.0000 7.3076 0.0000
# 3 2.7161 8.3984 94.9850 0.0000 5.4515 0.0000
# 4 0.0000 0.0000 0.0000 33.3298 0.0000 -2.1706
# 5 2.8380 7.3076 5.4515 0.0000 13.9952 0.0000
# 6 0.0000 0.0000 0.0000 -2.1706 0.0000 18.5920
#
#
#
# Elastic Compliance Matrix: (Units=1/GPa)
#
#
# Indices 1 2 3 4 5 6 
#
# 1 0.020365 -0.005917 0.000001 0.000000 -0.001040 0.000000
# 2 -0.005917 0.018284 -0.000991 0.000000 -0.007961 0.000000
# 3 0.000001 -0.000991 0.010828 0.000000 -0.003701 0.000000
# 4 0.000000 0.000000 0.000000 0.030233 0.000000 0.003530
# 5 -0.001040 -0.007961 -0.003701 0.000000 0.077263 0.000000
# 6 0.000000 0.000000 0.000000 0.003530 0.000000 0.054199
#
#
# Mechanical properties :
#
#
# Convention : Reuss Voigt Hill
#
# Bulk Modulus (GPa) = 28.04005 30.52984 29.28494
# Shear Modulus (GPa) = 21.10833 25.45484 23.28159
#
# Velocity S-wave (km/s) = 3.25964 3.57955 3.42333
# Velocity P-wave (km/s) = 5.31803 5.69666 5.51060
#
# Compressibility (1/GPa) = 0.03566327
#
# Stress axis : x y z
#
# Youngs Moduli (GPa) = 49.10387 54.69191 92.35373
#
# Poissons Ratio (x) = 0.32361 -0.00005
# Poissons Ratio (y) = 0.29055 0.09148
# Poissons Ratio (z) = -0.00003 0.05417
#
# Static dielectric constant tensor:
#      x y z
#    x 3.350620 0.000000 0.061190 
#    y 0.000000 3.518270 0.000000 
#    z 0.061190 0.000000 4.006530 
# 
# 
# High freq. dielectric constant tensor:
#      x y z
#    x 1.725250 0.000000 0.000790 
#    y 0.000000 1.769430 0.000000 
#    z 0.000790 0.000000 1.794280 
# 
# From -- ./inp_files/11250.got.cif
#   From: 2010.06.25/outbox.cif.g09.slc.cpg/sg15_6_cif.got.tgz:11250.got - 2010.06.28 07:06:18.
