data_PCOD8141690
_publ_section_title
;
Structure prediction by ZEFSAII (Michael W. Deem and Ramdas Pophale) SiO2 
 PCOD8141690
Probable space group: C 2/C
;
_chemical_formula_sum "Si O2"
_cell_formula_units_Z 56
_cell_length_a 14.532195
_cell_length_b 9.646036
_cell_length_c 22.300363
_cell_angle_alpha 90.000000
_cell_angle_beta 63.315326
_cell_angle_gamma 90.000000
_cell_volume 2793.074209
_symmetry_space_group_name_H-M "C 2/C"
_symmetry_group_IT_number 15
_symmetry_cell_setting 'monoclinic'
loop_
_space_group_symop_operation_xyz
x,y,z
-x,y,1/2-z
-x,-y,-z
x,-y,1/2+z
1/2+x,1/2+y,z
1/2-x,1/2+y,1/2-z
1/2-x,1/2-y,-z
1/2+x,1/2-y,1/2+z
loop_
_atom_site_type_symbol
_atom_site_label
_atom_site_fract_x
_atom_site_fract_y
_atom_site_fract_z
Si Si1 0.316409 0.131145 0.182999
Si Si2 0.694393 0.694087 0.105239
Si Si3 0.335199 0.383078 0.265451
Si Si4 0.948588 0.958495 0.344392
Si Si5 0.285451 0.032687 0.968645
Si Si6 0.019719 0.606785 0.046624
Si Si7 0.925748 0.900315 0.486307
O O1 0.250337 0.208920 0.152145
O O2 0.318113 0.231333 0.241120
O O3 0.429723 0.110449 0.122474
O O4 0.265045 0.981837 0.214111
O O5 0.584237 0.620208 0.145367
O O6 0.761006 0.598863 0.040550
O O7 0.677775 0.847332 0.086431
O O8 0.368321 0.370326 0.325992
O O9 0.433141 0.460346 0.208755
O O10 0.944983 0.892497 0.410254
O O11 0.190618 0.948736 0.967105
O O12 0.378148 0.926550 0.946141
O O13 0.043149 0.746788 0.002159
O O14 0.000000 0.500000 0.000000
O O15 0.000000 0.000000 0.500000
#
# Coordination Sequence:
#
# PCOD8141690 Si02
#       7
#     8   8   8   8   8   8   8
#     4  11  22  43  62  91 123 170 217 268 322 395
#     4   9  19  38  63  90 129 164 204 258 325 392
#     4  10  22  42  65  88 124 172 222 268 322 385
#     4   9  20  40  65  84 124 172 212 263 327 388
#     4  10  21  37  61  98 131 164 205 262 328 393
#     4  12  24  40  64  98 136 162 213 275 336 393
#     4  11  23  41  66  94 132 172 214 264 338 397
#
# _framework density 20.049593000000002
#
# number of rings (size 3 to 8) (size 9 to 14) (size 15 to 20)
#    0.000    1.714    2.857    1.286    4.000    1.143 
#    2.571    0.000    0.000    0.000    0.000    0.000 
#    0.000    0.000    0.000    0.000    0.000    0.000 
#
# Total GULP energy -347090.820390 kJ/mol
# GULP energy per Si atom -12396.100728 kJ/mol
# Density = 2.000396 g / cm^3
# Si number density = 20.049593 Si / 1000 Ang^3
#
#
#
# Elastic Constant Matrix: (Units=GPa)
#
#
# Indices 1 2 3 4 5 6 
#
# 1 115.3848 60.9075 31.4539 0.0000 -7.8739 0.0000
# 2 60.9075 130.9006 35.0455 0.0000 -0.7960 0.0000
# 3 31.4539 35.0455 48.7106 0.0000 9.4203 0.0000
# 4 0.0000 0.0000 0.0000 34.3807 0.0000 2.2059
# 5 -7.8739 -0.7960 9.4203 0.0000 39.6785 0.0000
# 6 0.0000 0.0000 0.0000 2.2059 0.0000 34.4248
#
#
#
# Elastic Compliance Matrix: (Units=1/GPa)
#
#
# Indices 1 2 3 4 5 6 
#
# 1 0.012847 -0.004376 -0.005894 0.000000 0.003861 0.000000
# 2 -0.004376 0.011090 -0.005270 0.000000 0.000605 0.000000
# 3 -0.005894 -0.005270 0.029739 0.000000 -0.008336 0.000000
# 4 0.000000 0.000000 0.000000 0.029206 0.000000 -0.001871
# 5 0.003861 0.000605 -0.008336 0.000000 0.027960 0.000000
# 6 0.000000 0.000000 0.000000 -0.001871 0.000000 0.029169
#
#
# Mechanical properties :
#
#
# Convention : Reuss Voigt Hill
#
# Bulk Modulus (GPa) = 44.25611 61.08998 52.67304
# Shear Modulus (GPa) = 27.99186 32.86938 30.43062
#
# Velocity S-wave (km/s) = 3.74054 4.05335 3.90008
# Velocity P-wave (km/s) = 6.38567 7.24167 6.82710
#
# Compressibility (1/GPa) = 0.02259575
#
# Stress axis : x y z
#
# Youngs Moduli (GPa) = 77.84057 90.16903 33.62579
#
# Poissons Ratio (x) = 0.39460 0.19818
# Poissons Ratio (y) = 0.34064 0.17722
# Poissons Ratio (z) = 0.45877 0.47522
#
# Static dielectric constant tensor:
#      x y z
#    x 3.836100 0.000000 -0.036550 
#    y 0.000000 3.613820 0.000000 
#    z -0.036550 0.000000 3.729370 
# 
# 
# High freq. dielectric constant tensor:
#      x y z
#    x 1.794040 0.000000 -0.000870 
#    y 0.000000 1.778040 0.000000 
#    z -0.000870 0.000000 1.774660 
# 
# From -- ./inp_files/295064.got.cif
#   From: 2010.06.25/outbox.cif.g09.slc.cpg/sg15_148_cif.got.tgz:295064.got - 2010.06.28 07:06:18.
