data_PCOD8141582
_publ_section_title
;
Structure prediction by ZEFSAII (Michael W. Deem and Ramdas Pophale) SiO2 
 PCOD8141582
Probable space group: C 2/C
;
_chemical_formula_sum "Si O2"
_cell_formula_units_Z 44
_cell_length_a 13.306658
_cell_length_b 21.736675
_cell_length_c 18.036536
_cell_angle_alpha 90.000000
_cell_angle_beta 155.726180
_cell_angle_gamma 90.000000
_cell_volume 2144.669953
_symmetry_space_group_name_H-M "C 2/C"
_symmetry_group_IT_number 15
_symmetry_cell_setting 'monoclinic'
loop_
_space_group_symop_operation_xyz
x,y,z
-x,y,1/2-z
-x,-y,-z
x,-y,1/2+z
1/2+x,1/2+y,z
1/2-x,1/2+y,1/2-z
1/2-x,1/2-y,-z
1/2+x,1/2-y,1/2+z
loop_
_atom_site_type_symbol
_atom_site_label
_atom_site_fract_x
_atom_site_fract_y
_atom_site_fract_z
Si Si1 0.149484 0.408649 0.119579
Si Si2 0.500000 0.956359 0.250000
Si Si3 0.560193 0.429040 0.046691
Si Si4 0.221849 0.508745 0.049503
Si Si5 0.221548 0.707442 0.585264
Si Si6 0.653748 0.836558 0.786565
O O1 0.386015 0.418049 0.330508
O O2 0.171883 0.443676 0.055773
O O3 0.134721 0.335970 0.094704
O O4 0.915287 0.434118 0.004850
O O5 0.291544 0.914056 0.148658
O O6 0.633542 0.997381 0.404160
O O7 0.500000 0.500000 0.000000
O O8 0.328603 0.387716 0.866693
O O9 0.500000 0.526823 0.250000
O O10 0.500000 0.692474 0.750000
O O11 0.179621 0.779014 0.575446
O O12 0.043588 0.693088 0.399037
O O13 0.500000 0.867069 0.750000
#
# Coordination Sequence:
#
# PCOD8141582 Si02
#       6
#     8   4   8   8   8   8
#     4  10  22  38  59  90 126 162 207 263 316 376
#     4  10  24  38  60  92 134 162 214 264 314 386
#     4  11  24  40  64  92 132 167 216 263 325 385
#     4  10  21  37  59  87 130 166 209 256 317 377
#     4  11  22  40  65  94 127 162 214 269 321 387
#     4  11  24  40  67  93 126 170 212 266 330 378
#
# _framework density 20.515978
#
# number of rings (size 3 to 8) (size 9 to 14) (size 15 to 20)
#    0.000    1.455    0.000    6.000   11.455    0.000 
#    0.000    0.000    2.000    3.273    0.000    0.000 
#    0.000    0.000    0.000    0.000    0.000    0.000 
#
# Total GULP energy -272727.602141 kJ/mol
# GULP energy per Si atom -12396.709188 kJ/mol
# Density = 2.046928 g / cm^3
# Si number density = 20.515978 Si / 1000 Ang^3
#
#
#
# Elastic Constant Matrix: (Units=GPa)
#
#
# Indices 1 2 3 4 5 6 
#
# 1 97.9867 38.1720 44.4486 -0.0139 -9.0957 -0.0034
# 2 38.1720 105.5987 36.0637 -0.1650 18.8077 -0.0129
# 3 44.4486 36.0637 131.5462 -0.1795 -0.7229 -0.0401
# 4 -0.0139 -0.1650 -0.1795 44.5379 -0.0024 -5.7697
# 5 -9.0957 18.8077 -0.7229 -0.0024 44.8560 0.0310
# 6 -0.0034 -0.0129 -0.0401 -5.7697 0.0310 28.1270
#
#
#
# Elastic Compliance Matrix: (Units=1/GPa)
#
#
# Indices 1 2 3 4 5 6 
#
# 1 0.014058 -0.004769 -0.003416 -0.000029 0.004795 -0.000017
# 2 -0.004769 0.013026 -0.001995 0.000041 -0.006461 0.000018
# 3 -0.003416 -0.001995 0.009305 0.000031 0.000294 0.000018
# 4 -0.000029 0.000041 0.000031 0.023066 -0.000024 0.004732
# 5 0.004795 -0.006461 0.000294 -0.000024 0.025980 -0.000036
# 6 -0.000017 0.000018 0.000018 0.004732 -0.000036 0.036524
#
#
# Mechanical properties :
#
#
# Convention : Reuss Voigt Hill
#
# Bulk Modulus (GPa) = 62.39164 63.61114 63.00139
# Shear Modulus (GPa) = 33.86109 37.93400 35.89754
#
# Velocity S-wave (km/s) = 4.06701 4.30466 4.18752
# Velocity P-wave (km/s) = 7.24785 7.46859 7.35905
#
# Compressibility (1/GPa) = 0.01602779
#
# Stress axis : x y z
#
# Youngs Moduli (GPa) = 71.13284 76.77018 107.47044
#
# Poissons Ratio (x) = 0.36613 0.36716
# Poissons Ratio (y) = 0.33924 0.21441
# Poissons Ratio (z) = 0.24302 0.15316
#
# Static dielectric constant tensor:
#      x y z
#    x 4.155360 0.000370 -0.122990 
#    y 0.000370 3.730000 -0.000270 
#    z -0.122990 -0.000270 4.070900 
# 
# 
# High freq. dielectric constant tensor:
#      x y z
#    x 1.796800 0.000000 -0.015650 
#    y 0.000000 1.783300 -0.000010 
#    z -0.015650 -0.000010 1.823770 
# 
# From -- ./inp_files/245609.got.cif
#   From: 2010.06.25/outbox.cif.g09.slc.cpg/sg15_123_cif.got.tgz:245609.got - 2010.06.28 07:06:18.
