data_PCOD8141989
_publ_section_title
;
Structure prediction by ZEFSAII (Michael W. Deem and Ramdas Pophale) SiO2 
 PCOD8141989
Probable space group: C 2/C
;
_chemical_formula_sum "Si O2"
_cell_formula_units_Z 56
_cell_length_a 14.033839
_cell_length_b 18.246462
_cell_length_c 11.168977
_cell_angle_alpha 90.000000
_cell_angle_beta 110.892760
_cell_angle_gamma 90.000000
_cell_volume 2671.969205
_symmetry_space_group_name_H-M "C 2/C"
_symmetry_group_IT_number 15
_symmetry_cell_setting 'monoclinic'
loop_
_space_group_symop_operation_xyz
x,y,z
-x,y,1/2-z
-x,-y,-z
x,-y,1/2+z
1/2+x,1/2+y,z
1/2-x,1/2+y,1/2-z
1/2-x,1/2-y,-z
1/2+x,1/2-y,1/2+z
loop_
_atom_site_type_symbol
_atom_site_label
_atom_site_fract_x
_atom_site_fract_y
_atom_site_fract_z
Si Si1 0.137193 0.381005 0.015920
Si Si2 0.731016 0.118218 0.929964
Si Si3 0.916590 0.583073 0.431067
Si Si4 0.692311 0.233461 0.720257
Si Si5 0.250919 0.015294 0.779032
Si Si6 0.879855 0.881024 0.707586
Si Si7 0.389951 0.797402 0.733215
O O1 0.121553 0.310448 0.095370
O O2 0.236333 0.427219 0.103610
O O3 0.147586 0.355467 0.884228
O O4 0.037604 0.433708 0.989921
O O5 0.694865 0.192357 0.848777
O O6 0.768650 0.057911 0.852089
O O7 0.636363 0.085151 0.962329
O O8 0.827408 0.135705 0.057006
O O9 0.858945 0.526551 0.318056
O O10 0.901888 0.662912 0.365684
O O11 0.649332 0.315455 0.715076
O O12 0.805573 0.234746 0.712048
O O13 0.158861 0.959040 0.759736
O O14 0.000000 0.885390 0.750000
O O15 0.500000 0.762253 0.750000
#
# Coordination Sequence:
#
# PCOD8141989 Si02
#       7
#     8   8   8   8   8   8   8
#     4  10  23  38  62  92 128 161 214 258 316 380
#     4  10  23  41  64  90 128 157 219 265 310 376
#     4  10  21  38  63  93 120 163 201 268 323 361
#     4  11  22  40  63  93 125 168 209 264 313 367
#     4  10  22  41  60  91 123 164 205 262 319 367
#     4  11  25  40  64  92 127 170 209 257 312 374
#     4  10  21  38  60  88 124 163 206 259 316 372
#
# _framework density 20.958324999999999
#
# number of rings (size 3 to 8) (size 9 to 14) (size 15 to 20)
#    0.000    1.714    2.857    1.286    6.000    3.429 
#    2.571    2.857    0.000    0.000    0.000    0.000 
#    0.000    0.000    0.000    0.000    0.000    0.000 
#
# Total GULP energy -347161.412874 kJ/mol
# GULP energy per Si atom -12398.621888 kJ/mol
# Density = 2.091062 g / cm^3
# Si number density = 20.958325 Si / 1000 Ang^3
#
#
#
# Elastic Constant Matrix: (Units=GPa)
#
#
# Indices 1 2 3 4 5 6 
#
# 1 89.9620 30.5889 21.1745 0.0000 3.7266 0.0000
# 2 30.5889 80.3638 12.9517 0.0000 -1.5975 0.0000
# 3 21.1745 12.9517 67.0790 0.0000 -8.9731 0.0000
# 4 0.0000 0.0000 0.0000 17.1302 0.0000 1.9506
# 5 3.7266 -1.5975 -8.9731 0.0000 25.8429 0.0000
# 6 0.0000 0.0000 0.0000 1.9506 0.0000 30.5791
#
#
#
# Elastic Compliance Matrix: (Units=1/GPa)
#
#
# Indices 1 2 3 4 5 6 
#
# 1 0.013786 -0.004686 -0.003934 0.000000 -0.003644 0.000000
# 2 -0.004686 0.014436 -0.001152 0.000000 0.001168 0.000000
# 3 -0.003934 -0.001152 0.017239 0.000000 0.006482 0.000000
# 4 0.000000 0.000000 0.000000 0.058804 0.000000 -0.003751
# 5 -0.003644 0.001168 0.006482 0.000000 0.041544 0.000000
# 6 0.000000 0.000000 0.000000 -0.003751 0.000000 0.032941
#
#
# Mechanical properties :
#
#
# Convention : Reuss Voigt Hill
#
# Bulk Modulus (GPa) = 38.58484 40.75944 39.67214
# Shear Modulus (GPa) = 24.16242 26.22308 25.19275
#
# Velocity S-wave (km/s) = 3.39909 3.54107 3.47081
# Velocity P-wave (km/s) = 5.81853 6.01739 5.91880
#
# Compressibility (1/GPa) = 0.02591692
#
# Stress axis : x y z
#
# Youngs Moduli (GPa) = 72.53712 69.27218 58.00707
#
# Poissons Ratio (x) = 0.32459 0.22823
# Poissons Ratio (y) = 0.33989 0.06682
# Poissons Ratio (z) = 0.28540 0.07980
#
# Static dielectric constant tensor:
#      x y z
#    x 3.675340 0.000000 0.085530 
#    y 0.000000 3.831620 0.000000 
#    z 0.085530 0.000000 3.818670 
# 
# 
# High freq. dielectric constant tensor:
#      x y z
#    x 1.799570 0.000000 0.000020 
#    y 0.000000 1.824990 0.000000 
#    z 0.000020 0.000000 1.828140 
# 
# From -- ./inp_files/98388.got.cif
#   From: 2010.06.25/outbox.cif.g09.slc.cpg/sg15_50_cif.got.tgz:98388.got - 2010.06.28 07:06:18.
