data_PCOD8141158
_publ_section_title
;
Structure prediction by ZEFSAII (Michael W. Deem and Ramdas Pophale) SiO2 
 PCOD8141158
Probable space group: C 2/C
;
_chemical_formula_sum "Si O2"
_cell_formula_units_Z 48
_cell_length_a 20.951203
_cell_length_b 8.573044
_cell_length_c 19.640525
_cell_angle_alpha 90.000000
_cell_angle_beta 141.331555
_cell_angle_gamma 90.000000
_cell_volume 2204.179668
_symmetry_space_group_name_H-M "C 2/C"
_symmetry_group_IT_number 15
_symmetry_cell_setting 'monoclinic'
loop_
_space_group_symop_operation_xyz
x,y,z
-x,y,1/2-z
-x,-y,-z
x,-y,1/2+z
1/2+x,1/2+y,z
1/2-x,1/2+y,1/2-z
1/2-x,1/2-y,-z
1/2+x,1/2-y,1/2+z
loop_
_atom_site_type_symbol
_atom_site_label
_atom_site_fract_x
_atom_site_fract_y
_atom_site_fract_z
Si Si1 0.944720 0.642422 0.545051
Si Si2 0.370388 0.949765 0.839286
Si Si3 0.484649 0.516366 0.406766
Si Si4 0.221731 0.851658 0.289041
Si Si5 0.700864 0.060416 0.503687
Si Si6 0.093167 0.138844 0.879452
O O1 0.895364 0.644895 0.429029
O O2 0.861506 0.599985 0.534262
O O3 0.029849 0.506533 0.617591
O O4 0.992265 0.809948 0.600478
O O5 0.312578 0.826780 0.744179
O O6 0.301387 0.102061 0.796010
O O7 0.500000 0.500000 0.500000
O O8 0.369618 0.475882 0.290643
O O9 0.558970 0.398489 0.428159
O O10 0.279204 0.858598 0.407692
O O11 0.809256 0.027715 0.557117
O O12 0.630766 0.182208 0.403087
O O13 0.000000 0.107476 0.750000
#
# Coordination Sequence:
#
# PCOD8141158 Si02
#       6
#     8   8   8   8   8   8
#     4  10  22  39  60  96 132 171 221 279 330 399
#     4  10  21  35  60  95 136 167 215 278 331 392
#     4  12  24  40  66  99 133 180 222 279 342 398
#     4  11  21  37  64  97 133 177 224 274 337 399
#     4  10  24  43  69  95 128 181 231 277 330 409
#     4  11  24  46  70  95 135 179 228 277 342 410
#
# _framework density 21.776810000000001
#
# number of rings (size 3 to 8) (size 9 to 14) (size 15 to 20)
#    0.000    1.333    3.333    2.000    7.000    0.667 
#    0.000    0.833    0.000    0.000    0.000    0.000 
#    0.000    0.000    0.000    0.000    0.000    0.000 
#
# Total GULP energy -297618.757046 kJ/mol
# GULP energy per Si atom -12400.781544 kJ/mol
# Density = 2.172725 g / cm^3
# Si number density = 21.776810 Si / 1000 Ang^3
#
#
#
# Elastic Constant Matrix: (Units=GPa)
#
#
# Indices 1 2 3 4 5 6 
#
# 1 118.8028 7.6678 37.0001 0.0000 14.8549 0.0000
# 2 7.6678 58.0004 23.6892 0.0000 -1.6922 0.0000
# 3 37.0001 23.6892 61.3395 0.0000 16.3114 0.0000
# 4 0.0000 0.0000 0.0000 30.5465 0.0000 9.8284
# 5 14.8549 -1.6922 16.3114 0.0000 29.9199 0.0000
# 6 0.0000 0.0000 0.0000 9.8284 0.0000 31.0796
#
#
#
# Elastic Compliance Matrix: (Units=1/GPa)
#
#
# Indices 1 2 3 4 5 6 
#
# 1 0.010532 0.001148 -0.006343 0.000000 -0.001706 0.000000
# 2 0.001148 0.021698 -0.010815 0.000000 0.006553 0.000000
# 3 -0.006343 -0.010815 0.027637 0.000000 -0.012530 0.000000
# 4 0.000000 0.000000 0.000000 0.036445 0.000000 -0.011525
# 5 -0.001706 0.006553 -0.012530 0.000000 0.041471 0.000000
# 6 0.000000 0.000000 0.000000 -0.011525 0.000000 0.035820
#
#
# Mechanical properties :
#
#
# Convention : Reuss Voigt Hill
#
# Bulk Modulus (GPa) = 35.90858 41.65078 38.77968
# Shear Modulus (GPa) = 23.26616 29.62826 26.44721
#
# Velocity S-wave (km/s) = 3.27217 3.69255 3.48870
# Velocity P-wave (km/s) = 5.54989 6.11127 5.83734
#
# Compressibility (1/GPa) = 0.02784850
#
# Stress axis : x y z
#
# Youngs Moduli (GPa) = 94.94969 46.08764 36.18311
#
# Poissons Ratio (x) = -0.05293 0.22950
# Poissons Ratio (y) = -0.10904 0.39132
# Poissons Ratio (z) = 0.60224 0.49844
#
# Static dielectric constant tensor:
#      x y z
#    x 4.152850 0.000000 0.296240 
#    y 0.000000 3.736700 0.000000 
#    z 0.296240 0.000000 3.875040 
# 
# 
# High freq. dielectric constant tensor:
#      x y z
#    x 1.861250 0.000000 0.023150 
#    y 0.000000 1.839650 0.000000 
#    z 0.023150 0.000000 1.852750 
# 
# From -- ./inp_files/116737.got.cif
#   From: 2010.06.25/outbox.cif.g09.slc.cpg/sg15_59_cif.got.tgz:116737.got - 2010.06.28 07:06:18.
