data_PCOD8141414
_publ_section_title
;
Structure prediction by ZEFSAII (Michael W. Deem and Ramdas Pophale) SiO2 
 PCOD8141414
Probable space group: C 2/C
;
_chemical_formula_sum "Si O2"
_cell_formula_units_Z 64
_cell_length_a 11.252009
_cell_length_b 21.716201
_cell_length_c 21.836335
_cell_angle_alpha 90.000000
_cell_angle_beta 147.112196
_cell_angle_gamma 90.000000
_cell_volume 2897.277375
_symmetry_space_group_name_H-M "C 2/C"
_symmetry_group_IT_number 15
_symmetry_cell_setting 'monoclinic'
loop_
_space_group_symop_operation_xyz
x,y,z
-x,y,1/2-z
-x,-y,-z
x,-y,1/2+z
1/2+x,1/2+y,z
1/2-x,1/2+y,1/2-z
1/2-x,1/2-y,-z
1/2+x,1/2-y,1/2+z
loop_
_atom_site_type_symbol
_atom_site_label
_atom_site_fract_x
_atom_site_fract_y
_atom_site_fract_z
Si Si1 0.950522 0.106631 0.569548
Si Si2 0.110116 0.559766 0.691976
Si Si3 0.824184 0.192129 0.625199
Si Si4 0.226225 0.948334 0.818862
Si Si5 0.653198 0.481380 0.010120
Si Si6 0.767589 0.671824 0.133616
Si Si7 0.422559 0.869304 0.002259
Si Si8 0.524236 0.634093 0.139785
O O1 0.880087 0.159491 0.585794
O O2 0.892876 0.130696 0.476870
O O3 0.208056 0.089056 0.684528
O O4 0.819643 0.042226 0.521719
O O5 0.188278 0.501087 0.687907
O O6 0.893681 0.540189 0.636683
O O7 0.049556 0.612527 0.618154
O O8 0.836268 0.265961 0.627690
O O9 0.573002 0.179572 0.533025
O O10 0.000000 0.166017 0.750000
O O11 0.000000 0.972232 0.750000
O O12 0.194424 0.884913 0.766420
O O13 0.388137 0.929650 0.944481
O O14 0.500000 0.500000 0.000000
O O15 0.538887 0.429370 0.920872
O O16 0.635757 0.682039 0.140662
O O17 0.000000 0.638065 0.250000
O O18 0.191937 0.837248 0.921575
#
# Coordination Sequence:
#
# PCOD8141414 Si02
#       8
#     8   8   8   8   8   8   8   8
#     4  12  24  43  69  98 136 175 231 275 340 416
#     4  11  23  37  64  97 135 176 214 282 339 407
#     4  11  24  45  68  97 126 176 231 290 339 391
#     4  10  21  36  62  96 134 170 217 265 342 422
#     4  11  23  41  63  98 140 180 215 271 343 420
#     4  11  27  45  67  92 131 178 234 290 334 404
#     4  10  22  40  63  92 134 169 220 281 334 406
#     4  10  22  42  60  97 128 173 218 267 345 407
#
# _framework density 22.089704000000001
#
# number of rings (size 3 to 8) (size 9 to 14) (size 15 to 20)
#    0.000    1.250    3.750    1.500    5.250    1.000 
#    0.000    0.000    0.000    0.000    0.000    0.000 
#    0.000    0.000    0.000    0.000    0.000    0.000 
#
# Total GULP energy -396633.607801 kJ/mol
# GULP energy per Si atom -12394.800244 kJ/mol
# Density = 2.203943 g / cm^3
# Si number density = 22.089704 Si / 1000 Ang^3
#
#
#
# Elastic Constant Matrix: (Units=GPa)
#
#
# Indices 1 2 3 4 5 6 
#
# 1 113.3803 19.9221 42.8541 -0.0024 18.3712 -0.0006
# 2 19.9221 57.3809 22.6133 -0.0039 6.0628 -0.0016
# 3 42.8541 22.6133 127.7869 -0.0174 8.9468 0.0030
# 4 -0.0024 -0.0039 -0.0174 30.2585 -0.0041 -2.0248
# 5 18.3712 6.0628 8.9468 -0.0041 29.9388 0.0004
# 6 -0.0006 -0.0016 0.0030 -2.0248 0.0004 22.5543
#
#
#
# Elastic Compliance Matrix: (Units=1/GPa)
#
#
# Indices 1 2 3 4 5 6 
#
# 1 0.011229 -0.002129 -0.003000 -0.000002 -0.005563 0.000001
# 2 -0.002129 0.019381 -0.002587 0.000001 -0.001846 0.000002
# 3 -0.003000 -0.002587 0.009319 0.000005 -0.000420 -0.000001
# 4 -0.000002 0.000001 0.000005 0.033248 0.000004 0.002985
# 5 -0.005563 -0.001846 -0.000420 0.000004 0.037314 -0.000001
# 6 0.000001 0.000002 -0.000001 0.002985 -0.000001 0.044605
#
#
# Mechanical properties :
#
#
# Convention : Reuss Voigt Hill
#
# Bulk Modulus (GPa) = 40.81837 52.14746 46.48291
# Shear Modulus (GPa) = 27.98105 30.76090 29.37097
#
# Velocity S-wave (km/s) = 3.56294 3.73573 3.65036
# Velocity P-wave (km/s) = 5.95354 6.50123 6.23340
#
# Compressibility (1/GPa) = 0.02449877
#
# Stress axis : x y z
#
# Youngs Moduli (GPa) = 89.05491 51.59746 107.31234
#
# Poissons Ratio (x) = 0.10984 0.32189
# Poissons Ratio (y) = 0.18957 0.27757
# Poissons Ratio (z) = 0.26712 0.13346
#
# Static dielectric constant tensor:
#      x y z
#    x 4.056490 0.000000 0.064990 
#    y 0.000000 3.665470 -0.000010 
#    z 0.064990 -0.000010 4.392030 
# 
# 
# High freq. dielectric constant tensor:
#      x y z
#    x 1.871010 0.000000 0.001100 
#    y 0.000000 1.836040 0.000000 
#    z 0.001100 0.000000 1.887090 
# 
# From -- ./inp_files/271231.got.cif
#   From: 2010.06.25/outbox.cif.g09.slc.cpg/sg15_136_cif.got.tgz:271231.got - 2010.06.28 07:06:18.
