data_PCOD8141685
_publ_section_title
;
Structure prediction by ZEFSAII (Michael W. Deem and Ramdas Pophale) SiO2 
 PCOD8141685
Probable space group: C 2/C
;
_chemical_formula_sum "Si O2"
_cell_formula_units_Z 64
_cell_length_a 9.133783
_cell_length_b 21.096218
_cell_length_c 22.541660
_cell_angle_alpha 90.000000
_cell_angle_beta 48.125504
_cell_angle_gamma 90.000000
_cell_volume 3234.218231
_symmetry_space_group_name_H-M "C 2/C"
_symmetry_group_IT_number 15
_symmetry_cell_setting 'monoclinic'
loop_
_space_group_symop_operation_xyz
x,y,z
-x,y,1/2-z
-x,-y,-z
x,-y,1/2+z
1/2+x,1/2+y,z
1/2-x,1/2+y,1/2-z
1/2-x,1/2-y,-z
1/2+x,1/2-y,1/2+z
loop_
_atom_site_type_symbol
_atom_site_label
_atom_site_fract_x
_atom_site_fract_y
_atom_site_fract_z
Si Si1 0.355604 0.389753 0.344941
Si Si2 0.193562 0.312473 0.982155
Si Si3 0.492491 0.371820 0.820589
Si Si4 0.158722 0.519101 0.157348
Si Si5 0.285789 0.768596 0.058287
Si Si6 0.415464 0.937588 0.435946
Si Si7 0.921549 0.995204 0.900518
Si Si8 0.189759 0.342041 0.669776
O O1 0.500000 0.387714 0.250000
O O2 0.362203 0.319507 0.372323
O O3 0.448617 0.434421 0.369290
O O4 0.143285 0.421974 0.388142
O O5 0.336821 0.323438 0.889107
O O6 0.250000 0.250000 0.000000
O O7 0.199498 0.370383 0.027926
O O8 0.987915 0.305847 0.005470
O O9 0.500000 0.354135 0.750000
O O10 0.430514 0.445081 0.844022
O O11 0.689118 0.360726 0.804520
O O12 0.097935 0.469601 0.123820
O O13 0.391512 0.512508 0.106936
O O14 0.131591 0.593906 0.149088
O O15 0.000000 0.501022 0.250000
O O16 0.295979 0.705566 0.095983
O O17 0.250000 0.750000 0.000000
O O18 0.294371 0.985913 0.511308
O O19 0.000000 0.308605 0.750000
#
# Coordination Sequence:
#
# PCOD8141685 Si02
#       8
#     8   8   8   8   8   8   8   8
#     4  11  23  41  61  88 127 162 199 257 309 366
#     4  10  21  42  61  85 121 158 203 257 298 363
#     4  10  21  38  63  90 116 157 204 248 311 362
#     4  10  21  38  61  93 122 161 204 254 311 359
#     4  11  25  40  61  88 121 164 208 248 309 373
#     4  10  22  38  63  89 123 161 201 255 306 366
#     4  10  21  37  61  94 122 156 203 253 306 372
#     4  10  22  39  60  88 124 156 199 258 298 362
#
# _framework density 19.788398999999998
#
# number of rings (size 3 to 8) (size 9 to 14) (size 15 to 20)
#    0.000    1.750    1.250    2.250    3.500    3.000 
#    0.000    0.625    0.000    0.000    0.000    0.000 
#    0.000    0.000    0.000    0.000    0.000    0.000 
#
# Total GULP energy -396453.981978 kJ/mol
# GULP energy per Si atom -12389.186937 kJ/mol
# Density = 1.974336 g / cm^3
# Si number density = 19.788399 Si / 1000 Ang^3
#
#
#
# Elastic Constant Matrix: (Units=GPa)
#
#
# Indices 1 2 3 4 5 6 
#
# 1 68.5105 36.5072 44.4192 0.0003 10.9829 -0.0011
# 2 36.5072 117.2359 54.0906 0.0001 24.3683 -0.0003
# 3 44.4192 54.0906 137.6917 0.0000 4.9720 -0.0004
# 4 0.0003 0.0001 0.0000 27.2768 0.0001 5.6620
# 5 10.9829 24.3683 4.9720 0.0001 36.3677 0.0002
# 6 -0.0011 -0.0003 -0.0004 5.6620 0.0002 30.5442
#
#
#
# Elastic Compliance Matrix: (Units=1/GPa)
#
#
# Indices 1 2 3 4 5 6 
#
# 1 0.020156 -0.003252 -0.005109 0.000000 -0.003209 0.000001
# 2 -0.003252 0.012705 -0.003688 0.000000 -0.007026 0.000000
# 3 -0.005109 -0.003688 0.010265 0.000000 0.002611 0.000000
# 4 0.000000 0.000000 0.000000 0.038128 0.000000 -0.007068
# 5 -0.003209 -0.007026 0.002611 0.000000 0.032817 0.000000
# 6 0.000001 0.000000 0.000000 -0.007068 0.000000 0.034050
#
#
# Mechanical properties :
#
#
# Convention : Reuss Voigt Hill
#
# Bulk Modulus (GPa) = 52.55486 65.94134 59.24810
# Shear Modulus (GPa) = 28.00146 31.39915 29.70031
#
# Velocity S-wave (km/s) = 3.76579 3.98772 3.87834
# Velocity P-wave (km/s) = 6.74717 7.38905 7.07539
#
# Compressibility (1/GPa) = 0.01902774
#
# Stress axis : x y z
#
# Youngs Moduli (GPa) = 49.61237 78.71151 97.41668
#
# Poissons Ratio (x) = 0.25600 0.49768
# Poissons Ratio (y) = 0.16136 0.35926
# Poissons Ratio (z) = 0.25346 0.29028
#
# Static dielectric constant tensor:
#      x y z
#    x 3.508970 0.000000 -0.296360 
#    y 0.000000 3.730680 0.000000 
#    z -0.296360 0.000000 3.716270 
# 
# 
# High freq. dielectric constant tensor:
#      x y z
#    x 1.759280 0.000000 -0.016570 
#    y 0.000000 1.781270 0.000000 
#    z -0.016570 0.000000 1.782810 
# 
# From -- ./inp_files/266097.got.cif
#   From: 2010.06.25/outbox.cif.g09.slc.cpg/sg15_134_cif.got.tgz:266097.got - 2010.06.28 07:06:18.
