data_PCOD8141269
_publ_section_title
;
Structure prediction by ZEFSAII (Michael W. Deem and Ramdas Pophale) SiO2 
 PCOD8141269
Probable space group: C 2/C
;
_chemical_formula_sum "Si O2"
_cell_formula_units_Z 48
_cell_length_a 20.563614
_cell_length_b 14.854068
_cell_length_c 12.008443
_cell_angle_alpha 90.000000
_cell_angle_beta 43.209796
_cell_angle_gamma 90.000000
_cell_volume 2511.388769
_symmetry_space_group_name_H-M "C 2/C"
_symmetry_group_IT_number 15
_symmetry_cell_setting 'monoclinic'
loop_
_space_group_symop_operation_xyz
x,y,z
-x,y,1/2-z
-x,-y,-z
x,-y,1/2+z
1/2+x,1/2+y,z
1/2-x,1/2+y,1/2-z
1/2-x,1/2-y,-z
1/2+x,1/2-y,1/2+z
loop_
_atom_site_type_symbol
_atom_site_label
_atom_site_fract_x
_atom_site_fract_y
_atom_site_fract_z
Si Si1 0.706706 0.571813 0.583963
Si Si2 0.636964 0.275047 0.309158
Si Si3 0.199002 0.134432 0.146535
Si Si4 0.605314 0.767282 0.089282
Si Si5 0.902871 0.336914 0.847053
Si Si6 0.832820 0.183617 0.073318
O O1 0.634519 0.626806 0.754029
O O2 0.689018 0.467633 0.621757
O O3 0.815084 0.597298 0.478629
O O4 0.686394 0.597463 0.481061
O O5 0.587068 0.277145 0.491089
O O6 0.594412 0.198046 0.283073
O O7 0.745418 0.250637 0.192880
O O8 0.142306 0.191728 0.127134
O O9 0.143329 0.148383 0.332917
O O10 0.312198 0.156413 0.015192
O O11 0.500000 0.806028 0.250000
O O12 0.000000 0.392014 0.750000
O O13 0.909833 0.249640 0.921208
#
# Coordination Sequence:
#
# PCOD8141269 Si02
#       6
#     8   8   8   8   8   8
#     4   9  18  34  56  79 104 134 175 223 262 305
#     4   8  17  35  53  73 105 139 172 211 254 312
#     4  10  21  36  57  77 106 145 173 214 269 314
#     4  10  22  38  54  76 108 144 178 211 262 324
#     4   9  17  31  57  82 102 132 174 220 264 309
#     4   8  17  34  52  75 104 140 173 204 260 316
#
# _framework density 19.112931
#
# number of rings (size 3 to 8) (size 9 to 14) (size 15 to 20)
#    0.000    3.000    0.000    2.000    4.667    0.667 
#    0.000    4.167    0.000    6.000    0.000    0.000 
#    0.000    0.000    0.000    0.000    0.000    0.000 
#
# Total GULP energy -297323.931587 kJ/mol
# GULP energy per Si atom -12388.497149 kJ/mol
# Density = 1.906943 g / cm^3
# Si number density = 19.112931 Si / 1000 Ang^3
#
#
#
# Elastic Constant Matrix: (Units=GPa)
#
#
# Indices 1 2 3 4 5 6 
#
# 1 39.5660 -5.6131 29.7012 0.0000 15.3087 0.0000
# 2 -5.6131 61.1749 -5.7435 0.0000 23.6265 0.0000
# 3 29.7012 -5.7435 72.7451 0.0000 28.5382 0.0000
# 4 0.0000 0.0000 0.0000 16.2058 0.0000 4.8042
# 5 15.3087 23.6265 28.5382 0.0000 42.5908 0.0000
# 6 0.0000 0.0000 0.0000 4.8042 0.0000 15.1231
#
#
#
# Elastic Compliance Matrix: (Units=1/GPa)
#
#
# Indices 1 2 3 4 5 6 
#
# 1 0.038445 0.006132 -0.011473 0.000000 -0.009533 0.000000
# 2 0.006132 0.026366 0.008385 0.000000 -0.022449 0.000000
# 3 -0.011473 0.008385 0.026182 0.000000 -0.018071 0.000000
# 4 0.000000 0.000000 0.000000 0.068122 0.000000 -0.021641
# 5 -0.009533 -0.022449 -0.018071 0.000000 0.051467 0.000000
# 6 0.000000 0.000000 0.000000 -0.021641 0.000000 0.072999
#
#
# Mechanical properties :
#
#
# Convention : Reuss Voigt Hill
#
# Bulk Modulus (GPa) = 10.30064 23.35278 16.82671
# Shear Modulus (GPa) = 16.13663 25.12669 20.63166
#
# Velocity S-wave (km/s) = 2.90880 3.62973 3.28908
# Velocity P-wave (km/s) = 4.08443 5.45999 4.82151
#
# Compressibility (1/GPa) = 0.09708131
#
# Stress axis : x y z
#
# Youngs Moduli (GPa) = 26.01124 37.92714 38.19373
#
# Poissons Ratio (x) = -0.23257 0.43819
# Poissons Ratio (y) = -0.15950 -0.32025
# Poissons Ratio (z) = 0.29842 -0.31801
#
# Static dielectric constant tensor:
#      x y z
#    x 3.687610 0.000000 0.527970 
#    y 0.000000 -0.352230 0.000000 
#    z 0.527970 0.000000 4.271740 
# 
# 
# High freq. dielectric constant tensor:
#      x y z
#    x 1.746260 0.000000 0.010520 
#    y 0.000000 1.708310 0.000000 
#    z 0.010520 0.000000 1.745250 
# 
# From -- ./inp_files/96832.got.cif
#   From: 2010.06.25/outbox.cif.g09.slc.cpg/sg15_49_cif.got.tgz:96832.got - 2010.06.28 07:06:18.
