data_PCOD8141850
_publ_section_title
;
Structure prediction by ZEFSAII (Michael W. Deem and Ramdas Pophale) SiO2 
 PCOD8141850
Probable space group: C 2/C
;
_chemical_formula_sum "Si O2"
_cell_formula_units_Z 56
_cell_length_a 16.797684
_cell_length_b 6.203741
_cell_length_c 29.106850
_cell_angle_alpha 90.000000
_cell_angle_beta 114.721601
_cell_angle_gamma 90.000000
_cell_volume 2755.191359
_symmetry_space_group_name_H-M "C 2/C"
_symmetry_group_IT_number 15
_symmetry_cell_setting 'monoclinic'
loop_
_space_group_symop_operation_xyz
x,y,z
-x,y,1/2-z
-x,-y,-z
x,-y,1/2+z
1/2+x,1/2+y,z
1/2-x,1/2+y,1/2-z
1/2-x,1/2-y,-z
1/2+x,1/2-y,1/2+z
loop_
_atom_site_type_symbol
_atom_site_label
_atom_site_fract_x
_atom_site_fract_y
_atom_site_fract_z
Si Si1 0.503702 0.606478 0.870659
Si Si2 0.640168 0.904869 0.697333
Si Si3 0.358491 0.082593 0.057659
Si Si4 0.708215 0.115793 0.556315
Si Si5 0.867075 0.211017 0.373115
Si Si6 0.284344 0.093026 0.695399
Si Si7 0.647826 0.699833 0.377000
O O1 0.439429 0.735063 0.820941
O O2 0.557644 0.763915 0.916907
O O3 0.447329 0.454889 0.890606
O O4 0.569573 0.472664 0.854192
O O5 0.729951 0.791825 0.703085
O O6 0.614296 0.094585 0.656807
O O7 0.651066 0.997765 0.750798
O O8 0.272199 0.189820 0.058270
O O9 0.376108 0.858408 0.087194
O O10 0.345193 0.033545 0.000732
O O11 0.638642 0.200972 0.576584
O O12 0.759976 0.914787 0.590377
O O13 0.776291 0.097600 0.337833
O O14 0.346230 0.175169 0.669460
#
# Coordination Sequence:
#
# PCOD8141850 Si02
#       7
#     8   8   8   8   8   8   8
#     4  10  25  41  62  90 136 160 204 255 322 362
#     4  11  22  42  65  95 120 166 208 266 302 377
#     4  10  21  41  61  97 129 167 204 260 302 380
#     4  10  21  37  70  93 124 165 217 250 311 360
#     4  11  21  41  64  94 122 163 208 265 302 373
#     4  11  22  38  73  89 121 162 216 254 314 362
#     4  11  21  42  65  96 126 167 202 262 307 377
#
# _framework density 20.325268000000001
#
# number of rings (size 3 to 8) (size 9 to 14) (size 15 to 20)
#    0.000    1.429    4.286    1.286    0.000    0.571 
#    0.000    7.143    0.000    0.000    0.000    0.000 
#    0.000    0.000    0.000    0.000    0.000    0.000 
#
# Total GULP energy -347387.938489 kJ/mol
# GULP energy per Si atom -12406.712089 kJ/mol
# Density = 2.027901 g / cm^3
# Si number density = 20.325268 Si / 1000 Ang^3
#
#
#
# Elastic Constant Matrix: (Units=GPa)
#
#
# Indices 1 2 3 4 5 6 
#
# 1 100.1209 47.4487 60.3718 0.0000 4.8202 0.0000
# 2 47.4487 106.8682 47.4639 0.0000 -1.6995 0.0001
# 3 60.3718 47.4639 135.8777 0.0000 -13.8971 0.0000
# 4 0.0000 0.0000 0.0000 27.6551 0.0000 -0.8286
# 5 4.8202 -1.6995 -13.8971 0.0000 25.6071 0.0000
# 6 0.0000 0.0001 0.0000 -0.8286 0.0000 30.5190
#
#
#
# Elastic Compliance Matrix: (Units=1/GPa)
#
#
# Indices 1 2 3 4 5 6 
#
# 1 0.016290 -0.004518 -0.006357 0.000000 -0.006816 0.000000
# 2 -0.004518 0.012379 -0.002272 0.000000 0.000439 0.000000
# 3 -0.006357 -0.002272 0.011736 0.000000 0.007415 0.000000
# 4 0.000000 0.000000 0.000000 0.036189 0.000000 0.000982
# 5 -0.006816 0.000439 0.007415 0.000000 0.044388 0.000000
# 6 0.000000 0.000000 0.000000 0.000982 0.000000 0.032793
#
#
# Mechanical properties :
#
#
# Convention : Reuss Voigt Hill
#
# Bulk Modulus (GPa) = 70.86160 72.60393 71.73276
# Shear Modulus (GPa) = 27.06015 29.26174 28.16094
#
# Velocity S-wave (km/s) = 3.65273 3.79842 3.72629
# Velocity P-wave (km/s) = 7.26150 7.41862 7.34048
#
# Compressibility (1/GPa) = 0.01411202
#
# Stress axis : x y z
#
# Youngs Moduli (GPa) = 61.38620 80.78018 85.20763
#
# Poissons Ratio (x) = 0.36495 0.54166
# Poissons Ratio (y) = 0.27733 0.19359
# Poissons Ratio (z) = 0.39023 0.18354
#
# Static dielectric constant tensor:
#      x y z
#    x 3.563170 0.000000 0.038810 
#    y 0.000000 3.886150 0.000000 
#    z 0.038810 0.000000 3.627620 
# 
# 
# High freq. dielectric constant tensor:
#      x y z
#    x 1.786420 0.000000 0.000910 
#    y 0.000000 1.810870 0.000000 
#    z 0.000910 0.000000 1.787140 
# 
# From -- ./inp_files/297786.got.cif
#   From: 2010.06.25/outbox.cif.g09.slc.cpg/sg15_149_cif.got.tgz:297786.got - 2010.06.28 07:06:18.
