data_PCOD8141947
_publ_section_title
;
Structure prediction by ZEFSAII (Michael W. Deem and Ramdas Pophale) SiO2 
 PCOD8141947
Probable space group: C 2/C
;
_chemical_formula_sum "Si O2"
_cell_formula_units_Z 52
_cell_length_a 8.371954
_cell_length_b 28.170738
_cell_length_c 12.820673
_cell_angle_alpha 90.000000
_cell_angle_beta 123.183007
_cell_angle_gamma 90.000000
_cell_volume 2530.598763
_symmetry_space_group_name_H-M "C 2/C"
_symmetry_group_IT_number 15
_symmetry_cell_setting 'monoclinic'
loop_
_space_group_symop_operation_xyz
x,y,z
-x,y,1/2-z
-x,-y,-z
x,-y,1/2+z
1/2+x,1/2+y,z
1/2-x,1/2+y,1/2-z
1/2-x,1/2-y,-z
1/2+x,1/2-y,1/2+z
loop_
_atom_site_type_symbol
_atom_site_label
_atom_site_fract_x
_atom_site_fract_y
_atom_site_fract_z
Si Si1 0.029152 0.575110 0.645615
Si Si2 0.410884 0.464812 0.321558
Si Si3 0.895439 0.060715 0.044554
Si Si4 0.858301 0.329375 0.396445
Si Si5 0.000000 0.863388 0.750000
Si Si6 0.000000 0.224822 0.750000
Si Si7 0.000000 0.283089 0.250000
Si Si8 0.804383 0.286416 0.854458
O O1 0.183356 0.532856 0.717391
O O2 0.112735 0.613677 0.592361
O O3 0.000000 0.598634 0.750000
O O4 0.833390 0.553098 0.530489
O O5 0.500000 0.440193 0.250000
O O6 0.494778 0.517286 0.363248
O O7 0.454939 0.434770 0.443092
O O8 0.952179 0.107207 0.128525
O O9 0.650875 0.310878 0.361408
O O10 0.883728 0.315912 0.285705
O O11 0.016574 0.301300 0.515310
O O12 0.183981 0.833155 0.781200
O O13 0.881082 0.259672 0.780516
O O14 0.841181 0.249138 0.136995
#
# Coordination Sequence:
#
# PCOD8141947 Si02
#       8
#     8   8   8   8   4   4   4   8
#     4  10  21  38  62  92 119 159 210 247 298 365
#     4  10  22  40  64  92 126 156 202 253 313 361
#     4  10  21  42  64  91 124 161 201 256 302 370
#     4  11  19  37  59  84 119 160 199 253 296 362
#     4  11  20  40  65  88 118 164 215 246 302 365
#     4  10  24  38  53  88 128 156 197 252 314 360
#     4   9  20  34  60  88 110 156 208 244 304 363
#     4  10  21  38  59  86 120 157 203 250 305 362
#
# _framework density 20.548496
#
# number of rings (size 3 to 8) (size 9 to 14) (size 15 to 20)
#    0.000    1.846    3.077    0.923    1.077    0.615 
#    2.769    0.000    5.077    0.000    0.000    0.000 
#    0.000    0.000    0.000    0.000    0.000    0.000 
#
# Total GULP energy -322090.123398 kJ/mol
# GULP energy per Si atom -12388.081669 kJ/mol
# Density = 2.050173 g / cm^3
# Si number density = 20.548496 Si / 1000 Ang^3
#
#
#
# Elastic Constant Matrix: (Units=GPa)
#
#
# Indices 1 2 3 4 5 6 
#
# 1 99.8123 43.4931 42.3875 0.0000 9.8106 0.0000
# 2 43.4931 91.2391 41.7224 0.0000 18.7226 0.0000
# 3 42.3875 41.7224 109.3941 0.0000 28.9992 0.0000
# 4 0.0000 0.0000 0.0000 30.4047 0.0000 11.5111
# 5 9.8106 18.7226 28.9992 0.0000 41.2083 0.0000
# 6 0.0000 0.0000 0.0000 11.5111 0.0000 36.8756
#
#
#
# Elastic Compliance Matrix: (Units=1/GPa)
#
#
# Indices 1 2 3 4 5 6 
#
# 1 0.013711 -0.005153 -0.003814 0.000000 0.001761 0.000000
# 2 -0.005153 0.015528 -0.002927 0.000000 -0.003769 0.000000
# 3 -0.003814 -0.002927 0.013697 0.000000 -0.007401 0.000000
# 4 0.000000 0.000000 0.000000 0.037298 0.000000 -0.011643
# 5 0.001761 -0.003769 -0.007401 0.000000 0.030769 0.000000
# 6 0.000000 0.000000 0.000000 -0.011643 0.000000 0.030753
#
#
# Mechanical properties :
#
#
# Convention : Reuss Voigt Hill
#
# Bulk Modulus (GPa) = 52.22258 61.73908 56.98083
# Shear Modulus (GPa) = 29.08219 33.22053 31.15136
#
# Velocity S-wave (km/s) = 3.76612 4.02517 3.89780
# Velocity P-wave (km/s) = 6.66191 7.19120 6.93161
#
# Compressibility (1/GPa) = 0.01914880
#
# Stress axis : x y z
#
# Youngs Moduli (GPa) = 72.93442 64.39812 73.00657
#
# Poissons Ratio (x) = 0.33185 0.27846
# Poissons Ratio (y) = 0.37584 0.21367
# Poissons Ratio (z) = 0.27818 0.18847
#
# Static dielectric constant tensor:
#      x y z
#    x 3.897360 0.000000 0.212570 
#    y 0.000000 3.608890 0.000000 
#    z 0.212570 0.000000 3.827250 
# 
# 
# High freq. dielectric constant tensor:
#      x y z
#    x 1.796740 0.000000 0.018520 
#    y 0.000000 1.792830 0.000000 
#    z 0.018520 0.000000 1.808730 
# 
# From -- ./inp_files/80721.got.cif
#   From: 2010.06.25/outbox.cif.g09.slc.cpg/sg15_41_cif.got.tgz:80721.got - 2010.06.28 07:06:18.
