data_PCOD8141523
_publ_section_title
;
Structure prediction by ZEFSAII (Michael W. Deem and Ramdas Pophale) SiO2 
 PCOD8141523
Probable space group: C 2/C
;
_chemical_formula_sum "Si O2"
_cell_formula_units_Z 56
_cell_length_a 28.277705
_cell_length_b 17.119032
_cell_length_c 9.560172
_cell_angle_alpha 90.000000
_cell_angle_beta 142.996024
_cell_angle_gamma 90.000000
_cell_volume 2785.428949
_symmetry_space_group_name_H-M "C 2/C"
_symmetry_group_IT_number 15
_symmetry_cell_setting 'monoclinic'
loop_
_space_group_symop_operation_xyz
x,y,z
-x,y,1/2-z
-x,-y,-z
x,-y,1/2+z
1/2+x,1/2+y,z
1/2-x,1/2+y,1/2-z
1/2-x,1/2-y,-z
1/2+x,1/2-y,1/2+z
loop_
_atom_site_type_symbol
_atom_site_label
_atom_site_fract_x
_atom_site_fract_y
_atom_site_fract_z
Si Si1 0.835260 0.145593 0.140380
Si Si2 0.139216 0.872598 0.118620
Si Si3 0.838180 0.264025 0.650740
Si Si4 0.828471 0.419098 0.283588
Si Si5 0.550884 0.481123 0.488108
Si Si6 0.591816 0.232092 0.484009
Si Si7 0.807917 0.567713 0.054129
O O1 0.873639 0.067267 0.290911
O O2 0.870449 0.219959 0.300453
O O3 0.849422 0.157859 0.010380
O O4 0.742773 0.133586 0.944971
O O5 0.109438 0.797034 0.137435
O O6 0.217321 0.910974 0.372205
O O7 0.073171 0.937764 0.967007
O O8 0.750000 0.250000 0.500000
O O9 0.854827 0.246925 0.525910
O O10 0.859393 0.355859 0.720839
O O11 0.902501 0.360060 0.462314
O O12 0.842202 0.493978 0.218307
O O13 0.812562 0.451841 0.400895
O O14 0.500000 0.500000 0.500000
O O15 0.500000 0.434843 0.250000
O O16 0.500000 0.253092 0.250000
#
# Coordination Sequence:
#
# PCOD8141523 Si02
#       7
#     8   8   8   8   8   8   8
#     4  11  23  39  61  90 123 167 207 246 310 383
#     4  10  21  37  57  87 125 161 209 247 300 378
#     4   9  21  40  62  88 124 163 206 256 309 368
#     4  10  21  39  63  88 119 155 206 253 304 373
#     4  12  24  36  54  89 132 167 198 250 313 378
#     4  11  25  42  63  93 125 163 209 263 316 365
#     4   9  19  37  60  89 113 154 207 257 299 356
#
# _framework density 20.104624000000001
#
# number of rings (size 3 to 8) (size 9 to 14) (size 15 to 20)
#    0.000    1.714    2.857    1.714    4.000    3.429 
#    0.000    2.857    0.000    0.857    0.000    0.000 
#    0.000    0.000    0.000    0.000    0.000    0.000 
#
# Total GULP energy -347011.455102 kJ/mol
# GULP energy per Si atom -12393.266254 kJ/mol
# Density = 2.005886 g / cm^3
# Si number density = 20.104624 Si / 1000 Ang^3
#
#
#
# Elastic Constant Matrix: (Units=GPa)
#
#
# Indices 1 2 3 4 5 6 
#
# 1 77.0109 30.8532 17.7699 0.0000 -8.1745 0.0000
# 2 30.8532 115.5436 37.0144 0.0000 -19.4304 0.0000
# 3 17.7699 37.0144 64.0379 0.0000 -14.1998 0.0000
# 4 0.0000 0.0000 0.0000 34.1921 0.0000 -14.3770
# 5 -8.1745 -19.4304 -14.1998 0.0000 27.0167 0.0000
# 6 0.0000 0.0000 0.0000 -14.3770 0.0000 23.4930
#
#
#
# Elastic Compliance Matrix: (Units=1/GPa)
#
#
# Indices 1 2 3 4 5 6 
#
# 1 0.014828 -0.003102 -0.002062 0.000000 0.001172 0.000000
# 2 -0.003102 0.011901 -0.004899 0.000000 0.005046 0.000000
# 3 -0.002062 -0.004899 0.020488 0.000000 0.006621 0.000000
# 4 0.000000 0.000000 0.000000 0.039380 0.000000 0.024099
# 5 0.001172 0.005046 0.006621 0.000000 0.044477 0.000000
# 6 0.000000 0.000000 0.000000 0.024099 0.000000 0.057314
#
#
# Mechanical properties :
#
#
# Convention : Reuss Voigt Hill
#
# Bulk Modulus (GPa) = 36.91290 47.54081 42.22686
# Shear Modulus (GPa) = 22.98381 28.33734 25.66058
#
# Velocity S-wave (km/s) = 3.38481 3.75840 3.57648
# Velocity P-wave (km/s) = 5.80312 6.52166 6.17285
#
# Compressibility (1/GPa) = 0.02709080
#
# Stress axis : x y z
#
# Youngs Moduli (GPa) = 67.43967 84.02630 48.80943
#
# Poissons Ratio (x) = 0.26064 0.10064
# Poissons Ratio (y) = 0.20919 0.23913
# Poissons Ratio (z) = 0.13905 0.41167
#
# Static dielectric constant tensor:
#      x y z
#    x 3.595610 0.000000 -0.150920 
#    y 0.000000 3.854680 0.000000 
#    z -0.150920 0.000000 3.633060 
# 
# 
# High freq. dielectric constant tensor:
#      x y z
#    x 1.776280 0.000000 -0.015560 
#    y 0.000000 1.792250 0.000000 
#    z -0.015560 0.000000 1.771840 
# 
# From -- ./inp_files/62765.got.cif
#   From: 2010.06.25/outbox.cif.g09.slc.cpg/sg15_32_cif.got.tgz:62765.got - 2010.06.28 07:06:18.
