data_PCOD8141220
_publ_section_title
;
Structure prediction by ZEFSAII (Michael W. Deem and Ramdas Pophale) SiO2 
 PCOD8141220
Probable space group: C 2/C
;
_chemical_formula_sum "Si O2"
_cell_formula_units_Z 44
_cell_length_a 13.287839
_cell_length_b 34.640021
_cell_length_c 5.222977
_cell_angle_alpha 90.000000
_cell_angle_beta 110.191558
_cell_angle_gamma 90.000000
_cell_volume 2256.343435
_symmetry_space_group_name_H-M "C 2/C"
_symmetry_group_IT_number 15
_symmetry_cell_setting 'monoclinic'
loop_
_space_group_symop_operation_xyz
x,y,z
-x,y,1/2-z
-x,-y,-z
x,-y,1/2+z
1/2+x,1/2+y,z
1/2-x,1/2+y,1/2-z
1/2-x,1/2-y,-z
1/2+x,1/2-y,1/2+z
loop_
_atom_site_type_symbol
_atom_site_label
_atom_site_fract_x
_atom_site_fract_y
_atom_site_fract_z
Si Si1 0.618928 0.606810 0.465060
Si Si2 0.118726 0.703505 0.390246
Si Si3 0.500000 0.350422 0.250000
Si Si4 0.382669 0.749162 0.110188
Si Si5 0.189210 0.175017 0.219174
Si Si6 0.627513 0.479029 0.884497
O O1 0.500000 0.608064 0.250000
O O2 0.596477 0.621827 0.731832
O O3 0.699714 0.636341 0.397422
O O4 0.668132 0.564055 0.487576
O O5 0.133166 0.716433 0.696117
O O6 0.214399 0.673582 0.403652
O O7 0.000000 0.684525 0.250000
O O8 0.130294 0.738770 0.197924
O O9 0.567783 0.322932 0.497919
O O10 0.500000 0.731752 0.250000
O O11 0.298939 0.714173 0.096050
O O12 0.500000 0.480354 0.750000
O O13 0.672327 0.493382 0.650185
#
# Coordination Sequence:
#
# PCOD8141220 Si02
#       6
#     8   8   4   8   8   8
#     4   9  20  32  46  72 101 137 171 205 245 304
#     4  10  23  38  55  74  99 133 178 222 257 302
#     4  10  22  32  50  74 108 134 174 204 256 304
#     4  10  21  36  54  74  99 133 175 216 261 304
#     4  11  22  34  53  74 104 137 172 212 262 304
#     4   9  18  29  47  67  96 134 169 198 237 290
#
# _framework density 19.500577
#
# number of rings (size 3 to 8) (size 9 to 14) (size 15 to 20)
#    0.000    2.182    0.000    2.727   17.818    0.000 
#    0.000    0.000    0.000    0.000    0.000    0.000 
#    0.000    1.455    0.000    0.182    0.000    0.000 
#
# Total GULP energy -272549.703963 kJ/mol
# GULP energy per Si atom -12388.622907 kJ/mol
# Density = 1.945619 g / cm^3
# Si number density = 19.500577 Si / 1000 Ang^3
#
#
#
# Elastic Constant Matrix: (Units=GPa)
#
#
# Indices 1 2 3 4 5 6 
#
# 1 89.4586 23.9368 8.3082 0.0000 -10.5477 0.0000
# 2 23.9368 90.5022 17.0770 0.0000 -19.0422 0.0000
# 3 8.3082 17.0770 72.7166 0.0000 -19.2874 0.0000
# 4 0.0000 0.0000 0.0000 9.8728 0.0000 -28.7202
# 5 -10.5477 -19.0422 -19.2874 0.0000 30.2798 0.0000
# 6 0.0000 0.0000 0.0000 -28.7202 0.0000 -35.8410
#
#
#
# Elastic Compliance Matrix: (Units=1/GPa)
#
#
# Indices 1 2 3 4 5 6 
#
# 1 0.012200 -0.002682 -0.000101 0.000000 0.002499 0.000000
# 2 -0.002682 0.013390 -0.001026 0.000000 0.006833 0.000000
# 3 -0.000101 -0.001026 0.016634 0.000000 0.009915 0.000000
# 4 0.000000 0.000000 0.000000 0.030407 0.000000 -0.024366
# 5 0.002499 0.006833 0.009915 0.000000 0.044509 0.000000
# 6 0.000000 0.000000 0.000000 -0.024366 0.000000 -0.008376
#
#
# Mechanical properties :
#
#
# Convention : Reuss Voigt Hill
#
# Bulk Modulus (GPa) = 28.89629 39.03571 33.96600
# Shear Modulus (GPa) = 39.08764 14.41936 26.75350
#
# Velocity S-wave (km/s) = 4.48195 2.72220 3.70798
# Velocity P-wave (km/s) = 6.45245 5.47190 5.98230
#
# Compressibility (1/GPa) = 0.03460651
#
# Stress axis : x y z
#
# Youngs Moduli (GPa) = 81.96738 74.68234 60.11625
#
# Poissons Ratio (x) = 0.20029 0.00609
# Poissons Ratio (y) = 0.21983 0.06166
# Poissons Ratio (z) = 0.00831 0.07661
#
# Static dielectric constant tensor:
#      x y z
#    x 3.712740 0.000000 -0.383160 
#    y 0.000000 3.474110 0.000000 
#    z -0.383160 0.000000 4.120260 
# 
# 
# High freq. dielectric constant tensor:
#      x y z
#    x 1.731410 0.000000 -0.026280 
#    y 0.000000 1.724030 0.000000 
#    z -0.026280 0.000000 1.769710 
# 
# From -- ./inp_files/8108.got.cif
#   From: 2010.06.25/outbox.cif.g09.slc.cpg/sg15_5_cif.got.tgz:8108.got - 2010.06.28 07:06:18.
