data_PCOD8141383
_publ_section_title
;
Structure prediction by ZEFSAII (Michael W. Deem and Ramdas Pophale) SiO2 
 PCOD8141383
Probable space group: C 2/C
;
_chemical_formula_sum "Si O2"
_cell_formula_units_Z 56
_cell_length_a 15.538798
_cell_length_b 18.055160
_cell_length_c 8.554679
_cell_angle_alpha 90.000000
_cell_angle_beta 86.620170
_cell_angle_gamma 90.000000
_cell_volume 2395.887545
_symmetry_space_group_name_H-M "C 2/C"
_symmetry_group_IT_number 15
_symmetry_cell_setting 'monoclinic'
loop_
_space_group_symop_operation_xyz
x,y,z
-x,y,1/2-z
-x,-y,-z
x,-y,1/2+z
1/2+x,1/2+y,z
1/2-x,1/2+y,1/2-z
1/2-x,1/2-y,-z
1/2+x,1/2-y,1/2+z
loop_
_atom_site_type_symbol
_atom_site_label
_atom_site_fract_x
_atom_site_fract_y
_atom_site_fract_z
Si Si1 0.331612 0.844506 0.476556
Si Si2 0.038607 0.215952 0.079426
Si Si3 0.905725 0.420096 0.737432
Si Si4 0.170796 0.098872 0.109767
Si Si5 0.235697 0.963285 0.909449
Si Si6 0.883345 0.263953 0.903346
Si Si7 0.738458 0.837215 0.346496
O O1 0.383566 0.769171 0.474923
O O2 0.386484 0.911169 0.553641
O O3 0.244579 0.836603 0.592657
O O4 0.305281 0.868288 0.304986
O O5 0.076783 0.132659 0.085178
O O6 0.000000 0.240486 0.250000
O O7 0.968531 0.220153 0.949312
O O8 0.832406 0.470385 0.826757
O O9 0.907860 0.337597 0.808844
O O10 0.000000 0.457263 0.750000
O O11 0.169957 0.065585 0.283933
O O12 0.198478 0.040597 0.973542
O O13 0.236265 0.907352 0.053128
O O14 0.825988 0.209230 0.801566
O O15 0.829737 0.283137 0.064355
#
# Coordination Sequence:
#
# PCOD8141383 Si02
#       7
#     8   8   8   8   8   8   8
#     4  11  23  38  67 100 133 173 215 273 346 402
#     4  12  23  40  66 103 134 167 222 283 336 389
#     4  10  21  38  63  99 136 168 217 285 331 399
#     4  11  25  44  67  93 133 184 228 271 325 407
#     4  10  23  45  65  92 134 187 230 262 330 407
#     4  10  21  36  61  97 135 167 215 275 336 390
#     4  10  21  38  66  95 130 178 217 267 336 401
#
# _framework density 23.373384000000001
#
# number of rings (size 3 to 8) (size 9 to 14) (size 15 to 20)
#    0.000    1.429    2.857    2.143    8.000    0.000 
#    0.000    6.429    0.000    0.000    0.000    3.000 
#    0.000    0.000    0.000    0.000    0.000    0.000 
#
# Total GULP energy -347165.609865 kJ/mol
# GULP energy per Si atom -12398.771781 kJ/mol
# Density = 2.332019 g / cm^3
# Si number density = 23.373384 Si / 1000 Ang^3
#
#
#
# Elastic Constant Matrix: (Units=GPa)
#
#
# Indices 1 2 3 4 5 6 
#
# 1 106.1598 54.8091 37.6306 0.0000 21.5099 0.0000
# 2 54.8091 69.9660 27.2666 0.0000 4.9375 0.0000
# 3 37.6306 27.2666 126.6980 0.0000 27.9685 0.0000
# 4 0.0000 0.0000 0.0000 24.8680 0.0000 -7.4184
# 5 21.5099 4.9375 27.9685 0.0000 31.4369 0.0000
# 6 0.0000 0.0000 0.0000 -7.4184 0.0000 33.2436
#
#
#
# Elastic Compliance Matrix: (Units=1/GPa)
#
#
# Indices 1 2 3 4 5 6 
#
# 1 0.018801 -0.013877 -0.000297 0.000000 -0.010420 0.000000
# 2 -0.013877 0.025855 -0.003288 0.000000 0.008359 0.000000
# 3 -0.000297 -0.003288 0.010614 0.000000 -0.008723 0.000000
# 4 0.000000 0.000000 0.000000 0.043080 0.000000 0.009613
# 5 -0.010420 0.008359 -0.008723 0.000000 0.045387 0.000000
# 6 0.000000 0.000000 0.000000 0.009613 0.000000 0.032226
#
#
# Mechanical properties :
#
#
# Convention : Reuss Voigt Hill
#
# Bulk Modulus (GPa) = 49.15046 60.24849 54.69947
# Shear Modulus (GPa) = 22.97060 30.11754 26.54407
#
# Velocity S-wave (km/s) = 3.13831 3.59352 3.37360
# Velocity P-wave (km/s) = 5.84859 6.56127 6.21516
#
# Compressibility (1/GPa) = 0.02034569
#
# Stress axis : x y z
#
# Youngs Moduli (GPa) = 53.18913 38.67776 94.21151
#
# Poissons Ratio (x) = 0.53672 0.02803
# Poissons Ratio (y) = 0.73809 0.30976
# Poissons Ratio (z) = 0.01582 0.12717
#
# Static dielectric constant tensor:
#      x y z
#    x 4.372360 0.000000 0.131930 
#    y 0.000000 3.937020 0.000000 
#    z 0.131930 0.000000 4.335170 
# 
# 
# High freq. dielectric constant tensor:
#      x y z
#    x 1.920480 0.000000 0.009000 
#    y 0.000000 1.902200 0.000000 
#    z 0.009000 0.000000 1.937300 
# 
# From -- ./inp_files/41252.got.cif
#   From: 2010.06.25/outbox.cif.g09.slc.cpg/sg15_21_cif.got.tgz:41252.got - 2010.06.28 07:06:18.
