data_PCOD8141452
_publ_section_title
;
Structure prediction by ZEFSAII (Michael W. Deem and Ramdas Pophale) SiO2 
 PCOD8141452
Probable space group: C 2/C
;
_chemical_formula_sum "Si O2"
_cell_formula_units_Z 40
_cell_length_a 9.464517
_cell_length_b 18.838733
_cell_length_c 10.675295
_cell_angle_alpha 90.000000
_cell_angle_beta 71.333206
_cell_angle_gamma 90.000000
_cell_volume 1803.273277
_symmetry_space_group_name_H-M "C 2/C"
_symmetry_group_IT_number 15
_symmetry_cell_setting 'monoclinic'
loop_
_space_group_symop_operation_xyz
x,y,z
-x,y,1/2-z
-x,-y,-z
x,-y,1/2+z
1/2+x,1/2+y,z
1/2-x,1/2+y,1/2-z
1/2-x,1/2-y,-z
1/2+x,1/2-y,1/2+z
loop_
_atom_site_type_symbol
_atom_site_label
_atom_site_fract_x
_atom_site_fract_y
_atom_site_fract_z
Si Si1 0.635313 0.098279 0.809600
Si Si2 0.921519 0.319351 0.520041
Si Si3 0.965809 0.058241 0.113800
Si Si4 0.656630 0.671045 0.922568
Si Si5 0.650066 0.940295 0.782485
O O1 0.500000 0.095236 0.750000
O O2 0.796860 0.123978 0.711509
O O3 0.657017 0.017103 0.849724
O O4 0.585451 0.150910 0.935998
O O5 0.818863 0.305550 0.428113
O O6 0.932974 0.243510 0.589002
O O7 0.834078 0.379576 0.619648
O O8 0.788872 0.070172 0.149690
O O9 0.000000 0.037207 0.250000
O O10 0.056330 0.128727 0.050717
O O11 0.000000 0.000000 0.000000
O O12 0.500000 0.927722 0.750000
#
# Coordination Sequence:
#
# PCOD8141452 Si02
#       5
#     8   8   8   8   8
#     4   9  19  35  58  91 125 163 225 263 329 393
#     4  10  21  36  66  91 129 174 222 280 330 402
#     4  12  25  44  69 102 137 178 227 283 337 402
#     4  10  21  38  61  98 126 172 223 279 334 398
#     4  11  23  41  65  93 135 176 225 273 345 397
#
# _framework density 22.181885000000001
#
# number of rings (size 3 to 8) (size 9 to 14) (size 15 to 20)
#    0.000    1.600    4.000    0.600    2.800    2.400 
#    0.000    2.000    0.000    0.000    0.000    0.000 
#    0.000    0.000    0.000    0.000    0.000    0.000 
#
# Total GULP energy -247826.516385 kJ/mol
# GULP energy per Si atom -12391.325819 kJ/mol
# Density = 2.213140 g / cm^3
# Si number density = 22.181885 Si / 1000 Ang^3
#
#
#
# Elastic Constant Matrix: (Units=GPa)
#
#
# Indices 1 2 3 4 5 6 
#
# 1 74.4756 20.5503 34.7873 0.0000 -28.1413 0.0000
# 2 20.5503 181.9833 72.7967 0.0000 -7.3430 0.0000
# 3 34.7873 72.7967 131.9532 0.0000 -34.8614 0.0000
# 4 0.0000 0.0000 0.0000 29.8278 0.0000 -1.6675
# 5 -28.1413 -7.3430 -34.8614 0.0000 33.2379 0.0000
# 6 0.0000 0.0000 0.0000 -1.6675 0.0000 19.3757
#
#
#
# Elastic Compliance Matrix: (Units=1/GPa)
#
#
# Indices 1 2 3 4 5 6 
#
# 1 0.020198 -0.001595 -0.000028 0.000000 0.016719 0.000000
# 2 -0.001595 0.007482 -0.005018 0.000000 -0.004960 0.000000
# 3 -0.000028 -0.005018 0.013909 0.000000 0.013457 0.000000
# 4 0.000000 0.000000 0.000000 0.033688 0.000000 0.002899
# 5 0.016719 -0.004960 0.013457 0.000000 0.057260 0.000000
# 6 0.000000 0.000000 0.000000 0.002899 0.000000 0.051861
#
#
# Mechanical properties :
#
#
# Convention : Reuss Voigt Hill
#
# Bulk Modulus (GPa) = 35.32572 71.63121 53.47846
# Shear Modulus (GPa) = 24.14120 33.84012 28.99066
#
# Velocity S-wave (km/s) = 3.30256 3.91010 3.61910
# Velocity P-wave (km/s) = 5.52292 7.26278 6.45176
#
# Compressibility (1/GPa) = 0.02830799
#
# Stress axis : x y z
#
# Youngs Moduli (GPa) = 49.51022 133.65029 71.89506
#
# Poissons Ratio (x) = 0.21319 0.00199
# Poissons Ratio (y) = 0.07898 0.36076
# Poissons Ratio (z) = 0.00137 0.67063
#
# Static dielectric constant tensor:
#      x y z
#    x 3.741990 0.000000 -0.408590 
#    y 0.000000 4.307350 0.000000 
#    z -0.408590 0.000000 4.068840 
# 
# 
# High freq. dielectric constant tensor:
#      x y z
#    x 1.841350 0.000000 -0.037050 
#    y 0.000000 1.884420 0.000000 
#    z -0.037050 0.000000 1.865190 
# 
# From -- ./inp_files/87102.got.cif
#   From: 2010.06.25/outbox.cif.g09.slc.cpg/sg15_44_cif.got.tgz:87102.got - 2010.06.28 07:06:18.
