data_PCOD8141661
_publ_section_title
;
Structure prediction by ZEFSAII (Michael W. Deem and Ramdas Pophale) SiO2 
 PCOD8141661
Probable space group: C 2/C
;
_chemical_formula_sum "Si O2"
_cell_formula_units_Z 56
_cell_length_a 23.104651
_cell_length_b 9.714927
_cell_length_c 12.381721
_cell_angle_alpha 90.000000
_cell_angle_beta 71.612588
_cell_angle_gamma 90.000000
_cell_volume 2637.309896
_symmetry_space_group_name_H-M "C 2/C"
_symmetry_group_IT_number 15
_symmetry_cell_setting 'monoclinic'
loop_
_space_group_symop_operation_xyz
x,y,z
-x,y,1/2-z
-x,-y,-z
x,-y,1/2+z
1/2+x,1/2+y,z
1/2-x,1/2+y,1/2-z
1/2-x,1/2-y,-z
1/2+x,1/2-y,1/2+z
loop_
_atom_site_type_symbol
_atom_site_label
_atom_site_fract_x
_atom_site_fract_y
_atom_site_fract_z
Si Si1 0.612997 0.346717 0.127280
Si Si2 0.069520 0.146924 0.180681
Si Si3 0.127858 0.658884 0.808551
Si Si4 0.832303 0.627826 0.246066
Si Si5 0.959965 0.631190 0.451202
Si Si6 0.285676 0.699706 0.084645
Si Si7 0.918262 0.347481 0.512145
O O1 0.582480 0.485965 0.185376
O O2 0.646764 0.264536 0.202717
O O3 0.559381 0.247075 0.120388
O O4 0.657853 0.385694 0.000266
O O5 0.118813 0.218508 0.229507
O O6 0.000000 0.178763 0.250000
O O7 0.079764 0.205534 0.054470
O O8 0.139474 0.518726 0.733562
O O9 0.065770 0.651165 0.912893
O O10 0.184598 0.681309 0.857969
O O11 0.759272 0.614362 0.309854
O O12 0.851448 0.643827 0.108353
O O13 0.934633 0.480641 0.427055
O O14 0.032844 0.646705 0.417827
O O15 0.250000 0.750000 0.000000
#
# Coordination Sequence:
#
# PCOD8141661 Si02
#       7
#     8   8   8   8   8   8   8
#     4  10  23  39  60  88 129 166 207 251 318 371
#     4  12  25  39  57  95 135 169 202 257 317 378
#     4  10  21  41  66  89 124 166 207 259 310 367
#     4  10  22  40  66  93 116 167 213 261 304 376
#     4   9  19  39  60  86 116 165 204 260 302 367
#     4   9  21  43  65  90 122 159 207 262 312 367
#     4  10  21  37  61  88 122 156 217 252 307 364
#
# _framework density 21.233757000000001
#
# number of rings (size 3 to 8) (size 9 to 14) (size 15 to 20)
#    0.000    2.000    1.429    0.857    2.000    7.429 
#    0.000    1.429    0.000    0.000    0.000    0.000 
#    0.000    0.000    0.000    0.000    0.000    0.000 
#
# Total GULP energy -346896.027370 kJ/mol
# GULP energy per Si atom -12389.143835 kJ/mol
# Density = 2.118543 g / cm^3
# Si number density = 21.233757 Si / 1000 Ang^3
#
#
#
# Elastic Constant Matrix: (Units=GPa)
#
#
# Indices 1 2 3 4 5 6 
#
# 1 76.7796 27.0278 30.4988 0.0000 2.5958 0.0000
# 2 27.0278 135.4463 28.6889 0.0000 12.1668 0.0000
# 3 30.4988 28.6889 64.5294 0.0000 -7.3364 0.0000
# 4 0.0000 0.0000 0.0000 36.3546 0.0000 2.9937
# 5 2.5958 12.1668 -7.3364 0.0000 28.0002 0.0000
# 6 0.0000 0.0000 0.0000 2.9937 0.0000 26.6651
#
#
#
# Elastic Compliance Matrix: (Units=1/GPa)
#
#
# Indices 1 2 3 4 5 6 
#
# 1 0.016631 -0.001463 -0.007537 0.000000 -0.002881 0.000000
# 2 -0.001463 0.008906 -0.003806 0.000000 -0.004731 0.000000
# 3 -0.007537 -0.003806 0.021664 0.000000 0.008029 0.000000
# 4 0.000000 0.000000 0.000000 0.027764 0.000000 -0.003117
# 5 -0.002881 -0.004731 0.008029 0.000000 0.040141 0.000000
# 6 0.000000 0.000000 0.000000 -0.003117 0.000000 0.037852
#
#
# Mechanical properties :
#
#
# Convention : Reuss Voigt Hill
#
# Bulk Modulus (GPa) = 46.32187 49.90957 48.11572
# Shear Modulus (GPa) = 26.91558 30.90663 28.91110
#
# Velocity S-wave (km/s) = 3.56418 3.81930 3.69394
# Velocity P-wave (km/s) = 6.22899 6.55784 6.39553
#
# Compressibility (1/GPa) = 0.02158808
#
# Stress axis : x y z
#
# Youngs Moduli (GPa) = 60.12942 112.28213 46.15967
#
# Poissons Ratio (x) = 0.16431 0.34791
# Poissons Ratio (y) = 0.08799 0.17567
# Poissons Ratio (z) = 0.45321 0.42732
#
# Static dielectric constant tensor:
#      x y z
#    x 3.877430 0.000000 -0.320680 
#    y 0.000000 3.683980 0.000000 
#    z -0.320680 0.000000 3.805660 
# 
# 
# High freq. dielectric constant tensor:
#      x y z
#    x 1.827060 0.000000 -0.015300 
#    y 0.000000 1.821040 0.000000 
#    z -0.015300 0.000000 1.827870 
# 
# From -- ./inp_files/121902.got.cif
#   From: 2010.06.25/outbox.cif.g09.slc.cpg/sg15_61_cif.got.tgz:121902.got - 2010.06.28 07:06:18.
