data_PCOD8141533
_publ_section_title
;
Structure prediction by ZEFSAII (Michael W. Deem and Ramdas Pophale) SiO2 
 PCOD8141533
Probable space group: C 2/C
;
_chemical_formula_sum "Si O2"
_cell_formula_units_Z 44
_cell_length_a 20.032541
_cell_length_b 8.649072
_cell_length_c 17.789348
_cell_angle_alpha 90.000000
_cell_angle_beta 48.406986
_cell_angle_gamma 90.000000
_cell_volume 2305.138072
_symmetry_space_group_name_H-M "C 2/C"
_symmetry_group_IT_number 15
_symmetry_cell_setting 'monoclinic'
loop_
_space_group_symop_operation_xyz
x,y,z
-x,y,1/2-z
-x,-y,-z
x,-y,1/2+z
1/2+x,1/2+y,z
1/2-x,1/2+y,1/2-z
1/2-x,1/2-y,-z
1/2+x,1/2-y,1/2+z
loop_
_atom_site_type_symbol
_atom_site_label
_atom_site_fract_x
_atom_site_fract_y
_atom_site_fract_z
Si Si1 0.455625 0.504324 0.918636
Si Si2 0.500000 0.275831 0.250000
Si Si3 0.097393 0.520239 0.677508
Si Si4 0.365032 0.581606 0.134807
Si Si5 0.669997 0.783574 0.005227
Si Si6 0.772615 0.670256 0.797428
O O1 0.468504 0.619392 0.841052
O O2 0.553493 0.463731 0.873516
O O3 0.404410 0.350245 0.931640
O O4 0.398246 0.595605 0.024277
O O5 0.414707 0.163503 0.296802
O O6 0.132244 0.553783 0.565798
O O7 0.160408 0.589116 0.694433
O O8 0.000000 0.602015 0.750000
O O9 0.287637 0.454753 0.199688
O O10 0.326793 0.744287 0.191775
O O11 0.750000 0.750000 0.000000
O O12 0.707635 0.789815 0.891768
#
# Coordination Sequence:
#
# PCOD8141533 Si02
#       6
#     8   4   8   8   8   8
#     4  10  22  41  58  90 117 158 199 240 303 350
#     4  10  24  34  64  84 116 150 194 252 286 340
#     4   9  20  37  56  88 117 149 202 242 292 353
#     4  10  23  39  61  84 124 156 196 242 295 368
#     4   9  19  36  60  85 112 149 200 243 291 352
#     4  10  21  37  58  86 115 158 196 242 301 349
#
# _framework density 19.087793000000001
#
# number of rings (size 3 to 8) (size 9 to 14) (size 15 to 20)
#    0.545    1.818    0.000    1.091    8.909    1.455 
#    0.000    9.091    0.000    0.000    0.000    0.000 
#    0.000    0.000    0.000    0.000    0.000    0.000 
#
# Total GULP energy -272545.272379 kJ/mol
# GULP energy per Si atom -12388.421472 kJ/mol
# Density = 1.904435 g / cm^3
# Si number density = 19.087793 Si / 1000 Ang^3
#
#
#
# Elastic Constant Matrix: (Units=GPa)
#
#
# Indices 1 2 3 4 5 6 
#
# 1 105.2752 39.0010 41.6088 0.0002 -15.1992 -0.0002
# 2 39.0010 73.5987 60.5635 0.0003 -0.1676 0.0005
# 3 41.6088 60.5635 109.8999 0.0003 -1.5544 -0.0001
# 4 0.0002 0.0003 0.0003 36.1639 0.0001 -7.8261
# 5 -15.1992 -0.1676 -1.5544 0.0001 26.4031 -0.0002
# 6 -0.0002 0.0005 -0.0001 -7.8261 -0.0002 8.9824
#
#
#
# Elastic Compliance Matrix: (Units=1/GPa)
#
#
# Indices 1 2 3 4 5 6 
#
# 1 0.013387 -0.005478 -0.001943 0.000000 0.007557 0.000001
# 2 -0.005478 0.027114 -0.012921 -0.000001 -0.003742 -0.000002
# 3 -0.001943 -0.012921 0.016952 0.000000 -0.000202 0.000001
# 4 0.000000 -0.000001 0.000000 0.034077 0.000000 0.029691
# 5 0.007557 -0.003742 -0.000202 0.000000 0.042189 0.000001
# 6 0.000001 -0.000002 0.000001 0.029691 0.000001 0.137198
#
#
# Mechanical properties :
#
#
# Convention : Reuss Voigt Hill
#
# Bulk Modulus (GPa) = 59.63001 63.45782 61.54392
# Shear Modulus (GPa) = 15.76335 24.14990 19.95662
#
# Velocity S-wave (km/s) = 2.87685 3.56083 3.23695
# Velocity P-wave (km/s) = 6.50713 7.08685 6.80316
#
# Compressibility (1/GPa) = 0.01677008
#
# Stress axis : x y z
#
# Youngs Moduli (GPa) = 74.69717 36.88109 58.98935
#
# Poissons Ratio (x) = 0.20205 0.11459
# Poissons Ratio (y) = 0.40922 0.76219
# Poissons Ratio (z) = 0.14511 0.47653
#
# Static dielectric constant tensor:
#      x y z
#    x 3.500960 0.000000 -0.107890 
#    y 0.000000 3.307690 0.000000 
#    z -0.107890 0.000000 4.065160 
# 
# 
# High freq. dielectric constant tensor:
#      x y z
#    x 1.745260 0.000000 -0.011260 
#    y 0.000000 1.719960 0.000000 
#    z -0.011260 0.000000 1.757610 
# 
# From -- ./inp_files/209420.got.cif
#   From: 2010.06.25/outbox.cif.g09.slc.cpg/sg15_105_cif.got.tgz:209420.got - 2010.06.28 07:06:18.
