data_PCOD8141181
_publ_section_title
;
Structure prediction by ZEFSAII (Michael W. Deem and Ramdas Pophale) SiO2 
 PCOD8141181
Probable space group: C 2/C
;
_chemical_formula_sum "Si O2"
_cell_formula_units_Z 52
_cell_length_a 8.986425
_cell_length_b 17.361027
_cell_length_c 18.470842
_cell_angle_alpha 90.000000
_cell_angle_beta 114.384273
_cell_angle_gamma 90.000000
_cell_volume 2624.645542
_symmetry_space_group_name_H-M "C 2/C"
_symmetry_group_IT_number 15
_symmetry_cell_setting 'monoclinic'
loop_
_space_group_symop_operation_xyz
x,y,z
-x,y,1/2-z
-x,-y,-z
x,-y,1/2+z
1/2+x,1/2+y,z
1/2-x,1/2+y,1/2-z
1/2-x,1/2-y,-z
1/2+x,1/2-y,1/2+z
loop_
_atom_site_type_symbol
_atom_site_label
_atom_site_fract_x
_atom_site_fract_y
_atom_site_fract_z
Si Si1 0.056560 0.257829 0.956484
Si Si2 0.876372 0.894993 0.443633
Si Si3 0.077666 0.616725 0.975201
Si Si4 0.500000 0.532638 0.250000
Si Si5 0.949232 0.382475 0.661445
Si Si6 0.835116 0.492899 0.880247
Si Si7 0.099873 0.056350 0.116280
O O1 0.007864 0.310932 0.879903
O O2 0.971241 0.175959 0.926997
O O3 0.250000 0.250000 0.000000
O O4 0.979618 0.298333 0.012087
O O5 0.689520 0.873748 0.426342
O O6 0.954015 0.917910 0.535841
O O7 0.880162 0.963705 0.385798
O O8 0.910493 0.572212 0.923338
O O9 0.175178 0.568843 0.056519
O O10 0.344812 0.485604 0.186978
O O11 0.566133 0.580984 0.193497
O O12 0.758772 0.401465 0.617867
O O13 0.000000 0.355170 0.750000
O O14 0.052039 0.457999 0.660379
#
# Coordination Sequence:
#
# PCOD8141181 Si02
#       7
#     8   8   8   4   8   8   8
#     4  11  24  38  61  92 127 165 212 262 314 372
#     4  11  22  41  62  93 123 168 210 257 312 376
#     4  10  21  38  61  88 125 162 207 258 307 380
#     4  12  22  36  60 100 122 152 202 276 316 366
#     4  11  21  41  62  88 125 170 205 259 321 382
#     4  10  21  35  62  94 118 157 213 256 313 369
#     4  11  23  37  66  92 125 158 214 262 309 377
#
# _framework density 19.812199
#
# number of rings (size 3 to 8) (size 9 to 14) (size 15 to 20)
#    0.000    1.231    6.154    0.462    2.154    0.000 
#    1.385    0.000    0.000    0.000    4.000    0.000 
#    0.000    0.000    0.000    0.000    0.000    0.000 
#
# Total GULP energy -322335.405321 kJ/mol
# GULP energy per Si atom -12397.515589 kJ/mol
# Density = 1.976711 g / cm^3
# Si number density = 19.812199 Si / 1000 Ang^3
#
#
#
# Elastic Constant Matrix: (Units=GPa)
#
#
# Indices 1 2 3 4 5 6 
#
# 1 111.6155 22.5027 17.6565 0.0000 -2.9824 0.0000
# 2 22.5027 90.8695 7.4278 0.0000 -10.5005 0.0000
# 3 17.6565 7.4278 76.5147 0.0000 -1.0358 0.0000
# 4 0.0000 0.0000 0.0000 14.0202 0.0000 3.6579
# 5 -2.9824 -10.5005 -1.0358 0.0000 38.7412 0.0000
# 6 0.0000 0.0000 0.0000 3.6579 0.0000 23.4639
#
#
#
# Elastic Compliance Matrix: (Units=1/GPa)
#
#
# Indices 1 2 3 4 5 6 
#
# 1 0.009733 -0.002234 -0.002028 0.000000 0.000089 0.000000
# 2 -0.002234 0.011960 -0.000604 0.000000 0.003054 0.000000
# 3 -0.002028 -0.000604 0.013597 0.000000 0.000044 0.000000
# 4 0.000000 0.000000 0.000000 0.074350 0.000000 -0.011591
# 5 0.000089 0.003054 0.000044 0.000000 0.026648 0.000000
# 6 0.000000 0.000000 0.000000 -0.011591 0.000000 0.044426
#
#
# Mechanical properties :
#
#
# Convention : Reuss Voigt Hill
#
# Bulk Modulus (GPa) = 39.12757 41.57486 40.35121
# Shear Modulus (GPa) = 25.13009 30.67258 27.90133
#
# Velocity S-wave (km/s) = 3.56534 3.93894 3.75679
# Velocity P-wave (km/s) = 6.06144 6.45887 6.26331
#
# Compressibility (1/GPa) = 0.02555743
#
# Stress axis : x y z
#
# Youngs Moduli (GPa) = 102.74399 83.61000 73.54789
#
# Poissons Ratio (x) = 0.18680 0.14915
# Poissons Ratio (y) = 0.22954 0.04444
# Poissons Ratio (z) = 0.20835 0.05052
#
# Static dielectric constant tensor:
#      x y z
#    x 3.865140 0.000000 -0.107820 
#    y 0.000000 3.384950 0.000000 
#    z -0.107820 0.000000 3.544370 
# 
# 
# High freq. dielectric constant tensor:
#      x y z
#    x 1.799420 0.000000 -0.003250 
#    y 0.000000 1.741980 0.000000 
#    z -0.003250 0.000000 1.759250 
# 
# From -- ./inp_files/190544.got.cif
#   From: 2010.06.25/outbox.cif.g09.slc.cpg/sg15_96_cif.got.tgz:190544.got - 2010.06.28 07:06:18.
