data_PCOD8141308
_publ_section_title
;
Structure prediction by ZEFSAII (Michael W. Deem and Ramdas Pophale) SiO2 
 PCOD8141308
Probable space group: C 2/C
;
_chemical_formula_sum "Si O2"
_cell_formula_units_Z 40
_cell_length_a 23.737648
_cell_length_b 11.915117
_cell_length_c 8.577118
_cell_angle_alpha 90.000000
_cell_angle_beta 123.503224
_cell_angle_gamma 90.000000
_cell_volume 2022.869171
_symmetry_space_group_name_H-M "C 2/C"
_symmetry_group_IT_number 15
_symmetry_cell_setting 'monoclinic'
loop_
_space_group_symop_operation_xyz
x,y,z
-x,y,1/2-z
-x,-y,-z
x,-y,1/2+z
1/2+x,1/2+y,z
1/2-x,1/2+y,1/2-z
1/2-x,1/2-y,-z
1/2+x,1/2-y,1/2+z
loop_
_atom_site_type_symbol
_atom_site_label
_atom_site_fract_x
_atom_site_fract_y
_atom_site_fract_z
Si Si1 0.860825 0.231144 0.173118
Si Si2 0.228446 0.133773 0.889783
Si Si3 0.736604 0.090355 0.911523
Si Si4 0.958813 0.863351 0.043751
Si Si5 0.913402 0.895656 0.464367
O O1 0.832306 0.358068 0.120107
O O2 0.905215 0.225844 0.397679
O O3 0.798797 0.145409 0.099072
O O4 0.903590 0.194082 0.087701
O O5 0.259639 0.119480 0.765591
O O6 0.146831 0.121385 0.753719
O O7 0.250000 0.250000 0.000000
O O8 0.260631 0.041848 0.054621
O O9 0.000000 0.811154 0.250000
O O10 0.012533 0.880611 0.989539
O O11 0.916793 0.975350 0.030530
#
# Coordination Sequence:
#
# PCOD8141308 Si02
#       5
#     8   8   8   8   8
#     4  10  21  39  57  90 131 164 203 259 319 389
#     4  11  25  40  65  94 131 168 216 267 318 382
#     4  10  24  39  64  90 127 168 213 258 324 381
#     4  11  21  33  61  93 129 161 211 266 320 379
#     4  10  21  36  58  90 130 165 209 261 324 375
#
# _framework density 19.773893999999999
#
# number of rings (size 3 to 8) (size 9 to 14) (size 15 to 20)
#    0.000    1.600    2.000    3.000   14.000    0.000 
#    0.000    0.000    0.000    1.200    0.000    0.000 
#    0.000    0.000    0.000    0.000    0.000    0.000 
#
# Total GULP energy -247893.466369 kJ/mol
# GULP energy per Si atom -12394.673318 kJ/mol
# Density = 1.972889 g / cm^3
# Si number density = 19.773894 Si / 1000 Ang^3
#
#
#
# Elastic Constant Matrix: (Units=GPa)
#
#
# Indices 1 2 3 4 5 6 
#
# 1 69.0584 38.1039 30.7164 0.0000 2.5742 0.0000
# 2 38.1039 128.4200 64.9581 0.0000 5.2017 0.0000
# 3 30.7164 64.9581 152.8764 0.0000 4.8620 0.0000
# 4 0.0000 0.0000 0.0000 31.0071 0.0000 3.3473
# 5 2.5742 5.2017 4.8620 0.0000 23.9700 0.0000
# 6 0.0000 0.0000 0.0000 3.3473 0.0000 31.2572
#
#
#
# Elastic Compliance Matrix: (Units=1/GPa)
#
#
# Indices 1 2 3 4 5 6 
#
# 1 0.017657 -0.004369 -0.001672 0.000000 -0.000609 0.000000
# 2 -0.004369 0.011040 -0.003776 0.000000 -0.001161 0.000000
# 3 -0.001672 -0.003776 0.008505 0.000000 -0.000726 0.000000
# 4 0.000000 0.000000 0.000000 0.032628 0.000000 -0.003494
# 5 -0.000609 -0.001161 -0.000726 0.000000 0.042183 0.000000
# 6 0.000000 0.000000 0.000000 -0.003494 0.000000 0.032367
#
#
# Mechanical properties :
#
#
# Convention : Reuss Voigt Hill
#
# Bulk Modulus (GPa) = 56.92099 68.65683 62.78891
# Shear Modulus (GPa) = 29.43403 31.68531 30.55967
#
# Velocity S-wave (km/s) = 3.86233 4.00732 3.93549
# Velocity P-wave (km/s) = 6.98130 7.49718 7.24384
#
# Compressibility (1/GPa) = 0.01756821
#
# Stress axis : x y z
#
# Youngs Moduli (GPa) = 56.63337 90.57603 117.57889
#
# Poissons Ratio (x) = 0.39570 0.19661
# Poissons Ratio (y) = 0.24742 0.44403
# Poissons Ratio (z) = 0.09470 0.34206
#
# Static dielectric constant tensor:
#      x y z
#    x 3.617580 0.000000 0.109890 
#    y 0.000000 3.417140 0.000000 
#    z 0.109890 0.000000 3.687620 
# 
# 
# High freq. dielectric constant tensor:
#      x y z
#    x 1.768280 0.000000 0.001270 
#    y 0.000000 1.732840 0.000000 
#    z 0.001270 0.000000 1.783720 
# 
# From -- ./inp_files/54077.got.cif
#   From: 2010.06.25/outbox.cif.g09.slc.cpg/sg15_28_cif.got.tgz:54077.got - 2010.06.28 07:06:18.
