data_PCOD8141043
_publ_section_title
;
Structure prediction by ZEFSAII (Michael W. Deem and Ramdas Pophale) SiO2 
 PCOD8141043
Probable space group: C 2/C
;
_chemical_formula_sum "Si O2"
_cell_formula_units_Z 56
_cell_length_a 20.027726
_cell_length_b 16.544548
_cell_length_c 9.644702
_cell_angle_alpha 90.000000
_cell_angle_beta 126.827339
_cell_angle_gamma 90.000000
_cell_volume 2558.038655
_symmetry_space_group_name_H-M "C 2/C"
_symmetry_group_IT_number 15
_symmetry_cell_setting 'monoclinic'
loop_
_space_group_symop_operation_xyz
x,y,z
-x,y,1/2-z
-x,-y,-z
x,-y,1/2+z
1/2+x,1/2+y,z
1/2-x,1/2+y,1/2-z
1/2-x,1/2-y,-z
1/2+x,1/2-y,1/2+z
loop_
_atom_site_type_symbol
_atom_site_label
_atom_site_fract_x
_atom_site_fract_y
_atom_site_fract_z
Si Si1 0.995504 0.621602 0.589097
Si Si2 0.860579 0.910904 0.198314
Si Si3 0.776095 0.206977 0.890621
Si Si4 0.369213 0.985411 0.376226
Si Si5 0.315125 0.528099 0.922485
Si Si6 0.183931 0.345952 0.022896
Si Si7 0.906262 0.251896 0.829005
O O1 0.911159 0.570166 0.462846
O O2 0.989249 0.699007 0.477827
O O3 0.000000 0.654763 0.750000
O O4 0.075457 0.566662 0.661039
O O5 0.853603 0.972847 0.317116
O O6 0.929882 0.840968 0.314141
O O7 0.776552 0.857441 0.076868
O O8 0.874676 0.967467 0.082891
O O9 0.815005 0.119643 0.980565
O O10 0.694762 0.194372 0.690418
O O11 0.750000 0.250000 0.000000
O O12 0.655538 0.243841 0.114259
O O13 0.279832 0.004982 0.195696
O O14 0.358672 0.933736 0.505578
O O15 0.129907 0.293536 0.853076
#
# Coordination Sequence:
#
# PCOD8141043 Si02
#       7
#     8   8   8   8   8   8   8
#     4  11  24  33  53  74 113 157 188 228 265 331
#     4   9  18  33  52  81 105 141 175 230 287 326
#     4   9  19  32  53  80 109 139 175 230 289 335
#     4   9  22  35  48  80 110 149 188 218 275 334
#     4   9  19  32  54  77 111 134 177 229 279 338
#     4   9  19  33  52  74 110 145 179 230 271 337
#     4  10  21  35  50  75 110 148 190 224 276 330
#
# _framework density 21.891772
#
# number of rings (size 3 to 8) (size 9 to 14) (size 15 to 20)
#    0.000    3.143    0.000    2.571   12.000    2.286 
#    0.000    0.000    0.000    0.000    0.000    4.000 
#    0.000    0.143    0.000    0.000    0.000    0.000 
#
# Total GULP energy -346960.201934 kJ/mol
# GULP energy per Si atom -12391.435783 kJ/mol
# Density = 2.184195 g / cm^3
# Si number density = 21.891772 Si / 1000 Ang^3
#
#
#
# Elastic Constant Matrix: (Units=GPa)
#
#
# Indices 1 2 3 4 5 6 
#
# 1 9.8590 11.1192 8.5527 0.0000 -5.6522 0.0000
# 2 11.1192 105.5318 67.3155 0.0000 -5.7007 0.0000
# 3 8.5527 67.3155 114.3592 0.0000 -24.3555 0.0000
# 4 0.0000 0.0000 0.0000 41.1367 0.0000 -6.9821
# 5 -5.6522 -5.7007 -24.3555 0.0000 21.3328 0.0000
# 6 0.0000 0.0000 0.0000 -6.9821 0.0000 20.6951
#
#
#
# Elastic Compliance Matrix: (Units=1/GPa)
#
#
# Indices 1 2 3 4 5 6 
#
# 1 0.138293 -0.018353 0.009539 0.000000 0.042627 0.000000
# 2 -0.018353 0.018752 -0.012729 0.000000 -0.014384 0.000000
# 3 0.009539 -0.012729 0.020265 0.000000 0.022262 0.000000
# 4 0.000000 0.000000 0.000000 0.025786 0.000000 0.008700
# 5 0.042627 -0.014384 0.022262 0.000000 0.079743 0.000000
# 6 0.000000 0.000000 0.000000 0.008700 0.000000 0.051256
#
#
# Mechanical properties :
#
#
# Convention : Reuss Voigt Hill
#
# Bulk Modulus (GPa) = 7.45024 44.85829 26.15427
# Shear Modulus (GPa) = 11.85056 26.15042 19.00049
#
# Velocity S-wave (km/s) = 2.32916 3.45995 2.94926
# Velocity P-wave (km/s) = 3.26250 6.04128 4.85495
#
# Compressibility (1/GPa) = 0.13422387
#
# Stress axis : x y z
#
# Youngs Moduli (GPa) = 7.23104 53.32804 49.34661
#
# Poissons Ratio (x) = 0.97873 -0.47072
# Poissons Ratio (y) = 0.13271 0.62812
# Poissons Ratio (z) = -0.06898 0.67880
#
# Static dielectric constant tensor:
#      x y z
#    x 3.639870 0.000000 -0.075520 
#    y 0.000000 4.096740 0.000000 
#    z -0.075520 0.000000 3.823110 
# 
# 
# High freq. dielectric constant tensor:
#      x y z
#    x 1.821920 0.000000 -0.020780 
#    y 0.000000 1.863130 0.000000 
#    z -0.020780 0.000000 1.850550 
# 
# From -- ./inp_files/56723.got.cif
#   From: 2010.06.25/outbox.cif.g09.slc.cpg/sg15_29_cif.got.tgz:56723.got - 2010.06.28 07:06:18.
