data_PCOD8141912
_publ_section_title
;
Structure prediction by ZEFSAII (Michael W. Deem and Ramdas Pophale) SiO2 
 PCOD8141912
Probable space group: C 2/C
;
_chemical_formula_sum "Si O2"
_cell_formula_units_Z 56
_cell_length_a 16.704103
_cell_length_b 9.790041
_cell_length_c 20.617175
_cell_angle_alpha 90.000000
_cell_angle_beta 61.339126
_cell_angle_gamma 90.000000
_cell_volume 2958.496304
_symmetry_space_group_name_H-M "C 2/C"
_symmetry_group_IT_number 15
_symmetry_cell_setting 'monoclinic'
loop_
_space_group_symop_operation_xyz
x,y,z
-x,y,1/2-z
-x,-y,-z
x,-y,1/2+z
1/2+x,1/2+y,z
1/2-x,1/2+y,1/2-z
1/2-x,1/2-y,-z
1/2+x,1/2-y,1/2+z
loop_
_atom_site_type_symbol
_atom_site_label
_atom_site_fract_x
_atom_site_fract_y
_atom_site_fract_z
Si Si1 0.574636 0.610267 0.456715
Si Si2 0.759280 0.791606 0.780808
Si Si3 0.068924 0.504499 0.669883
Si Si4 0.435658 0.204812 0.658327
Si Si5 0.128990 0.530685 0.403005
Si Si6 0.249597 0.998998 0.325182
Si Si7 0.932393 0.360055 0.959415
O O1 0.500000 0.500000 0.500000
O O2 0.535320 0.697787 0.411703
O O3 0.669572 0.538330 0.404855
O O4 0.591877 0.704568 0.513241
O O5 0.870611 0.785006 0.735141
O O6 0.719499 0.876032 0.857908
O O7 0.725767 0.871243 0.729375
O O8 0.719445 0.637074 0.797193
O O9 0.163054 0.544740 0.666814
O O10 0.086901 0.389879 0.608375
O O11 0.000000 0.442253 0.750000
O O12 0.025798 0.643867 0.656865
O O13 0.374251 0.081740 0.653036
O O14 0.131123 0.461074 0.472873
O O15 0.038893 0.622893 0.434101
#
# Coordination Sequence:
#
# PCOD8141912 Si02
#       7
#     8   8   8   8   8   8   8
#     4  10  21  38  58  87 121 161 199 257 295 356
#     4  11  18  36  56  94 109 155 205 254 284 366
#     4  11  20  38  60  86 116 161 195 253 300 374
#     4   9  19  35  59  84 120 152 202 250 295 353
#     4   9  16  32  57  83 113 158 200 236 291 368
#     4  11  23  34  65  87 119 154 208 246 306 356
#     4   9  19  34  56  83 120 160 199 241 299 360
#
# _framework density 18.928535
#
# number of rings (size 3 to 8) (size 9 to 14) (size 15 to 20)
#    0.000    2.000    2.857    2.571    0.000    0.571 
#    0.000    2.857    3.143    0.857    3.714    0.000 
#    0.000    0.000    0.000    0.000    0.000    0.000 
#
# Total GULP energy -347071.620771 kJ/mol
# GULP energy per Si atom -12395.415028 kJ/mol
# Density = 1.888545 g / cm^3
# Si number density = 18.928535 Si / 1000 Ang^3
#
#
#
# Elastic Constant Matrix: (Units=GPa)
#
#
# Indices 1 2 3 4 5 6 
#
# 1 81.7714 49.4613 46.3924 0.0000 -2.5460 0.0000
# 2 49.4613 130.1095 68.3583 0.0000 -7.1155 0.0000
# 3 46.3924 68.3583 132.5894 0.0000 -11.4990 0.0000
# 4 0.0000 0.0000 0.0000 39.5370 0.0000 -9.9787
# 5 -2.5460 -7.1155 -11.4990 0.0000 28.6829 0.0000
# 6 0.0000 0.0000 0.0000 -9.9787 0.0000 24.4083
#
#
#
# Elastic Compliance Matrix: (Units=1/GPa)
#
#
# Indices 1 2 3 4 5 6 
#
# 1 0.017081 -0.004613 -0.003694 0.000000 -0.001109 0.000000
# 2 -0.004613 0.011793 -0.004401 0.000000 0.000752 0.000000
# 3 -0.003694 -0.004401 0.011376 0.000000 0.003141 0.000000
# 4 0.000000 0.000000 0.000000 0.028203 0.000000 0.011530
# 5 -0.001109 0.000752 0.003141 0.000000 0.036211 0.000000
# 6 0.000000 0.000000 0.000000 0.011530 0.000000 0.045683
#
#
# Mechanical properties :
#
#
# Convention : Reuss Voigt Hill
#
# Bulk Modulus (GPa) = 67.41517 74.76603 71.09060
# Shear Modulus (GPa) = 27.66903 30.54287 29.10595
#
# Velocity S-wave (km/s) = 3.82745 4.02131 3.92558
# Velocity P-wave (km/s) = 7.43138 7.81960 7.62796
#
# Compressibility (1/GPa) = 0.01483346
#
# Stress axis : x y z
#
# Youngs Moduli (GPa) = 58.54469 84.79902 87.90485
#
# Poissons Ratio (x) = 0.39118 0.32476
# Poissons Ratio (y) = 0.27007 0.38683
# Poissons Ratio (z) = 0.21629 0.37316
#
# Static dielectric constant tensor:
#      x y z
#    x 3.154380 0.000000 -0.192610 
#    y 0.000000 3.660580 0.000000 
#    z -0.192610 0.000000 3.882220 
# 
# 
# High freq. dielectric constant tensor:
#      x y z
#    x 1.686500 0.000000 -0.017460 
#    y 0.000000 1.731820 0.000000 
#    z -0.017460 0.000000 1.759970 
# 
# From -- ./inp_files/247345.got.cif
#   From: 2010.06.25/outbox.cif.g09.slc.cpg/sg15_124_cif.got.tgz:247345.got - 2010.06.28 07:06:18.
