data_PCOD8141246
_publ_section_title
;
Structure prediction by ZEFSAII (Michael W. Deem and Ramdas Pophale) SiO2 
 PCOD8141246
Probable space group: C 2/C
;
_chemical_formula_sum "Si O2"
_cell_formula_units_Z 48
_cell_length_a 14.481665
_cell_length_b 23.302446
_cell_length_c 14.187744
_cell_angle_alpha 90.000000
_cell_angle_beta 30.678128
_cell_angle_gamma 90.000000
_cell_volume 2442.790759
_symmetry_space_group_name_H-M "C 2/C"
_symmetry_group_IT_number 15
_symmetry_cell_setting 'monoclinic'
loop_
_space_group_symop_operation_xyz
x,y,z
-x,y,1/2-z
-x,-y,-z
x,-y,1/2+z
1/2+x,1/2+y,z
1/2-x,1/2+y,1/2-z
1/2-x,1/2-y,-z
1/2+x,1/2-y,1/2+z
loop_
_atom_site_type_symbol
_atom_site_label
_atom_site_fract_x
_atom_site_fract_y
_atom_site_fract_z
Si Si1 0.212063 0.122727 0.067255
Si Si2 0.733585 0.664328 0.852335
Si Si3 0.241871 0.514475 0.133255
Si Si4 0.834923 0.496994 0.515096
Si Si5 0.434221 0.773255 0.414824
Si Si6 0.587576 0.566201 0.877502
O O1 0.306855 0.072026 0.045553
O O2 0.000000 0.111799 0.250000
O O3 0.286395 0.121872 0.893772
O O4 0.257221 0.185365 0.072518
O O5 0.648897 0.632014 0.836723
O O6 0.913658 0.695045 0.656844
O O7 0.596233 0.711697 0.012890
O O8 0.369428 0.462767 0.058823
O O9 0.043837 0.513856 0.356882
O O10 0.217214 0.514494 0.044156
O O11 0.371270 0.568811 0.045887
O O12 0.702415 0.532227 0.698488
O O13 0.500000 0.765411 0.250000
#
# Coordination Sequence:
#
# PCOD8141246 Si02
#       6
#     8   8   8   8   8   8
#     4  11  20  33  58  82 120 162 193 234 293 361
#     4  11  21  38  54  84 120 155 195 247 289 358
#     4  10  22  38  56  85 122 154 200 241 289 362
#     4  11  22  38  58  89 122 165 196 236 302 356
#     4  10  21  36  55  83 117 158 202 236 296 364
#     4  11  22  38  57  88 122 158 199 245 296 353
#
# _framework density 19.649657000000001
#
# number of rings (size 3 to 8) (size 9 to 14) (size 15 to 20)
#    0.000    1.333    1.667    6.500    7.000    0.000 
#    3.000    0.000    0.000    0.000    0.000    4.667 
#    0.000    0.000    0.000    0.000    0.000    0.000 
#
# Total GULP energy -297368.728162 kJ/mol
# GULP energy per Si atom -12390.363673 kJ/mol
# Density = 1.960493 g / cm^3
# Si number density = 19.649657 Si / 1000 Ang^3
#
#
#
# Elastic Constant Matrix: (Units=GPa)
#
#
# Indices 1 2 3 4 5 6 
#
# 1 71.7897 42.8160 40.7805 0.0103 -22.7656 0.0291
# 2 42.8160 107.0929 47.2822 0.0647 -0.6724 0.0257
# 3 40.7805 47.2822 103.7985 0.0393 -23.1193 0.0853
# 4 0.0103 0.0647 0.0393 18.8382 -0.0349 -8.5078
# 5 -22.7656 -0.6724 -23.1193 -0.0349 36.6116 -0.0513
# 6 0.0291 0.0257 0.0853 -8.5078 -0.0513 41.0592
#
#
#
# Elastic Compliance Matrix: (Units=1/GPa)
#
#
# Indices 1 2 3 4 5 6 
#
# 1 0.025032 -0.008659 -0.002861 0.000057 0.013599 0.000023
# 2 -0.008659 0.015122 -0.005380 -0.000058 -0.008504 -0.000015
# 3 -0.002861 -0.005380 0.014884 -0.000005 0.007521 -0.000017
# 4 0.000057 -0.000058 -0.000005 0.058565 0.000104 0.012135
# 5 0.013599 -0.008504 0.007521 0.000104 0.040363 0.000052
# 6 0.000023 -0.000015 -0.000017 0.012135 0.000052 0.026870
#
#
# Mechanical properties :
#
#
# Convention : Reuss Voigt Hill
#
# Bulk Modulus (GPa) = 47.08894 60.49316 53.79105
# Shear Modulus (GPa) = 22.55138 29.42195 25.98667
#
# Velocity S-wave (km/s) = 3.39141 3.87373 3.64056
# Velocity P-wave (km/s) = 6.27310 7.13165 6.71611
#
# Compressibility (1/GPa) = 0.02123641
#
# Stress axis : x y z
#
# Youngs Moduli (GPa) = 39.94912 66.12973 67.18544
#
# Poissons Ratio (x) = 0.57263 0.19222
# Poissons Ratio (y) = 0.34593 0.36148
# Poissons Ratio (z) = 0.11430 0.35580
#
# Static dielectric constant tensor:
#      x y z
#    x 3.622060 -0.000140 -0.426920 
#    y -0.000140 3.679340 0.000300 
#    z -0.426920 0.000300 3.780550 
# 
# 
# High freq. dielectric constant tensor:
#      x y z
#    x 1.737510 -0.000010 -0.031230 
#    y -0.000010 1.749960 0.000030 
#    z -0.031230 0.000030 1.775600 
# 
# From -- ./inp_files/156748.got.cif
#   From: 2010.06.25/outbox.cif.g09.slc.cpg/sg15_79_cif.got.tgz:156748.got - 2010.06.28 07:06:18.
