data_PCOD8141501
_publ_section_title
;
Structure prediction by ZEFSAII (Michael W. Deem and Ramdas Pophale) SiO2 
 PCOD8141501
Probable space group: C 2/C
;
_chemical_formula_sum "Si O2"
_cell_formula_units_Z 40
_cell_length_a 11.933191
_cell_length_b 8.886006
_cell_length_c 18.161769
_cell_angle_alpha 90.000000
_cell_angle_beta 90.816424
_cell_angle_gamma 90.000000
_cell_volume 1925.649539
_symmetry_space_group_name_H-M "C 2/C"
_symmetry_group_IT_number 15
_symmetry_cell_setting 'monoclinic'
loop_
_space_group_symop_operation_xyz
x,y,z
-x,y,1/2-z
-x,-y,-z
x,-y,1/2+z
1/2+x,1/2+y,z
1/2-x,1/2+y,1/2-z
1/2-x,1/2-y,-z
1/2+x,1/2-y,1/2+z
loop_
_atom_site_type_symbol
_atom_site_label
_atom_site_fract_x
_atom_site_fract_y
_atom_site_fract_z
Si Si1 0.349806 0.940684 0.317117
Si Si2 0.394789 0.946199 0.148138
Si Si3 0.620387 0.441877 0.025272
Si Si4 0.239956 0.311377 0.594197
Si Si5 0.751636 0.308757 0.584158
O O1 0.347812 0.929574 0.230010
O O2 0.472562 0.926180 0.353230
O O3 0.272948 0.815125 0.354451
O O4 0.298773 0.105728 0.332523
O O5 0.339747 0.808362 0.103947
O O6 0.366853 0.107283 0.109731
O O7 0.629322 0.273370 0.059811
O O8 0.657775 0.560843 0.087887
O O9 0.500000 0.500000 0.000000
O O10 0.710161 0.441704 0.958768
O O11 0.750000 0.250000 0.500000
#
# Coordination Sequence:
#
# PCOD8141501 Si02
#       5
#     8   8   8   8   8
#     4  11  22  40  63  84 121 164 200 247 300 360
#     4  10  24  40  58  89 121 162 203 241 306 361
#     4  10  21  37  56  86 118 149 190 243 304 347
#     4  10  21  38  57  82 118 152 191 246 291 351
#     4  11  22  38  61  92 119 152 205 254 292 356
#
# _framework density 20.772210999999999
#
# number of rings (size 3 to 8) (size 9 to 14) (size 15 to 20)
#    0.000    1.600    2.000    2.400    2.800    0.800 
#    0.000    0.000    0.000    9.600    0.000    0.000 
#    0.000    0.000    0.000    0.000    0.000    0.000 
#
# Total GULP energy -247826.615048 kJ/mol
# GULP energy per Si atom -12391.330752 kJ/mol
# Density = 2.072493 g / cm^3
# Si number density = 20.772211 Si / 1000 Ang^3
#
#
#
# Elastic Constant Matrix: (Units=GPa)
#
#
# Indices 1 2 3 4 5 6 
#
# 1 61.8603 35.7778 -0.3476 0.0000 14.7368 0.0000
# 2 35.7778 95.1103 28.8503 0.0000 -2.8611 0.0000
# 3 -0.3476 28.8503 66.8292 0.0000 4.0331 0.0000
# 4 0.0000 0.0000 0.0000 36.1157 0.0000 1.4659
# 5 14.7368 -2.8611 4.0331 0.0000 30.5400 0.0000
# 6 0.0000 0.0000 0.0000 1.4659 0.0000 29.7429
#
#
#
# Elastic Compliance Matrix: (Units=1/GPa)
#
#
# Indices 1 2 3 4 5 6 
#
# 1 0.027105 -0.012624 0.006503 0.000000 -0.015121 0.000000
# 2 -0.012624 0.018081 -0.008408 0.000000 0.008896 0.000000
# 3 0.006503 -0.008408 0.019016 0.000000 -0.006437 0.000000
# 4 0.000000 0.000000 0.000000 0.027744 0.000000 -0.001367
# 5 -0.015121 0.008896 -0.006437 0.000000 0.041724 0.000000
# 6 0.000000 0.000000 0.000000 -0.001367 0.000000 0.033689
#
#
# Mechanical properties :
#
#
# Convention : Reuss Voigt Hill
#
# Bulk Modulus (GPa) = 28.45387 39.15119 33.80253
# Shear Modulus (GPa) = 24.02336 29.91435 26.96885
#
# Velocity S-wave (km/s) = 3.40445 3.79900 3.60712
# Velocity P-wave (km/s) = 5.40199 6.17511 5.80144
#
# Compressibility (1/GPa) = 0.03514460
#
# Stress axis : x y z
#
# Youngs Moduli (GPa) = 36.89310 55.30712 52.58845
#
# Poissons Ratio (x) = 0.69818 -0.34200
# Poissons Ratio (y) = 0.46573 0.44217
# Poissons Ratio (z) = -0.23992 0.46503
#
# Static dielectric constant tensor:
#      x y z
#    x 3.576100 0.000000 0.124590 
#    y 0.000000 4.140460 0.000000 
#    z 0.124590 0.000000 3.758350 
# 
# 
# High freq. dielectric constant tensor:
#      x y z
#    x 1.797150 0.000000 0.010330 
#    y 0.000000 1.831330 0.000000 
#    z 0.010330 0.000000 1.812920 
# 
# From -- ./inp_files/195054.got.cif
#   From: 2010.06.25/outbox.cif.g09.slc.cpg/sg15_98_cif.got.tgz:195054.got - 2010.06.28 07:06:18.
