data_PCOD8141130
_publ_section_title
;
Structure prediction by ZEFSAII (Michael W. Deem and Ramdas Pophale) SiO2 
 PCOD8141130
Probable space group: C 2/C
;
_chemical_formula_sum "Si O2"
_cell_formula_units_Z 64
_cell_length_a 14.993221
_cell_length_b 9.937061
_cell_length_c 29.300195
_cell_angle_alpha 90.000000
_cell_angle_beta 135.203556
_cell_angle_gamma 90.000000
_cell_volume 3075.813430
_symmetry_space_group_name_H-M "C 2/C"
_symmetry_group_IT_number 15
_symmetry_cell_setting 'monoclinic'
loop_
_space_group_symop_operation_xyz
x,y,z
-x,y,1/2-z
-x,-y,-z
x,-y,1/2+z
1/2+x,1/2+y,z
1/2-x,1/2+y,1/2-z
1/2-x,1/2-y,-z
1/2+x,1/2-y,1/2+z
loop_
_atom_site_type_symbol
_atom_site_label
_atom_site_fract_x
_atom_site_fract_y
_atom_site_fract_z
Si Si1 0.934735 0.178154 0.177521
Si Si2 0.171332 0.709903 0.584922
Si Si3 0.060753 0.248543 0.857454
Si Si4 0.985067 0.776627 0.059933
Si Si5 0.299334 0.062101 0.362303
Si Si6 0.342428 0.517338 0.375737
Si Si7 0.079296 0.524854 0.824108
Si Si8 0.372441 0.479958 0.284482
O O1 0.792692 0.123785 0.132374
O O2 0.942785 0.329705 0.160795
O O3 0.000000 0.173328 0.250000
O O4 0.010226 0.083963 0.170091
O O5 0.323290 0.707998 0.633405
O O6 0.130588 0.568359 0.591886
O O7 0.126008 0.826286 0.603333
O O8 0.104127 0.725534 0.512161
O O9 0.037633 0.408777 0.844149
O O10 0.095131 0.214627 0.922369
O O11 0.933494 0.167186 0.796443
O O12 0.099302 0.675163 0.112588
O O13 0.038531 0.924375 0.067034
O O14 0.227812 0.018562 0.290242
O O15 0.227102 0.478821 0.366319
O O16 0.305404 0.487736 0.309493
O O17 0.000000 0.503012 0.750000
#
# Coordination Sequence:
#
# PCOD8141130 Si02
#       8
#     8   8   8   8   8   8   8   8
#     4   9  18  37  56  81 118 159 184 235 303 364
#     4  11  23  41  63  85 119 166 210 242 296 357
#     4  10  23  38  63  90 118 155 203 259 297 355
#     4  11  23  42  60  86 121 164 207 248 293 361
#     4  11  22  37  62  88 123 158 193 251 307 363
#     4  10  23  39  60  90 117 156 196 259 300 354
#     4  10  21  35  59  88 121 150 193 244 314 365
#     4  10  22  38  61  90 122 150 197 247 319 358
#
# _framework density 20.807504000000002
#
# number of rings (size 3 to 8) (size 9 to 14) (size 15 to 20)
#    0.000    1.750    2.500    1.125    5.250    2.000 
#    0.000    0.000    0.000    1.500    0.000    0.000 
#    0.000    0.000    0.000    0.000    0.000    0.000 
#
# Total GULP energy -396831.100620 kJ/mol
# GULP energy per Si atom -12400.971894 kJ/mol
# Density = 2.076015 g / cm^3
# Si number density = 20.807504 Si / 1000 Ang^3
#
#
#
# Elastic Constant Matrix: (Units=GPa)
#
#
# Indices 1 2 3 4 5 6 
#
# 1 55.4638 33.3592 0.2454 0.0000 -3.5594 0.0000
# 2 33.3592 147.4248 12.8912 0.0000 -3.3571 0.0000
# 3 0.2454 12.8912 62.1522 0.0000 -4.4326 0.0000
# 4 0.0000 0.0000 0.0000 24.9517 0.0000 0.4872
# 5 -3.5594 -3.3571 -4.4326 0.0000 19.2051 0.0000
# 6 0.0000 0.0000 0.0000 0.4872 0.0000 20.7164
#
#
#
# Elastic Compliance Matrix: (Units=1/GPa)
#
#
# Indices 1 2 3 4 5 6 
#
# 1 0.021130 -0.004806 0.001152 0.000000 0.003342 0.000000
# 2 -0.004806 0.008017 -0.001634 0.000000 0.000133 0.000000
# 3 0.001152 -0.001634 0.016694 0.000000 0.003781 0.000000
# 4 0.000000 0.000000 0.000000 0.040096 0.000000 -0.000943
# 5 0.003342 0.000133 0.003781 0.000000 0.053585 0.000000
# 6 0.000000 0.000000 0.000000 -0.000943 0.000000 0.048293
#
#
# Mechanical properties :
#
#
# Convention : Reuss Voigt Hill
#
# Bulk Modulus (GPa) = 28.35835 39.78138 34.06986
# Shear Modulus (GPa) = 23.79315 27.54431 25.66873
#
# Velocity S-wave (km/s) = 3.38522 3.64231 3.51612
# Velocity P-wave (km/s) = 5.37942 6.07032 5.73528
#
# Compressibility (1/GPa) = 0.03526298
#
# Stress axis : x y z
#
# Youngs Moduli (GPa) = 47.32693 124.74252 59.90330
#
# Poissons Ratio (x) = 0.59949 -0.06899
# Poissons Ratio (y) = 0.22744 0.09790
# Poissons Ratio (z) = -0.05451 0.20386
#
# Static dielectric constant tensor:
#      x y z
#    x 3.723240 0.000000 0.070480 
#    y 0.000000 4.133500 0.000000 
#    z 0.070480 0.000000 3.376510 
# 
# 
# High freq. dielectric constant tensor:
#      x y z
#    x 1.808230 0.000000 0.002750 
#    y 0.000000 1.834410 0.000000 
#    z 0.002750 0.000000 1.786310 
# 
# From -- ./inp_files/313171.got.cif
#   From: 2010.06.25/outbox.cif.g09.slc.cpg/sg15_157_cif.got.tgz:313171.got - 2010.06.28 07:06:18.
