data_PCOD8141358
_publ_section_title
;
Structure prediction by ZEFSAII (Michael W. Deem and Ramdas Pophale) SiO2 
 PCOD8141358
Probable space group: C 2/C
;
_chemical_formula_sum "Si O2"
_cell_formula_units_Z 60
_cell_length_a 20.519372
_cell_length_b 29.943212
_cell_length_c 13.179992
_cell_angle_alpha 90.000000
_cell_angle_beta 156.232196
_cell_angle_gamma 90.000000
_cell_volume 3263.744470
_symmetry_space_group_name_H-M "C 2/C"
_symmetry_group_IT_number 15
_symmetry_cell_setting 'monoclinic'
loop_
_space_group_symop_operation_xyz
x,y,z
-x,y,1/2-z
-x,-y,-z
x,-y,1/2+z
1/2+x,1/2+y,z
1/2-x,1/2+y,1/2-z
1/2-x,1/2-y,-z
1/2+x,1/2-y,1/2+z
loop_
_atom_site_type_symbol
_atom_site_label
_atom_site_fract_x
_atom_site_fract_y
_atom_site_fract_z
Si Si1 0.691286 0.809293 0.516076
Si Si2 0.184969 0.212271 0.525184
Si Si3 0.107853 0.110268 0.118051
Si Si4 0.500000 0.578984 0.750000
Si Si5 0.353741 0.952893 0.333726
Si Si6 0.118133 0.126103 0.515877
Si Si7 0.185443 0.988603 0.749066
Si Si8 0.689677 0.975367 0.874997
O O1 0.500000 0.816127 0.250000
O O2 0.743141 0.811878 0.472240
O O3 0.760904 0.761141 0.656608
O O4 0.773460 0.847683 0.700832
O O5 0.196155 0.176032 0.632024
O O6 0.000000 0.225554 0.250000
O O7 0.964564 0.114354 0.995930
O O8 0.207494 0.064924 0.283037
O O9 0.033152 0.109284 0.897438
O O10 0.347048 0.547180 0.550178
O O11 0.249999 0.992645 0.236291
O O12 0.533156 0.944287 0.632970
O O13 0.356116 0.974097 0.225252
O O14 0.267127 0.906067 0.210809
O O15 0.000000 0.123161 0.250000
O O16 0.287553 0.017216 0.974108
O O17 0.000000 0.000000 0.500000
#
# Coordination Sequence:
#
# PCOD8141358 Si02
#       8
#     8   8   8   4   8   8   8   8
#     4  10  21  36  60  96 126 148 189 264 326 360
#     4   9  18  37  61  91 121 150 192 253 323 370
#     4  12  23  37  62  88 120 167 204 241 307 375
#     4  12  24  42  56  80 130 172 204 242 304 364
#     4  11  23  35  56  86 116 155 200 255 294 352
#     4  11  20  36  64  92 115 158 209 246 305 377
#     4  12  21  37  59  81 114 164 206 248 285 351
#     4  11  23  38  54  79 121 159 203 249 301 347
#
# _framework density 18.383792
#
# number of rings (size 3 to 8) (size 9 to 14) (size 15 to 20)
#    0.000    1.067    6.667    1.200    0.933    2.133 
#    0.000    0.000    0.000    0.800    3.467    0.000 
#    0.000    0.000    0.000    0.000    0.000    0.000 
#
# Total GULP energy -371723.813719 kJ/mol
# GULP energy per Si atom -12390.793791 kJ/mol
# Density = 1.834195 g / cm^3
# Si number density = 18.383792 Si / 1000 Ang^3
#
#
#
# Elastic Constant Matrix: (Units=GPa)
#
#
# Indices 1 2 3 4 5 6 
#
# 1 59.4768 12.4524 27.2199 0.0000 -6.0264 0.0000
# 2 12.4524 134.1253 43.8580 0.0000 -4.1226 0.0000
# 3 27.2199 43.8580 101.8966 0.0000 1.6960 0.0000
# 4 0.0000 0.0000 0.0000 30.7575 0.0000 1.0328
# 5 -6.0264 -4.1226 1.6960 0.0000 32.2428 0.0000
# 6 0.0000 0.0000 0.0000 1.0328 0.0000 31.5735
#
#
#
# Elastic Compliance Matrix: (Units=1/GPa)
#
#
# Indices 1 2 3 4 5 6 
#
# 1 0.019646 0.000041 -0.005332 0.000000 0.003958 0.000000
# 2 0.000041 0.008732 -0.003792 0.000000 0.001324 0.000000
# 3 -0.005332 -0.003792 0.012906 0.000000 -0.002160 0.000000
# 4 0.000000 0.000000 0.000000 0.032548 0.000000 -0.001065
# 5 0.003958 0.001324 -0.002160 0.000000 0.032037 0.000000
# 6 0.000000 0.000000 0.000000 -0.001065 0.000000 0.031707
#
#
# Mechanical properties :
#
#
# Convention : Reuss Voigt Hill
#
# Bulk Modulus (GPa) = 43.25257 51.39548 47.32403
# Shear Modulus (GPa) = 30.59091 33.04598 31.81845
#
# Velocity S-wave (km/s) = 4.08366 4.24436 4.16479
# Velocity P-wave (km/s) = 6.76858 7.21368 6.99467
#
# Compressibility (1/GPa) = 0.02312001
#
# Stress axis : x y z
#
# Youngs Moduli (GPa) = 50.90174 114.51590 77.48319
#
# Poissons Ratio (x) = -0.00471 0.41311
# Poissons Ratio (y) = -0.00209 0.29378
# Poissons Ratio (z) = 0.27139 0.43420
#
# Static dielectric constant tensor:
#      x y z
#    x 3.460750 0.000000 -0.017790 
#    y 0.000000 3.495590 0.000000 
#    z -0.017790 0.000000 3.211380 
# 
# 
# High freq. dielectric constant tensor:
#      x y z
#    x 1.724450 0.000000 0.018780 
#    y 0.000000 1.712610 0.000000 
#    z 0.018780 0.000000 1.691810 
# 
# From -- ./inp_files/174970.got.cif
#   From: 2010.06.25/outbox.cif.g09.slc.cpg/sg15_88_cif.got.tgz:174970.got - 2010.06.28 07:06:18.
