data_PCOD8141196
_publ_section_title
;
Structure prediction by ZEFSAII (Michael W. Deem and Ramdas Pophale) SiO2 
 PCOD8141196
Probable space group: C 2/C
;
_chemical_formula_sum "Si O2"
_cell_formula_units_Z 64
_cell_length_a 8.667752
_cell_length_b 19.827355
_cell_length_c 22.689823
_cell_angle_alpha 90.000000
_cell_angle_beta 49.629034
_cell_angle_gamma 90.000000
_cell_volume 2970.854096
_symmetry_space_group_name_H-M "C 2/C"
_symmetry_group_IT_number 15
_symmetry_cell_setting 'monoclinic'
loop_
_space_group_symop_operation_xyz
x,y,z
-x,y,1/2-z
-x,-y,-z
x,-y,1/2+z
1/2+x,1/2+y,z
1/2-x,1/2+y,1/2-z
1/2-x,1/2-y,-z
1/2+x,1/2-y,1/2+z
loop_
_atom_site_type_symbol
_atom_site_label
_atom_site_fract_x
_atom_site_fract_y
_atom_site_fract_z
Si Si1 0.352565 0.627791 0.210461
Si Si2 0.314307 0.127461 0.071759
Si Si3 0.259962 0.360347 0.602594
Si Si4 0.452429 0.024319 0.411002
Si Si5 0.930232 0.282047 0.636569
Si Si6 0.721816 0.855175 0.176494
Si Si7 0.709930 0.399442 0.470298
Si Si8 0.178839 0.514928 0.751634
O O1 0.593274 0.633891 0.156142
O O2 0.268455 0.652701 0.169221
O O3 0.234157 0.672244 0.287513
O O4 0.328408 0.547511 0.219816
O O5 0.432160 0.191980 0.068425
O O6 0.434408 0.058083 0.060680
O O7 0.306685 0.137717 0.003194
O O8 0.473450 0.382693 0.522988
O O9 0.099707 0.417784 0.623610
O O10 0.161176 0.291076 0.602379
O O11 0.252608 0.979122 0.474750
O O12 0.597677 0.972987 0.338567
O O13 0.881585 0.203293 0.649731
O O14 0.500000 0.830001 0.250000
O O15 0.697025 0.874911 0.114052
O O16 0.794359 0.918829 0.198152
O O17 0.000000 0.499345 0.750000
#
# Coordination Sequence:
#
# PCOD8141196 Si02
#       8
#     8   8   8   8   8   8   8   8
#     4  11  18  37  65  92 122 156 213 263 314 377
#     4  10  23  34  61  95 123 163 205 264 317 363
#     4  10  21  35  65  92 117 164 212 264 309 369
#     4  11  19  37  61  94 126 155 208 262 320 376
#     4  11  22  39  62  88 121 169 218 257 303 381
#     4  11  23  40  62  87 124 170 211 257 325 387
#     4  11  22  38  58  92 130 163 210 259 318 377
#     4  11  18  34  64  92 117 158 204 265 314 369
#
# _framework density 21.542625999999998
#
# number of rings (size 3 to 8) (size 9 to 14) (size 15 to 20)
#    0.000    1.250    6.250    2.250    0.000    2.000 
#    0.000    0.000    5.500    3.000    0.000    0.000 
#    0.000    0.000    0.000    0.000    0.000    0.000 
#
# Total GULP energy -396449.890368 kJ/mol
# GULP energy per Si atom -12389.059074 kJ/mol
# Density = 2.149359 g / cm^3
# Si number density = 21.542626 Si / 1000 Ang^3
#
#
#
# Elastic Constant Matrix: (Units=GPa)
#
#
# Indices 1 2 3 4 5 6 
#
# 1 107.8683 44.1129 29.3930 0.0011 1.6267 -0.0003
# 2 44.1129 107.2796 23.5682 -0.0007 9.0384 0.0003
# 3 29.3930 23.5682 73.3665 0.0013 11.8652 -0.0007
# 4 0.0011 -0.0007 0.0013 -9.2631 -0.0013 4.3631
# 5 1.6267 9.0384 11.8652 -0.0013 24.0586 0.0007
# 6 -0.0003 0.0003 -0.0007 4.3631 0.0007 27.3591
#
#
#
# Elastic Compliance Matrix: (Units=1/GPa)
#
#
# Indices 1 2 3 4 5 6 
#
# 1 0.012060 -0.004336 -0.003880 0.000001 0.002727 0.000000
# 2 -0.004336 0.011714 -0.001479 -0.000001 -0.003378 0.000000
# 3 -0.003880 -0.001479 0.016873 0.000003 -0.007503 0.000000
# 4 0.000001 -0.000001 0.000003 -0.100412 -0.000007 0.016013
# 5 0.002727 -0.003378 -0.007503 -0.000007 0.046350 0.000000
# 6 0.000000 0.000000 0.000000 0.016013 0.000000 0.033997
#
#
# Mechanical properties :
#
#
# Convention : Reuss Voigt Hill
#
# Bulk Modulus (GPa) = 47.04462 53.62916 50.33689
# Shear Modulus (GPa) = 106.24871 21.19359 63.72115
#
# Velocity S-wave (km/s) = 7.03045 3.13996 5.44457
# Velocity P-wave (km/s) = 9.36955 6.17206 7.93356
#
# Compressibility (1/GPa) = 0.02125642
#
# Stress axis : x y z
#
# Youngs Moduli (GPa) = 82.91874 85.36665 59.26547
#
# Poissons Ratio (x) = 0.37019 0.22993
# Poissons Ratio (y) = 0.35957 0.08768
# Poissons Ratio (z) = 0.32169 0.12629
#
# Static dielectric constant tensor:
#      x y z
#    x 3.988130 0.000000 -0.024580 
#    y 0.000000 3.765710 0.000000 
#    z -0.024580 0.000000 3.966730 
# 
# 
# High freq. dielectric constant tensor:
#      x y z
#    x 1.846410 0.000000 0.010140 
#    y 0.000000 1.826280 0.000000 
#    z 0.010140 0.000000 1.842420 
# 
# From -- ./inp_files/266075.got.cif
#   From: 2010.06.25/outbox.cif.g09.slc.cpg/sg15_134_cif.got.tgz:266075.got - 2010.06.28 07:06:18.
