data_PCOD8141050
_publ_section_title
;
Structure prediction by ZEFSAII (Michael W. Deem and Ramdas Pophale) SiO2 
 PCOD8141050
Probable space group: C 2/C
;
_chemical_formula_sum "Si O2"
_cell_formula_units_Z 64
_cell_length_a 27.741080
_cell_length_b 12.512252
_cell_length_c 21.649407
_cell_angle_alpha 90.000000
_cell_angle_beta 151.326157
_cell_angle_gamma 90.000000
_cell_volume 3605.669540
_symmetry_space_group_name_H-M "C 2/C"
_symmetry_group_IT_number 15
_symmetry_cell_setting 'monoclinic'
loop_
_space_group_symop_operation_xyz
x,y,z
-x,y,1/2-z
-x,-y,-z
x,-y,1/2+z
1/2+x,1/2+y,z
1/2-x,1/2+y,1/2-z
1/2-x,1/2-y,-z
1/2+x,1/2-y,1/2+z
loop_
_atom_site_type_symbol
_atom_site_label
_atom_site_fract_x
_atom_site_fract_y
_atom_site_fract_z
Si Si1 0.478665 0.307657 0.121842
Si Si2 0.822751 0.353672 0.421830
Si Si3 0.697165 0.342219 0.401298
Si Si4 0.260063 0.202841 0.275375
Si Si5 0.213857 0.907470 0.121882
Si Si6 0.083511 0.058594 0.056239
Si Si7 0.383711 0.988849 0.885170
Si Si8 0.892687 0.006738 0.607360
O O1 0.591800 0.287315 0.267687
O O2 0.417879 0.386801 0.097842
O O3 0.425873 0.192969 0.065020
O O4 0.475697 0.354617 0.049989
O O5 0.753155 0.380350 0.402138
O O6 0.767703 0.266308 0.317702
O O7 0.850629 0.455429 0.411946
O O8 0.750000 0.250000 0.500000
O O9 0.677489 0.453553 0.415341
O O10 0.281408 0.281261 0.356984
O O11 0.169543 0.120984 0.191976
O O12 0.359168 0.135827 0.368399
O O13 0.132387 0.963579 0.072861
O O14 0.321978 0.962078 0.257473
O O15 0.175290 0.922978 0.008091
O O16 0.000000 0.000000 0.000000
O O17 0.500000 0.000000 0.000000
O O18 0.000000 0.954830 0.750000
#
# Coordination Sequence:
#
# PCOD8141050 Si02
#       8
#     8   8   8   8   8   8   8   8
#     4   9  19  32  49  78 111 134 181 222 269 339
#     4  10  21  35  52  83 109 147 182 222 287 337
#     4  11  21  30  55  79 111 147 180 232 278 329
#     4   9  20  35  53  82 114 138 184 223 278 338
#     4   9  19  35  54  79 110 143 182 231 275 334
#     4   9  18  31  53  80 106 138 175 224 276 325
#     4  10  22  35  54  82 115 148 177 225 289 346
#     4   9  18  36  53  81 106 144 192 231 281 324
#
# _framework density 17.749824
#
# number of rings (size 3 to 8) (size 9 to 14) (size 15 to 20)
#    0.000    2.500    1.250    0.750    7.000    2.000 
#    0.000    0.000    0.000    0.750    3.250    0.000 
#    0.000    0.000    0.000    0.000    0.000    0.000 
#
# Total GULP energy -396600.729262 kJ/mol
# GULP energy per Si atom -12393.772789 kJ/mol
# Density = 1.770942 g / cm^3
# Si number density = 17.749824 Si / 1000 Ang^3
#
#
#
# Elastic Constant Matrix: (Units=GPa)
#
#
# Indices 1 2 3 4 5 6 
#
# 1 112.9458 38.0078 51.4446 0.0000 9.2900 0.0000
# 2 38.0078 83.5551 45.7636 0.0000 3.9639 0.0000
# 3 51.4446 45.7636 128.7751 0.0000 2.8729 0.0000
# 4 0.0000 0.0000 0.0000 28.7840 0.0000 -2.8408
# 5 9.2900 3.9639 2.8729 0.0000 25.9034 0.0000
# 6 0.0000 0.0000 0.0000 -2.8408 0.0000 21.8180
#
#
#
# Elastic Compliance Matrix: (Units=1/GPa)
#
#
# Indices 1 2 3 4 5 6 
#
# 1 0.011827 -0.003321 -0.003470 0.000000 -0.003349 0.000000
# 2 -0.003321 0.015867 -0.004295 0.000000 -0.000761 0.000000
# 3 -0.003470 -0.004295 0.010662 0.000000 0.000719 0.000000
# 4 0.000000 0.000000 0.000000 0.035194 0.000000 0.004582
# 5 -0.003349 -0.000761 0.000719 0.000000 0.039843 0.000000
# 6 0.000000 0.000000 0.000000 0.004582 0.000000 0.046430
#
#
# Mechanical properties :
#
#
# Convention : Reuss Voigt Hill
#
# Bulk Modulus (GPa) = 61.78690 66.18977 63.98834
# Shear Modulus (GPa) = 26.68226 27.97175 27.32700
#
# Velocity S-wave (km/s) = 3.88137 3.97405 3.92799
# Velocity P-wave (km/s) = 7.41432 7.64387 7.52997
#
# Compressibility (1/GPa) = 0.01618466
#
# Stress axis : x y z
#
# Youngs Moduli (GPa) = 84.55075 63.02278 93.78944
#
# Poissons Ratio (x) = 0.20927 0.32546
# Poissons Ratio (y) = 0.28075 0.40286
# Poissons Ratio (z) = 0.29340 0.27071
#
# Static dielectric constant tensor:
#      x y z
#    x 3.013240 0.000000 0.219280 
#    y 0.000000 3.234520 0.000000 
#    z 0.219280 0.000000 3.174510 
# 
# 
# High freq. dielectric constant tensor:
#      x y z
#    x 1.671900 0.000000 0.005930 
#    y 0.000000 1.664800 0.000000 
#    z 0.005930 0.000000 1.696940 
# 
# From -- ./inp_files/257539.got.cif
#   From: 2010.06.25/outbox.cif.g09.slc.cpg/sg15_129_cif.got.tgz:257539.got - 2010.06.28 07:06:18.
