data_PCOD8141500
_publ_section_title
;
Structure prediction by ZEFSAII (Michael W. Deem and Ramdas Pophale) SiO2 
 PCOD8141500
Probable space group: C 2/C
;
_chemical_formula_sum "Si O2"
_cell_formula_units_Z 64
_cell_length_a 31.551255
_cell_length_b 8.747170
_cell_length_c 10.629992
_cell_angle_alpha 90.000000
_cell_angle_beta 91.814286
_cell_angle_gamma 90.000000
_cell_volume 2932.239068
_symmetry_space_group_name_H-M "C 2/C"
_symmetry_group_IT_number 15
_symmetry_cell_setting 'monoclinic'
loop_
_space_group_symop_operation_xyz
x,y,z
-x,y,1/2-z
-x,-y,-z
x,-y,1/2+z
1/2+x,1/2+y,z
1/2-x,1/2+y,1/2-z
1/2-x,1/2-y,-z
1/2+x,1/2-y,1/2+z
loop_
_atom_site_type_symbol
_atom_site_label
_atom_site_fract_x
_atom_site_fract_y
_atom_site_fract_z
Si Si1 0.230361 0.410584 0.626024
Si Si2 0.451727 0.878920 0.259913
Si Si3 0.200949 0.269787 0.230338
Si Si4 0.882478 0.155190 0.163426
Si Si5 0.141901 0.312061 0.564199
Si Si6 0.416944 0.929995 0.529508
Si Si7 0.130994 0.189272 0.830605
Si Si8 0.788014 0.866795 0.012548
O O1 0.208609 0.552769 0.697414
O O2 0.253872 0.290955 0.717254
O O3 0.192967 0.320131 0.551287
O O4 0.266565 0.467583 0.531313
O O5 0.500000 0.827044 0.250000
O O6 0.423019 0.732041 0.229781
O O7 0.445094 0.929144 0.404964
O O8 0.442757 0.009546 0.154082
O O9 0.159909 0.254562 0.312451
O O10 0.187193 0.153863 0.115637
O O11 0.885057 0.980082 0.203712
O O12 0.880029 0.168705 0.010718
O O13 0.123747 0.467142 0.503474
O O14 0.129023 0.297017 0.708561
O O15 0.398533 0.762852 0.563729
O O16 0.180194 0.174176 0.872265
O O17 0.750000 0.750000 0.000000
#
# Coordination Sequence:
#
# PCOD8141500 Si02
#       8
#     8   8   8   8   8   8   8   8
#     4  11  23  38  60  91 129 178 230 289 325 395
#     4  11  24  48  77 108 138 173 223 281 347 423
#     4  11  24  40  61  91 129 177 231 281 347 390
#     4  11  27  42  67  98 136 183 223 280 351 417
#     4  11  25  42  66  96 135 180 234 275 340 408
#     4  11  23  46  75 106 136 177 223 281 343 415
#     4  12  24  43  67  97 138 182 226 284 343 409
#     4  10  21  37  56  85 126 173 226 277 332 387
#
# _framework density 21.826325000000001
#
# number of rings (size 3 to 8) (size 9 to 14) (size 15 to 20)
#    0.000    1.000    2.500    4.875    7.000    0.500 
#    0.000    1.250    0.000    0.000    0.000    0.000 
#    0.000    0.000    0.000    0.000    0.000    0.000 
#
# Total GULP energy -396638.879618 kJ/mol
# GULP energy per Si atom -12394.964988 kJ/mol
# Density = 2.177665 g / cm^3
# Si number density = 21.826325 Si / 1000 Ang^3
#
#
#
# Elastic Constant Matrix: (Units=GPa)
#
#
# Indices 1 2 3 4 5 6 
#
# 1 121.5427 41.9978 38.5504 0.0000 3.4515 0.0000
# 2 41.9978 95.1035 21.0446 0.0000 6.7414 0.0000
# 3 38.5504 21.0446 100.1027 0.0000 -0.1203 0.0000
# 4 0.0000 0.0000 0.0000 25.8153 0.0000 -4.7533
# 5 3.4515 6.7414 -0.1203 0.0000 25.6439 0.0000
# 6 0.0000 0.0000 0.0000 -4.7533 0.0000 21.9213
#
#
#
# Elastic Compliance Matrix: (Units=1/GPa)
#
#
# Indices 1 2 3 4 5 6 
#
# 1 0.010639 -0.003946 -0.003268 0.000000 -0.000410 0.000000
# 2 -0.003946 0.012713 -0.001156 0.000000 -0.002816 0.000000
# 3 -0.003268 -0.001156 0.011492 0.000000 0.000798 0.000000
# 4 0.000000 0.000000 0.000000 0.040348 0.000000 0.008749
# 5 -0.000410 -0.002816 0.000798 0.000000 0.039795 0.000000
# 6 0.000000 0.000000 0.000000 0.008749 0.000000 0.047515
#
#
# Mechanical properties :
#
#
# Convention : Reuss Voigt Hill
#
# Bulk Modulus (GPa) = 55.23821 57.77050 56.50436
# Shear Modulus (GPa) = 26.98649 29.01983 28.00316
#
# Velocity S-wave (km/s) = 3.52009 3.65030 3.58578
# Velocity P-wave (km/s) = 6.47181 6.65522 6.56416
#
# Compressibility (1/GPa) = 0.01810341
#
# Stress axis : x y z
#
# Youngs Moduli (GPa) = 93.99099 78.65987 87.01393
#
# Poissons Ratio (x) = 0.31040 0.28438
# Poissons Ratio (y) = 0.37090 0.10062
# Poissons Ratio (z) = 0.30718 0.09096
#
# Static dielectric constant tensor:
#      x y z
#    x 3.726330 0.000000 -0.129780 
#    y 0.000000 3.945500 0.000000 
#    z -0.129780 0.000000 5.344920 
# 
# 
# High freq. dielectric constant tensor:
#      x y z
#    x 1.835300 0.000000 0.005000 
#    y 0.000000 1.852080 0.000000 
#    z 0.005000 0.000000 1.876930 
# 
# From -- ./inp_files/125922.got.cif
#   From: 2010.06.25/outbox.cif.g09.slc.cpg/sg15_63_cif.got.tgz:125922.got - 2010.06.28 07:06:18.
