data_PCOD8141802
_publ_section_title
;
Structure prediction by ZEFSAII (Michael W. Deem and Ramdas Pophale) SiO2 
 PCOD8141802
Probable space group: C 2/C
;
_chemical_formula_sum "Si O2"
_cell_formula_units_Z 56
_cell_length_a 8.123596
_cell_length_b 22.772104
_cell_length_c 14.785823
_cell_angle_alpha 90.000000
_cell_angle_beta 83.292853
_cell_angle_gamma 90.000000
_cell_volume 2716.529890
_symmetry_space_group_name_H-M "C 2/C"
_symmetry_group_IT_number 15
_symmetry_cell_setting 'monoclinic'
loop_
_space_group_symop_operation_xyz
x,y,z
-x,y,1/2-z
-x,-y,-z
x,-y,1/2+z
1/2+x,1/2+y,z
1/2-x,1/2+y,1/2-z
1/2-x,1/2-y,-z
1/2+x,1/2-y,1/2+z
loop_
_atom_site_type_symbol
_atom_site_label
_atom_site_fract_x
_atom_site_fract_y
_atom_site_fract_z
Si Si1 0.563691 0.551328 0.931496
Si Si2 0.000000 0.659350 0.250000
Si Si3 0.341234 0.638930 0.021212
Si Si4 0.306160 0.845960 0.163805
Si Si5 0.058318 0.439968 0.100242
Si Si6 0.465606 0.071670 0.407206
Si Si7 0.500000 0.591230 0.750000
Si Si8 0.646692 0.714335 0.306760
O O1 0.751099 0.554291 0.888506
O O2 0.472817 0.549648 0.839693
O O3 0.500000 0.500000 0.000000
O O4 0.518824 0.612034 0.984336
O O5 0.960354 0.618097 0.167279
O O6 0.165068 0.698649 0.233921
O O7 0.231155 0.585584 0.070926
O O8 0.377378 0.690039 0.090304
O O9 0.252988 0.662603 0.936279
O O10 0.455474 0.893204 0.165208
O O11 0.160542 0.866369 0.240968
O O12 0.374356 0.783972 0.192475
O O13 0.989162 0.505323 0.125068
O O14 0.051822 0.419179 0.997433
O O15 0.500000 0.689332 0.250000
#
# Coordination Sequence:
#
# PCOD8141802 Si02
#       8
#     8   4   8   8   8   8   4   8
#     4  11  22  41  62  95 132 166 211 264 322 393
#     4  10  23  42  62  90 132 169 210 268 328 378
#     4   9  20  42  61  89 126 170 208 261 330 376
#     4  10  22  43  65  88 127 166 218 264 325 384
#     4  10  21  37  65  91 123 162 210 261 313 396
#     4   9  19  38  61  89 122 165 202 257 326 375
#     4  10  25  40  64  92 122 175 206 258 334 374
#     4  11  24  41  65  95 126 171 221 273 320 388
#
# _framework density 20.614533999999999
#
# number of rings (size 3 to 8) (size 9 to 14) (size 15 to 20)
#    0.000    2.000    1.429    0.857    6.000    1.143 
#    1.286    0.714    0.000    0.000    0.000    0.000 
#    0.000    0.000    0.000    0.000    0.000    0.000 
#
# Total GULP energy -346972.109402 kJ/mol
# GULP energy per Si atom -12391.861050 kJ/mol
# Density = 2.056761 g / cm^3
# Si number density = 20.614534 Si / 1000 Ang^3
#
#
#
# Elastic Constant Matrix: (Units=GPa)
#
#
# Indices 1 2 3 4 5 6 
#
# 1 92.0473 31.2436 24.1810 0.0000 -9.2358 0.0000
# 2 31.2436 112.3768 47.2743 0.0000 -7.2515 0.0000
# 3 24.1810 47.2743 91.1195 0.0000 -7.5700 0.0000
# 4 0.0000 0.0000 0.0000 29.5689 0.0000 -1.0899
# 5 -9.2358 -7.2515 -7.5700 0.0000 31.2979 0.0000
# 6 0.0000 0.0000 0.0000 -1.0899 0.0000 26.0241
#
#
#
# Elastic Compliance Matrix: (Units=1/GPa)
#
#
# Indices 1 2 3 4 5 6 
#
# 1 0.012460 -0.002551 -0.001762 0.000000 0.002659 0.000000
# 2 -0.002551 0.011952 -0.005466 0.000000 0.000694 0.000000
# 3 -0.001762 -0.005466 0.014420 0.000000 0.001701 0.000000
# 4 0.000000 0.000000 0.000000 0.033872 0.000000 0.001418
# 5 0.002659 0.000694 0.001701 0.000000 0.033308 0.000000
# 6 0.000000 0.000000 0.000000 0.001418 0.000000 0.038485
#
#
# Mechanical properties :
#
#
# Convention : Reuss Voigt Hill
#
# Bulk Modulus (GPa) = 51.88753 55.66014 53.77384
# Shear Modulus (GPa) = 29.32897 30.23448 29.78172
#
# Velocity S-wave (km/s) = 3.77600 3.83385 3.80504
# Velocity P-wave (km/s) = 6.65101 6.83059 6.74140
#
# Compressibility (1/GPa) = 0.01927245
#
# Stress axis : x y z
#
# Youngs Moduli (GPa) = 80.25892 83.66585 69.35046
#
# Poissons Ratio (x) = 0.21346 0.12219
# Poissons Ratio (y) = 0.20476 0.37909
# Poissons Ratio (z) = 0.14141 0.45734
#
# Static dielectric constant tensor:
#      x y z
#    x 3.719160 0.000000 -0.081600 
#    y 0.000000 3.619620 0.000000 
#    z -0.081600 0.000000 3.812140 
# 
# 
# High freq. dielectric constant tensor:
#      x y z
#    x 1.804080 0.000000 -0.003710 
#    y 0.000000 1.796540 0.000000 
#    z -0.003710 0.000000 1.813520 
# 
# From -- ./inp_files/136481.got.cif
#   From: 2010.06.25/outbox.cif.g09.slc.cpg/sg15_69_cif.got.tgz:136481.got - 2010.06.28 07:06:18.
