data_PCOD8141527
_publ_section_title
;
Structure prediction by ZEFSAII (Michael W. Deem and Ramdas Pophale) SiO2 
 PCOD8141527
Probable space group: C 2/C
;
_chemical_formula_sum "Si O2"
_cell_formula_units_Z 56
_cell_length_a 25.801935
_cell_length_b 7.834724
_cell_length_c 13.593968
_cell_angle_alpha 90.000000
_cell_angle_beta 103.947807
_cell_angle_gamma 90.000000
_cell_volume 2667.010879
_symmetry_space_group_name_H-M "C 2/C"
_symmetry_group_IT_number 15
_symmetry_cell_setting 'monoclinic'
loop_
_space_group_symop_operation_xyz
x,y,z
-x,y,1/2-z
-x,-y,-z
x,-y,1/2+z
1/2+x,1/2+y,z
1/2-x,1/2+y,1/2-z
1/2-x,1/2-y,-z
1/2+x,1/2-y,1/2+z
loop_
_atom_site_type_symbol
_atom_site_label
_atom_site_fract_x
_atom_site_fract_y
_atom_site_fract_z
Si Si1 0.878219 0.083684 0.184747
Si Si2 0.444045 0.093621 0.778910
Si Si3 0.668984 0.804505 0.493477
Si Si4 0.810136 0.201595 0.321810
Si Si5 0.246090 0.597333 0.861840
Si Si6 0.596374 0.896411 0.032172
Si Si7 0.439993 0.762438 0.685149
O O1 0.918655 0.232172 0.232977
O O2 0.832940 0.075383 0.247669
O O3 0.906185 0.903254 0.193834
O O4 0.854486 0.132664 0.067561
O O5 0.500000 0.077440 0.750000
O O6 0.446039 0.082919 0.898118
O O7 0.412451 0.923662 0.728495
O O8 0.708500 0.740599 0.597107
O O9 0.702023 0.910483 0.427430
O O10 0.620832 0.920419 0.512466
O O11 0.780810 0.359314 0.255149
O O12 0.855412 0.274307 0.413546
O O13 0.769746 0.092576 0.369096
O O14 0.562162 0.804948 0.931664
O O15 0.500000 0.728237 0.750000
#
# Coordination Sequence:
#
# PCOD8141527 Si02
#       7
#     8   8   8   8   8   8   8
#     4  10  21  42  62  93 129 171 206 269 313 376
#     4  10  23  43  65  91 131 163 213 270 316 382
#     4  10  21  38  62  87 132 166 210 262 320 371
#     4  10  22  37  62  92 128 167 218 251 323 381
#     4  10  21  37  57  94 125 167 209 265 312 372
#     4  11  23  42  66  95 124 175 212 259 331 382
#     4  11  24  42  66  96 125 165 220 263 323 389
#
# _framework density 20.99729
#
# number of rings (size 3 to 8) (size 9 to 14) (size 15 to 20)
#    0.000    1.714    1.429    2.143    2.000    4.000 
#    0.000    3.571    0.000    0.000    0.000    0.000 
#    0.000    0.000    0.000    0.000    0.000    0.000 
#
# Total GULP energy -347156.782504 kJ/mol
# GULP energy per Si atom -12398.456518 kJ/mol
# Density = 2.094950 g / cm^3
# Si number density = 20.997290 Si / 1000 Ang^3
#
#
#
# Elastic Constant Matrix: (Units=GPa)
#
#
# Indices 1 2 3 4 5 6 
#
# 1 69.5980 28.8341 32.8398 0.0000 -2.3756 0.0000
# 2 28.8341 104.1593 32.7795 0.0000 -11.1216 0.0000
# 3 32.8398 32.7795 131.2834 0.0000 8.5603 0.0000
# 4 0.0000 0.0000 0.0000 18.9256 0.0000 6.5347
# 5 -2.3756 -11.1216 8.5603 0.0000 28.2180 0.0000
# 6 0.0000 0.0000 0.0000 6.5347 0.0000 25.6835
#
#
#
# Elastic Compliance Matrix: (Units=1/GPa)
#
#
# Indices 1 2 3 4 5 6 
#
# 1 0.017593 -0.003626 -0.003570 0.000000 0.001135 0.000000
# 2 -0.003626 0.011906 -0.002399 0.000000 0.005115 0.000000
# 3 -0.003570 -0.002399 0.009376 0.000000 -0.004090 0.000000
# 4 0.000000 0.000000 0.000000 0.057927 0.000000 -0.014739
# 5 0.001135 0.005115 -0.004090 0.000000 0.038791 0.000000
# 6 0.000000 0.000000 0.000000 -0.014739 0.000000 0.042686
#
#
# Mechanical properties :
#
#
# Convention : Reuss Voigt Hill
#
# Bulk Modulus (GPa) = 50.79844 54.88306 52.84075
# Shear Modulus (GPa) = 24.50625 28.60456 26.55541
#
# Velocity S-wave (km/s) = 3.42001 3.69494 3.56013
# Velocity P-wave (km/s) = 6.31195 6.66321 6.48995
#
# Compressibility (1/GPa) = 0.01968564
#
# Stress axis : x y z
#
# Youngs Moduli (GPa) = 56.83943 83.99420 106.65777
#
# Poissons Ratio (x) = 0.30454 0.38073
# Poissons Ratio (y) = 0.20609 0.25589
# Poissons Ratio (z) = 0.20289 0.20152
#
# Static dielectric constant tensor:
#      x y z
#    x 3.758070 0.000000 0.010560 
#    y 0.000000 3.767680 0.000000 
#    z 0.010560 0.000000 4.007510 
# 
# 
# High freq. dielectric constant tensor:
#      x y z
#    x 1.815260 0.000000 0.004620 
#    y 0.000000 1.821690 0.000000 
#    z 0.004620 0.000000 1.834450 
# 
# From -- ./inp_files/171955.got.cif
#   From: 2010.06.25/outbox.cif.g09.slc.cpg/sg15_86_cif.got.tgz:171955.got - 2010.06.28 07:06:18.
