data_PCOD8141819
_publ_section_title
;
Structure prediction by ZEFSAII (Michael W. Deem and Ramdas Pophale) SiO2 
 PCOD8141819
Probable space group: C 2/C
;
_chemical_formula_sum "Si O2"
_cell_formula_units_Z 56
_cell_length_a 19.687060
_cell_length_b 16.001655
_cell_length_c 8.545899
_cell_angle_alpha 90.000000
_cell_angle_beta 87.057102
_cell_angle_gamma 90.000000
_cell_volume 2688.626017
_symmetry_space_group_name_H-M "C 2/C"
_symmetry_group_IT_number 15
_symmetry_cell_setting 'monoclinic'
loop_
_space_group_symop_operation_xyz
x,y,z
-x,y,1/2-z
-x,-y,-z
x,-y,1/2+z
1/2+x,1/2+y,z
1/2-x,1/2+y,1/2-z
1/2-x,1/2-y,-z
1/2+x,1/2-y,1/2+z
loop_
_atom_site_type_symbol
_atom_site_label
_atom_site_fract_x
_atom_site_fract_y
_atom_site_fract_z
Si Si1 0.644613 0.502265 0.066944
Si Si2 0.072811 0.717975 0.805535
Si Si3 0.431302 0.595043 0.166119
Si Si4 0.687219 0.807962 0.053025
Si Si5 0.239557 0.051513 0.791963
Si Si6 0.070129 0.446344 0.512687
Si Si7 0.148998 0.568097 0.306117
O O1 0.626854 0.568059 0.205327
O O2 0.695862 0.434029 0.138342
O O3 0.579422 0.457945 0.992818
O O4 0.686465 0.555573 0.939138
O O5 0.073030 0.808647 0.888468
O O6 0.123870 0.731915 0.652684
O O7 0.000000 0.695993 0.750000
O O8 0.081783 0.642186 0.925512
O O9 0.500000 0.573616 0.250000
O O10 0.708660 0.874221 0.183148
O O11 0.750000 0.750000 0.000000
O O12 0.660811 0.843768 0.890163
O O13 0.280811 0.963618 0.779791
O O14 0.131004 0.503893 0.446087
O O15 0.085338 0.427917 0.693596
O O16 0.000000 0.500000 0.500000
#
# Coordination Sequence:
#
# PCOD8141819 Si02
#       7
#     8   8   8   8   8   8   8
#     4  10  21  37  66  88 120 168 211 261 341 388
#     4  11  24  43  62  95 137 174 220 283 330 394
#     4  10  22  41  65  92 125 164 220 271 325 396
#     4  12  25  41  64  96 134 175 221 278 345 392
#     4  11  20  38  59  89 124 159 210 260 316 398
#     4  12  23  40  68  96 131 181 226 265 336 406
#     4  12  22  40  62  93 129 172 218 270 320 402
#
# _framework density 20.828482000000001
#
# number of rings (size 3 to 8) (size 9 to 14) (size 15 to 20)
#    0.000    0.857    4.286    3.429    2.000    1.143 
#    0.000    1.429    0.000    8.571    0.000    0.000 
#    0.000    0.000    0.000    0.000    0.000    0.000 
#
# Total GULP energy -346891.906911 kJ/mol
# GULP energy per Si atom -12388.996675 kJ/mol
# Density = 2.078108 g / cm^3
# Si number density = 20.828482 Si / 1000 Ang^3
#
#
#
# Elastic Constant Matrix: (Units=GPa)
#
#
# Indices 1 2 3 4 5 6 
#
# 1 94.5200 10.9181 33.4684 0.0000 17.0368 0.0000
# 2 10.9181 62.3266 25.6608 0.0000 12.8909 0.0000
# 3 33.4684 25.6608 91.4978 0.0000 24.7336 0.0000
# 4 0.0000 0.0000 0.0000 27.2700 0.0000 1.2827
# 5 17.0368 12.8909 24.7336 0.0000 40.5613 0.0000
# 6 0.0000 0.0000 0.0000 1.2827 0.0000 35.7940
#
#
#
# Elastic Compliance Matrix: (Units=1/GPa)
#
#
# Indices 1 2 3 4 5 6 
#
# 1 0.012439 -0.000029 -0.003750 0.000000 -0.002929 0.000000
# 2 -0.000029 0.018490 -0.004298 0.000000 -0.003243 0.000000
# 3 -0.003750 -0.004298 0.015220 0.000000 -0.006340 0.000000
# 4 0.000000 0.000000 0.000000 0.036732 0.000000 -0.001316
# 5 -0.002929 -0.003243 -0.006340 0.000000 0.030781 0.000000
# 6 0.000000 0.000000 0.000000 -0.001316 0.000000 0.027985
#
#
# Mechanical properties :
#
#
# Convention : Reuss Voigt Hill
#
# Bulk Modulus (GPa) = 33.34007 43.15990 38.24999
# Shear Modulus (GPa) = 29.79738 32.61154 31.20446
#
# Velocity S-wave (km/s) = 3.78644 3.96121 3.87481
# Velocity P-wave (km/s) = 5.92941 6.45663 6.19863
#
# Compressibility (1/GPa) = 0.02999394
#
# Stress axis : x y z
#
# Youngs Moduli (GPa) = 80.39316 54.08315 65.70229
#
# Poissons Ratio (x) = 0.00158 0.24639
# Poissons Ratio (y) = 0.00236 0.28240
# Poissons Ratio (z) = 0.30148 0.23246
#
# Static dielectric constant tensor:
#      x y z
#    x 3.643080 0.000000 0.083220 
#    y 0.000000 3.621120 0.000000 
#    z 0.083220 0.000000 3.871550 
# 
# 
# High freq. dielectric constant tensor:
#      x y z
#    x 1.832770 0.000000 0.002460 
#    y 0.000000 1.795110 0.000000 
#    z 0.002460 0.000000 1.818710 
# 
# From -- ./inp_files/55625.got.cif
#   From: 2010.06.25/outbox.cif.g09.slc.cpg/sg15_28_cif.got.tgz:55625.got - 2010.06.28 07:06:18.
