data_PCOD8141446
_publ_section_title
;
Structure prediction by ZEFSAII (Michael W. Deem and Ramdas Pophale) SiO2 
 PCOD8141446
Probable space group: C 2/C
;
_chemical_formula_sum "Si O2"
_cell_formula_units_Z 64
_cell_length_a 8.655129
_cell_length_b 21.832514
_cell_length_c 29.701264
_cell_angle_alpha 90.000000
_cell_angle_beta 144.992610
_cell_angle_gamma 90.000000
_cell_volume 3219.760091
_symmetry_space_group_name_H-M "C 2/C"
_symmetry_group_IT_number 15
_symmetry_cell_setting 'monoclinic'
loop_
_space_group_symop_operation_xyz
x,y,z
-x,y,1/2-z
-x,-y,-z
x,-y,1/2+z
1/2+x,1/2+y,z
1/2-x,1/2+y,1/2-z
1/2-x,1/2-y,-z
1/2+x,1/2-y,1/2+z
loop_
_atom_site_type_symbol
_atom_site_label
_atom_site_fract_x
_atom_site_fract_y
_atom_site_fract_z
Si Si1 0.127729 0.722554 0.515568
Si Si2 0.746969 0.913653 0.370966
Si Si3 0.636147 0.650284 0.417039
Si Si4 0.130860 0.828496 0.182415
Si Si5 0.283792 0.665647 0.960057
Si Si6 0.183439 0.972703 0.670901
Si Si7 0.693904 0.233636 0.692228
Si Si8 0.860283 0.058913 0.761988
O O1 0.250000 0.750000 0.500000
O O2 0.376605 0.709569 0.606462
O O3 0.925491 0.663778 0.461312
O O4 0.951800 0.772394 0.498766
O O5 0.724601 0.862640 0.325541
O O6 0.899837 0.884309 0.451056
O O7 0.454222 0.929224 0.319000
O O8 0.874349 0.977266 0.382914
O O9 0.689402 0.644456 0.482838
O O10 0.509994 0.584898 0.377347
O O11 0.422959 0.699936 0.347924
O O12 0.321832 0.782085 0.257396
O O13 0.009900 0.879604 0.186944
O O14 0.975453 0.681202 0.873855
O O15 0.500000 0.955154 0.750000
O O16 0.086083 0.001750 0.693692
O O17 0.000000 0.229835 0.750000
O O18 0.000000 0.039811 0.750000
#
# Coordination Sequence:
#
# PCOD8141446 Si02
#       8
#     8   8   8   8   8   8   8   8
#     4  11  23  39  58  92 133 160 193 254 322 370
#     4  10  21  38  64  90 115 162 210 264 302 358
#     4  11  24  40  60  88 132 168 195 252 319 383
#     4  11  20  36  64  88 119 158 208 249 310 369
#     4  11  22  38  60  89 127 157 203 254 313 374
#     4   9  21  43  64  87 121 166 211 253 309 367
#     4  11  21  35  62  96 118 157 208 255 306 369
#     4  10  21  36  65  91 113 149 212 272 295 349
#
# _framework density 19.877258000000001
#
# number of rings (size 3 to 8) (size 9 to 14) (size 15 to 20)
#    0.000    1.500    2.500    4.875    1.750    0.500 
#    0.000    6.250    0.000    0.000    0.000    0.000 
#    0.000    0.000    0.000    0.000    0.000    0.000 
#
# Total GULP energy -396430.305711 kJ/mol
# GULP energy per Si atom -12388.447053 kJ/mol
# Density = 1.983202 g / cm^3
# Si number density = 19.877258 Si / 1000 Ang^3
#
#
#
# Elastic Constant Matrix: (Units=GPa)
#
#
# Indices 1 2 3 4 5 6 
#
# 1 125.1173 50.8114 42.9309 0.0089 -11.5495 0.0040
# 2 50.8114 124.9828 61.8552 0.0043 -15.6432 0.0027
# 3 42.9309 61.8552 109.6092 0.0151 -13.0737 0.0079
# 4 0.0089 0.0043 0.0151 38.6147 0.0078 0.2489
# 5 -11.5495 -15.6432 -13.0737 0.0078 26.8080 0.0037
# 6 0.0040 0.0027 0.0079 0.2489 0.0037 23.0036
#
#
#
# Elastic Compliance Matrix: (Units=1/GPa)
#
#
# Indices 1 2 3 4 5 6 
#
# 1 0.010019 -0.002807 -0.002145 -0.000001 0.001632 -0.000001
# 2 -0.002807 0.012232 -0.005411 0.000001 0.003289 0.000000
# 3 -0.002145 -0.005411 0.013304 -0.000005 0.002406 -0.000004
# 4 -0.000001 0.000001 -0.000005 0.025899 -0.000010 -0.000280
# 5 0.001632 0.003289 0.002406 -0.000010 0.041099 -0.000008
# 6 -0.000001 0.000000 -0.000004 -0.000280 -0.000008 0.043474
#
#
# Mechanical properties :
#
#
# Convention : Reuss Voigt Hill
#
# Bulk Modulus (GPa) = 67.43854 74.54491 70.99172
# Shear Modulus (GPa) = 29.12099 31.29271 30.20685
#
# Velocity S-wave (km/s) = 3.83174 3.97205 3.90252
# Velocity P-wave (km/s) = 7.31966 7.65638 7.48991
#
# Compressibility (1/GPa) = 0.01482832
#
# Stress axis : x y z
#
# Youngs Moduli (GPa) = 99.80660 81.75245 75.16421
#
# Poissons Ratio (x) = 0.22950 0.16126
# Poissons Ratio (y) = 0.28018 0.40671
# Poissons Ratio (z) = 0.21413 0.44236
#
# Static dielectric constant tensor:
#      x y z
#    x 3.746830 0.000180 -0.110380 
#    y 0.000180 3.118010 0.000010 
#    z -0.110380 0.000010 3.760760 
# 
# 
# High freq. dielectric constant tensor:
#      x y z
#    x 1.779330 0.000000 -0.004870 
#    y 0.000000 1.766370 0.000000 
#    z -0.004870 0.000000 1.772230 
# 
# From -- ./inp_files/309122.got.cif
#   From: 2010.06.25/outbox.cif.g09.slc.cpg/sg15_155_cif.got.tgz:309122.got - 2010.06.28 07:06:18.
