data_PCOD8141284
_publ_section_title
;
Structure prediction by ZEFSAII (Michael W. Deem and Ramdas Pophale) SiO2 
 PCOD8141284
Probable space group: C 2/C
;
_chemical_formula_sum "Si O2"
_cell_formula_units_Z 48
_cell_length_a 10.887662
_cell_length_b 10.340063
_cell_length_c 21.840572
_cell_angle_alpha 90.000000
_cell_angle_beta 87.961180
_cell_angle_gamma 90.000000
_cell_volume 2457.235646
_symmetry_space_group_name_H-M "C 2/C"
_symmetry_group_IT_number 15
_symmetry_cell_setting 'monoclinic'
loop_
_space_group_symop_operation_xyz
x,y,z
-x,y,1/2-z
-x,-y,-z
x,-y,1/2+z
1/2+x,1/2+y,z
1/2-x,1/2+y,1/2-z
1/2-x,1/2-y,-z
1/2+x,1/2-y,1/2+z
loop_
_atom_site_type_symbol
_atom_site_label
_atom_site_fract_x
_atom_site_fract_y
_atom_site_fract_z
Si Si1 0.853469 0.620642 0.025171
Si Si2 0.636542 0.030315 0.224686
Si Si3 0.450371 0.005506 0.901567
Si Si4 0.805359 0.752054 0.756051
Si Si5 0.082109 0.891925 0.531070
Si Si6 0.506633 0.271549 0.849863
O O1 0.719538 0.571338 0.050789
O O2 0.945683 0.592744 0.078767
O O3 0.870039 0.542054 0.961904
O O4 0.881710 0.771876 0.013684
O O5 0.500000 0.996951 0.250000
O O6 0.718771 0.903562 0.241811
O O7 0.635074 0.053417 0.150955
O O8 0.681787 0.161667 0.257099
O O9 0.522289 0.126573 0.872858
O O10 0.879730 0.788115 0.815475
O O11 0.877624 0.802258 0.694741
O O12 0.997388 0.862377 0.591004
O O13 0.000000 0.000000 0.500000
#
# Coordination Sequence:
#
# PCOD8141284 Si02
#       6
#     8   8   8   8   8   8
#     4   9  20  38  57  84 117 152 193 245 293 349
#     4  11  22  41  63  91 119 159 206 247 306 360
#     4   9  18  39  61  79 115 157 194 240 297 356
#     4  10  21  41  63  85 121 162 198 251 308 353
#     4  10  21  36  57  88 119 152 197 243 301 353
#     4   9  19  39  61  80 120 161 187 248 310 348
#
# _framework density 19.534146
#
# number of rings (size 3 to 8) (size 9 to 14) (size 15 to 20)
#    0.000    2.333    3.333    0.000    4.667    0.000 
#    9.000    2.500    0.000    0.000    0.000    0.000 
#    0.000    0.000    0.000    0.000    0.000    0.000 
#
# Total GULP energy -297334.414770 kJ/mol
# GULP energy per Si atom -12388.933949 kJ/mol
# Density = 1.948969 g / cm^3
# Si number density = 19.534146 Si / 1000 Ang^3
#
#
#
# Elastic Constant Matrix: (Units=GPa)
#
#
# Indices 1 2 3 4 5 6 
#
# 1 61.3906 52.9964 10.7435 0.0000 7.5633 0.0000
# 2 52.9964 93.3754 31.7375 0.0000 16.7366 0.0000
# 3 10.7435 31.7375 82.5007 0.0000 9.9939 0.0000
# 4 0.0000 0.0000 0.0000 27.6528 0.0000 10.8588
# 5 7.5633 16.7366 9.9939 0.0000 22.7422 0.0000
# 6 0.0000 0.0000 0.0000 10.8588 0.0000 32.7061
#
#
#
# Elastic Compliance Matrix: (Units=1/GPa)
#
#
# Indices 1 2 3 4 5 6 
#
# 1 0.032831 -0.020166 0.003176 0.000000 0.002526 0.000000
# 2 -0.020166 0.026002 -0.006201 0.000000 -0.009704 0.000000
# 3 0.003176 -0.006201 0.014437 0.000000 -0.002837 0.000000
# 4 0.000000 0.000000 0.000000 0.041584 0.000000 -0.013806
# 5 0.002526 -0.009704 -0.002837 0.000000 0.051519 0.000000
# 6 0.000000 0.000000 0.000000 -0.013806 0.000000 0.035159
#
#
# Mechanical properties :
#
#
# Convention : Reuss Voigt Hill
#
# Bulk Modulus (GPa) = 37.19173 47.58017 42.38595
# Shear Modulus (GPa) = 19.46468 26.07282 22.76875
#
# Velocity S-wave (km/s) = 3.16007 3.65736 3.41777
# Velocity P-wave (km/s) = 5.69170 6.49964 6.10904
#
# Compressibility (1/GPa) = 0.02688770
#
# Stress axis : x y z
#
# Youngs Moduli (GPa) = 30.45948 38.45868 69.26791
#
# Poissons Ratio (x) = 0.77555 -0.22002
# Poissons Ratio (y) = 0.61424 0.42955
# Poissons Ratio (z) = -0.09675 0.23849
#
# Static dielectric constant tensor:
#      x y z
#    x 3.366490 0.000000 0.121800 
#    y 0.000000 3.401320 0.000000 
#    z 0.121800 0.000000 4.249210 
# 
# 
# High freq. dielectric constant tensor:
#      x y z
#    x 1.741220 0.000000 0.001880 
#    y 0.000000 1.745490 0.000000 
#    z 0.001880 0.000000 1.776520 
# 
# From -- ./inp_files/236548.got.cif
#   From: 2010.06.25/outbox.cif.g09.slc.cpg/sg15_119_cif.got.tgz:236548.got - 2010.06.28 07:06:18.
