data_PCOD8141948
_publ_section_title
;
Structure prediction by ZEFSAII (Michael W. Deem and Ramdas Pophale) SiO2 
 PCOD8141948
Probable space group: C 2/C
;
_chemical_formula_sum "Si O2"
_cell_formula_units_Z 56
_cell_length_a 27.890695
_cell_length_b 11.755104
_cell_length_c 13.271604
_cell_angle_alpha 90.000000
_cell_angle_beta 139.280224
_cell_angle_gamma 90.000000
_cell_volume 2838.550189
_symmetry_space_group_name_H-M "C 2/C"
_symmetry_group_IT_number 15
_symmetry_cell_setting 'monoclinic'
loop_
_space_group_symop_operation_xyz
x,y,z
-x,y,1/2-z
-x,-y,-z
x,-y,1/2+z
1/2+x,1/2+y,z
1/2-x,1/2+y,1/2-z
1/2-x,1/2-y,-z
1/2+x,1/2-y,1/2+z
loop_
_atom_site_type_symbol
_atom_site_label
_atom_site_fract_x
_atom_site_fract_y
_atom_site_fract_z
Si Si1 0.466233 0.600575 0.593495
Si Si2 0.404261 0.336097 0.327272
Si Si3 0.925644 0.154388 0.079372
Si Si4 0.773863 0.836964 0.452234
Si Si5 0.766811 0.001884 0.611122
Si Si6 0.817417 0.801553 0.825684
Si Si7 0.683736 0.212505 0.462059
O O1 0.500000 0.654597 0.750000
O O2 0.528319 0.588659 0.607002
O O3 0.430043 0.480207 0.564304
O O4 0.404015 0.680484 0.442925
O O5 0.420291 0.281698 0.462774
O O6 0.337369 0.420802 0.239511
O O7 0.388968 0.236007 0.221006
O O8 0.000000 0.198713 0.250000
O O9 0.855979 0.182132 0.039486
O O10 0.750000 0.750000 0.500000
O O11 0.768634 0.958888 0.497877
O O12 0.713573 0.818479 0.267584
O O13 0.768169 0.902747 0.697903
O O14 0.693094 0.079277 0.507239
O O15 0.811511 0.797692 0.936207
O O16 0.750000 0.250000 0.500000
#
# Coordination Sequence:
#
# PCOD8141948 Si02
#       7
#     8   8   8   8   8   8   8
#     4  11  21  35  59  89 124 155 193 252 315 369
#     4  11  21  36  57  92 124 152 200 250 313 373
#     4  11  23  36  60  90 123 159 197 252 321 371
#     4  10  23  39  58  89 123 162 205 252 307 362
#     4  10  21  38  59  86 124 156 202 248 304 361
#     4  11  22  37  58  88 119 160 204 245 307 362
#     4  10  22  34  56  85 118 158 200 248 297 360
#
# _framework density 19.728382
#
# number of rings (size 3 to 8) (size 9 to 14) (size 15 to 20)
#    0.000    1.429    2.857    3.857    6.000    0.000 
#    0.000    0.000    0.000    0.857   14.857    0.000 
#    0.000    0.000    0.000    0.000    0.000    0.000 
#
# Total GULP energy -346918.523812 kJ/mol
# GULP energy per Si atom -12389.947279 kJ/mol
# Density = 1.968348 g / cm^3
# Si number density = 19.728382 Si / 1000 Ang^3
#
#
#
# Elastic Constant Matrix: (Units=GPa)
#
#
# Indices 1 2 3 4 5 6 
#
# 1 110.7907 25.0742 44.4885 0.0000 -9.6273 0.0000
# 2 25.0742 53.4966 52.4129 0.0000 -4.7293 0.0000
# 3 44.4885 52.4129 163.3857 0.0000 -11.3264 0.0000
# 4 0.0000 0.0000 0.0000 24.3145 0.0000 -2.8886
# 5 -9.6273 -4.7293 -11.3264 0.0000 34.7822 0.0000
# 6 0.0000 0.0000 0.0000 -2.8886 0.0000 24.2941
#
#
#
# Elastic Compliance Matrix: (Units=1/GPa)
#
#
# Indices 1 2 3 4 5 6 
#
# 1 0.010598 -0.003063 -0.001769 0.000000 0.001941 0.000000
# 2 -0.003063 0.028172 -0.008181 0.000000 0.000319 0.000000
# 3 -0.001769 -0.008181 0.009326 0.000000 0.001435 0.000000
# 4 0.000000 0.000000 0.000000 0.041717 0.000000 0.004960
# 5 0.001941 0.000319 0.001435 0.000000 0.029798 0.000000
# 6 0.000000 0.000000 0.000000 0.004960 0.000000 0.041752
#
#
# Mechanical properties :
#
#
# Convention : Reuss Voigt Hill
#
# Bulk Modulus (GPa) = 45.30942 63.51379 54.41160
# Shear Modulus (GPa) = 25.67443 30.39132 28.03288
#
# Velocity S-wave (km/s) = 3.61140 3.92916 3.77363
# Velocity P-wave (km/s) = 6.35658 7.26969 6.82842
#
# Compressibility (1/GPa) = 0.02207047
#
# Stress axis : x y z
#
# Youngs Moduli (GPa) = 94.35638 35.49600 107.22661
#
# Poissons Ratio (x) = 0.10872 0.18964
# Poissons Ratio (y) = 0.28901 0.87725
# Poissons Ratio (z) = 0.16688 0.29040
#
# Static dielectric constant tensor:
#      x y z
#    x 3.705070 0.000000 -0.155590 
#    y 0.000000 4.213650 0.000000 
#    z -0.155590 0.000000 4.810310 
# 
# 
# High freq. dielectric constant tensor:
#      x y z
#    x 1.766970 0.000000 -0.018010 
#    y 0.000000 1.723930 0.000000 
#    z -0.018010 0.000000 1.791270 
# 
# From -- ./inp_files/122693.got.cif
#   From: 2010.06.25/outbox.cif.g09.slc.cpg/sg15_62_cif.got.tgz:122693.got - 2010.06.28 07:06:18.
