data_PCOD8141251
_publ_section_title
;
Structure prediction by ZEFSAII (Michael W. Deem and Ramdas Pophale) SiO2 
 PCOD8141251
Probable space group: C 2/C
;
_chemical_formula_sum "Si O2"
_cell_formula_units_Z 56
_cell_length_a 21.755654
_cell_length_b 30.052562
_cell_length_c 9.431908
_cell_angle_alpha 90.000000
_cell_angle_beta 152.092909
_cell_angle_gamma 90.000000
_cell_volume 2886.259776
_symmetry_space_group_name_H-M "C 2/C"
_symmetry_group_IT_number 15
_symmetry_cell_setting 'monoclinic'
loop_
_space_group_symop_operation_xyz
x,y,z
-x,y,1/2-z
-x,-y,-z
x,-y,1/2+z
1/2+x,1/2+y,z
1/2-x,1/2+y,1/2-z
1/2-x,1/2-y,-z
1/2+x,1/2-y,1/2+z
loop_
_atom_site_type_symbol
_atom_site_label
_atom_site_fract_x
_atom_site_fract_y
_atom_site_fract_z
Si Si1 0.185133 0.446528 0.479724
Si Si2 0.500000 0.116171 0.750000
Si Si3 0.352252 0.632410 0.262065
Si Si4 0.000000 0.762544 0.750000
Si Si5 0.604119 0.672870 0.691445
Si Si6 0.150438 0.469396 0.091147
Si Si7 0.703807 0.187718 0.179934
Si Si8 0.154426 0.892993 0.062621
O O1 0.316982 0.416198 0.755376
O O2 0.169135 0.471295 0.297989
O O3 0.190059 0.482158 0.615174
O O4 0.060041 0.414163 0.247565
O O5 0.390501 0.148106 0.456954
O O6 0.507842 0.641625 0.589669
O O7 0.276736 0.672234 0.186260
O O8 0.309045 0.631718 0.009194
O O9 0.982949 0.792391 0.575351
O O10 0.871737 0.732644 0.513019
O O11 0.686238 0.641605 0.752638
O O12 0.698440 0.698619 0.991494
O O13 0.250651 0.434993 0.222503
O O14 0.000000 0.457005 0.750000
O O15 0.000000 0.907244 0.750000
#
# Coordination Sequence:
#
# PCOD8141251 Si02
#       8
#     8   4   8   4   8   8   8   8
#     4  10  21  36  56  82 120 154 189 246 299 337
#     4   9  20  38  54  82 124 148 188 244 294 343
#     4   9  19  40  58  82 116 156 189 242 291 347
#     4  11  22  40  60  88 122 148 188 254 294 349
#     4  11  20  40  63  81 115 160 195 232 300 359
#     4  11  22  34  58  86 117 154 205 248 296 347
#     4  10  22  35  63  88 113 150 198 238 293 352
#     4   9  20  40  60  81 119 161 195 246 298 347
#
# _framework density 19.402272
#
# number of rings (size 3 to 8) (size 9 to 14) (size 15 to 20)
#    0.000    2.000    2.857    1.286    2.000    1.714 
#    0.000    9.286    0.000    0.000    0.000    0.000 
#    0.000    0.000    0.000    0.000    0.000    0.000 
#
# Total GULP energy -347154.161031 kJ/mol
# GULP energy per Si atom -12398.362894 kJ/mol
# Density = 1.935811 g / cm^3
# Si number density = 19.402272 Si / 1000 Ang^3
#
#
#
# Elastic Constant Matrix: (Units=GPa)
#
#
# Indices 1 2 3 4 5 6 
#
# 1 105.5309 56.8692 43.8709 0.0000 3.7376 0.0000
# 2 56.8692 110.7371 51.1303 0.0000 1.1207 0.0000
# 3 43.8709 51.1303 102.6909 0.0000 -2.3877 0.0000
# 4 0.0000 0.0000 0.0000 20.5460 0.0000 6.6189
# 5 3.7376 1.1207 -2.3877 0.0000 19.6177 0.0000
# 6 0.0000 0.0000 0.0000 6.6189 0.0000 32.0625
#
#
#
# Elastic Compliance Matrix: (Units=1/GPa)
#
#
# Indices 1 2 3 4 5 6 
#
# 1 0.013955 -0.005658 -0.003208 0.000000 -0.002726 0.000000
# 2 -0.005658 0.014058 -0.004589 0.000000 -0.000284 0.000000
# 3 -0.003208 -0.004589 0.013452 0.000000 0.002511 0.000000
# 4 0.000000 0.000000 0.000000 0.052139 0.000000 -0.010763
# 5 -0.002726 -0.000284 0.002511 0.000000 0.051815 0.000000
# 6 0.000000 0.000000 0.000000 -0.010763 0.000000 0.033411
#
#
# Mechanical properties :
#
#
# Convention : Reuss Voigt Hill
#
# Bulk Modulus (GPa) = 68.70575 69.18886 68.94731
# Shear Modulus (GPa) = 23.74276 25.58448 24.66362
#
# Velocity S-wave (km/s) = 3.50195 3.63524 3.56922
# Velocity P-wave (km/s) = 7.19997 7.30463 7.25249
#
# Compressibility (1/GPa) = 0.01455482
#
# Stress axis : x y z
#
# Youngs Moduli (GPa) = 71.65892 71.13576 74.33990
#
# Poissons Ratio (x) = 0.40247 0.23849
# Poissons Ratio (y) = 0.40543 0.34114
# Poissons Ratio (z) = 0.22989 0.32643
#
# Static dielectric constant tensor:
#      x y z
#    x 3.745610 0.000000 0.198980 
#    y 0.000000 3.571800 0.000000 
#    z 0.198980 0.000000 3.410530 
# 
# 
# High freq. dielectric constant tensor:
#      x y z
#    x 1.767120 0.000000 0.006380 
#    y 0.000000 1.753260 0.000000 
#    z 0.006380 0.000000 1.739020 
# 
# From -- ./inp_files/59385.got.cif
#   From: 2010.06.25/outbox.cif.g09.slc.cpg/sg15_30_cif.got.tgz:59385.got - 2010.06.28 07:06:18.
