data_PCOD8141471
_publ_section_title
;
Structure prediction by ZEFSAII (Michael W. Deem and Ramdas Pophale) SiO2 
 PCOD8141471
Probable space group: C 2/C
;
_chemical_formula_sum "Si O2"
_cell_formula_units_Z 56
_cell_length_a 9.240615
_cell_length_b 10.679941
_cell_length_c 30.198949
_cell_angle_alpha 90.000000
_cell_angle_beta 59.723287
_cell_angle_gamma 90.000000
_cell_volume 2573.798018
_symmetry_space_group_name_H-M "C 2/C"
_symmetry_group_IT_number 15
_symmetry_cell_setting 'monoclinic'
loop_
_space_group_symop_operation_xyz
x,y,z
-x,y,1/2-z
-x,-y,-z
x,-y,1/2+z
1/2+x,1/2+y,z
1/2-x,1/2+y,1/2-z
1/2-x,1/2-y,-z
1/2+x,1/2-y,1/2+z
loop_
_atom_site_type_symbol
_atom_site_label
_atom_site_fract_x
_atom_site_fract_y
_atom_site_fract_z
Si Si1 0.623396 0.187863 0.875299
Si Si2 0.725941 0.722122 0.055411
Si Si3 0.304214 0.356555 0.780458
Si Si4 0.686448 0.636876 0.739458
Si Si5 0.520615 0.376205 0.024144
Si Si6 0.392762 0.913462 0.601366
Si Si7 0.200339 0.764789 0.067559
O O1 0.469934 0.283872 0.902934
O O2 0.685306 0.192000 0.815978
O O3 0.781191 0.218428 0.882815
O O4 0.550708 0.055238 0.901415
O O5 0.807259 0.598259 0.065564
O O6 0.750000 0.750000 0.000000
O O7 0.831849 0.830777 0.064436
O O8 0.500000 0.324699 0.750000
O O9 0.271681 0.488309 0.758109
O O10 0.207298 0.233062 0.777082
O O11 0.241322 0.374199 0.840340
O O12 0.500000 0.644358 0.750000
O O13 0.617365 0.272129 0.979614
O O14 0.500000 0.500000 0.000000
O O15 0.627518 0.389629 0.053464
O O16 0.566896 0.842109 0.578039
#
# Coordination Sequence:
#
# PCOD8141471 Si02
#       7
#     8   8   8   8   8   8   8
#     4  11  22  38  62  87 116 157 198 245 302 356
#     4  11  22  37  56  86 118 154 205 241 286 358
#     4  10  21  41  63  89 124 156 198 253 312 368
#     4  10  22  40  64  93 121 156 203 252 308 375
#     4  10  21  37  53  78 113 152 194 237 282 336
#     4  10  23  39  58  86 119 154 196 249 300 356
#     4  10  21  37  55  80 113 148 192 239 283 341
#
# _framework density 21.757728
#
# number of rings (size 3 to 8) (size 9 to 14) (size 15 to 20)
#    0.000    1.714    1.429    2.571    2.000    1.143 
#    0.000    4.286    0.000    0.000    0.000    0.000 
#    0.000    0.000    0.000    0.000    0.000    0.000 
#
# Total GULP energy -346868.498904 kJ/mol
# GULP energy per Si atom -12388.160675 kJ/mol
# Density = 2.170821 g / cm^3
# Si number density = 21.757728 Si / 1000 Ang^3
#
#
#
# Elastic Constant Matrix: (Units=GPa)
#
#
# Indices 1 2 3 4 5 6 
#
# 1 105.9992 26.9177 12.6082 0.0000 3.9011 0.0000
# 2 26.9177 64.0225 -0.4637 0.0000 11.8346 0.0000
# 3 12.6082 -0.4637 49.2027 0.0000 -2.8480 0.0000
# 4 0.0000 0.0000 0.0000 28.8551 0.0000 6.1594
# 5 3.9011 11.8346 -2.8480 0.0000 37.6712 0.0000
# 6 0.0000 0.0000 0.0000 6.1594 0.0000 31.6106
#
#
#
# Elastic Compliance Matrix: (Units=1/GPa)
#
#
# Indices 1 2 3 4 5 6 
#
# 1 0.010947 -0.004644 -0.002843 0.000000 0.000110 0.000000
# 2 -0.004644 0.018553 0.001060 0.000000 -0.005268 0.000000
# 3 -0.002843 0.001060 0.021153 0.000000 0.001561 0.000000
# 4 0.000000 0.000000 0.000000 0.036160 0.000000 -0.007046
# 5 0.000110 -0.005268 0.001561 0.000000 0.028307 0.000000
# 6 0.000000 0.000000 0.000000 -0.007046 0.000000 0.033008
#
#
# Mechanical properties :
#
#
# Convention : Reuss Voigt Hill
#
# Bulk Modulus (GPa) = 26.45462 33.03878 29.74670
# Shear Modulus (GPa) = 28.80494 31.63818 30.22156
#
# Velocity S-wave (km/s) = 3.64248 3.81742 3.73098
# Velocity P-wave (km/s) = 5.46584 5.88626 5.67994
#
# Compressibility (1/GPa) = 0.03780058
#
# Stress axis : x y z
#
# Youngs Moduli (GPa) = 91.34652 53.89872 47.27502
#
# Poissons Ratio (x) = 0.25029 0.13439
# Poissons Ratio (y) = 0.42418 -0.05011
# Poissons Ratio (z) = 0.25967 -0.05713
#
# Static dielectric constant tensor:
#      x y z
#    x 4.096020 0.000000 0.151870 
#    y 0.000000 3.929250 0.000000 
#    z 0.151870 0.000000 3.822570 
# 
# 
# High freq. dielectric constant tensor:
#      x y z
#    x 1.868710 0.000000 -0.007200 
#    y 0.000000 1.842770 0.000000 
#    z -0.007200 0.000000 1.848960 
# 
# From -- ./inp_files/288052.got.cif
#   From: 2010.06.25/outbox.cif.g09.slc.cpg/sg15_145_cif.got.tgz:288052.got - 2010.06.28 07:06:18.
