data_PCOD8141085
_publ_section_title
;
Structure prediction by ZEFSAII (Michael W. Deem and Ramdas Pophale) SiO2 
 PCOD8141085
Probable space group: C 2/C
;
_chemical_formula_sum "Si O2"
_cell_formula_units_Z 56
_cell_length_a 28.832044
_cell_length_b 11.938015
_cell_length_c 9.361748
_cell_angle_alpha 90.000000
_cell_angle_beta 59.197615
_cell_angle_gamma 90.000000
_cell_volume 2767.748409
_symmetry_space_group_name_H-M "C 2/C"
_symmetry_group_IT_number 15
_symmetry_cell_setting 'monoclinic'
loop_
_space_group_symop_operation_xyz
x,y,z
-x,y,1/2-z
-x,-y,-z
x,-y,1/2+z
1/2+x,1/2+y,z
1/2-x,1/2+y,1/2-z
1/2-x,1/2-y,-z
1/2+x,1/2-y,1/2+z
loop_
_atom_site_type_symbol
_atom_site_label
_atom_site_fract_x
_atom_site_fract_y
_atom_site_fract_z
Si Si1 0.865478 0.292145 0.775999
Si Si2 0.315757 0.785319 0.144058
Si Si3 0.017837 0.336572 0.870034
Si Si4 0.702095 0.628139 0.791455
Si Si5 0.160089 0.447937 0.159853
Si Si6 0.217812 0.912085 0.596964
Si Si7 0.045160 0.405811 0.286087
O O1 0.929389 0.276542 0.650178
O O2 0.840360 0.223088 0.685327
O O3 0.844433 0.419802 0.806893
O O4 0.851729 0.241508 0.955228
O O5 0.260337 0.824451 0.159430
O O6 0.343491 0.892000 0.177172
O O7 0.304060 0.693792 0.283040
O O8 0.034353 0.464573 0.824842
O O9 0.000000 0.280023 0.750000
O O10 0.965896 0.331932 0.054922
O O11 0.691182 0.519868 0.711299
O O12 0.697867 0.597072 0.965345
O O13 0.109238 0.398155 0.146319
O O14 0.216707 0.415923 0.995526
O O15 0.000000 0.357262 0.250000
#
# Coordination Sequence:
#
# PCOD8141085 Si02
#       7
#     8   8   8   8   8   8   8
#     4  11  22  36  61  85 116 160 198 244 299 353
#     4  11  23  36  57  82 117 157 203 240 289 357
#     4   9  18  33  51  80 115 145 187 239 290 349
#     4  11  23  38  57  83 116 156 205 242 293 355
#     4  10  21  35  56  85 118 161 191 236 302 349
#     4  11  24  40  56  83 122 161 198 248 285 353
#     4   9  18  32  51  79 114 149 191 234 284 352
#
# _framework density 20.233053999999999
#
# number of rings (size 3 to 8) (size 9 to 14) (size 15 to 20)
#    0.000    1.714    1.429    3.857    4.000    6.857 
#    0.000    0.000    0.000    0.000    0.000   10.000 
#    0.000    0.000    0.000    0.000    0.000    0.000 
#
# Total GULP energy -347003.986301 kJ/mol
# GULP energy per Si atom -12392.999511 kJ/mol
# Density = 2.018700 g / cm^3
# Si number density = 20.233054 Si / 1000 Ang^3
#
#
#
# Elastic Constant Matrix: (Units=GPa)
#
#
# Indices 1 2 3 4 5 6 
#
# 1 135.5347 43.6703 39.7765 0.0000 8.1541 0.0000
# 2 43.6703 72.7969 40.7076 0.0000 3.8468 0.0000
# 3 39.7765 40.7076 94.6580 0.0000 5.4747 0.0000
# 4 0.0000 0.0000 0.0000 26.8263 0.0000 10.6406
# 5 8.1541 3.8468 5.4747 0.0000 27.9001 0.0000
# 6 0.0000 0.0000 0.0000 10.6406 0.0000 26.9483
#
#
#
# Elastic Compliance Matrix: (Units=1/GPa)
#
#
# Indices 1 2 3 4 5 6 
#
# 1 0.009515 -0.004524 -0.001950 0.000000 -0.001774 0.000000
# 2 -0.004524 0.020263 -0.006805 0.000000 -0.000136 0.000000
# 3 -0.001950 -0.006805 0.014387 0.000000 -0.001315 0.000000
# 4 0.000000 0.000000 0.000000 0.044199 0.000000 -0.017452
# 5 -0.001774 -0.000136 -0.001315 0.000000 0.036638 0.000000
# 6 0.000000 0.000000 0.000000 -0.017452 0.000000 0.043999
#
#
# Mechanical properties :
#
#
# Convention : Reuss Voigt Hill
#
# Bulk Modulus (GPa) = 56.79836 61.25538 59.02687
# Shear Modulus (GPa) = 24.82278 28.25727 26.54003
#
# Velocity S-wave (km/s) = 3.50643 3.74115 3.62569
# Velocity P-wave (km/s) = 6.67281 7.00016 6.83845
#
# Compressibility (1/GPa) = 0.01760614
#
# Stress axis : x y z
#
# Youngs Moduli (GPa) = 105.09924 49.35045 69.50904
#
# Poissons Ratio (x) = 0.22324 0.13556
# Poissons Ratio (y) = 0.47542 0.47304
# Poissons Ratio (z) = 0.20497 0.33585
#
# Static dielectric constant tensor:
#      x y z
#    x 3.952950 0.000000 0.030200 
#    y 0.000000 3.445320 0.000000 
#    z 0.030200 0.000000 3.741860 
# 
# 
# High freq. dielectric constant tensor:
#      x y z
#    x 1.792030 0.000000 0.010630 
#    y 0.000000 1.747990 0.000000 
#    z 0.010630 0.000000 1.792540 
# 
# From -- ./inp_files/65435.got.cif
#   From: 2010.06.25/outbox.cif.g09.slc.cpg/sg15_33_cif.got.tgz:65435.got - 2010.06.28 07:06:18.
