data_PCOD8141249
_publ_section_title
;
Structure prediction by ZEFSAII (Michael W. Deem and Ramdas Pophale) SiO2 
 PCOD8141249
Probable space group: C 2/C
;
_chemical_formula_sum "Si O2"
_cell_formula_units_Z 64
_cell_length_a 20.238769
_cell_length_b 18.474422
_cell_length_c 10.967359
_cell_angle_alpha 90.000000
_cell_angle_beta 118.379520
_cell_angle_gamma 90.000000
_cell_volume 3607.863642
_symmetry_space_group_name_H-M "C 2/C"
_symmetry_group_IT_number 15
_symmetry_cell_setting 'monoclinic'
loop_
_space_group_symop_operation_xyz
x,y,z
-x,y,1/2-z
-x,-y,-z
x,-y,1/2+z
1/2+x,1/2+y,z
1/2-x,1/2+y,1/2-z
1/2-x,1/2-y,-z
1/2+x,1/2-y,1/2+z
loop_
_atom_site_type_symbol
_atom_site_label
_atom_site_fract_x
_atom_site_fract_y
_atom_site_fract_z
Si Si1 0.226849 0.788760 0.106730
Si Si2 0.710750 0.098230 0.304212
Si Si3 0.538512 0.796159 0.910250
Si Si4 0.900945 0.691631 0.456862
Si Si5 0.081979 0.570587 0.851027
Si Si6 0.132452 0.427241 0.982320
Si Si7 0.787655 0.433916 0.216537
Si Si8 0.201930 0.231503 0.081220
O O1 0.140786 0.766957 0.052363
O O2 0.232946 0.876802 0.099222
O O3 0.273573 0.768905 0.269591
O O4 0.250000 0.750000 0.000000
O O5 0.655922 0.135027 0.157264
O O6 0.659180 0.100338 0.376571
O O7 0.785929 0.145756 0.386901
O O8 0.741254 0.016773 0.307347
O O9 0.500000 0.776810 0.750000
O O10 0.476270 0.781922 0.957771
O O11 0.557886 0.880918 0.943464
O O12 0.613797 0.747683 0.986988
O O13 0.922703 0.651343 0.600623
O O14 0.116354 0.512747 0.976768
O O15 0.130041 0.569906 0.770635
O O16 0.000000 0.541031 0.750000
O O17 0.200102 0.408844 0.133824
O O18 0.250000 0.250000 0.000000
#
# Coordination Sequence:
#
# PCOD8141249 Si02
#       8
#     8   8   8   8   8   8   8   8
#     4  11  22  39  57  80 113 153 193 236 273 334
#     4  10  21  36  56  80 110 145 189 230 273 332
#     4  12  21  33  57  84 114 151 184 229 285 335
#     4  11  22  36  53  79 113 146 189 224 276 333
#     4  11  23  32  49  79 118 149 179 218 272 345
#     4  11  20  34  52  81 115 149 180 217 278 344
#     4  11  21  36  56  79 108 154 186 223 281 332
#     4  11  21  39  58  83 113 150 191 237 278 333
#
# _framework density 17.739028999999999
#
# number of rings (size 3 to 8) (size 9 to 14) (size 15 to 20)
#    0.000    1.000    6.250    1.875    1.750    1.000 
#    0.000    0.000    0.000    0.750    0.000    0.875 
#    0.000    0.000    0.000    0.000    0.000    0.000 
#
# Total GULP energy -396443.741862 kJ/mol
# GULP energy per Si atom -12388.866933 kJ/mol
# Density = 1.769865 g / cm^3
# Si number density = 17.739029 Si / 1000 Ang^3
#
#
#
# Elastic Constant Matrix: (Units=GPa)
#
#
# Indices 1 2 3 4 5 6 
#
# 1 79.4365 43.8665 20.7775 0.0000 10.1045 0.0000
# 2 43.8665 103.9908 27.5683 0.0000 14.2646 0.0000
# 3 20.7775 27.5683 73.6970 0.0000 -1.5357 0.0000
# 4 0.0000 0.0000 0.0000 27.1546 0.0000 -5.5647
# 5 10.1045 14.2646 -1.5357 0.0000 27.9023 0.0000
# 6 0.0000 0.0000 0.0000 -5.5647 0.0000 86.5728
#
#
#
# Elastic Compliance Matrix: (Units=1/GPa)
#
#
# Indices 1 2 3 4 5 6 
#
# 1 0.017018 -0.006048 -0.002603 0.000000 -0.003214 0.000000
# 2 -0.006048 0.013807 -0.003565 0.000000 -0.005065 0.000000
# 3 -0.002603 -0.003565 0.015712 0.000000 0.003630 0.000000
# 4 0.000000 0.000000 0.000000 0.037318 0.000000 0.002399
# 5 -0.003214 -0.005065 0.003630 0.000000 0.039793 0.000000
# 6 0.000000 0.000000 0.000000 0.002399 0.000000 0.011705
#
#
# Mechanical properties :
#
#
# Convention : Reuss Voigt Hill
#
# Bulk Modulus (GPa) = 45.23688 49.06100 47.14894
# Shear Modulus (GPa) = 29.91264 39.32006 34.61635
#
# Velocity S-wave (km/s) = 4.11087 4.71317 4.42228
# Velocity P-wave (km/s) = 6.93462 7.57204 7.26033
#
# Compressibility (1/GPa) = 0.02210586
#
# Stress axis : x y z
#
# Youngs Moduli (GPa) = 58.76124 72.42507 63.64477
#
# Poissons Ratio (x) = 0.43802 0.16564
# Poissons Ratio (y) = 0.35538 0.22692
# Poissons Ratio (z) = 0.15293 0.25823
#
# Static dielectric constant tensor:
#      x y z
#    x 3.248690 0.000000 -0.145030 
#    y 0.000000 3.544650 0.000000 
#    z -0.145030 0.000000 3.377010 
# 
# 
# High freq. dielectric constant tensor:
#      x y z
#    x 1.671190 0.000000 -0.022300 
#    y 0.000000 1.681280 0.000000 
#    z -0.022300 0.000000 1.689790 
# 
# From -- ./inp_files/107331.got.cif
#   From: 2010.06.25/outbox.cif.g09.slc.cpg/sg15_54_cif.got.tgz:107331.got - 2010.06.28 07:06:18.
