data_PCOD8141627
_publ_section_title
;
Structure prediction by ZEFSAII (Michael W. Deem and Ramdas Pophale) SiO2 
 PCOD8141627
Probable space group: C 2/C
;
_chemical_formula_sum "Si O2"
_cell_formula_units_Z 44
_cell_length_a 12.494707
_cell_length_b 20.180104
_cell_length_c 8.728090
_cell_angle_alpha 90.000000
_cell_angle_beta 58.790439
_cell_angle_gamma 90.000000
_cell_volume 1882.243882
_symmetry_space_group_name_H-M "C 2/C"
_symmetry_group_IT_number 15
_symmetry_cell_setting 'monoclinic'
loop_
_space_group_symop_operation_xyz
x,y,z
-x,y,1/2-z
-x,-y,-z
x,-y,1/2+z
1/2+x,1/2+y,z
1/2-x,1/2+y,1/2-z
1/2-x,1/2-y,-z
1/2+x,1/2-y,1/2+z
loop_
_atom_site_type_symbol
_atom_site_label
_atom_site_fract_x
_atom_site_fract_y
_atom_site_fract_z
Si Si1 0.867475 0.094941 0.505588
Si Si2 0.383419 0.827223 0.245648
Si Si3 0.374697 0.793609 0.905875
Si Si4 0.703715 0.497142 0.187850
Si Si5 0.500000 0.701721 0.250000
Si Si6 0.861260 0.432803 0.816592
O O1 0.733314 0.129602 0.618671
O O2 0.875388 0.053532 0.340717
O O3 0.967867 0.154637 0.420055
O O4 0.889440 0.046254 0.634011
O O5 0.500000 0.860696 0.250000
O O6 0.380699 0.748509 0.296085
O O7 0.401338 0.827760 0.049771
O O8 0.500000 0.754678 0.750000
O O9 0.357088 0.853421 0.797596
O O10 0.250000 0.750000 0.000000
O O11 0.814980 0.530922 0.199479
O O12 0.765623 0.447697 0.023511
O O13 0.000000 0.459036 0.750000
#
# Coordination Sequence:
#
# PCOD8141627 Si02
#       6
#     8   8   8   8   4   8
#     4  11  23  45  65 100 130 174 235 271 359 404
#     4  10  25  42  70  99 133 181 225 287 342 413
#     4  11  26  42  67 100 141 179 228 287 348 412
#     4  10  23  38  65  90 132 171 212 290 324 425
#     4  10  26  40  74  88 132 180 228 284 334 418
#     4  10  21  37  60  91 127 165 215 264 341 392
#
# _framework density 23.376353999999999
#
# number of rings (size 3 to 8) (size 9 to 14) (size 15 to 20)
#    0.545    1.091    1.818    1.091   10.182    3.636 
#    0.000    0.000    8.000    0.000    0.000    0.000 
#    0.000    0.000    0.000    0.000    0.000    0.000 
#
# Total GULP energy -272613.436879 kJ/mol
# GULP energy per Si atom -12391.519858 kJ/mol
# Density = 2.332315 g / cm^3
# Si number density = 23.376354 Si / 1000 Ang^3
#
#
#
# Elastic Constant Matrix: (Units=GPa)
#
#
# Indices 1 2 3 4 5 6 
#
# 1 59.5029 17.8147 20.8708 0.0000 -4.9253 0.0000
# 2 17.8147 102.4199 33.6209 0.0000 -8.1010 0.0000
# 3 20.8708 33.6209 72.4384 0.0000 3.9628 0.0000
# 4 0.0000 0.0000 0.0000 32.2119 0.0000 -3.2629
# 5 -4.9253 -8.1010 3.9628 0.0000 31.5119 0.0000
# 6 0.0000 0.0000 0.0000 -3.2629 0.0000 13.4447
#
#
#
# Elastic Compliance Matrix: (Units=1/GPa)
#
#
# Indices 1 2 3 4 5 6 
#
# 1 0.019285 -0.001429 -0.005073 0.000000 0.003285 0.000000
# 2 -0.001429 0.012059 -0.005380 0.000000 0.003553 0.000000
# 3 -0.005073 -0.005380 0.018006 0.000000 -0.004440 0.000000
# 4 0.000000 0.000000 0.000000 0.031827 0.000000 0.007724
# 5 0.003285 0.003553 -0.004440 0.000000 0.033719 0.000000
# 6 0.000000 0.000000 0.000000 0.007724 0.000000 0.076253
#
#
# Mechanical properties :
#
#
# Convention : Reuss Voigt Hill
#
# Bulk Modulus (GPa) = 39.08225 42.10824 40.59525
# Shear Modulus (GPa) = 22.37713 26.23735 24.30724
#
# Velocity S-wave (km/s) = 3.09731 3.35384 3.22812
# Velocity P-wave (km/s) = 5.43563 5.74891 5.59446
#
# Compressibility (1/GPa) = 0.02558706
#
# Stress axis : x y z
#
# Youngs Moduli (GPa) = 51.85385 82.92301 55.53665
#
# Poissons Ratio (x) = 0.11853 0.28172
# Poissons Ratio (y) = 0.07412 0.29877
# Poissons Ratio (z) = 0.26303 0.44610
#
# Static dielectric constant tensor:
#      x y z
#    x 4.055720 0.000000 0.056970 
#    y 0.000000 4.343010 0.000000 
#    z 0.056970 0.000000 4.295080 
# 
# 
# High freq. dielectric constant tensor:
#      x y z
#    x 1.899900 0.000000 -0.005000 
#    y 0.000000 1.931810 0.000000 
#    z -0.005000 0.000000 1.933870 
# 
# From -- ./inp_files/40612.got.cif
#   From: 2010.06.25/outbox.cif.g09.slc.cpg/sg15_21_cif.got.tgz:40612.got - 2010.06.28 07:06:18.
