data_PCOD8141619
_publ_section_title
;
Structure prediction by ZEFSAII (Michael W. Deem and Ramdas Pophale) SiO2 
 PCOD8141619
Probable space group: C 2/C
;
_chemical_formula_sum "Si O2"
_cell_formula_units_Z 52
_cell_length_a 13.103795
_cell_length_b 10.276776
_cell_length_c 28.474325
_cell_angle_alpha 90.000000
_cell_angle_beta 40.087077
_cell_angle_gamma 90.000000
_cell_volume 2469.222914
_symmetry_space_group_name_H-M "C 2/C"
_symmetry_group_IT_number 15
_symmetry_cell_setting 'monoclinic'
loop_
_space_group_symop_operation_xyz
x,y,z
-x,y,1/2-z
-x,-y,-z
x,-y,1/2+z
1/2+x,1/2+y,z
1/2-x,1/2+y,1/2-z
1/2-x,1/2-y,-z
1/2+x,1/2-y,1/2+z
loop_
_atom_site_type_symbol
_atom_site_label
_atom_site_fract_x
_atom_site_fract_y
_atom_site_fract_z
Si Si1 0.571763 0.124966 0.272900
Si Si2 0.121746 0.019696 0.374045
Si Si3 0.453761 0.900966 0.154234
Si Si4 0.500000 0.388894 0.750000
Si Si5 0.587076 0.401988 0.294608
Si Si6 0.278527 0.792819 0.376053
Si Si7 0.408970 0.244177 0.973200
O O1 0.500000 0.066565 0.250000
O O2 0.760313 0.108349 0.199277
O O3 0.507144 0.271016 0.302874
O O4 0.512956 0.048400 0.340248
O O5 0.032194 0.927375 0.367679
O O6 0.999214 0.116936 0.441637
O O7 0.212502 0.929723 0.379809
O O8 0.567026 0.809886 0.145485
O O9 0.487489 0.872997 0.086686
O O10 0.272939 0.869405 0.228760
O O11 0.467197 0.476374 0.716572
O O12 0.659443 0.302319 0.686856
O O13 0.139095 0.721448 0.455375
O O14 0.250000 0.250000 0.000000
#
# Coordination Sequence:
#
# PCOD8141619 Si02
#       7
#     8   8   8   4   8   8   8
#     4  11  20  37  60  91 123 162 208 264 312 369
#     4  11  22  38  63  91 121 163 214 253 318 375
#     4  10  21  37  60  90 118 162 206 255 312 374
#     4  12  24  40  60  96 120 164 212 264 320 372
#     4  11  23  35  62  87 127 154 205 268 312 371
#     4  11  23  39  64  88 123 162 215 258 314 384
#     4  10  21  40  62  88 127 166 210 260 316 376
#
# _framework density 21.059256999999999
#
# number of rings (size 3 to 8) (size 9 to 14) (size 15 to 20)
#    0.000    1.231    3.846    4.154    6.462    0.000 
#    0.000    0.769    0.000    4.615    0.000    0.000 
#    0.000    0.000    0.000    0.000    0.000    0.000 
#
# Total GULP energy -322168.668434 kJ/mol
# GULP energy per Si atom -12391.102632 kJ/mol
# Density = 2.101133 g / cm^3
# Si number density = 21.059257 Si / 1000 Ang^3
#
#
#
# Elastic Constant Matrix: (Units=GPa)
#
#
# Indices 1 2 3 4 5 6 
#
# 1 59.6157 19.8654 14.9116 0.0000 4.1722 0.0000
# 2 19.8654 118.9513 55.9077 0.0000 9.2905 0.0000
# 3 14.9116 55.9077 120.3107 0.0000 19.7224 0.0000
# 4 0.0000 0.0000 0.0000 21.7072 0.0000 9.0743
# 5 4.1722 9.2905 19.7224 0.0000 23.6136 0.0000
# 6 0.0000 0.0000 0.0000 9.0743 0.0000 29.7412
#
#
#
# Elastic Compliance Matrix: (Units=1/GPa)
#
#
# Indices 1 2 3 4 5 6 
#
# 1 0.017913 -0.002490 -0.000817 0.000000 -0.001503 0.000000
# 2 -0.002490 0.011102 -0.004874 0.000000 0.000143 0.000000
# 3 -0.000817 -0.004874 0.011980 0.000000 -0.007944 0.000000
# 4 0.000000 0.000000 0.000000 0.052802 0.000000 -0.016110
# 5 -0.001503 0.000143 -0.007944 0.000000 0.049193 0.000000
# 6 0.000000 0.000000 0.000000 -0.016110 0.000000 0.038539
#
#
# Mechanical properties :
#
#
# Convention : Reuss Voigt Hill
#
# Bulk Modulus (GPa) = 40.59398 53.36078 46.97738
# Shear Modulus (GPa) = 24.25968 28.89194 26.57581
#
# Velocity S-wave (km/s) = 3.39775 3.70798 3.55625
# Velocity P-wave (km/s) = 5.89160 6.61253 6.26245
#
# Compressibility (1/GPa) = 0.02463419
#
# Stress axis : x y z
#
# Youngs Moduli (GPa) = 55.82407 90.07111 83.47126
#
# Poissons Ratio (x) = 0.22432 0.06815
# Poissons Ratio (y) = 0.13903 0.40683
# Poissons Ratio (z) = 0.04558 0.43900
#
# Static dielectric constant tensor:
#      x y z
#    x 3.748290 0.000000 0.177140 
#    y 0.000000 3.859730 0.000000 
#    z 0.177140 0.000000 4.167360 
# 
# 
# High freq. dielectric constant tensor:
#      x y z
#    x 1.818080 0.000000 0.009580 
#    y 0.000000 1.818840 0.000000 
#    z 0.009580 0.000000 1.812000 
# 
# From -- ./inp_files/313082.got.cif
#   From: 2010.06.25/outbox.cif.g09.slc.cpg/sg15_157_cif.got.tgz:313082.got - 2010.06.28 07:06:18.
