data_PCOD8141007
_publ_section_title
;
Structure prediction by ZEFSAII (Michael W. Deem and Ramdas Pophale) SiO2 
 PCOD8141007
Probable space group: C 2/C
;
_chemical_formula_sum "Si O2"
_cell_formula_units_Z 64
_cell_length_a 16.423639
_cell_length_b 22.805787
_cell_length_c 9.310376
_cell_angle_alpha 90.000000
_cell_angle_beta 60.114698
_cell_angle_gamma 90.000000
_cell_volume 3023.521720
_symmetry_space_group_name_H-M "C 2/C"
_symmetry_group_IT_number 15
_symmetry_cell_setting 'monoclinic'
loop_
_space_group_symop_operation_xyz
x,y,z
-x,y,1/2-z
-x,-y,-z
x,-y,1/2+z
1/2+x,1/2+y,z
1/2-x,1/2+y,1/2-z
1/2-x,1/2-y,-z
1/2+x,1/2-y,1/2+z
loop_
_atom_site_type_symbol
_atom_site_label
_atom_site_fract_x
_atom_site_fract_y
_atom_site_fract_z
Si Si1 0.009130 0.186899 0.903686
Si Si2 0.519147 0.908667 0.963491
Si Si3 0.335542 0.714605 0.237719
Si Si4 0.263560 0.943433 0.388369
Si Si5 0.890289 0.337479 0.289484
Si Si6 0.405402 0.373004 0.911340
Si Si7 0.616631 0.799916 0.889952
Si Si8 0.640556 0.015805 0.968908
O O1 0.000000 0.162889 0.750000
O O2 0.061223 0.249194 0.857703
O O3 0.903583 0.188053 0.057828
O O4 0.074099 0.145255 0.943096
O O5 0.468497 0.879187 0.147045
O O6 0.438927 0.934779 0.928440
O O7 0.584340 0.859052 0.833262
O O8 0.588357 0.959452 0.953067
O O9 0.354851 0.784281 0.221953
O O10 0.355991 0.681942 0.371594
O O11 0.228355 0.706241 0.284089
O O12 0.305781 0.881121 0.401108
O O13 0.155058 0.932845 0.523801
O O14 0.305673 0.999233 0.434239
O O15 0.281708 0.957387 0.206254
O O16 0.921633 0.305730 0.411413
O O17 0.500000 0.391946 0.750000
#
# Coordination Sequence:
#
# PCOD8141007 Si02
#       8
#     8   8   8   8   8   8   8   8
#     4  11  25  40  57  96 143 169 207 272 338 402
#     4  10  21  34  57  92 129 175 210 270 323 376
#     4  11  21  37  67 100 126 175 233 266 305 402
#     4  11  22  42  63  93 123 166 217 287 325 383
#     4  11  19  33  65  94 124 167 229 263 309 375
#     4  10  21  41  70  93 122 169 228 274 323 390
#     4  12  20  36  63  93 131 177 224 262 311 390
#     4  10  23  38  60  88 129 164 223 275 327 379
#
# _framework density 21.167366999999999
#
# number of rings (size 3 to 8) (size 9 to 14) (size 15 to 20)
#    0.000    1.250    5.000    1.500    1.750    2.000 
#    2.250    4.375    0.000    0.000    0.000    0.000 
#    0.000    0.000    0.000    0.000    0.000    0.000 
#
# Total GULP energy -396563.433228 kJ/mol
# GULP energy per Si atom -12392.607288 kJ/mol
# Density = 2.111919 g / cm^3
# Si number density = 21.167367 Si / 1000 Ang^3
#
#
#
# Elastic Constant Matrix: (Units=GPa)
#
#
# Indices 1 2 3 4 5 6 
#
# 1 105.4871 46.4316 36.1447 0.0000 -13.0803 0.0000
# 2 46.4316 77.7125 28.4067 0.0000 -11.1053 0.0000
# 3 36.1447 28.4067 71.7583 0.0000 4.7895 0.0000
# 4 0.0000 0.0000 0.0000 26.5191 0.0000 -10.2620
# 5 -13.0803 -11.1053 4.7895 0.0000 37.0227 0.0000
# 6 0.0000 0.0000 0.0000 -10.2620 0.0000 35.5638
#
#
#
# Elastic Compliance Matrix: (Units=1/GPa)
#
#
# Indices 1 2 3 4 5 6 
#
# 1 0.014436 -0.006215 -0.005071 0.000000 0.003892 0.000000
# 2 -0.006215 0.018841 -0.004598 0.000000 0.004051 0.000000
# 3 -0.005071 -0.004598 0.018683 0.000000 -0.005588 0.000000
# 4 0.000000 0.000000 0.000000 0.042449 0.000000 0.012249
# 5 0.003892 0.004051 -0.005588 0.000000 0.030323 0.000000
# 6 0.000000 0.000000 0.000000 0.012249 0.000000 0.031653
#
#
# Mechanical properties :
#
#
# Convention : Reuss Voigt Hill
#
# Bulk Modulus (GPa) = 49.52599 52.99154 51.25877
# Shear Modulus (GPa) = 25.65642 29.41944 27.53793
#
# Velocity S-wave (km/s) = 3.48526 3.73211 3.61080
# Velocity P-wave (km/s) = 6.29636 6.60760 6.45386
#
# Compressibility (1/GPa) = 0.02019142
#
# Stress axis : x y z
#
# Youngs Moduli (GPa) = 69.27336 53.07535 53.52480
#
# Poissons Ratio (x) = 0.32988 0.27140
# Poissons Ratio (y) = 0.43056 0.24612
# Poissons Ratio (z) = 0.35125 0.24405
#
# Static dielectric constant tensor:
#      x y z
#    x 3.963570 0.000000 -0.196800 
#    y 0.000000 3.974740 0.000000 
#    z -0.196800 0.000000 3.634750 
# 
# 
# High freq. dielectric constant tensor:
#      x y z
#    x 1.828290 0.000000 -0.018840 
#    y 0.000000 1.820760 0.000000 
#    z -0.018840 0.000000 1.811970 
# 
# From -- ./inp_files/43519.got.cif
#   From: 2010.06.25/outbox.cif.g09.slc.cpg/sg15_22_cif.got.tgz:43519.got - 2010.06.28 07:06:18.
