data_PCOD8141287
_publ_section_title
;
Structure prediction by ZEFSAII (Michael W. Deem and Ramdas Pophale) SiO2 
 PCOD8141287
Probable space group: C 2/C
;
_chemical_formula_sum "Si O2"
_cell_formula_units_Z 56
_cell_length_a 8.536748
_cell_length_b 21.168961
_cell_length_c 16.465381
_cell_angle_alpha 90.000000
_cell_angle_beta 60.968148
_cell_angle_gamma 90.000000
_cell_volume 2601.651559
_symmetry_space_group_name_H-M "C 2/C"
_symmetry_group_IT_number 15
_symmetry_cell_setting 'monoclinic'
loop_
_space_group_symop_operation_xyz
x,y,z
-x,y,1/2-z
-x,-y,-z
x,-y,1/2+z
1/2+x,1/2+y,z
1/2-x,1/2+y,1/2-z
1/2-x,1/2-y,-z
1/2+x,1/2-y,1/2+z
loop_
_atom_site_type_symbol
_atom_site_label
_atom_site_fract_x
_atom_site_fract_y
_atom_site_fract_z
Si Si1 0.611258 0.115219 0.300252
Si Si2 0.110158 0.987397 0.798067
Si Si3 0.394971 0.395687 0.951630
Si Si4 0.604935 0.288692 0.805522
Si Si5 0.504200 0.076164 0.493546
Si Si6 0.244918 0.603385 0.654694
Si Si7 0.116638 0.650672 0.837205
O O1 0.500000 0.096125 0.250000
O O2 0.779708 0.069178 0.271365
O O3 0.696018 0.185529 0.268033
O O4 0.476565 0.103824 0.409760
O O5 0.000000 0.018182 0.750000
O O6 0.979313 0.961537 0.901327
O O7 0.247652 0.033242 0.808978
O O8 0.501078 0.337915 0.887026
O O9 0.190737 0.394260 0.975189
O O10 0.402228 0.388809 0.048200
O O11 0.500000 0.272727 0.750000
O O12 0.605577 0.224987 0.859641
O O13 0.350711 0.108716 0.589384
O O14 0.500000 0.000000 0.500000
O O15 0.272513 0.646648 0.728573
O O16 0.056880 0.618112 0.659838
#
# Coordination Sequence:
#
# PCOD8141287 Si02
#       7
#     8   8   8   8   8   8   8
#     4  11  24  40  65  92 122 171 207 259 314 371
#     4  11  21  39  61  91 127 162 204 254 314 381
#     4  10  21  37  61  92 120 165 204 255 310 369
#     4  11  20  44  65  88 123 159 223 253 305 378
#     4  11  22  38  61  94 131 163 205 256 323 373
#     4  10  21  36  57  92 122 156 203 252 310 358
#     4  10  23  38  64  92 119 166 206 259 304 364
#
# _framework density 21.524788999999998
#
# number of rings (size 3 to 8) (size 9 to 14) (size 15 to 20)
#    0.000    1.429    4.286    2.143    6.000    3.429 
#    0.000    1.429    0.000    0.000    0.000    0.000 
#    0.000    0.000    0.000    0.000    0.000    0.000 
#
# Total GULP energy -346905.545472 kJ/mol
# GULP energy per Si atom -12389.483767 kJ/mol
# Density = 2.147580 g / cm^3
# Si number density = 21.524789 Si / 1000 Ang^3
#
#
#
# Elastic Constant Matrix: (Units=GPa)
#
#
# Indices 1 2 3 4 5 6 
#
# 1 44.0401 20.4942 20.0272 0.0000 12.5375 0.0000
# 2 20.4942 134.3458 53.4329 0.0000 15.2514 0.0000
# 3 20.0272 53.4329 179.2505 0.0000 27.9418 0.0000
# 4 0.0000 0.0000 0.0000 32.1964 0.0000 3.9851
# 5 12.5375 15.2514 27.9418 0.0000 22.3831 0.0000
# 6 0.0000 0.0000 0.0000 3.9851 0.0000 17.3840
#
#
#
# Elastic Compliance Matrix: (Units=1/GPa)
#
#
# Indices 1 2 3 4 5 6 
#
# 1 0.027889 -0.002628 -0.000219 0.000000 -0.013557 0.000000
# 2 -0.002628 0.008886 -0.002037 0.000000 -0.002039 0.000000
# 3 -0.000219 -0.002037 0.007419 0.000000 -0.007750 0.000000
# 4 0.000000 0.000000 0.000000 0.031966 0.000000 -0.007328
# 5 -0.013557 -0.002039 -0.007750 0.000000 0.063334 0.000000
# 6 0.000000 0.000000 0.000000 -0.007328 0.000000 0.059204
#
#
# Mechanical properties :
#
#
# Convention : Reuss Voigt Hill
#
# Bulk Modulus (GPa) = 29.04938 60.61611 44.83274
# Shear Modulus (GPa) = 22.73321 31.97153 27.35237
#
# Velocity S-wave (km/s) = 3.25336 3.85819 3.56861
# Velocity P-wave (km/s) = 5.25714 6.93323 6.15253
#
# Compressibility (1/GPa) = 0.03442415
#
# Stress axis : x y z
#
# Youngs Moduli (GPa) = 35.85680 112.53366 134.79477
#
# Poissons Ratio (x) = 0.29575 0.02955
# Poissons Ratio (y) = 0.09424 0.27462
# Poissons Ratio (z) = 0.00786 0.22927
#
# Static dielectric constant tensor:
#      x y z
#    x 3.460610 0.000000 0.053040 
#    y 0.000000 3.821690 0.000000 
#    z 0.053040 0.000000 5.075290 
# 
# 
# High freq. dielectric constant tensor:
#      x y z
#    x 1.801430 0.000000 0.011500 
#    y 0.000000 1.834880 0.000000 
#    z 0.011500 0.000000 1.872360 
# 
# From -- ./inp_files/192043.got.cif
#   From: 2010.06.25/outbox.cif.g09.slc.cpg/sg15_97_cif.got.tgz:192043.got - 2010.06.28 07:06:18.
