data_PCOD8141042
_publ_section_title
;
Structure prediction by ZEFSAII (Michael W. Deem and Ramdas Pophale) SiO2 
 PCOD8141042
Probable space group: C 2/C
;
_chemical_formula_sum "Si O2"
_cell_formula_units_Z 36
_cell_length_a 14.561674
_cell_length_b 24.507410
_cell_length_c 14.253577
_cell_angle_alpha 90.000000
_cell_angle_beta 159.402041
_cell_angle_gamma 90.000000
_cell_volume 1789.528719
_symmetry_space_group_name_H-M "C 2/C"
_symmetry_group_IT_number 15
_symmetry_cell_setting 'monoclinic'
loop_
_space_group_symop_operation_xyz
x,y,z
-x,y,1/2-z
-x,-y,-z
x,-y,1/2+z
1/2+x,1/2+y,z
1/2-x,1/2+y,1/2-z
1/2-x,1/2-y,-z
1/2+x,1/2-y,1/2+z
loop_
_atom_site_type_symbol
_atom_site_label
_atom_site_fract_x
_atom_site_fract_y
_atom_site_fract_z
Si Si1 0.089139 0.723684 0.231427
Si Si2 0.227890 0.459301 0.634561
Si Si3 0.000000 0.522908 0.250000
Si Si4 0.636452 0.613545 0.977089
Si Si5 0.298425 0.432986 0.312807
O O1 0.328732 0.761777 0.422543
O O2 0.167994 0.660364 0.300655
O O3 0.000000 0.741490 0.250000
O O4 0.185494 0.486148 0.492371
O O5 0.254259 0.504255 0.741493
O O6 0.993489 0.416016 0.433064
O O7 0.505265 0.427794 0.909505
O O8 0.190904 0.559099 0.368204
O O9 0.500000 0.631801 0.750000
O O10 0.404137 0.603487 0.828351
#
# Coordination Sequence:
#
# PCOD8141042 Si02
#       5
#     8   8   4   8   8
#     4  10  21  35  48  67  97 127 162 211 250 276
#     4  10  21  35  48  67  97 127 162 211 250 276
#     4  12  22  32  50  74  94 132 178 204 228 300
#     4  12  22  32  50  74  94 132 178 204 228 300
#     4  10  21  35  48  67  97 127 162 211 250 276
#
# _framework density 20.117028000000001
#
# number of rings (size 3 to 8) (size 9 to 14) (size 15 to 20)
#    0.000    1.333    3.333    6.000    0.000    0.000 
#    0.000    0.000    0.000    0.000    0.000    0.000 
#    0.000    0.000    0.000   20.000    0.000    0.000 
#
# Total GULP energy -223037.348207 kJ/mol
# GULP energy per Si atom -12390.963789 kJ/mol
# Density = 2.007124 g / cm^3
# Si number density = 20.117028 Si / 1000 Ang^3
#
#
#
# Elastic Constant Matrix: (Units=GPa)
#
#
# Indices 1 2 3 4 5 6 
#
# 1 52.3724 43.1375 42.2234 0.0016 2.0462 0.0003
# 2 43.1375 54.8603 35.1554 0.0007 6.5805 -0.0001
# 3 42.2234 35.1554 162.2924 0.0115 13.4596 0.0029
# 4 0.0016 0.0007 0.0115 24.2963 0.0010 11.1393
# 5 2.0462 6.5805 13.4596 0.0010 32.3104 0.0002
# 6 0.0003 -0.0001 0.0029 11.1393 0.0002 11.2228
#
#
#
# Elastic Compliance Matrix: (Units=1/GPa)
#
#
# Indices 1 2 3 4 5 6 
#
# 1 0.061013 -0.044523 -0.006899 0.000001 0.008078 -0.000002
# 2 -0.044523 0.053851 0.000615 0.000001 -0.008404 0.000001
# 3 -0.006899 0.000615 0.008077 -0.000004 -0.003053 0.000003
# 4 0.000001 0.000001 -0.000004 0.075530 0.000000 -0.074968
# 5 0.008078 -0.008404 -0.003053 0.000000 0.033422 0.000000
# 6 -0.000002 0.000001 0.000003 -0.074968 0.000000 0.163515
#
#
# Mechanical properties :
#
#
# Convention : Reuss Voigt Hill
#
# Bulk Modulus (GPa) = 46.88935 56.72865 51.80900
# Shear Modulus (GPa) = 9.91807 23.49983 16.70895
#
# Velocity S-wave (km/s) = 2.22281 3.42154 2.88512
# Velocity P-wave (km/s) = 5.47236 6.62343 6.07522
#
# Compressibility (1/GPa) = 0.02132681
#
# Stress axis : x y z
#
# Youngs Moduli (GPa) = 16.38993 18.56965 123.81598
#
# Poissons Ratio (x) = 0.82678 0.85421
# Poissons Ratio (y) = 0.72974 -0.07620
# Poissons Ratio (z) = 0.11307 -0.01143
#
# Static dielectric constant tensor:
#      x y z
#    x 3.177510 0.000000 0.333230 
#    y 0.000000 3.108410 0.000000 
#    z 0.333230 0.000000 4.716040 
# 
# 
# High freq. dielectric constant tensor:
#      x y z
#    x 1.724590 0.000000 0.023170 
#    y 0.000000 1.719790 0.000000 
#    z 0.023170 0.000000 1.831560 
# 
# From -- ./inp_files/156872.got.cif
#   From: 2010.06.25/outbox.cif.g09.slc.cpg/sg15_79_cif.got.tgz:156872.got - 2010.06.28 07:06:18.
