data_PCOD8141170
_publ_section_title
;
Structure prediction by ZEFSAII (Michael W. Deem and Ramdas Pophale) SiO2 
 PCOD8141170
Probable space group: C 2/C
;
_chemical_formula_sum "Si O2"
_cell_formula_units_Z 64
_cell_length_a 9.100157
_cell_length_b 14.500161
_cell_length_c 29.656934
_cell_angle_alpha 90.000000
_cell_angle_beta 127.389832
_cell_angle_gamma 90.000000
_cell_volume 3109.238980
_symmetry_space_group_name_H-M "C 2/C"
_symmetry_group_IT_number 15
_symmetry_cell_setting 'monoclinic'
loop_
_space_group_symop_operation_xyz
x,y,z
-x,y,1/2-z
-x,-y,-z
x,-y,1/2+z
1/2+x,1/2+y,z
1/2-x,1/2+y,1/2-z
1/2-x,1/2-y,-z
1/2+x,1/2-y,1/2+z
loop_
_atom_site_type_symbol
_atom_site_label
_atom_site_fract_x
_atom_site_fract_y
_atom_site_fract_z
Si Si1 0.259788 0.186466 0.543911
Si Si2 0.074936 0.812223 0.456489
Si Si3 0.836405 0.339454 0.359558
Si Si4 0.319834 0.436590 0.246893
Si Si5 0.478331 0.708749 0.836102
Si Si6 0.212633 0.876251 0.794432
Si Si7 0.838506 0.470960 0.909662
Si Si8 0.746249 0.999817 0.006986
O O1 0.250000 0.250000 0.500000
O O2 0.463570 0.206906 0.601369
O O3 0.105522 0.221005 0.550082
O O4 0.223968 0.080479 0.523717
O O5 0.250000 0.750000 0.500000
O O6 0.104197 0.919898 0.473094
O O7 0.034764 0.798058 0.397399
O O8 0.825044 0.371181 0.305617
O O9 0.663266 0.273171 0.340277
O O10 0.820152 0.422986 0.391902
O O11 0.500000 0.446574 0.250000
O O12 0.375389 0.388319 0.304128
O O13 0.242388 0.541313 0.233519
O O14 0.341020 0.793252 0.802272
O O15 0.257453 0.906071 0.854811
O O16 0.000000 0.844561 0.750000
O O17 0.733661 0.459864 0.938182
O O18 0.051699 0.448957 0.960426
#
# Coordination Sequence:
#
# PCOD8141170 Si02
#       8
#     8   8   8   8   8   8   8   8
#     4  11  25  39  59  94 130 169 206 259 315 377
#     4  12  25  40  64  95 129 165 213 262 318 381
#     4   9  18  40  63  86 122 165 210 250 314 372
#     4   8  18  38  62  87 118 162 204 253 314 377
#     4  11  21  37  65  95 122 163 217 266 311 373
#     4  10  21  35  61  94 128 160 216 260 311 379
#     4   9  18  36  66  93 116 173 210 252 311 388
#     4  10  21  39  64  89 133 161 212 257 320 373
#
# _framework density 20.583815999999999
#
# number of rings (size 3 to 8) (size 9 to 14) (size 15 to 20)
#    0.000    2.000    1.250    2.625    5.250    1.000 
#    0.000    1.250    0.000   11.250    0.000    0.000 
#    0.000    0.000    0.000    0.000    0.000    0.000 
#
# Total GULP energy -396604.581995 kJ/mol
# GULP energy per Si atom -12393.893187 kJ/mol
# Density = 2.053697 g / cm^3
# Si number density = 20.583816 Si / 1000 Ang^3
#
#
#
# Elastic Constant Matrix: (Units=GPa)
#
#
# Indices 1 2 3 4 5 6 
#
# 1 92.0484 35.5261 38.3455 0.0000 22.4874 0.0000
# 2 35.5261 93.5155 39.9650 0.0000 14.1608 0.0000
# 3 38.3455 39.9650 119.3146 0.0000 13.2625 0.0000
# 4 0.0000 0.0000 0.0000 28.2907 0.0000 7.1534
# 5 22.4874 14.1608 13.2625 0.0000 32.3074 0.0000
# 6 0.0000 0.0000 0.0000 7.1534 0.0000 28.6793
#
#
#
# Elastic Compliance Matrix: (Units=1/GPa)
#
#
# Indices 1 2 3 4 5 6 
#
# 1 0.015330 -0.003369 -0.002909 0.000000 -0.008000 0.000000
# 2 -0.003369 0.013716 -0.003252 0.000000 -0.002332 0.000000
# 3 -0.002909 -0.003252 0.010501 0.000000 -0.000860 0.000000
# 4 0.000000 0.000000 0.000000 0.037727 0.000000 -0.009410
# 5 -0.008000 -0.002332 -0.000860 0.000000 0.037896 0.000000
# 6 0.000000 0.000000 0.000000 -0.009410 0.000000 0.037215
#
#
# Mechanical properties :
#
#
# Convention : Reuss Voigt Hill
#
# Bulk Modulus (GPa) = 48.81289 59.17241 53.99265
# Shear Modulus (GPa) = 28.04628 30.59159 29.31894
#
# Velocity S-wave (km/s) = 3.69526 3.85930 3.77817
# Velocity P-wave (km/s) = 6.47861 6.97628 6.73204
#
# Compressibility (1/GPa) = 0.02048639
#
# Stress axis : x y z
#
# Youngs Moduli (GPa) = 65.22965 72.90522 95.22745
#
# Poissons Ratio (x) = 0.24564 0.27703
# Poissons Ratio (y) = 0.21978 0.30971
# Poissons Ratio (z) = 0.18976 0.23711
#
# Static dielectric constant tensor:
#      x y z
#    x 3.254630 0.000000 0.255780 
#    y 0.000000 3.851440 0.000000 
#    z 0.255780 0.000000 3.797890 
# 
# 
# High freq. dielectric constant tensor:
#      x y z
#    x 1.774790 0.000000 0.009700 
#    y 0.000000 1.798170 0.000000 
#    z 0.009700 0.000000 1.826160 
# 
# From -- ./inp_files/288838.got.cif
#   From: 2010.06.25/outbox.cif.g09.slc.cpg/sg15_145_cif.got.tgz:288838.got - 2010.06.28 07:06:18.
