data_PCOD8141844
_publ_section_title
;
Structure prediction by ZEFSAII (Michael W. Deem and Ramdas Pophale) SiO2 
 PCOD8141844
Probable space group: C 2/C
;
_chemical_formula_sum "Si O2"
_cell_formula_units_Z 56
_cell_length_a 10.533100
_cell_length_b 11.536210
_cell_length_c 20.072850
_cell_angle_alpha 90.000000
_cell_angle_beta 88.496478
_cell_angle_gamma 90.000000
_cell_volume 2438.253478
_symmetry_space_group_name_H-M "C 2/C"
_symmetry_group_IT_number 15
_symmetry_cell_setting 'monoclinic'
loop_
_space_group_symop_operation_xyz
x,y,z
-x,y,1/2-z
-x,-y,-z
x,-y,1/2+z
1/2+x,1/2+y,z
1/2-x,1/2+y,1/2-z
1/2-x,1/2-y,-z
1/2+x,1/2-y,1/2+z
loop_
_atom_site_type_symbol
_atom_site_label
_atom_site_fract_x
_atom_site_fract_y
_atom_site_fract_z
Si Si1 0.651472 0.856512 0.820945
Si Si2 0.901471 0.894990 0.144739
Si Si3 0.383066 0.988294 0.051070
Si Si4 0.571708 0.387373 0.642530
Si Si5 0.573069 0.829785 0.339313
Si Si6 0.872737 0.071863 0.498715
Si Si7 0.840201 0.454440 0.279002
O O1 0.588719 0.728488 0.818181
O O2 0.605845 0.917236 0.889896
O O3 0.805657 0.859856 0.815049
O O4 0.612791 0.924097 0.754036
O O5 0.789708 0.969950 0.179349
O O6 0.863387 0.861822 0.069099
O O7 0.027624 0.976700 0.148350
O O8 0.254026 0.995785 0.010185
O O9 0.380830 0.862121 0.086872
O O10 0.500000 0.000000 0.000000
O O11 0.455528 0.306415 0.666678
O O12 0.610383 0.347793 0.566584
O O13 0.447255 0.906989 0.327052
O O14 0.678353 0.862981 0.282390
O O15 0.000000 0.000000 0.500000
#
# Coordination Sequence:
#
# PCOD8141844 Si02
#       7
#     8   8   8   8   8   8   8
#     4  10  23  41  63  96 133 178 233 288 340 427
#     4  11  22  39  68  97 130 178 231 284 341 415
#     4  10  21  37  68  98 133 180 227 279 362 408
#     4  10  22  40  70  96 130 182 230 279 358 417
#     4  10  21  40  63  93 131 178 224 286 341 420
#     4   9  21  41  65  99 136 171 231 283 339 424
#     4  10  22  38  61  89 133 175 227 279 348 402
#
# _framework density 22.967257
#
# number of rings (size 3 to 8) (size 9 to 14) (size 15 to 20)
#    0.000    2.000    1.429    0.857    4.000    1.714 
#    0.000    8.571   31.429    0.000    0.000    0.000 
#    0.000    0.000    0.000    0.000    0.000    0.000 
#
# Total GULP energy -346891.197049 kJ/mol
# GULP energy per Si atom -12388.971323 kJ/mol
# Density = 2.291498 g / cm^3
# Si number density = 22.967257 Si / 1000 Ang^3
#
#
#
# Elastic Constant Matrix: (Units=GPa)
#
#
# Indices 1 2 3 4 5 6 
#
# 1 84.2664 15.8850 14.0114 0.0000 -10.2178 0.0000
# 2 15.8850 130.0486 10.8628 0.0000 -0.8590 0.0000
# 3 14.0114 10.8628 77.7050 0.0000 -20.8691 0.0000
# 4 0.0000 0.0000 0.0000 17.6312 0.0000 -1.6171
# 5 -10.2178 -0.8590 -20.8691 0.0000 36.7224 0.0000
# 6 0.0000 0.0000 0.0000 -1.6171 0.0000 29.6582
#
#
#
# Elastic Compliance Matrix: (Units=1/GPa)
#
#
# Indices 1 2 3 4 5 6 
#
# 1 0.012691 -0.001419 -0.001358 0.000000 0.002726 0.000000
# 2 -0.001419 0.007947 -0.001075 0.000000 -0.000820 0.000000
# 3 -0.001358 -0.001075 0.015526 0.000000 0.008420 0.000000
# 4 0.000000 0.000000 0.000000 0.057003 0.000000 0.003108
# 5 0.002726 -0.000820 0.008420 0.000000 0.032756 0.000000
# 6 0.000000 0.000000 0.000000 0.003108 0.000000 0.033887
#
#
# Mechanical properties :
#
#
# Convention : Reuss Voigt Hill
#
# Bulk Modulus (GPa) = 35.13712 41.50428 38.32070
# Shear Modulus (GPa) = 28.24861 33.55307 30.90084
#
# Velocity S-wave (km/s) = 3.51087 3.82633 3.67199
# Velocity P-wave (km/s) = 5.63622 6.13444 5.89060
#
# Compressibility (1/GPa) = 0.02845993
#
# Stress axis : x y z
#
# Youngs Moduli (GPa) = 78.79641 125.83150 64.40913
#
# Poissons Ratio (x) = 0.17852 0.08746
# Poissons Ratio (y) = 0.11179 0.06926
# Poissons Ratio (z) = 0.10699 0.13532
#
# Static dielectric constant tensor:
#      x y z
#    x 4.033070 0.000000 -0.302390 
#    y 0.000000 3.906900 0.000000 
#    z -0.302390 0.000000 2.557950 
# 
# 
# High freq. dielectric constant tensor:
#      x y z
#    x 1.901670 0.000000 -0.009670 
#    y 0.000000 1.880450 0.000000 
#    z -0.009670 0.000000 1.920860 
# 
# From -- ./inp_files/236950.got.cif
#   From: 2010.06.25/outbox.cif.g09.slc.cpg/sg15_119_cif.got.tgz:236950.got - 2010.06.28 07:06:18.
