data_PCOD8141755
_publ_section_title
;
Structure prediction by ZEFSAII (Michael W. Deem and Ramdas Pophale) SiO2 
 PCOD8141755
Probable space group: C 2/C
;
_chemical_formula_sum "Si O2"
_cell_formula_units_Z 48
_cell_length_a 14.696928
_cell_length_b 12.543829
_cell_length_c 19.904605
_cell_angle_alpha 90.000000
_cell_angle_beta 40.983039
_cell_angle_gamma 90.000000
_cell_volume 2406.607323
_symmetry_space_group_name_H-M "C 2/C"
_symmetry_group_IT_number 15
_symmetry_cell_setting 'monoclinic'
loop_
_space_group_symop_operation_xyz
x,y,z
-x,y,1/2-z
-x,-y,-z
x,-y,1/2+z
1/2+x,1/2+y,z
1/2-x,1/2+y,1/2-z
1/2-x,1/2-y,-z
1/2+x,1/2-y,1/2+z
loop_
_atom_site_type_symbol
_atom_site_label
_atom_site_fract_x
_atom_site_fract_y
_atom_site_fract_z
Si Si1 0.503150 0.893711 0.353521
Si Si2 0.590690 0.127620 0.059364
Si Si3 0.599903 0.431405 0.989852
Si Si4 0.491276 0.235940 0.992261
Si Si5 0.721493 0.122342 0.622417
Si Si6 0.095527 0.160206 0.632719
O O1 0.530429 0.833338 0.406919
O O2 0.382362 0.835638 0.377502
O O3 0.648347 0.885120 0.234752
O O4 0.461204 0.015459 0.385365
O O5 0.590631 0.212946 0.120492
O O6 0.480662 0.158863 0.062480
O O7 0.746464 0.122641 0.941436
O O8 0.616090 0.319734 0.940268
O O9 0.738867 0.500318 0.920139
O O10 0.500000 0.500000 0.000000
O O11 0.540296 0.404465 0.097563
O O12 0.347942 0.296640 0.058519
O O13 0.000000 0.131728 0.750000
#
# Coordination Sequence:
#
# PCOD8141755 Si02
#       6
#     8   8   8   8   8   8
#     4  11  22  38  63  86 121 162 205 255 308 368
#     4  10  22  37  60  92 124 156 203 261 304 358
#     4   9  19  39  62  86 123 162 202 255 303 367
#     4  10  22  39  59  88 124 158 204 258 302 366
#     4  10  22  39  62  85 119 169 204 245 315 367
#     4  10  21  37  63  94 124 160 207 253 309 368
#
# _framework density 19.94509
#
# number of rings (size 3 to 8) (size 9 to 14) (size 15 to 20)
#    0.000    2.000    1.667    1.000    2.333    5.333 
#    0.000    3.333    0.000    0.000    0.000    0.000 
#    0.000    0.000    0.000    0.000    0.000    0.000 
#
# Total GULP energy -297416.255625 kJ/mol
# GULP energy per Si atom -12392.343984 kJ/mol
# Density = 1.989969 g / cm^3
# Si number density = 19.945090 Si / 1000 Ang^3
#
#
#
# Elastic Constant Matrix: (Units=GPa)
#
#
# Indices 1 2 3 4 5 6 
#
# 1 67.6285 18.6293 2.8019 0.0000 23.1174 0.0000
# 2 18.6293 60.3969 10.9775 0.0000 13.9288 0.0000
# 3 2.8019 10.9775 53.8206 0.0000 12.0084 0.0000
# 4 0.0000 0.0000 0.0000 22.9159 0.0000 5.1014
# 5 23.1174 13.9288 12.0084 0.0000 21.8665 0.0000
# 6 0.0000 0.0000 0.0000 5.1014 0.0000 31.8000
#
#
#
# Elastic Compliance Matrix: (Units=1/GPa)
#
#
# Indices 1 2 3 4 5 6 
#
# 1 0.024568 -0.002204 0.005302 0.000000 -0.027481 0.000000
# 2 -0.002204 0.019695 -0.001850 0.000000 -0.009200 0.000000
# 3 0.005302 -0.001850 0.022416 0.000000 -0.016737 0.000000
# 4 0.000000 0.000000 0.000000 0.045254 0.000000 -0.007260
# 5 -0.027481 -0.009200 -0.016737 0.000000 0.089837 0.000000
# 6 0.000000 0.000000 0.000000 -0.007260 0.000000 0.032611
#
#
# Mechanical properties :
#
#
# Convention : Reuss Voigt Hill
#
# Bulk Modulus (GPa) = 14.45591 27.40704 20.93147
# Shear Modulus (GPa) = 19.61226 25.27895 22.44560
#
# Velocity S-wave (km/s) = 3.13918 3.56396 3.35829
# Velocity P-wave (km/s) = 4.51695 5.54137 5.05518
#
# Compressibility (1/GPa) = 0.06917588
#
# Stress axis : x y z
#
# Youngs Moduli (GPa) = 40.70336 50.77486 44.61124
#
# Poissons Ratio (x) = 0.11190 -0.23653
# Poissons Ratio (y) = 0.08970 0.08252
# Poissons Ratio (z) = -0.21581 0.09392
#
# Static dielectric constant tensor:
#      x y z
#    x 3.962330 0.000000 -0.054330 
#    y 0.000000 3.900360 0.000000 
#    z -0.054330 0.000000 3.412840 
# 
# 
# High freq. dielectric constant tensor:
#      x y z
#    x 1.802550 0.000000 0.005010 
#    y 0.000000 1.779180 0.000000 
#    z 0.005010 0.000000 1.749540 
# 
# From -- ./inp_files/126920.got.cif
#   From: 2010.06.25/outbox.cif.g09.slc.cpg/sg15_64_cif.got.tgz:126920.got - 2010.06.28 07:06:18.
