data_PCOD8141723
_publ_section_title
;
Structure prediction by ZEFSAII (Michael W. Deem and Ramdas Pophale) SiO2 
 PCOD8141723
Probable space group: C 2/C
;
_chemical_formula_sum "Si O2"
_cell_formula_units_Z 56
_cell_length_a 19.009272
_cell_length_b 30.264882
_cell_length_c 8.733270
_cell_angle_alpha 90.000000
_cell_angle_beta 146.560539
_cell_angle_gamma 90.000000
_cell_volume 2768.705536
_symmetry_space_group_name_H-M "C 2/C"
_symmetry_group_IT_number 15
_symmetry_cell_setting 'monoclinic'
loop_
_space_group_symop_operation_xyz
x,y,z
-x,y,1/2-z
-x,-y,-z
x,-y,1/2+z
1/2+x,1/2+y,z
1/2-x,1/2+y,1/2-z
1/2-x,1/2-y,-z
1/2+x,1/2-y,1/2+z
loop_
_atom_site_type_symbol
_atom_site_label
_atom_site_fract_x
_atom_site_fract_y
_atom_site_fract_z
Si Si1 0.000000 0.797537 0.250000
Si Si2 0.000000 0.316307 0.250000
Si Si3 0.639968 0.441165 0.507440
Si Si4 0.856902 0.442708 0.440467
Si Si5 0.256978 0.148165 0.147279
Si Si6 0.125375 0.269811 0.200872
Si Si7 0.762488 0.990982 0.539480
Si Si8 0.150474 0.346737 0.022050
O O1 0.125363 0.826899 0.446254
O O2 0.036899 0.766249 0.457920
O O3 0.969039 0.287728 0.341944
O O4 0.127809 0.343861 0.523104
O O5 0.737582 0.404631 0.621473
O O6 0.668011 0.453734 0.734406
O O7 0.641915 0.485186 0.405709
O O8 0.500000 0.420251 0.250000
O O9 0.793512 0.471815 0.455001
O O10 0.792610 0.393835 0.316089
O O11 0.000000 0.436286 0.750000
O O12 0.847031 0.466207 0.257607
O O13 0.297691 0.163415 0.052662
O O14 0.250000 0.250000 0.500000
O O15 0.185782 0.306857 0.198541
O O16 0.000000 0.349552 0.750000
#
# Coordination Sequence:
#
# PCOD8141723 Si02
#       8
#     4   4   8   8   8   8   8   8
#     4  12  26  46  72  98 139 179 224 288 344 404
#     4  12  26  44  70 102 131 179 226 282 340 412
#     4  11  23  43  65  95 131 177 227 276 335 398
#     4  10  21  37  62  93 132 168 212 266 329 388
#     4  12  25  44  70 100 139 179 227 284 340 405
#     4  12  26  44  69 101 133 176 227 282 344 411
#     4  10  22  39  63  93 129 174 223 268 325 400
#     4  11  23  43  65  93 137 178 219 275 340 402
#
# _framework density 20.226058999999999
#
# number of rings (size 3 to 8) (size 9 to 14) (size 15 to 20)
#    0.000    0.857    5.714    0.857    4.000    1.143 
#    5.143    0.000    0.000    0.000    0.000    0.000 
#    0.000    0.000    0.000    0.000    0.000    0.000 
#
# Total GULP energy -347104.015048 kJ/mol
# GULP energy per Si atom -12396.571966 kJ/mol
# Density = 2.018002 g / cm^3
# Si number density = 20.226059 Si / 1000 Ang^3
#
#
#
# Elastic Constant Matrix: (Units=GPa)
#
#
# Indices 1 2 3 4 5 6 
#
# 1 119.2931 44.0156 51.9651 0.0000 -11.4351 0.0000
# 2 44.0156 117.8077 62.1839 0.0000 -11.4434 0.0000
# 3 51.9651 62.1839 136.6899 0.0000 -3.8780 0.0000
# 4 0.0000 0.0000 0.0000 31.4556 0.0000 -3.1814
# 5 -11.4351 -11.4434 -3.8780 0.0000 35.9956 0.0000
# 6 0.0000 0.0000 0.0000 -3.1814 0.0000 31.3355
#
#
#
# Elastic Compliance Matrix: (Units=1/GPa)
#
#
# Indices 1 2 3 4 5 6 
#
# 1 0.010733 -0.002184 -0.003019 0.000000 0.002390 0.000000
# 2 -0.002184 0.011951 -0.004532 0.000000 0.002617 0.000000
# 3 -0.003019 -0.004532 0.010489 0.000000 -0.001270 0.000000
# 4 0.000000 0.000000 0.000000 0.032121 0.000000 0.003261
# 5 0.002390 0.002617 -0.001270 0.000000 0.029236 0.000000
# 6 0.000000 0.000000 0.000000 0.003261 0.000000 0.032244
#
#
# Mechanical properties :
#
#
# Convention : Reuss Voigt Hill
#
# Bulk Modulus (GPa) = 72.97963 76.67998 74.82981
# Shear Modulus (GPa) = 33.15405 34.13242 33.64324
#
# Velocity S-wave (km/s) = 4.05306 4.11243 4.08286
# Velocity P-wave (km/s) = 7.61994 7.78095 7.70087
#
# Compressibility (1/GPa) = 0.01370245
#
# Stress axis : x y z
#
# Youngs Moduli (GPa) = 93.17260 83.67469 95.33616
#
# Poissons Ratio (x) = 0.18278 0.28779
# Poissons Ratio (y) = 0.20353 0.43208
# Poissons Ratio (z) = 0.28126 0.37923
#
# Static dielectric constant tensor:
#      x y z
#    x 3.623920 0.000000 -0.169450 
#    y 0.000000 4.107540 0.000000 
#    z -0.169450 0.000000 3.791770 
# 
# 
# High freq. dielectric constant tensor:
#      x y z
#    x 1.794570 0.000000 -0.010650 
#    y 0.000000 1.803400 0.000000 
#    z -0.010650 0.000000 1.789980 
# 
# From -- ./inp_files/59382.got.cif
#   From: 2010.06.25/outbox.cif.g09.slc.cpg/sg15_30_cif.got.tgz:59382.got - 2010.06.28 07:06:18.
