data_PCOD8141868
_publ_section_title
;
Structure prediction by ZEFSAII (Michael W. Deem and Ramdas Pophale) SiO2 
 PCOD8141868
Probable space group: C 2/C
;
_chemical_formula_sum "Si O2"
_cell_formula_units_Z 48
_cell_length_a 17.329654
_cell_length_b 8.397184
_cell_length_c 25.273366
_cell_angle_alpha 90.000000
_cell_angle_beta 45.611704
_cell_angle_gamma 90.000000
_cell_volume 2628.204369
_symmetry_space_group_name_H-M "C 2/C"
_symmetry_group_IT_number 15
_symmetry_cell_setting 'monoclinic'
loop_
_space_group_symop_operation_xyz
x,y,z
-x,y,1/2-z
-x,-y,-z
x,-y,1/2+z
1/2+x,1/2+y,z
1/2-x,1/2+y,1/2-z
1/2-x,1/2-y,-z
1/2+x,1/2-y,1/2+z
loop_
_atom_site_type_symbol
_atom_site_label
_atom_site_fract_x
_atom_site_fract_y
_atom_site_fract_z
Si Si1 0.886815 0.087272 0.560857
Si Si2 0.464745 0.115136 0.968531
Si Si3 0.345611 0.781383 0.680432
Si Si4 0.264025 0.694001 0.077073
Si Si5 0.199945 0.625679 0.837782
Si Si6 0.588345 0.845456 0.577348
O O1 0.886543 0.245226 0.524934
O O2 0.861511 0.136480 0.632707
O O3 0.788387 0.973933 0.592675
O O4 0.000000 0.000000 0.500000
O O5 0.576453 0.187481 0.892190
O O6 0.399686 0.020962 0.954267
O O7 0.500000 0.000000 0.000000
O O8 0.267369 0.727576 0.764171
O O9 0.462758 0.816534 0.648910
O O10 0.295118 0.936498 0.675715
O O11 0.256566 0.836358 0.123747
O O12 0.149279 0.673734 0.103519
O O13 0.360915 0.722451 0.989028
#
# Coordination Sequence:
#
# PCOD8141868 Si02
#       6
#     8   8   8   8   8   8
#     4  12  19  34  62  89 110 149 197 243 275 345
#     4  11  18  38  59  83 115 150 189 243 284 334
#     4  11  22  37  60  83 113 153 197 236 288 342
#     4  11  21  35  59  85 115 147 193 231 287 343
#     4  11  21  36  57  86 112 152 192 239 284 342
#     4  10  21  38  56  83 116 154 183 232 292 340
#
# _framework density 18.263418999999999
#
# number of rings (size 3 to 8) (size 9 to 14) (size 15 to 20)
#    0.000    1.000    8.333    1.000    0.000    1.333 
#    0.000    0.000    0.000    4.000    0.000    0.000 
#    0.000    0.000    0.000    0.000    0.000    0.000 
#
# Total GULP energy -297562.985509 kJ/mol
# GULP energy per Si atom -12398.457730 kJ/mol
# Density = 1.822185 g / cm^3
# Si number density = 18.263419 Si / 1000 Ang^3
#
#
#
# Elastic Constant Matrix: (Units=GPa)
#
#
# Indices 1 2 3 4 5 6 
#
# 1 121.1823 57.9015 40.1148 0.0001 10.7202 0.0005
# 2 57.9015 90.5254 31.0929 0.0000 3.2071 0.0010
# 3 40.1148 31.0929 95.9732 0.0000 -1.2920 0.0001
# 4 0.0001 0.0000 0.0000 40.6673 0.0000 3.6570
# 5 10.7202 3.2071 -1.2920 0.0000 22.3660 0.0000
# 6 0.0005 0.0010 0.0001 3.6570 0.0000 30.0182
#
#
#
# Elastic Compliance Matrix: (Units=1/GPa)
#
#
# Indices 1 2 3 4 5 6 
#
# 1 0.013244 -0.007144 -0.003296 0.000000 -0.005514 0.000000
# 2 -0.007144 0.016375 -0.002306 0.000000 0.000943 0.000000
# 3 -0.003296 -0.002306 0.012580 0.000000 0.002637 0.000000
# 4 0.000000 0.000000 0.000000 0.024862 0.000000 -0.003029
# 5 -0.005514 0.000943 0.002637 0.000000 0.047371 0.000000
# 6 0.000000 0.000000 0.000000 -0.003029 0.000000 0.033682
#
#
# Mechanical properties :
#
#
# Convention : Reuss Voigt Hill
#
# Bulk Modulus (GPa) = 59.85486 62.87768 61.36627
# Shear Modulus (GPa) = 27.90580 30.51506 29.21043
#
# Velocity S-wave (km/s) = 3.91316 4.09201 4.00358
# Velocity P-wave (km/s) = 7.29803 7.53850 7.41924
#
# Compressibility (1/GPa) = 0.01670708
#
# Stress axis : x y z
#
# Youngs Moduli (GPa) = 75.50520 61.06980 79.49290
#
# Poissons Ratio (x) = 0.43627 0.26197
# Poissons Ratio (y) = 0.53940 0.18333
# Poissons Ratio (z) = 0.24883 0.14085
#
# Static dielectric constant tensor:
#      x y z
#    x 3.280000 0.000000 -0.010860 
#    y 0.000000 3.617080 0.000000 
#    z -0.010860 0.000000 3.508430 
# 
# 
# High freq. dielectric constant tensor:
#      x y z
#    x 1.683160 0.000000 0.001340 
#    y 0.000000 1.714340 0.000000 
#    z 0.001340 0.000000 1.712290 
# 
# From -- ./inp_files/208613.got.cif
#   From: 2010.06.25/outbox.cif.g09.slc.cpg/sg15_105_cif.got.tgz:208613.got - 2010.06.28 07:06:18.
