data_PCOD8141754
_publ_section_title
;
Structure prediction by ZEFSAII (Michael W. Deem and Ramdas Pophale) SiO2 
 PCOD8141754
Probable space group: C 2/C
;
_chemical_formula_sum "Si O2"
_cell_formula_units_Z 56
_cell_length_a 11.213483
_cell_length_b 9.491749
_cell_length_c 29.283003
_cell_angle_alpha 90.000000
_cell_angle_beta 58.318787
_cell_angle_gamma 90.000000
_cell_volume 2652.304950
_symmetry_space_group_name_H-M "C 2/C"
_symmetry_group_IT_number 15
_symmetry_cell_setting 'monoclinic'
loop_
_space_group_symop_operation_xyz
x,y,z
-x,y,1/2-z
-x,-y,-z
x,-y,1/2+z
1/2+x,1/2+y,z
1/2-x,1/2+y,1/2-z
1/2-x,1/2-y,-z
1/2+x,1/2-y,1/2+z
loop_
_atom_site_type_symbol
_atom_site_label
_atom_site_fract_x
_atom_site_fract_y
_atom_site_fract_z
Si Si1 0.287467 0.687375 0.257654
Si Si2 0.292078 0.894084 0.016804
Si Si3 0.438160 0.020299 0.574983
Si Si4 0.579096 0.593826 0.780068
Si Si5 0.775358 0.241919 0.627891
Si Si6 0.986775 0.718406 0.643783
Si Si7 0.001078 0.018192 0.608748
O O1 0.296045 0.522568 0.242795
O O2 0.141099 0.748869 0.267724
O O3 0.294445 0.716297 0.310000
O O4 0.412926 0.772026 0.207811
O O5 0.372492 0.875754 0.049512
O O6 0.145871 0.974567 0.052555
O O7 0.250000 0.750000 0.000000
O O8 0.396426 0.989882 0.965719
O O9 0.423909 0.088584 0.627838
O O10 0.356729 0.873247 0.590130
O O11 0.500000 0.561227 0.750000
O O12 0.475000 0.574239 0.843976
O O13 0.652473 0.199733 0.618009
O O14 0.879531 0.109639 0.609772
O O15 0.953730 0.856428 0.619939
#
# Coordination Sequence:
#
# PCOD8141754 Si02
#       7
#     8   8   8   8   8   8   8
#     4  10  21  37  63  93 128 167 199 248 311 371
#     4  11  23  45  66  90 123 165 212 270 318 360
#     4  11  25  41  70  92 118 169 215 256 316 374
#     4  10  21  38  61  90 124 166 203 254 310 369
#     4  11  21  42  63  92 130 165 204 250 310 377
#     4  11  23  40  63  96 127 160 210 255 307 376
#     4  10  22  40  62  90 127 162 206 259 314 370
#
# _framework density 21.113710000000001
#
# number of rings (size 3 to 8) (size 9 to 14) (size 15 to 20)
#    0.000    1.429    2.857    3.000    2.000    1.714 
#    0.000   10.714    0.000    0.000    0.000    0.000 
#    0.000    0.000    0.000    0.000    0.000    0.000 
#
# Total GULP energy -347128.717998 kJ/mol
# GULP energy per Si atom -12397.454214 kJ/mol
# Density = 2.106565 g / cm^3
# Si number density = 21.113710 Si / 1000 Ang^3
#
#
#
# Elastic Constant Matrix: (Units=GPa)
#
#
# Indices 1 2 3 4 5 6 
#
# 1 77.5673 32.8576 21.1472 0.0000 7.5962 0.0000
# 2 32.8576 56.5997 10.3137 0.0000 11.7340 0.0000
# 3 21.1472 10.3137 78.1288 0.0000 -7.2401 0.0000
# 4 0.0000 0.0000 0.0000 30.0328 0.0000 0.4871
# 5 7.5962 11.7340 -7.2401 0.0000 26.2891 0.0000
# 6 0.0000 0.0000 0.0000 0.4871 0.0000 28.9752
#
#
#
# Elastic Compliance Matrix: (Units=1/GPa)
#
#
# Indices 1 2 3 4 5 6 
#
# 1 0.018126 -0.009380 -0.003864 0.000000 -0.002115 0.000000
# 2 -0.009380 0.025282 -0.001635 0.000000 -0.009024 0.000000
# 3 -0.003864 -0.001635 0.014605 0.000000 0.005868 0.000000
# 4 0.000000 0.000000 0.000000 0.033306 0.000000 -0.000560
# 5 -0.002115 -0.009024 0.005868 0.000000 0.044294 0.000000
# 6 0.000000 0.000000 0.000000 -0.000560 0.000000 0.034522
#
#
# Mechanical properties :
#
#
# Convention : Reuss Voigt Hill
#
# Bulk Modulus (GPa) = 35.39155 37.88143 36.63649
# Shear Modulus (GPa) = 23.88795 26.92459 25.40627
#
# Velocity S-wave (km/s) = 3.36727 3.57489 3.47263
# Velocity P-wave (km/s) = 5.64949 5.91780 5.78520
#
# Compressibility (1/GPa) = 0.02825533
#
# Stress axis : x y z
#
# Youngs Moduli (GPa) = 55.16938 39.55359 68.47032
#
# Poissons Ratio (x) = 0.37102 0.26456
# Poissons Ratio (y) = 0.51749 0.11194
# Poissons Ratio (z) = 0.21317 0.06466
#
# Static dielectric constant tensor:
#      x y z
#    x 3.668550 0.000000 -0.123980 
#    y 0.000000 3.737060 0.000000 
#    z -0.123980 0.000000 4.010000 
# 
# 
# High freq. dielectric constant tensor:
#      x y z
#    x 1.815730 0.000000 -0.009960 
#    y 0.000000 1.818450 0.000000 
#    z -0.009960 0.000000 1.839670 
# 
# From -- ./inp_files/291503.got.cif
#   From: 2010.06.25/outbox.cif.g09.slc.cpg/sg15_146_cif.got.tgz:291503.got - 2010.06.28 07:06:18.
