data_PCOD8141396
_publ_section_title
;
Structure prediction by ZEFSAII (Michael W. Deem and Ramdas Pophale) SiO2 
 PCOD8141396
Probable space group: C 2/C
;
_chemical_formula_sum "Si O2"
_cell_formula_units_Z 48
_cell_length_a 14.816977
_cell_length_b 21.365990
_cell_length_c 11.638021
_cell_angle_alpha 90.000000
_cell_angle_beta 139.581514
_cell_angle_gamma 90.000000
_cell_volume 2388.810556
_symmetry_space_group_name_H-M "C 2/C"
_symmetry_group_IT_number 15
_symmetry_cell_setting 'monoclinic'
loop_
_space_group_symop_operation_xyz
x,y,z
-x,y,1/2-z
-x,-y,-z
x,-y,1/2+z
1/2+x,1/2+y,z
1/2-x,1/2+y,1/2-z
1/2-x,1/2-y,-z
1/2+x,1/2-y,1/2+z
loop_
_atom_site_type_symbol
_atom_site_label
_atom_site_fract_x
_atom_site_fract_y
_atom_site_fract_z
Si Si1 0.163681 0.053939 0.191620
Si Si2 0.464647 0.209575 0.338289
Si Si3 0.263164 0.317318 0.183772
Si Si4 0.635893 0.424018 0.061783
Si Si5 0.216463 0.397130 0.919619
Si Si6 0.344295 0.034417 0.570203
O O1 0.175276 0.085433 0.076830
O O2 0.302896 0.061068 0.404223
O O3 0.145807 0.979383 0.164198
O O4 0.029198 0.082983 0.126568
O O5 0.500000 0.240747 0.250000
O O6 0.352592 0.254566 0.287507
O O7 0.603490 0.203227 0.548538
O O8 0.408727 0.139178 0.264367
O O9 0.306491 0.360922 0.329331
O O10 0.285619 0.351083 0.081432
O O11 0.728387 0.437818 0.041336
O O12 0.158965 0.459057 0.926221
O O13 0.500000 0.058104 0.750000
#
# Coordination Sequence:
#
# PCOD8141396 Si02
#       6
#     8   8   8   8   8   8
#     4  10  22  38  59  88 122 163 195 236 308 351
#     4  10  22  36  57  89 121 160 193 241 299 351
#     4  11  22  39  59  92 124 155 198 243 298 358
#     4  10  23  37  59  88 123 161 194 250 288 362
#     4  10  21  36  62  89 127 154 193 245 295 367
#     4  11  22  38  61  89 121 159 201 244 298 354
#
# _framework density 20.093682999999999
#
# number of rings (size 3 to 8) (size 9 to 14) (size 15 to 20)
#    0.000    1.667    1.667    4.000    7.000    1.333 
#    0.000    0.000    0.000    1.000    0.000    0.000 
#    0.000    0.000    0.000    0.000    0.000    0.000 
#
# Total GULP energy -297506.563571 kJ/mol
# GULP energy per Si atom -12396.106815 kJ/mol
# Density = 2.004795 g / cm^3
# Si number density = 20.093683 Si / 1000 Ang^3
#
#
#
# Elastic Constant Matrix: (Units=GPa)
#
#
# Indices 1 2 3 4 5 6 
#
# 1 61.4946 17.3172 20.9334 0.0000 11.9305 0.0000
# 2 17.3172 83.7818 35.8428 0.0000 2.1441 0.0000
# 3 20.9334 35.8428 116.5867 0.0000 15.7278 0.0000
# 4 0.0000 0.0000 0.0000 24.8149 0.0000 3.0456
# 5 11.9305 2.1441 15.7278 0.0000 28.4992 0.0000
# 6 0.0000 0.0000 0.0000 3.0456 0.0000 26.3331
#
#
#
# Elastic Compliance Matrix: (Units=1/GPa)
#
#
# Indices 1 2 3 4 5 6 
#
# 1 0.018987 -0.003094 -0.001531 0.000000 -0.006871 0.000000
# 2 -0.003094 0.014299 -0.004182 0.000000 0.002527 0.000000
# 3 -0.001531 -0.004182 0.010814 0.000000 -0.005012 0.000000
# 4 0.000000 0.000000 0.000000 0.040879 0.000000 -0.004728
# 5 -0.006871 0.002527 -0.005012 0.000000 0.040541 0.000000
# 6 0.000000 0.000000 0.000000 -0.004728 0.000000 0.038522
#
#
# Mechanical properties :
#
#
# Convention : Reuss Voigt Hill
#
# Bulk Modulus (GPa) = 37.75346 45.56110 41.65728
# Shear Modulus (GPa) = 26.24893 28.44740 27.34816
#
# Velocity S-wave (km/s) = 3.61824 3.76671 3.69322
# Velocity P-wave (km/s) = 6.02370 6.45299 6.24204
#
# Compressibility (1/GPa) = 0.02648764
#
# Stress axis : x y z
#
# Youngs Moduli (GPa) = 52.66765 69.93270 92.47291
#
# Poissons Ratio (x) = 0.21634 0.14159
# Poissons Ratio (y) = 0.16293 0.38668
# Poissons Ratio (z) = 0.08064 0.29243
#
# Static dielectric constant tensor:
#      x y z
#    x 3.526550 0.000000 0.213430 
#    y 0.000000 3.515790 0.000000 
#    z 0.213430 0.000000 3.600170 
# 
# 
# High freq. dielectric constant tensor:
#      x y z
#    x 1.767970 0.000000 0.021030 
#    y 0.000000 1.770060 0.000000 
#    z 0.021030 0.000000 1.781480 
# 
# From -- ./inp_files/50426.got.cif
#   From: 2010.06.25/outbox.cif.g09.slc.cpg/sg15_26_cif.got.tgz:50426.got - 2010.06.28 07:06:18.
