data_PCOD8141790
_publ_section_title
;
Structure prediction by ZEFSAII (Michael W. Deem and Ramdas Pophale) SiO2 
 PCOD8141790
Probable space group: C 2/C
;
_chemical_formula_sum "Si O2"
_cell_formula_units_Z 52
_cell_length_a 17.822816
_cell_length_b 11.292486
_cell_length_c 21.094689
_cell_angle_alpha 90.000000
_cell_angle_beta 142.132748
_cell_angle_gamma 90.000000
_cell_volume 2606.093635
_symmetry_space_group_name_H-M "C 2/C"
_symmetry_group_IT_number 15
_symmetry_cell_setting 'monoclinic'
loop_
_space_group_symop_operation_xyz
x,y,z
-x,y,1/2-z
-x,-y,-z
x,-y,1/2+z
1/2+x,1/2+y,z
1/2-x,1/2+y,1/2-z
1/2-x,1/2-y,-z
1/2+x,1/2-y,1/2+z
loop_
_atom_site_type_symbol
_atom_site_label
_atom_site_fract_x
_atom_site_fract_y
_atom_site_fract_z
Si Si1 0.126919 0.070494 0.589300
Si Si2 0.682569 0.098593 0.311018
Si Si3 0.315312 0.370740 0.029533
Si Si4 0.227692 0.285339 0.413606
Si Si5 0.000000 0.449177 0.250000
Si Si6 0.899829 0.844086 0.294912
Si Si7 0.858847 0.037068 0.170809
O O1 0.161280 0.145846 0.548482
O O2 0.121770 0.160529 0.644502
O O3 0.233007 0.977106 0.680117
O O4 0.000000 0.000000 0.500000
O O5 0.760475 0.080878 0.427849
O O6 0.669308 0.233043 0.281875
O O7 0.548842 0.037470 0.227121
O O8 0.457296 0.338907 0.122831
O O9 0.292489 0.469713 0.068136
O O10 0.250000 0.250000 0.000000
O O11 0.250000 0.250000 0.500000
O O12 0.110922 0.367908 0.344063
O O13 0.201586 0.165019 0.357057
O O14 0.842952 0.960529 0.224177
O O15 0.000000 0.057763 0.250000
#
# Coordination Sequence:
#
# PCOD8141790 Si02
#       7
#     8   8   8   8   4   8   8
#     4  11  25  44  64  92 132 180 213 267 337 396
#     4  11  22  42  65  89 130 166 213 270 324 388
#     4  11  20  38  66  97 127 163 217 268 326 383
#     4  11  24  43  67  96 129 172 220 276 325 392
#     4  10  22  40  64  98 120 166 214 266 322 376
#     4  11  24  39  63  95 127 173 213 267 331 398
#     4  10  21  37  64  95 126 164 219 272 318 391
#
# _framework density 19.953236
#
# number of rings (size 3 to 8) (size 9 to 14) (size 15 to 20)
#    0.000    1.231    3.846    2.769    5.385    0.000 
#    2.769    0.000    0.000    3.692    0.000    0.000 
#    0.000    0.000    0.000    0.000    0.000    0.000 
#
# Total GULP energy -322234.542316 kJ/mol
# GULP energy per Si atom -12393.636243 kJ/mol
# Density = 1.990782 g / cm^3
# Si number density = 19.953236 Si / 1000 Ang^3
#
#
#
# Elastic Constant Matrix: (Units=GPa)
#
#
# Indices 1 2 3 4 5 6 
#
# 1 109.7885 52.4094 42.0562 0.0001 4.9551 0.0000
# 2 52.4094 145.3675 43.1009 0.0001 10.4276 0.0000
# 3 42.0562 43.1009 83.0010 0.0001 -4.9291 0.0001
# 4 0.0001 0.0001 0.0001 37.0606 0.0000 4.2236
# 5 4.9551 10.4276 -4.9291 0.0000 34.6411 0.0000
# 6 0.0000 0.0000 0.0001 4.2236 0.0000 28.1257
#
#
#
# Elastic Compliance Matrix: (Units=1/GPa)
#
#
# Indices 1 2 3 4 5 6 
#
# 1 0.012447 -0.002926 -0.004882 0.000000 -0.001595 0.000000
# 2 -0.002926 0.009157 -0.003440 0.000000 -0.002827 0.000000
# 3 -0.004882 -0.003440 0.016551 0.000000 0.004089 0.000000
# 4 0.000000 0.000000 0.000000 0.027453 0.000000 -0.004123
# 5 -0.001595 -0.002827 0.004089 0.000000 0.030528 0.000000
# 6 0.000000 0.000000 0.000000 -0.004123 0.000000 0.036174
#
#
# Mechanical properties :
#
#
# Convention : Reuss Voigt Hill
#
# Bulk Modulus (GPa) = 63.86361 68.14335 66.00348
# Shear Modulus (GPa) = 31.24476 33.33819 32.29148
#
# Velocity S-wave (km/s) = 3.96144 4.09200 4.02725
# Velocity P-wave (km/s) = 7.28012 7.52008 7.40107
#
# Compressibility (1/GPa) = 0.01565837
#
# Stress axis : x y z
#
# Youngs Moduli (GPa) = 80.33887 109.20856 60.41794
#
# Poissons Ratio (x) = 0.31950 0.29499
# Poissons Ratio (y) = 0.23504 0.20787
# Poissons Ratio (z) = 0.39225 0.37573
#
# Static dielectric constant tensor:
#      x y z
#    x 3.063470 0.000000 0.551710 
#    y 0.000000 4.113480 0.000000 
#    z 0.551710 0.000000 3.109770 
# 
# 
# High freq. dielectric constant tensor:
#      x y z
#    x 1.766900 0.000000 0.005240 
#    y 0.000000 1.802820 0.000000 
#    z 0.005240 0.000000 1.771500 
# 
# From -- ./inp_files/248679.got.cif
#   From: 2010.06.25/outbox.cif.g09.slc.cpg/sg15_125_cif.got.tgz:248679.got - 2010.06.28 07:06:18.
