data_PCOD8141074
_publ_section_title
;
Structure prediction by ZEFSAII (Michael W. Deem and Ramdas Pophale) SiO2 
 PCOD8141074
Probable space group: C 2/C
;
_chemical_formula_sum "Si O2"
_cell_formula_units_Z 56
_cell_length_a 18.628701
_cell_length_b 19.929794
_cell_length_c 14.412869
_cell_angle_alpha 90.000000
_cell_angle_beta 31.117486
_cell_angle_gamma 90.000000
_cell_volume 2765.373593
_symmetry_space_group_name_H-M "C 2/C"
_symmetry_group_IT_number 15
_symmetry_cell_setting 'monoclinic'
loop_
_space_group_symop_operation_xyz
x,y,z
-x,y,1/2-z
-x,-y,-z
x,-y,1/2+z
1/2+x,1/2+y,z
1/2-x,1/2+y,1/2-z
1/2-x,1/2-y,-z
1/2+x,1/2-y,1/2+z
loop_
_atom_site_type_symbol
_atom_site_label
_atom_site_fract_x
_atom_site_fract_y
_atom_site_fract_z
Si Si1 0.042010 0.397121 0.602083
Si Si2 0.659291 0.018412 0.705349
Si Si3 0.437558 0.534169 0.979152
Si Si4 0.987114 0.651124 0.556700
Si Si5 0.225489 0.994357 0.113989
Si Si6 0.295024 0.625052 0.254121
Si Si7 0.112563 0.769255 0.704920
O O1 0.045588 0.340518 0.517428
O O2 0.194372 0.428290 0.441030
O O3 0.000000 0.367744 0.750000
O O4 0.932665 0.451668 0.684088
O O5 0.573348 0.080795 0.839761
O O6 0.693638 0.029925 0.559716
O O7 0.806859 0.009429 0.591205
O O8 0.567961 0.530321 0.762587
O O9 0.500000 0.500000 0.000000
O O10 0.391835 0.611689 0.055218
O O11 0.917225 0.710260 0.690462
O O12 0.151540 0.660889 0.388760
O O13 0.236343 0.048720 0.182531
O O14 0.374611 0.663371 0.248414
O O15 0.250000 0.750000 0.500000
O O16 0.000000 0.781357 0.750000
#
# Coordination Sequence:
#
# PCOD8141074 Si02
#       7
#     8   8   8   8   8   8   8
#     4  10  21  37  65  97 118 158 212 260 315 381
#     4  11  20  34  64  91 122 162 201 250 320 376
#     4  10  21  35  55  87 123 160 200 250 313 369
#     4  12  22  40  65  86 126 169 211 260 305 373
#     4  10  21  35  58  95 128 154 199 257 316 377
#     4  11  22  40  60  85 126 167 208 252 313 365
#     4  12  27  42  62  93 125 170 216 253 306 377
#
# _framework density 20.250427999999999
#
# number of rings (size 3 to 8) (size 9 to 14) (size 15 to 20)
#    0.000    1.143    4.286    3.429    0.000    5.714 
#    0.000    0.000    0.000    2.571    0.000    0.000 
#    0.000    0.000    0.000    0.000    0.000    0.000 
#
# Total GULP energy -346992.462132 kJ/mol
# GULP energy per Si atom -12392.587933 kJ/mol
# Density = 2.020434 g / cm^3
# Si number density = 20.250428 Si / 1000 Ang^3
#
#
#
# Elastic Constant Matrix: (Units=GPa)
#
#
# Indices 1 2 3 4 5 6 
#
# 1 115.2489 27.3230 30.4884 -0.0010 -5.9920 0.0018
# 2 27.3230 47.1949 23.9120 -0.0019 8.0440 0.0013
# 3 30.4884 23.9120 108.0258 0.0018 -6.9616 -0.0003
# 4 -0.0010 -0.0019 0.0018 25.9959 0.0011 5.9040
# 5 -5.9920 8.0440 -6.9616 0.0011 43.1267 -0.0017
# 6 0.0018 0.0013 -0.0003 5.9040 -0.0017 34.1826
#
#
#
# Elastic Compliance Matrix: (Units=1/GPa)
#
#
# Indices 1 2 3 4 5 6 
#
# 1 0.010564 -0.005709 -0.001571 0.000000 0.002279 0.000000
# 2 -0.005709 0.028242 -0.005084 0.000003 -0.006882 -0.000002
# 3 -0.001571 -0.005084 0.010987 -0.000001 0.002504 0.000001
# 4 0.000000 0.000003 -0.000001 0.040038 -0.000002 -0.006915
# 5 0.002279 -0.006882 0.002504 -0.000002 0.025192 0.000002
# 6 0.000000 -0.000002 0.000001 -0.006915 0.000002 0.030449
#
#
# Mechanical properties :
#
#
# Convention : Reuss Voigt Hill
#
# Bulk Modulus (GPa) = 39.89352 48.21294 44.05323
# Shear Modulus (GPa) = 28.00247 33.24413 30.62330
#
# Velocity S-wave (km/s) = 3.72265 4.05612 3.89296
# Velocity P-wave (km/s) = 6.18226 6.76729 6.48138
#
# Compressibility (1/GPa) = 0.02506673
#
# Stress axis : x y z
#
# Youngs Moduli (GPa) = 94.65787 35.40779 91.01526
#
# Poissons Ratio (x) = 0.20213 0.14300
# Poissons Ratio (y) = 0.54036 0.46272
# Poissons Ratio (z) = 0.14872 0.18001
#
# Static dielectric constant tensor:
#      x y z
#    x 3.901920 0.000020 0.019330 
#    y 0.000020 3.348950 0.000000 
#    z 0.019330 0.000000 4.848230 
# 
# 
# High freq. dielectric constant tensor:
#      x y z
#    x 1.804760 0.000000 -0.001450 
#    y 0.000000 1.737930 0.000000 
#    z -0.001450 0.000000 1.817800 
# 
# From -- ./inp_files/163758.got.cif
#   From: 2010.06.25/outbox.cif.g09.slc.cpg/sg15_82_cif.got.tgz:163758.got - 2010.06.28 07:06:18.
