data_PCOD8141907
_publ_section_title
;
Structure prediction by ZEFSAII (Michael W. Deem and Ramdas Pophale) SiO2 
 PCOD8141907
Probable space group: C 2/C
;
_chemical_formula_sum "Si O2"
_cell_formula_units_Z 56
_cell_length_a 17.838772
_cell_length_b 33.274099
_cell_length_c 4.990413
_cell_angle_alpha 90.000000
_cell_angle_beta 110.718631
_cell_angle_gamma 90.000000
_cell_volume 2770.589391
_symmetry_space_group_name_H-M "C 2/C"
_symmetry_group_IT_number 15
_symmetry_cell_setting 'monoclinic'
loop_
_space_group_symop_operation_xyz
x,y,z
-x,y,1/2-z
-x,-y,-z
x,-y,1/2+z
1/2+x,1/2+y,z
1/2-x,1/2+y,1/2-z
1/2-x,1/2-y,-z
1/2+x,1/2-y,1/2+z
loop_
_atom_site_type_symbol
_atom_site_label
_atom_site_fract_x
_atom_site_fract_y
_atom_site_fract_z
Si Si1 0.252519 0.108368 0.948494
Si Si2 0.328029 0.146147 0.530115
Si Si3 0.670669 0.025946 0.496740
Si Si4 0.409391 0.700408 0.140517
Si Si5 0.406067 0.648698 0.647868
Si Si6 0.701915 0.235044 0.183047
Si Si7 0.000000 0.617830 0.750000
Si Si8 0.500000 0.936824 0.750000
O O1 0.276873 0.139388 0.738613
O O2 0.160298 0.113116 0.941774
O O3 0.308414 0.113160 0.280546
O O4 0.270657 0.063536 0.867605
O O5 0.307162 0.187447 0.350498
O O6 0.422482 0.145050 0.721765
O O7 0.577075 0.036491 0.417686
O O8 0.690467 0.990651 0.729054
O O9 0.500000 0.711133 0.250000
O O10 0.384052 0.684083 0.404673
O O11 0.388515 0.664048 0.921158
O O12 0.380302 0.741920 0.972708
O O13 0.500000 0.634205 0.750000
O O14 0.750000 0.250000 0.500000
O O15 0.750000 0.250000 0.000000
O O16 0.977074 0.590556 0.471039
#
# Coordination Sequence:
#
# PCOD8141907 Si02
#       8
#     8   8   8   8   8   8   4   4
#     4  12  23  42  63  90 121 158 204 253 306 364
#     4  12  24  39  63  86 124 168 206 254 301 362
#     4  12  24  40  62  92 124 161 198 249 305 361
#     4  10  21  38  58  86 118 152 200 255 305 352
#     4  10  21  39  65  89 116 153 200 256 308 364
#     4  12  24  38  58  87 120 161 209 253 307 359
#     4  12  22  41  60  90 126 166 214 248 296 366
#     4  12  22  43  62  88 126 162 210 250 294 360
#
# _framework density 20.212305000000001
#
# number of rings (size 3 to 8) (size 9 to 14) (size 15 to 20)
#    0.000    0.571    2.857    7.286    1.000    0.000 
#    0.000    0.000    0.000    0.857    0.000    0.000 
#    0.000    0.000    0.000    0.000    0.000    0.000 
#
# Total GULP energy -346918.155912 kJ/mol
# GULP energy per Si atom -12389.934140 kJ/mol
# Density = 2.016630 g / cm^3
# Si number density = 20.212305 Si / 1000 Ang^3
#
#
#
# Elastic Constant Matrix: (Units=GPa)
#
#
# Indices 1 2 3 4 5 6 
#
# 1 104.0930 42.7305 38.9375 0.0000 1.9648 0.0000
# 2 42.7305 92.7808 25.8034 0.0000 12.3325 0.0000
# 3 38.9375 25.8034 114.0201 0.0000 -4.5719 0.0000
# 4 0.0000 0.0000 0.0000 38.7394 0.0000 0.0428
# 5 1.9648 12.3325 -4.5719 0.0000 30.1287 0.0000
# 6 0.0000 0.0000 0.0000 0.0428 0.0000 40.4194
#
#
#
# Elastic Compliance Matrix: (Units=1/GPa)
#
#
# Indices 1 2 3 4 5 6 
#
# 1 0.012910 -0.005157 -0.003210 0.000000 0.000782 0.000000
# 2 -0.005157 0.014409 -0.001733 0.000000 -0.005825 0.000000
# 3 -0.003210 -0.001733 0.010359 0.000000 0.002491 0.000000
# 4 0.000000 0.000000 0.000000 0.025814 0.000000 -0.000027
# 5 0.000782 -0.005825 0.002491 0.000000 0.035902 0.000000
# 6 0.000000 0.000000 0.000000 -0.000027 0.000000 0.024741
#
#
# Mechanical properties :
#
#
# Convention : Reuss Voigt Hill
#
# Bulk Modulus (GPa) = 57.21805 58.42628 57.82217
# Shear Modulus (GPa) = 33.29762 35.41903 34.35832
#
# Velocity S-wave (km/s) = 4.06321 4.19065 4.12742
# Velocity P-wave (km/s) = 7.09809 7.23771 7.16824
#
# Compressibility (1/GPa) = 0.01747700
#
# Stress axis : x y z
#
# Youngs Moduli (GPa) = 77.46095 69.39930 96.53572
#
# Poissons Ratio (x) = 0.35787 0.30991
# Poissons Ratio (y) = 0.39944 0.16734
# Poissons Ratio (z) = 0.24867 0.12030
#
# Static dielectric constant tensor:
#      x y z
#    x 3.820380 0.000000 0.008740 
#    y 0.000000 3.310060 0.000000 
#    z 0.008740 0.000000 3.717980 
# 
# 
# High freq. dielectric constant tensor:
#      x y z
#    x 1.794900 0.000000 -0.004610 
#    y 0.000000 1.764320 0.000000 
#    z -0.004610 0.000000 1.812440 
# 
# From -- ./inp_files/11595.got.cif
#   From: 2010.06.25/outbox.cif.g09.slc.cpg/sg15_6_cif.got.tgz:11595.got - 2010.06.28 07:06:18.
