data_PCOD8141257
_publ_section_title
;
Structure prediction by ZEFSAII (Michael W. Deem and Ramdas Pophale) SiO2 
 PCOD8141257
Probable space group: C 2/C
;
_chemical_formula_sum "Si O2"
_cell_formula_units_Z 56
_cell_length_a 27.609803
_cell_length_b 20.585672
_cell_length_c 5.254909
_cell_angle_alpha 90.000000
_cell_angle_beta 95.143405
_cell_angle_gamma 90.000000
_cell_volume 2974.687250
_symmetry_space_group_name_H-M "C 2/C"
_symmetry_group_IT_number 15
_symmetry_cell_setting 'monoclinic'
loop_
_space_group_symop_operation_xyz
x,y,z
-x,y,1/2-z
-x,-y,-z
x,-y,1/2+z
1/2+x,1/2+y,z
1/2-x,1/2+y,1/2-z
1/2-x,1/2-y,-z
1/2+x,1/2-y,1/2+z
loop_
_atom_site_type_symbol
_atom_site_label
_atom_site_fract_x
_atom_site_fract_y
_atom_site_fract_z
Si Si1 0.392520 0.802495 0.214344
Si Si2 0.716345 0.287284 0.291129
Si Si3 0.876685 0.823060 0.970520
Si Si4 0.557305 0.225440 0.273881
Si Si5 0.743940 0.960927 0.769404
Si Si6 0.857980 0.961110 0.815351
Si Si7 0.703712 0.840642 0.502204
O O1 0.371715 0.728736 0.238380
O O2 0.424132 0.819977 0.481786
O O3 0.347008 0.852947 0.172586
O O4 0.426121 0.807120 0.981278
O O5 0.750000 0.250000 0.500000
O O6 0.674186 0.328359 0.402464
O O7 0.748545 0.339866 0.153569
O O8 0.693249 0.230780 0.109514
O O9 0.919620 0.797916 0.179598
O O10 0.887768 0.894022 0.862779
O O11 0.500000 0.232200 0.250000
O O12 0.800882 0.945654 0.789460
O O13 0.713527 0.894288 0.722997
O O14 0.728751 0.008644 0.531628
O O15 0.873160 0.991444 0.552676
#
# Coordination Sequence:
#
# PCOD8141257 Si02
#       7
#     8   8   8   8   8   8   8
#     4  10  21  36  56  85 106 142 176 225 287 336
#     4  11  20  32  51  84 111 153 172 236 271 324
#     4  10  22  33  57  79 112 139 195 218 287 324
#     4  10  21  37  58  82 112 137 173 229 300 349
#     4  10  24  37  51  73 111 163 194 218 258 310
#     4  10  23  36  51  73 107 153 197 230 256 313
#     4  11  22  33  54  80 120 143 193 221 272 324
#
# _framework density 18.825509
#
# number of rings (size 3 to 8) (size 9 to 14) (size 15 to 20)
#    0.857    0.857    2.857    1.286   12.000    0.000 
#    0.000    0.000    0.000    0.857    0.000    0.000 
#    0.000   11.429    0.000    0.000    0.000    0.000 
#
# Total GULP energy -347050.413132 kJ/mol
# GULP energy per Si atom -12394.657612 kJ/mol
# Density = 1.878266 g / cm^3
# Si number density = 18.825509 Si / 1000 Ang^3
#
#
#
# Elastic Constant Matrix: (Units=GPa)
#
#
# Indices 1 2 3 4 5 6 
#
# 1 81.5560 13.5742 31.2914 0.0000 2.4725 0.0000
# 2 13.5742 26.3017 8.5950 0.0000 -0.9286 0.0000
# 3 31.2914 8.5950 109.1253 0.0000 -4.6463 0.0000
# 4 0.0000 0.0000 0.0000 29.8907 0.0000 4.6879
# 5 2.4725 -0.9286 -4.6463 0.0000 26.7898 0.0000
# 6 0.0000 0.0000 0.0000 4.6879 0.0000 11.4852
#
#
#
# Elastic Compliance Matrix: (Units=1/GPa)
#
#
# Indices 1 2 3 4 5 6 
#
# 1 0.014892 -0.006506 -0.003854 0.000000 -0.002268 0.000000
# 2 -0.006506 0.041885 -0.001356 0.000000 0.001817 0.000000
# 3 -0.003854 -0.001356 0.010466 0.000000 0.002124 0.000000
# 4 0.000000 0.000000 0.000000 0.035743 0.000000 -0.014589
# 5 -0.002268 0.001817 0.002124 0.000000 0.037968 0.000000
# 6 0.000000 0.000000 0.000000 -0.014589 0.000000 0.093023
#
#
# Mechanical properties :
#
#
# Convention : Reuss Voigt Hill
#
# Bulk Modulus (GPa) = 22.82559 35.98935 29.40747
# Shear Modulus (GPa) = 18.38131 24.53464 21.45797
#
# Velocity S-wave (km/s) = 3.12814 3.61399 3.37981
# Velocity P-wave (km/s) = 5.01977 6.04760 5.55750
#
# Compressibility (1/GPa) = 0.04381047
#
# Stress axis : x y z
#
# Youngs Moduli (GPa) = 67.15003 23.87469 95.54519
#
# Poissons Ratio (x) = 0.15533 0.36827
# Poissons Ratio (y) = 0.43689 0.12956
# Poissons Ratio (z) = 0.25882 0.03237
#
# Static dielectric constant tensor:
#      x y z
#    x 3.000980 0.000000 0.144160 
#    y 0.000000 3.152430 0.000000 
#    z 0.144160 0.000000 3.483730 
# 
# 
# High freq. dielectric constant tensor:
#      x y z
#    x 1.692920 0.000000 -0.001610 
#    y 0.000000 1.694530 0.000000 
#    z -0.001610 0.000000 1.753620 
# 
# From -- ./inp_files/17209.got.cif
#   From: 2010.06.25/outbox.cif.g09.slc.cpg/sg15_9_cif.got.tgz:17209.got - 2010.06.28 07:06:18.
