data_PCOD8141463
_publ_section_title
;
Structure prediction by ZEFSAII (Michael W. Deem and Ramdas Pophale) SiO2 
 PCOD8141463
Probable space group: C 2/C
;
_chemical_formula_sum "Si O2"
_cell_formula_units_Z 44
_cell_length_a 14.234101
_cell_length_b 11.876521
_cell_length_c 26.046060
_cell_angle_alpha 90.000000
_cell_angle_beta 149.458700
_cell_angle_gamma 90.000000
_cell_volume 2237.490545
_symmetry_space_group_name_H-M "C 2/C"
_symmetry_group_IT_number 15
_symmetry_cell_setting 'monoclinic'
loop_
_space_group_symop_operation_xyz
x,y,z
-x,y,1/2-z
-x,-y,-z
x,-y,1/2+z
1/2+x,1/2+y,z
1/2-x,1/2+y,1/2-z
1/2-x,1/2-y,-z
1/2+x,1/2-y,1/2+z
loop_
_atom_site_type_symbol
_atom_site_label
_atom_site_fract_x
_atom_site_fract_y
_atom_site_fract_z
Si Si1 0.193230 0.481642 0.866685
Si Si2 0.957107 0.156362 0.945029
Si Si3 0.375409 0.086010 0.411310
Si Si4 0.928545 0.596740 0.092236
Si Si5 0.500000 0.481375 0.250000
Si Si6 0.552127 0.661112 0.873192
O O1 0.275021 0.595054 0.881265
O O2 0.141466 0.501495 0.902649
O O3 0.000000 0.445046 0.750000
O O4 0.353415 0.385921 0.938616
O O5 0.935375 0.286030 0.949795
O O6 0.961141 0.131339 0.885716
O O7 0.397163 0.059301 0.360286
O O8 0.169473 0.066799 0.333946
O O9 0.500000 0.000000 0.500000
O O10 0.976595 0.705654 0.150204
O O11 0.770295 0.633310 0.977075
O O12 0.533547 0.405871 0.215002
#
# Coordination Sequence:
#
# PCOD8141463 Si02
#       6
#     8   8   8   8   4   8
#     4  10  21  36  69  87 114 162 212 236 294 361
#     4   9  22  43  59  89 131 154 190 265 299 336
#     4  11  23  41  60  87 126 159 193 249 310 354
#     4   9  19  39  59  84 119 155 196 255 288 341
#     4  12  24  34  64  90 114 164 206 236 304 374
#     4   9  19  37  61  84 118 155 201 242 295 352
#
# _framework density 19.664887
#
# number of rings (size 3 to 8) (size 9 to 14) (size 15 to 20)
#    0.000    2.182    1.818    1.091    5.091    0.000 
#    0.000    0.909    0.000    0.000    0.000    0.000 
#    0.000    0.000    0.000    0.000    0.000    0.000 
#
# Total GULP energy -272617.348007 kJ/mol
# GULP energy per Si atom -12391.697637 kJ/mol
# Density = 1.962013 g / cm^3
# Si number density = 19.664887 Si / 1000 Ang^3
#
#
#
# Elastic Constant Matrix: (Units=GPa)
#
#
# Indices 1 2 3 4 5 6 
#
# 1 126.1136 69.7933 39.2030 -0.0001 9.2048 0.0000
# 2 69.7933 112.4460 46.7598 0.0000 -2.9443 0.0000
# 3 39.2030 46.7598 98.9098 0.0006 10.8805 0.0002
# 4 -0.0001 0.0000 0.0006 19.4015 0.0001 -1.0169
# 5 9.2048 -2.9443 10.8805 0.0001 30.2945 0.0000
# 6 0.0000 0.0000 0.0002 -1.0169 0.0000 32.9250
#
#
#
# Elastic Compliance Matrix: (Units=1/GPa)
#
#
# Indices 1 2 3 4 5 6 
#
# 1 0.012768 -0.007627 -0.000986 0.000000 -0.004267 0.000000
# 2 -0.007627 0.015907 -0.005125 0.000000 0.005704 0.000000
# 3 -0.000986 -0.005125 0.013478 0.000000 -0.005039 0.000000
# 4 0.000000 0.000000 0.000000 0.051626 0.000000 0.001594
# 5 -0.004267 0.005704 -0.005039 0.000000 0.036670 0.000000
# 6 0.000000 0.000000 0.000000 0.001594 0.000000 0.030421
#
#
# Mechanical properties :
#
#
# Convention : Reuss Voigt Hill
#
# Bulk Modulus (GPa) = 68.12511 72.10906 70.11709
# Shear Modulus (GPa) = 25.87483 28.63842 27.25663
#
# Velocity S-wave (km/s) = 3.63131 3.82032 3.72702
# Velocity P-wave (km/s) = 7.23188 7.49722 7.36575
#
# Compressibility (1/GPa) = 0.01467887
#
# Stress axis : x y z
#
# Youngs Moduli (GPa) = 78.32155 62.86400 74.19472
#
# Poissons Ratio (x) = 0.47944 0.07313
# Poissons Ratio (y) = 0.59733 0.38024
# Poissons Ratio (z) = 0.07720 0.32217
#
# Static dielectric constant tensor:
#      x y z
#    x 3.886040 0.000000 0.017560 
#    y 0.000000 3.460830 0.000000 
#    z 0.017560 0.000000 3.219600 
# 
# 
# High freq. dielectric constant tensor:
#      x y z
#    x 1.784320 0.000000 0.008310 
#    y 0.000000 1.747580 0.000000 
#    z 0.008310 0.000000 1.747140 
# 
# From -- ./inp_files/151739.got.cif
#   From: 2010.06.25/outbox.cif.g09.slc.cpg/sg15_76_cif.got.tgz:151739.got - 2010.06.28 07:06:18.
