data_PCOD8141397
_publ_section_title
;
Structure prediction by ZEFSAII (Michael W. Deem and Ramdas Pophale) SiO2 
 PCOD8141397
Probable space group: C 2/C
;
_chemical_formula_sum "Si O2"
_cell_formula_units_Z 64
_cell_length_a 14.325441
_cell_length_b 20.342209
_cell_length_c 11.736337
_cell_angle_alpha 90.000000
_cell_angle_beta 89.043517
_cell_angle_gamma 90.000000
_cell_volume 3419.622500
_symmetry_space_group_name_H-M "C 2/C"
_symmetry_group_IT_number 15
_symmetry_cell_setting 'monoclinic'
loop_
_space_group_symop_operation_xyz
x,y,z
-x,y,1/2-z
-x,-y,-z
x,-y,1/2+z
1/2+x,1/2+y,z
1/2-x,1/2+y,1/2-z
1/2-x,1/2-y,-z
1/2+x,1/2-y,1/2+z
loop_
_atom_site_type_symbol
_atom_site_label
_atom_site_fract_x
_atom_site_fract_y
_atom_site_fract_z
Si Si1 0.107154 0.738061 0.733541
Si Si2 0.749910 0.802069 0.398655
Si Si3 0.111636 0.885633 0.754422
Si Si4 0.249734 0.563085 0.416353
Si Si5 0.741345 0.429776 0.954083
Si Si6 0.174555 0.695140 0.499405
Si Si7 0.606176 0.084127 0.224578
Si Si8 0.602133 0.767622 0.760709
O O1 0.150297 0.697234 0.837245
O O2 0.151562 0.811378 0.736234
O O3 0.116613 0.698751 0.616289
O O4 0.000000 0.749422 0.750000
O O5 0.750000 0.750000 0.500000
O O6 0.764296 0.874519 0.447725
O O7 0.825171 0.782952 0.298410
O O8 0.152182 0.925366 0.647892
O O9 0.156008 0.914429 0.869580
O O10 0.000000 0.891696 0.750000
O O11 0.272882 0.499467 0.488069
O O12 0.221873 0.623717 0.497425
O O13 0.165315 0.555713 0.328451
O O14 0.842916 0.438945 0.892219
O O15 0.250000 0.750000 0.500000
O O16 0.112156 0.714619 0.393225
O O17 0.500000 0.059523 0.250000
O O18 0.609336 0.161986 0.200504
O O19 0.500000 0.735437 0.750000
#
# Coordination Sequence:
#
# PCOD8141397 Si02
#       8
#     8   8   8   8   8   8   8   8
#     4  11  23  37  63  94 118 154 203 254 300 347
#     4  12  21  38  59  88 120 152 198 249 293 351
#     4  10  21  40  60  84 117 159 200 242 305 361
#     4  10  22  39  58  86 117 158 197 237 301 358
#     4  11  23  38  61  86 121 159 193 248 299 357
#     4  11  20  40  62  83 120 157 196 248 294 350
#     4   9  19  38  60  83 114 157 196 237 302 363
#     4  10  21  36  62  90 118 155 199 247 300 352
#
# _framework density 18.715516000000001
#
# number of rings (size 3 to 8) (size 9 to 14) (size 15 to 20)
#    0.000    1.500    5.000    0.750    1.750    4.000 
#    0.000    1.875    0.000    0.000    0.000    0.000 
#    0.000    0.000    0.000    0.000    0.000    0.000 
#
# Total GULP energy -396561.983339 kJ/mol
# GULP energy per Si atom -12392.561979 kJ/mol
# Density = 1.867292 g / cm^3
# Si number density = 18.715516 Si / 1000 Ang^3
#
#
#
# Elastic Constant Matrix: (Units=GPa)
#
#
# Indices 1 2 3 4 5 6 
#
# 1 101.8205 36.9645 40.1373 0.0000 3.5543 0.0000
# 2 36.9645 127.0386 68.5252 0.0000 2.0309 0.0000
# 3 40.1373 68.5252 120.0138 0.0000 -5.5613 0.0000
# 4 0.0000 0.0000 0.0000 32.9057 0.0000 5.1028
# 5 3.5543 2.0309 -5.5613 0.0000 22.7046 0.0000
# 6 0.0000 0.0000 0.0000 5.1028 0.0000 3.7431
#
#
#
# Elastic Compliance Matrix: (Units=1/GPa)
#
#
# Indices 1 2 3 4 5 6 
#
# 1 0.011737 -0.001731 -0.003049 0.000000 -0.002429 0.000000
# 2 -0.001731 0.011789 -0.006259 0.000000 -0.002317 0.000000
# 3 -0.003049 -0.006259 0.013123 0.000000 0.004252 0.000000
# 4 0.000000 0.000000 0.000000 0.038536 0.000000 -0.052534
# 5 -0.002429 -0.002317 0.004252 0.000000 0.045673 0.000000
# 6 0.000000 0.000000 0.000000 -0.052534 0.000000 0.338772
#
#
# Mechanical properties :
#
#
# Convention : Reuss Voigt Hill
#
# Bulk Modulus (GPa) = 68.64124 71.12519 69.88322
# Shear Modulus (GPa) = 10.27610 25.42043 17.84826
#
# Velocity S-wave (km/s) = 2.34576 3.68945 3.09149
# Velocity P-wave (km/s) = 6.64022 7.49901 7.08265
#
# Compressibility (1/GPa) = 0.01456850
#
# Stress axis : x y z
#
# Youngs Moduli (GPa) = 85.20402 84.82610 76.20137
#
# Poissons Ratio (x) = 0.14687 0.23235
# Poissons Ratio (y) = 0.14753 0.47698
# Poissons Ratio (z) = 0.25980 0.53096
#
# Static dielectric constant tensor:
#      x y z
#    x 3.545660 0.000000 -0.103580 
#    y 0.000000 3.187280 0.000000 
#    z -0.103580 0.000000 3.452300 
# 
# 
# High freq. dielectric constant tensor:
#      x y z
#    x 1.731630 0.000000 -0.001680 
#    y 0.000000 1.708470 0.000000 
#    z -0.001680 0.000000 1.735730 
# 
# From -- ./inp_files/98768.got.cif
#   From: 2010.06.25/outbox.cif.g09.slc.cpg/sg15_50_cif.got.tgz:98768.got - 2010.06.28 07:06:18.
