data_PCOD8141082
_publ_section_title
;
Structure prediction by ZEFSAII (Michael W. Deem and Ramdas Pophale) SiO2 
 PCOD8141082
Probable space group: C 2/C
;
_chemical_formula_sum "Si O2"
_cell_formula_units_Z 56
_cell_length_a 10.690708
_cell_length_b 16.885674
_cell_length_c 28.684924
_cell_angle_alpha 90.000000
_cell_angle_beta 147.510830
_cell_angle_gamma 90.000000
_cell_volume 2781.417695
_symmetry_space_group_name_H-M "C 2/C"
_symmetry_group_IT_number 15
_symmetry_cell_setting 'monoclinic'
loop_
_space_group_symop_operation_xyz
x,y,z
-x,y,1/2-z
-x,-y,-z
x,-y,1/2+z
1/2+x,1/2+y,z
1/2-x,1/2+y,1/2-z
1/2-x,1/2-y,-z
1/2+x,1/2-y,1/2+z
loop_
_atom_site_type_symbol
_atom_site_label
_atom_site_fract_x
_atom_site_fract_y
_atom_site_fract_z
Si Si1 0.074299 0.482236 0.634221
Si Si2 0.689519 0.931936 0.769895
Si Si3 0.695109 0.506017 0.440984
Si Si4 0.240164 0.345153 0.176022
Si Si5 0.695039 0.817701 0.634159
Si Si6 0.162901 0.773790 0.728765
Si Si7 0.445395 0.868590 0.475581
O O1 0.058979 0.469799 0.684583
O O2 0.223867 0.560599 0.672615
O O3 0.215479 0.410117 0.655333
O O4 0.816921 0.490990 0.529932
O O5 0.500000 0.935458 0.750000
O O6 0.759926 0.841438 0.782748
O O7 0.918823 0.980652 0.858100
O O8 0.734543 0.429450 0.420150
O O9 0.814265 0.581987 0.454234
O O10 0.500000 0.315735 0.250000
O O11 0.140593 0.306686 0.192109
O O12 0.101908 0.317597 0.085887
O O13 0.658509 0.766699 0.670515
O O14 0.480031 0.808516 0.530298
O O15 0.921492 0.792564 0.677309
#
# Coordination Sequence:
#
# PCOD8141082 Si02
#       7
#     8   8   8   8   8   8   8
#     4   9  21  36  60  87 107 152 209 243 286 335
#     4  11  21  35  56  80 118 160 188 231 301 364
#     4   9  17  33  57  89 112 140 204 257 276 337
#     4  11  22  34  55  86 123 147 188 254 299 340
#     4   9  18  37  62  82 106 154 202 242 275 353
#     4  10  21  35  56  83 117 149 193 236 295 350
#     4   9  17  33  60  86 108 144 203 251 282 328
#
# _framework density 20.133617999999998
#
# number of rings (size 3 to 8) (size 9 to 14) (size 15 to 20)
#    0.000    2.286    1.429    2.143    4.000    1.143 
#    2.571    0.714    0.000    1.714    0.000    0.000 
#    0.000    0.000    0.000    0.000    0.000    0.000 
#
# Total GULP energy -346953.153478 kJ/mol
# GULP energy per Si atom -12391.184053 kJ/mol
# Density = 2.008779 g / cm^3
# Si number density = 20.133618 Si / 1000 Ang^3
#
#
#
# Elastic Constant Matrix: (Units=GPa)
#
#
# Indices 1 2 3 4 5 6 
#
# 1 134.2668 39.3917 69.4530 0.0006 -13.2686 0.0003
# 2 39.3917 53.5970 36.6434 0.0002 -17.1973 0.0003
# 3 69.4530 36.6434 104.3902 0.0003 -31.2046 0.0005
# 4 0.0006 0.0002 0.0003 17.8295 0.0004 -12.6728
# 5 -13.2686 -17.1973 -31.2046 0.0004 45.8716 0.0003
# 6 0.0003 0.0003 0.0005 -12.6728 0.0003 24.9231
#
#
#
# Elastic Compliance Matrix: (Units=1/GPa)
#
#
# Indices 1 2 3 4 5 6 
#
# 1 0.012527 -0.005145 -0.007559 0.000000 -0.003447 0.000000
# 2 -0.005145 0.027323 -0.004457 -0.000001 0.005723 0.000000
# 3 -0.007559 -0.004457 0.018854 -0.000001 0.008968 -0.000001
# 4 0.000000 -0.000001 -0.000001 0.087830 -0.000002 0.044660
# 5 -0.003447 0.005723 0.008968 -0.000002 0.029049 -0.000001
# 6 0.000000 0.000000 -0.000001 0.044660 -0.000001 0.062832
#
#
# Mechanical properties :
#
#
# Convention : Reuss Voigt Hill
#
# Bulk Modulus (GPa) = 41.01467 64.80335 52.90901
# Shear Modulus (GPa) = 17.80231 27.50922 22.65576
#
# Velocity S-wave (km/s) = 2.97679 3.70040 3.35814
# Velocity P-wave (km/s) = 5.67719 7.10731 6.43212
#
# Compressibility (1/GPa) = 0.02438152
#
# Stress axis : x y z
#
# Youngs Moduli (GPa) = 79.83057 36.59966 53.03995
#
# Poissons Ratio (x) = 0.18830 0.40091
# Poissons Ratio (y) = 0.41072 0.23641
# Poissons Ratio (z) = 0.60341 0.16313
#
# Static dielectric constant tensor:
#      x y z
#    x 3.605120 0.000000 -0.618780 
#    y 0.000000 3.366180 0.000000 
#    z -0.618780 0.000000 4.168210 
# 
# 
# High freq. dielectric constant tensor:
#      x y z
#    x 1.774460 0.000000 -0.032410 
#    y 0.000000 1.752860 0.000000 
#    z -0.032410 0.000000 1.794910 
# 
# From -- ./inp_files/289758.got.cif
#   From: 2010.06.25/outbox.cif.g09.slc.cpg/sg15_145_cif.got.tgz:289758.got - 2010.06.28 07:06:18.
