data_PCOD8141066
_publ_section_title
;
Structure prediction by ZEFSAII (Michael W. Deem and Ramdas Pophale) SiO2 
 PCOD8141066
Probable space group: C 2/C
;
_chemical_formula_sum "Si O2"
_cell_formula_units_Z 64
_cell_length_a 9.379132
_cell_length_b 14.412341
_cell_length_c 25.383273
_cell_angle_alpha 90.000000
_cell_angle_beta 99.141975
_cell_angle_gamma 90.000000
_cell_volume 3387.606146
_symmetry_space_group_name_H-M "C 2/C"
_symmetry_group_IT_number 15
_symmetry_cell_setting 'monoclinic'
loop_
_space_group_symop_operation_xyz
x,y,z
-x,y,1/2-z
-x,-y,-z
x,-y,1/2+z
1/2+x,1/2+y,z
1/2-x,1/2+y,1/2-z
1/2-x,1/2-y,-z
1/2+x,1/2-y,1/2+z
loop_
_atom_site_type_symbol
_atom_site_label
_atom_site_fract_x
_atom_site_fract_y
_atom_site_fract_z
Si Si1 0.480796 0.308220 0.890612
Si Si2 0.200100 0.332215 0.631472
Si Si3 0.780886 0.011438 0.206880
Si Si4 0.536968 0.344987 0.111802
Si Si5 0.716618 0.869828 0.120655
Si Si6 0.097069 0.977219 0.677609
Si Si7 0.640640 0.966620 0.538775
Si Si8 0.078653 0.903662 0.999493
O O1 0.637966 0.303248 0.874191
O O2 0.406891 0.207670 0.887586
O O3 0.381213 0.379705 0.851386
O O4 0.497763 0.343861 0.950745
O O5 0.195502 0.397873 0.682452
O O6 0.119333 0.239710 0.643564
O O7 0.114385 0.383756 0.578907
O O8 0.779996 0.009341 0.270407
O O9 0.941807 0.019174 0.194779
O O10 0.709617 0.918683 0.177853
O O11 0.372472 0.326591 0.118544
O O12 0.606541 0.440330 0.136274
O O13 0.564618 0.342469 0.051021
O O14 0.701327 0.945551 0.073800
O O15 0.755154 0.926748 0.503624
O O16 0.500000 0.000000 0.500000
O O17 0.000000 0.000000 0.000000
#
# Coordination Sequence:
#
# PCOD8141066 Si02
#       8
#     8   8   8   8   8   8   8   8
#     4  10  21  35  55  80 109 142 182 218 265 323
#     4   9  21  37  53  80 109 139 179 223 268 321
#     4   8  17  37  58  75 107 141 181 223 264 324
#     4  11  21  35  56  82 110 142 180 219 271 320
#     4  10  21  36  54  83 108 139 185 224 264 320
#     4   9  17  35  59  78 102 147 180 216 273 322
#     4  10  22  37  54  77 108 149 183 215 267 319
#     4  11  20  37  54  77 114 145 178 220 262 323
#
# _framework density 18.892396000000002
#
# number of rings (size 3 to 8) (size 9 to 14) (size 15 to 20)
#    0.000    2.250    2.500    1.500    3.500    3.500 
#    0.000    0.000    0.000    1.500    0.000    0.000 
#    0.000    0.000    0.000    0.000    0.000    0.000 
#
# Total GULP energy -396718.199040 kJ/mol
# GULP energy per Si atom -12397.443720 kJ/mol
# Density = 1.884940 g / cm^3
# Si number density = 18.892396 Si / 1000 Ang^3
#
#
#
# Elastic Constant Matrix: (Units=GPa)
#
#
# Indices 1 2 3 4 5 6 
#
# 1 47.2715 32.0533 32.1910 0.0000 10.5206 0.0000
# 2 32.0533 105.1186 32.4880 0.0000 8.3490 0.0000
# 3 32.1910 32.4880 119.0030 0.0000 9.1910 0.0000
# 4 0.0000 0.0000 0.0000 23.4999 0.0000 10.5136
# 5 10.5206 8.3490 9.1910 0.0000 20.1732 0.0000
# 6 0.0000 0.0000 0.0000 10.5136 0.0000 37.6805
#
#
#
# Elastic Compliance Matrix: (Units=1/GPa)
#
#
# Indices 1 2 3 4 5 6 
#
# 1 0.032632 -0.007202 -0.005988 0.000000 -0.011309 0.000000
# 2 -0.007202 0.012172 -0.001322 0.000000 -0.000679 0.000000
# 3 -0.005988 -0.001322 0.010469 0.000000 -0.001100 0.000000
# 4 0.000000 0.000000 0.000000 0.048623 0.000000 -0.013567
# 5 -0.011309 -0.000679 -0.001100 0.000000 0.056251 0.000000
# 6 0.000000 0.000000 0.000000 -0.013567 0.000000 0.030324
#
#
# Mechanical properties :
#
#
# Convention : Reuss Voigt Hill
#
# Bulk Modulus (GPa) = 38.09618 51.65084 44.87351
# Shear Modulus (GPa) = 21.90646 27.91480 24.91063
#
# Velocity S-wave (km/s) = 3.40889 3.84808 3.63513
# Velocity P-wave (km/s) = 5.97517 6.86604 6.43604
#
# Compressibility (1/GPa) = 0.02624935
#
# Stress axis : x y z
#
# Youngs Moduli (GPa) = 30.64477 82.15830 95.52214
#
# Poissons Ratio (x) = 0.59167 0.57195
# Poissons Ratio (y) = 0.22069 0.12631
# Poissons Ratio (z) = 0.18349 0.10864
#
# Static dielectric constant tensor:
#      x y z
#    x 3.459670 0.000000 -0.073990 
#    y 0.000000 3.474510 0.000000 
#    z -0.073990 0.000000 4.091280 
# 
# 
# High freq. dielectric constant tensor:
#      x y z
#    x 1.704380 0.000000 0.007240 
#    y 0.000000 1.741980 0.000000 
#    z 0.007240 0.000000 1.739410 
# 
# From -- ./inp_files/288850.got.cif
#   From: 2010.06.25/outbox.cif.g09.slc.cpg/sg15_145_cif.got.tgz:288850.got - 2010.06.28 07:06:18.
