data_PCOD8141602
_publ_section_title
;
Structure prediction by ZEFSAII (Michael W. Deem and Ramdas Pophale) SiO2 
 PCOD8141602
Probable space group: C 2/C
;
_chemical_formula_sum "Si O2"
_cell_formula_units_Z 48
_cell_length_a 9.135556
_cell_length_b 23.501222
_cell_length_c 12.440356
_cell_angle_alpha 90.000000
_cell_angle_beta 111.798343
_cell_angle_gamma 90.000000
_cell_volume 2479.924960
_symmetry_space_group_name_H-M "C 2/C"
_symmetry_group_IT_number 15
_symmetry_cell_setting 'monoclinic'
loop_
_space_group_symop_operation_xyz
x,y,z
-x,y,1/2-z
-x,-y,-z
x,-y,1/2+z
1/2+x,1/2+y,z
1/2-x,1/2+y,1/2-z
1/2-x,1/2-y,-z
1/2+x,1/2-y,1/2+z
loop_
_atom_site_type_symbol
_atom_site_label
_atom_site_fract_x
_atom_site_fract_y
_atom_site_fract_z
Si Si1 0.683745 0.550746 0.785295
Si Si2 0.597089 0.828310 0.669933
Si Si3 0.102815 0.639461 0.584226
Si Si4 0.786043 0.609134 0.595316
Si Si5 0.680493 0.221371 0.782095
Si Si6 0.677153 0.577526 0.333646
O O1 0.500000 0.559984 0.750000
O O2 0.766364 0.590559 0.897897
O O3 0.737844 0.567807 0.679639
O O4 0.731713 0.486245 0.822815
O O5 0.500000 0.819145 0.750000
O O6 0.467066 0.835992 0.543075
O O7 0.704870 0.774285 0.676013
O O8 0.707975 0.883331 0.705813
O O9 0.187215 0.692000 0.667146
O O10 0.973312 0.607355 0.623517
O O11 0.754421 0.675657 0.613297
O O12 0.688905 0.590943 0.463581
O O13 0.500000 0.241277 0.750000
O O14 0.500000 0.589328 0.250000
#
# Coordination Sequence:
#
# PCOD8141602 Si02
#       6
#     8   8   8   8   8   8
#     4  10  21  37  60  86 112 148 193 234 279 334
#     4  11  24  36  55  89 117 144 189 245 289 318
#     4   9  21  40  59  81 112 156 192 221 283 353
#     4   9  20  39  61  82 112 156 193 221 278 352
#     4   9  19  38  60  79 110 154 193 225 275 351
#     4  10  23  38  57  86 116 152 190 230 285 336
#
# _framework density 19.355423999999999
#
# number of rings (size 3 to 8) (size 9 to 14) (size 15 to 20)
#    0.000    2.333    0.000    2.000    0.000   20.000 
#    0.000    0.000    0.000    0.000    0.000    0.000 
#    0.000    0.000    0.000    0.000    0.000    0.000 
#
# Total GULP energy -297518.289441 kJ/mol
# GULP energy per Si atom -12396.595393 kJ/mol
# Density = 1.931137 g / cm^3
# Si number density = 19.355424 Si / 1000 Ang^3
#
#
#
# Elastic Constant Matrix: (Units=GPa)
#
#
# Indices 1 2 3 4 5 6 
#
# 1 67.8177 75.9699 41.9739 0.0000 -3.5895 0.0000
# 2 75.9699 162.7314 73.5814 0.0000 14.2319 0.0000
# 3 41.9739 73.5814 116.2403 0.0000 3.4163 0.0000
# 4 0.0000 0.0000 0.0000 29.2102 0.0000 9.3876
# 5 -3.5895 14.2319 3.4163 0.0000 32.5035 0.0000
# 6 0.0000 0.0000 0.0000 9.3876 0.0000 41.2478
#
#
#
# Elastic Compliance Matrix: (Units=1/GPa)
#
#
# Indices 1 2 3 4 5 6 
#
# 1 0.035126 -0.016106 -0.002819 0.000000 0.011227 0.000000
# 2 -0.016106 0.016341 -0.004279 0.000000 -0.008484 0.000000
# 3 -0.002819 -0.004279 0.012321 0.000000 0.000267 0.000000
# 4 0.000000 0.000000 0.000000 0.036936 0.000000 -0.008406
# 5 0.011227 -0.008484 0.000267 0.000000 0.035692 0.000000
# 6 0.000000 0.000000 0.000000 -0.008406 0.000000 0.026157
#
#
# Mechanical properties :
#
#
# Convention : Reuss Voigt Hill
#
# Bulk Modulus (GPa) = 57.53214 81.09331 69.31273
# Shear Modulus (GPa) = 23.28033 30.94324 27.11179
#
# Velocity S-wave (km/s) = 3.47188 4.00269 3.74670
# Velocity P-wave (km/s) = 6.77204 7.95927 7.38953
#
# Compressibility (1/GPa) = 0.01738159
#
# Stress axis : x y z
#
# Youngs Moduli (GPa) = 28.46896 61.19742 81.15999
#
# Poissons Ratio (x) = 0.98563 0.22877
# Poissons Ratio (y) = 0.45851 0.34726
# Poissons Ratio (z) = 0.08025 0.26185
#
# Static dielectric constant tensor:
#      x y z
#    x 3.516120 0.000000 0.060590 
#    y 0.000000 3.605890 0.000000 
#    z 0.060590 0.000000 3.650500 
# 
# 
# High freq. dielectric constant tensor:
#      x y z
#    x 1.749270 0.000000 0.011380 
#    y 0.000000 1.759920 0.000000 
#    z 0.011380 0.000000 1.756900 
# 
# From -- ./inp_files/79147.got.cif
#   From: 2010.06.25/outbox.cif.g09.slc.cpg/sg15_40_cif.got.tgz:79147.got - 2010.06.28 07:06:18.
