data_PCOD8141848
_publ_section_title
;
Structure prediction by ZEFSAII (Michael W. Deem and Ramdas Pophale) SiO2 
 PCOD8141848
Probable space group: C 2/C
;
_chemical_formula_sum "Si O2"
_cell_formula_units_Z 40
_cell_length_a 24.780364
_cell_length_b 7.370497
_cell_length_c 24.134647
_cell_angle_alpha 90.000000
_cell_angle_beta 159.989615
_cell_angle_gamma 90.000000
_cell_volume 1508.388814
_symmetry_space_group_name_H-M "C 2/C"
_symmetry_group_IT_number 15
_symmetry_cell_setting 'monoclinic'
loop_
_space_group_symop_operation_xyz
x,y,z
-x,y,1/2-z
-x,-y,-z
x,-y,1/2+z
1/2+x,1/2+y,z
1/2-x,1/2+y,1/2-z
1/2-x,1/2-y,-z
1/2+x,1/2-y,1/2+z
loop_
_atom_site_type_symbol
_atom_site_label
_atom_site_fract_x
_atom_site_fract_y
_atom_site_fract_z
Si Si1 0.893679 0.870935 0.697151
Si Si2 0.501388 0.364003 0.582163
Si Si3 0.048245 0.550127 0.471425
Si Si4 0.283982 0.644349 0.312389
Si Si5 0.959176 0.493282 0.654481
O O1 0.947605 0.944704 0.809383
O O2 0.714515 0.921178 0.512314
O O3 0.000000 0.952753 0.750000
O O4 0.910259 0.653311 0.716360
O O5 0.365833 0.492853 0.428380
O O6 0.653898 0.358632 0.690079
O O7 0.423109 0.163964 0.509272
O O8 0.195829 0.655218 0.641157
O O9 0.015768 0.624875 0.377251
O O10 0.902111 0.603088 0.370636
O O11 0.000000 0.376268 0.750000
#
# Coordination Sequence:
#
# PCOD8141848 Si02
#       5
#     8   8   8   8   8
#     4  10  21  37  70 100 139 177 236 288 345 419
#     4  10  26  44  73 101 141 189 230 290 356 407
#     4  11  27  44  73 100 146 181 239 288 353 414
#     4  11  27  45  69 105 142 187 238 287 347 422
#     4  10  22  40  67 102 139 183 235 288 351 414
#
# _framework density 26.518363000000001
#
# number of rings (size 3 to 8) (size 9 to 14) (size 15 to 20)
#    0.000    1.600    0.000    3.000   22.400    0.000 
#    0.000    2.000    0.000    0.000    0.000    0.000 
#    0.000    0.000    0.000    0.000    0.000    0.000 
#
# Total GULP energy -247994.841836 kJ/mol
# GULP energy per Si atom -12399.742092 kJ/mol
# Density = 2.645801 g / cm^3
# Si number density = 26.518363 Si / 1000 Ang^3
#
#
#
# Elastic Constant Matrix: (Units=GPa)
#
#
# Indices 1 2 3 4 5 6 
#
# 1 169.5083 21.3603 21.5107 -0.0002 -27.5360 0.0001
# 2 21.3603 86.6694 26.9821 -0.0001 -2.9598 -0.0013
# 3 21.5107 26.9821 107.1597 0.0022 -10.6253 -0.0011
# 4 -0.0002 -0.0001 0.0022 29.7374 0.0008 3.5353
# 5 -27.5360 -2.9598 -10.6253 0.0008 45.4999 -0.0008
# 6 0.0001 -0.0013 -0.0011 3.5353 -0.0008 -12.3340
#
#
#
# Elastic Compliance Matrix: (Units=1/GPa)
#
#
# Indices 1 2 3 4 5 6 
#
# 1 0.006777 -0.001339 -0.000640 0.000000 0.003865 0.000000
# 2 -0.001339 0.012784 -0.003018 0.000000 -0.000684 -0.000001
# 3 -0.000640 -0.003018 0.010403 -0.000001 0.001846 -0.000001
# 4 0.000000 0.000000 -0.000001 0.032520 -0.000001 0.009321
# 5 0.003865 -0.000684 0.001846 -0.000001 0.024704 -0.000002
# 6 0.000000 -0.000001 -0.000001 0.009321 -0.000002 -0.078405
#
#
# Mechanical properties :
#
#
# Convention : Reuss Voigt Hill
#
# Bulk Modulus (GPa) = 50.07343 55.89374 52.98358
# Shear Modulus (GPa) = 196.58805 32.14628 114.36717
#
# Velocity S-wave (km/s) = 8.61938 3.48548 6.57428
# Velocity P-wave (km/s) = 10.86195 6.10911 8.81201
#
# Compressibility (1/GPa) = 0.01997067
#
# Stress axis : x y z
#
# Youngs Moduli (GPa) = 147.55311 78.22066 96.12368
#
# Poissons Ratio (x) = 0.10474 0.06152
# Poissons Ratio (y) = 0.19758 0.29010
# Poissons Ratio (z) = 0.09444 0.23607
#
# Static dielectric constant tensor:
#      x y z
#    x 5.852960 0.000000 -0.477960 
#    y 0.000000 4.548790 0.000000 
#    z -0.477960 0.000000 4.761790 
# 
# 
# High freq. dielectric constant tensor:
#      x y z
#    x 2.096010 0.000000 -0.021230 
#    y 0.000000 2.027220 0.000000 
#    z -0.021230 0.000000 2.072150 
# 
# From -- ./inp_files/303134.got.cif
#   From: 2010.06.25/outbox.cif.g09.slc.cpg/sg15_152_cif.got.tgz:303134.got - 2010.06.28 07:06:18.
