data_PCOD8141688
_publ_section_title
;
Structure prediction by ZEFSAII (Michael W. Deem and Ramdas Pophale) SiO2 
 PCOD8141688
Probable space group: C 2/C
;
_chemical_formula_sum "Si O2"
_cell_formula_units_Z 60
_cell_length_a 26.032581
_cell_length_b 9.895834
_cell_length_c 23.489789
_cell_angle_alpha 90.000000
_cell_angle_beta 151.949748
_cell_angle_gamma 90.000000
_cell_volume 2845.598707
_symmetry_space_group_name_H-M "C 2/C"
_symmetry_group_IT_number 15
_symmetry_cell_setting 'monoclinic'
loop_
_space_group_symop_operation_xyz
x,y,z
-x,y,1/2-z
-x,-y,-z
x,-y,1/2+z
1/2+x,1/2+y,z
1/2-x,1/2+y,1/2-z
1/2-x,1/2-y,-z
1/2+x,1/2-y,1/2+z
loop_
_atom_site_type_symbol
_atom_site_label
_atom_site_fract_x
_atom_site_fract_y
_atom_site_fract_z
Si Si1 0.364966 0.768374 0.022431
Si Si2 0.000000 0.849630 0.750000
Si Si3 0.799322 0.686868 0.992757
Si Si4 0.832582 0.056845 0.172922
Si Si5 0.081943 0.115072 0.642946
Si Si6 0.365460 0.540366 0.929370
Si Si7 0.819009 0.630508 0.205960
Si Si8 0.493418 0.986899 0.679786
O O1 0.399406 0.727188 0.120523
O O2 0.437672 0.904139 0.082228
O O3 0.235274 0.802170 0.889561
O O4 0.392495 0.651777 0.003986
O O5 0.944980 0.932740 0.747603
O O6 0.744572 0.541419 0.937239
O O7 0.775234 0.782525 0.916209
O O8 0.750000 0.750000 0.000000
O O9 0.928643 0.656608 0.120446
O O10 0.856529 0.996704 0.258601
O O11 0.131905 0.111889 0.628930
O O12 0.099748 0.269044 0.681109
O O13 0.953765 0.080639 0.517893
O O14 0.244777 0.475954 0.816996
O O15 0.886417 0.545659 0.225515
O O16 0.500000 0.048993 0.750000
#
# Coordination Sequence:
#
# PCOD8141688 Si02
#       8
#     8   4   8   8   8   8   8   8
#     4  11  25  40  64 100 134 176 216 267 333 403
#     4  12  22  38  64  96 132 174 208 270 320 412
#     4  10  21  37  61  94 132 168 209 262 321 396
#     4  10  24  40  64  94 134 169 218 266 333 385
#     4  10  24  49  65  98 128 170 226 286 317 400
#     4  11  25  44  73  91 131 176 226 273 338 388
#     4  11  24  41  69  96 126 172 222 268 335 392
#     4  11  22  40  61  99 139 167 213 274 325 394
#
# _framework density 21.085193
#
# number of rings (size 3 to 8) (size 9 to 14) (size 15 to 20)
#    0.000    1.333    3.333    1.200    5.600    2.133 
#    2.400    0.667    0.000    0.000    0.000    0.000 
#    0.000    0.000    0.000    0.000    0.000    0.000 
#
# Total GULP energy -371882.119437 kJ/mol
# GULP energy per Si atom -12396.070648 kJ/mol
# Density = 2.103720 g / cm^3
# Si number density = 21.085193 Si / 1000 Ang^3
#
#
#
# Elastic Constant Matrix: (Units=GPa)
#
#
# Indices 1 2 3 4 5 6 
#
# 1 133.4358 48.2457 40.9471 0.0000 3.2569 0.0000
# 2 48.2457 80.0780 20.5301 0.0000 0.3452 0.0000
# 3 40.9471 20.5301 71.0429 0.0000 -0.7165 0.0000
# 4 0.0000 0.0000 0.0000 35.8121 0.0000 1.1545
# 5 3.2569 0.3452 -0.7165 0.0000 39.3481 0.0000
# 6 0.0000 0.0000 0.0000 1.1545 0.0000 22.8486
#
#
#
# Elastic Compliance Matrix: (Units=1/GPa)
#
#
# Indices 1 2 3 4 5 6 
#
# 1 0.010910 -0.005351 -0.004751 0.000000 -0.000943 0.000000
# 2 -0.005351 0.016113 -0.001569 0.000000 0.000273 0.000000
# 3 -0.004751 -0.001569 0.017275 0.000000 0.000722 0.000000
# 4 0.000000 0.000000 0.000000 0.027969 0.000000 -0.001413
# 5 -0.000943 0.000273 0.000722 0.000000 0.025503 0.000000
# 6 0.000000 0.000000 0.000000 -0.001413 0.000000 0.043838
#
#
# Mechanical properties :
#
#
# Convention : Reuss Voigt Hill
#
# Bulk Modulus (GPa) = 47.72194 56.00029 51.86111
# Shear Modulus (GPa) = 29.08050 31.25734 30.16892
#
# Velocity S-wave (km/s) = 3.71777 3.85441 3.78671
# Velocity P-wave (km/s) = 6.41180 6.81362 6.61576
#
# Compressibility (1/GPa) = 0.02095472
#
# Stress axis : x y z
#
# Youngs Moduli (GPa) = 91.65905 62.06224 57.88577
#
# Poissons Ratio (x) = 0.33209 0.27504
# Poissons Ratio (y) = 0.49046 0.09085
# Poissons Ratio (z) = 0.43551 0.09740
#
# Static dielectric constant tensor:
#      x y z
#    x 3.617660 0.000000 -0.012220 
#    y 0.000000 -15.616890 0.000000 
#    z -0.012220 0.000000 3.811370 
# 
# 
# High freq. dielectric constant tensor:
#      x y z
#    x 1.816850 0.000000 0.005460 
#    y 0.000000 1.825710 0.000000 
#    z 0.005460 0.000000 1.829700 
# 
# From -- ./inp_files/283399.got.cif
#   From: 2010.06.25/outbox.cif.g09.slc.cpg/sg15_142_cif.got.tgz:283399.got - 2010.06.28 07:06:18.
