data_PCOD8141634
_publ_section_title
;
Structure prediction by ZEFSAII (Michael W. Deem and Ramdas Pophale) SiO2 
 PCOD8141634
Probable space group: C 2/C
;
_chemical_formula_sum "Si O2"
_cell_formula_units_Z 52
_cell_length_a 14.949158
_cell_length_b 18.440445
_cell_length_c 17.484677
_cell_angle_alpha 90.000000
_cell_angle_beta 149.246956
_cell_angle_gamma 90.000000
_cell_volume 2464.645394
_symmetry_space_group_name_H-M "C 2/C"
_symmetry_group_IT_number 15
_symmetry_cell_setting 'monoclinic'
loop_
_space_group_symop_operation_xyz
x,y,z
-x,y,1/2-z
-x,-y,-z
x,-y,1/2+z
1/2+x,1/2+y,z
1/2-x,1/2+y,1/2-z
1/2-x,1/2-y,-z
1/2+x,1/2-y,1/2+z
loop_
_atom_site_type_symbol
_atom_site_label
_atom_site_fract_x
_atom_site_fract_y
_atom_site_fract_z
Si Si1 0.975001 0.974562 0.066609
Si Si2 0.656058 0.758400 0.309842
Si Si3 0.000000 0.751524 0.250000
Si Si4 0.483161 0.789222 0.453357
Si Si5 0.678589 0.075367 0.842923
Si Si6 0.864157 0.813959 0.996466
Si Si7 0.355596 0.946328 0.360930
O O1 0.884438 0.897291 0.992904
O O2 0.161219 0.969206 0.248645
O O3 0.838748 0.032768 0.002645
O O4 0.000000 0.000000 0.000000
O O5 0.500000 0.729715 0.250000
O O6 0.621493 0.757537 0.194561
O O7 0.819673 0.703500 0.435713
O O8 0.711736 0.839012 0.377786
O O9 0.936848 0.801909 0.134731
O O10 0.158799 0.701851 0.338344
O O11 0.474333 0.733670 0.517316
O O12 0.406447 0.865648 0.426227
O O13 0.500000 0.050505 0.750000
O O14 0.654757 0.052509 0.737716
O O15 0.500000 0.000000 0.500000
#
# Coordination Sequence:
#
# PCOD8141634 Si02
#       7
#     8   8   4   8   8   8   8
#     4  10  21  39  61  85 117 160 207 246 302 377
#     4  10  21  37  60  94 125 153 202 253 305 375
#     4  10  24  40  58  90 126 162 208 282 302 364
#     4  11  21  38  64  86 120 166 199 253 311 372
#     4   9  20  39  59  84 119 157 195 239 305 368
#     4  11  22  40  61  91 122 162 217 252 320 364
#     4  10  22  39  57  86 118 151 201 256 293 358
#
# _framework density 21.098368000000001
#
# number of rings (size 3 to 8) (size 9 to 14) (size 15 to 20)
#    0.000    1.846    0.000    5.077    1.077    6.154 
#    5.538    0.000    0.000    0.000    2.000    0.000 
#    0.000    0.000    0.000    0.000    0.000    0.000 
#
# Total GULP energy -322303.010933 kJ/mol
# GULP energy per Si atom -12396.269651 kJ/mol
# Density = 2.105035 g / cm^3
# Si number density = 21.098368 Si / 1000 Ang^3
#
#
#
# Elastic Constant Matrix: (Units=GPa)
#
#
# Indices 1 2 3 4 5 6 
#
# 1 76.1715 21.1607 23.6016 0.0117 24.8010 0.0002
# 2 21.1607 43.3083 33.9551 0.0197 4.6352 0.0081
# 3 23.6016 33.9551 108.6003 0.0490 37.1821 0.0105
# 4 0.0117 0.0197 0.0490 28.0743 0.0221 10.9907
# 5 24.8010 4.6352 37.1821 0.0221 43.5274 -0.0001
# 6 0.0002 0.0081 0.0105 10.9907 -0.0001 28.0663
#
#
#
# Elastic Compliance Matrix: (Units=1/GPa)
#
#
# Indices 1 2 3 4 5 6 
#
# 1 0.019219 -0.010860 0.003635 0.000003 -0.012899 0.000000
# 2 -0.010860 0.038285 -0.014604 -0.000007 0.014586 -0.000003
# 3 0.003635 -0.014604 0.018601 -0.000011 -0.016406 0.000002
# 4 0.000003 -0.000007 -0.000011 0.042069 -0.000013 -0.016474
# 5 -0.012899 0.014586 -0.016406 -0.000013 0.042784 0.000007
# 6 0.000000 -0.000003 0.000002 -0.016474 0.000007 0.042081
#
#
# Mechanical properties :
#
#
# Convention : Reuss Voigt Hill
#
# Bulk Modulus (GPa) = 30.81902 42.83500 36.82701
# Shear Modulus (GPa) = 19.41643 29.89111 24.65377
#
# Velocity S-wave (km/s) = 3.03690 3.76806 3.42206
# Velocity P-wave (km/s) = 5.19000 6.26718 5.75385
#
# Compressibility (1/GPa) = 0.03244750
#
# Stress axis : x y z
#
# Youngs Moduli (GPa) = 52.03258 26.11957 53.76030
#
# Poissons Ratio (x) = 0.28365 -0.19542
# Poissons Ratio (y) = 0.56507 0.78512
# Poissons Ratio (z) = -0.18914 0.38145
#
# Static dielectric constant tensor:
#      x y z
#    x 3.952710 -0.000040 0.413660 
#    y -0.000040 3.826810 -0.000060 
#    z 0.413660 -0.000060 4.231930 
# 
# 
# High freq. dielectric constant tensor:
#      x y z
#    x 1.825930 0.000000 0.020110 
#    y 0.000000 1.815570 0.000000 
#    z 0.020110 0.000000 1.837720 
# 
# From -- ./inp_files/48574.got.cif
#   From: 2010.06.25/outbox.cif.g09.slc.cpg/sg15_25_cif.got.tgz:48574.got - 2010.06.28 07:06:18.
