data_PCOD8141520
_publ_section_title
;
Structure prediction by ZEFSAII (Michael W. Deem and Ramdas Pophale) SiO2 
 PCOD8141520
Probable space group: C 2/C
;
_chemical_formula_sum "Si O2"
_cell_formula_units_Z 64
_cell_length_a 8.928107
_cell_length_b 27.655389
_cell_length_c 12.592708
_cell_angle_alpha 90.000000
_cell_angle_beta 94.432869
_cell_angle_gamma 90.000000
_cell_volume 3099.967819
_symmetry_space_group_name_H-M "C 2/C"
_symmetry_group_IT_number 15
_symmetry_cell_setting 'monoclinic'
loop_
_space_group_symop_operation_xyz
x,y,z
-x,y,1/2-z
-x,-y,-z
x,-y,1/2+z
1/2+x,1/2+y,z
1/2-x,1/2+y,1/2-z
1/2-x,1/2-y,-z
1/2+x,1/2-y,1/2+z
loop_
_atom_site_type_symbol
_atom_site_label
_atom_site_fract_x
_atom_site_fract_y
_atom_site_fract_z
Si Si1 0.868333 0.862083 0.321062
Si Si2 0.013949 0.537788 0.868923
Si Si3 0.604804 0.729841 0.545661
Si Si4 0.568097 0.329552 0.638789
Si Si5 0.007489 0.923595 0.979685
Si Si6 0.404396 0.140737 0.837104
Si Si7 0.260957 0.497470 0.015882
Si Si8 0.656730 0.204887 0.458972
O O1 0.835750 0.808918 0.366427
O O2 0.912383 0.900942 0.412594
O O3 0.735669 0.880782 0.237282
O O4 0.000000 0.851993 0.250000
O O5 0.000000 0.521484 0.750000
O O6 0.001179 0.595574 0.886723
O O7 0.876120 0.509358 0.912800
O O8 0.180242 0.519810 0.908583
O O9 0.750000 0.750000 0.500000
O O10 0.505032 0.704839 0.451266
O O11 0.505803 0.774625 0.589658
O O12 0.500000 0.315696 0.750000
O O13 0.523435 0.384623 0.612988
O O14 0.750354 0.322426 0.631225
O O15 0.116868 0.963876 0.934742
O O16 0.846694 0.946998 0.000562
O O17 0.500000 0.169191 0.750000
O O18 0.360394 0.172192 0.936060
O O19 0.750000 0.250000 0.500000
#
# Coordination Sequence:
#
# PCOD8141520 Si02
#       8
#     8   8   8   8   8   8   8   8
#     4  11  21  36  58  85 114 144 188 242 291 338
#     4  10  21  37  57  86 115 147 188 235 294 357
#     4  10  22  37  57  85 114 145 191 242 288 347
#     4  10  22  39  56  77 114 158 193 228 281 346
#     4  10  21  38  58  83 112 151 194 240 288 344
#     4  11  21  36  62  88 115 149 188 241 301 348
#     4  10  21  37  59  83 115 148 187 240 292 345
#     4  10  21  38  57  83 116 152 191 234 288 349
#
# _framework density 20.645375000000001
#
# number of rings (size 3 to 8) (size 9 to 14) (size 15 to 20)
#    0.000    1.750    0.000    6.000    0.000    7.000 
#    0.000    2.500    0.000    0.000    0.000    0.000 
#    0.000    0.000    0.000    0.000    0.000    0.000 
#
# Total GULP energy -396447.757484 kJ/mol
# GULP energy per Si atom -12388.992421 kJ/mol
# Density = 2.059838 g / cm^3
# Si number density = 20.645375 Si / 1000 Ang^3
#
#
#
# Elastic Constant Matrix: (Units=GPa)
#
#
# Indices 1 2 3 4 5 6 
#
# 1 105.2971 27.5949 7.5250 0.0000 -13.2827 0.0000
# 2 27.5949 81.9197 22.6561 0.0000 -0.7218 0.0000
# 3 7.5250 22.6561 60.8241 0.0000 -15.6991 0.0000
# 4 0.0000 0.0000 0.0000 13.9322 0.0000 1.6183
# 5 -13.2827 -0.7218 -15.6991 0.0000 39.5250 0.0000
# 6 0.0000 0.0000 0.0000 1.6183 0.0000 9.8507
#
#
#
# Elastic Compliance Matrix: (Units=1/GPa)
#
#
# Indices 1 2 3 4 5 6 
#
# 1 0.010973 -0.003987 0.001182 0.000000 0.004084 0.000000
# 2 -0.003987 0.015196 -0.006063 0.000000 -0.003470 0.000000
# 3 0.001182 -0.006063 0.020755 0.000000 0.008530 0.000000
# 4 0.000000 0.000000 0.000000 0.073173 0.000000 -0.012021
# 5 0.004084 -0.003470 0.008530 0.000000 0.029998 0.000000
# 6 0.000000 0.000000 0.000000 -0.012021 0.000000 0.103490
#
#
# Mechanical properties :
#
#
# Convention : Reuss Voigt Hill
#
# Bulk Modulus (GPa) = 34.26164 40.39918 37.33041
# Shear Modulus (GPa) = 17.79046 25.34590 21.56818
#
# Velocity S-wave (km/s) = 2.93869 3.50763 3.23569
# Velocity P-wave (km/s) = 5.30526 6.00127 5.66397
#
# Compressibility (1/GPa) = 0.02918716
#
# Stress axis : x y z
#
# Youngs Moduli (GPa) = 91.13684 65.80549 48.18196
#
# Poissons Ratio (x) = 0.26236 -0.05694
# Poissons Ratio (y) = 0.36336 0.29212
# Poissons Ratio (z) = -0.10770 0.39897
#
# Static dielectric constant tensor:
#      x y z
#    x 3.236480 0.000000 1.196130 
#    y 0.000000 7.117820 0.000000 
#    z 1.196130 0.000000 1.175450 
# 
# 
# High freq. dielectric constant tensor:
#      x y z
#    x 1.830760 0.000000 -0.015070 
#    y 0.000000 1.808740 0.000000 
#    z -0.015070 0.000000 1.785940 
# 
# From -- ./inp_files/82570.got.cif
#   From: 2010.06.25/outbox.cif.g09.slc.cpg/sg15_42_cif.got.tgz:82570.got - 2010.06.28 07:06:18.
