data_PCOD8141265
_publ_section_title
;
Structure prediction by ZEFSAII (Michael W. Deem and Ramdas Pophale) SiO2 
 PCOD8141265
Probable space group: C 2/C
;
_chemical_formula_sum "Si O2"
_cell_formula_units_Z 48
_cell_length_a 18.853471
_cell_length_b 24.637323
_cell_length_c 5.139967
_cell_angle_alpha 90.000000
_cell_angle_beta 71.123590
_cell_angle_gamma 90.000000
_cell_volume 2259.106295
_symmetry_space_group_name_H-M "C 2/C"
_symmetry_group_IT_number 15
_symmetry_cell_setting 'monoclinic'
loop_
_space_group_symop_operation_xyz
x,y,z
-x,y,1/2-z
-x,-y,-z
x,-y,1/2+z
1/2+x,1/2+y,z
1/2-x,1/2+y,1/2-z
1/2-x,1/2-y,-z
1/2+x,1/2-y,1/2+z
loop_
_atom_site_type_symbol
_atom_site_label
_atom_site_fract_x
_atom_site_fract_y
_atom_site_fract_z
Si Si1 0.841148 0.655356 0.027595
Si Si2 0.659407 0.532184 0.622863
Si Si3 0.875451 0.776095 0.099110
Si Si4 0.000000 0.923994 0.250000
Si Si5 0.747468 0.360096 0.143629
Si Si6 0.500000 0.771991 0.750000
Si Si7 0.500000 0.649346 0.250000
Si Si8 0.500000 0.157401 0.750000
O O1 0.853324 0.720222 0.978852
O O2 0.811354 0.644269 0.351062
O O3 0.785420 0.631352 0.879314
O O4 0.922674 0.624784 0.901510
O O5 0.686550 0.509545 0.313096
O O6 0.569851 0.537127 0.726860
O O7 0.693843 0.590472 0.639778
O O8 0.800906 0.805342 0.289117
O O9 0.926763 0.764624 0.290286
O O10 0.924820 0.814205 0.851835
O O11 0.985012 0.887055 0.517214
O O12 0.519293 0.806694 0.476054
#
# Coordination Sequence:
#
# PCOD8141265 Si02
#       8
#     8   8   8   4   8   4   4   4
#     4  11  24  41  62  95 128 176 210 261 319 401
#     4  12  26  48  70  93 128 172 224 286 332 372
#     4  11  23  39  60  92 140 178 220 256 309 379
#     4  12  25  45  66  97 128 178 237 267 310 367
#     4  12  26  40  64  95 129 164 220 270 338 382
#     4  10  21  36  56  87 122 190 217 250 292 359
#     4  12  25  37  66  93 138 188 219 263 302 369
#     4  10  21  42  62  83 128 162 223 248 306 389
#
# _framework density 21.247340999999999
#
# number of rings (size 3 to 8) (size 9 to 14) (size 15 to 20)
#    0.000    0.667    1.667    8.000    2.333    4.000 
#    0.000    0.000    0.000    0.000    0.000   11.667 
#    0.000    0.000    0.000    0.000    0.000    0.000 
#
# Total GULP energy -297579.474550 kJ/mol
# GULP energy per Si atom -12399.144773 kJ/mol
# Density = 2.119898 g / cm^3
# Si number density = 21.247341 Si / 1000 Ang^3
#
#
#
# Elastic Constant Matrix: (Units=GPa)
#
#
# Indices 1 2 3 4 5 6 
#
# 1 112.4960 14.1950 30.0612 0.0000 0.6416 0.0000
# 2 14.1950 46.7405 7.5658 0.0000 8.8355 0.0000
# 3 30.0612 7.5658 116.2126 0.0000 9.6706 0.0000
# 4 0.0000 0.0000 0.0000 27.9300 0.0000 6.7919
# 5 0.6416 8.8355 9.6706 0.0000 50.2161 0.0000
# 6 0.0000 0.0000 0.0000 6.7919 0.0000 26.5721
#
#
#
# Elastic Compliance Matrix: (Units=1/GPa)
#
#
# Indices 1 2 3 4 5 6 
#
# 1 0.009887 -0.002764 -0.002447 0.000000 0.000831 0.000000
# 2 -0.002764 0.023052 -0.000459 0.000000 -0.003932 0.000000
# 3 -0.002447 -0.000459 0.009409 0.000000 -0.001700 0.000000
# 4 0.000000 0.000000 0.000000 0.038177 0.000000 -0.009758
# 5 0.000831 -0.003932 -0.001700 0.000000 0.020923 0.000000
# 6 0.000000 0.000000 0.000000 -0.009758 0.000000 0.040128
#
#
# Mechanical properties :
#
#
# Convention : Reuss Voigt Hill
#
# Bulk Modulus (GPa) = 32.24804 42.12144 37.18474
# Shear Modulus (GPa) = 30.62798 35.85211 33.24005
#
# Velocity S-wave (km/s) = 3.80082 4.11222 3.95958
# Velocity P-wave (km/s) = 5.87129 6.51264 6.20026
#
# Compressibility (1/GPa) = 0.03100963
#
# Stress axis : x y z
#
# Youngs Moduli (GPa) = 101.14275 43.38090 106.27945
#
# Poissons Ratio (x) = 0.11989 0.26004
# Poissons Ratio (y) = 0.27953 0.04874
# Poissons Ratio (z) = 0.24747 0.01989
#
# Static dielectric constant tensor:
#      x y z
#    x 4.137550 0.000000 -0.112850 
#    y 0.000000 3.580470 0.000000 
#    z -0.112850 0.000000 3.910840 
# 
# 
# High freq. dielectric constant tensor:
#      x y z
#    x 1.845800 0.000000 0.004900 
#    y 0.000000 1.792390 0.000000 
#    z 0.004900 0.000000 1.852880 
# 
# From -- ./inp_files/11207.got.cif
#   From: 2010.06.25/outbox.cif.g09.slc.cpg/sg15_6_cif.got.tgz:11207.got - 2010.06.28 07:06:18.
