data_PCOD8141637
_publ_section_title
;
Structure prediction by ZEFSAII (Michael W. Deem and Ramdas Pophale) SiO2 
 PCOD8141637
Probable space group: C 2/C
;
_chemical_formula_sum "Si O2"
_cell_formula_units_Z 64
_cell_length_a 14.496589
_cell_length_b 9.204015
_cell_length_c 22.373868
_cell_angle_alpha 90.000000
_cell_angle_beta 82.813284
_cell_angle_gamma 90.000000
_cell_volume 2961.821006
_symmetry_space_group_name_H-M "C 2/C"
_symmetry_group_IT_number 15
_symmetry_cell_setting 'monoclinic'
loop_
_space_group_symop_operation_xyz
x,y,z
-x,y,1/2-z
-x,-y,-z
x,-y,1/2+z
1/2+x,1/2+y,z
1/2-x,1/2+y,1/2-z
1/2-x,1/2-y,-z
1/2+x,1/2-y,1/2+z
loop_
_atom_site_type_symbol
_atom_site_label
_atom_site_fract_x
_atom_site_fract_y
_atom_site_fract_z
Si Si1 0.321211 0.835549 0.035972
Si Si2 0.900274 0.563387 0.770329
Si Si3 0.959441 0.368725 0.865676
Si Si4 0.008780 0.187671 0.035087
Si Si5 0.351268 0.073299 0.951359
Si Si6 0.759666 0.804666 0.135752
Si Si7 0.657962 0.998496 0.854325
Si Si8 0.954193 0.906925 0.096274
O O1 0.411520 0.740895 0.017632
O O2 0.306823 0.861328 0.108953
O O3 0.250000 0.750000 0.000000
O O4 0.327642 0.007571 0.017891
O O5 0.932920 0.411038 0.799464
O O6 0.830307 0.649879 0.818642
O O7 0.841717 0.540874 0.715176
O O8 0.000000 0.646343 0.750000
O O9 0.874769 0.426115 0.912662
O O10 0.054246 0.447075 0.880444
O O11 0.971664 0.195860 0.875021
O O12 0.060704 0.322667 0.059356
O O13 0.995617 0.069822 0.089748
O O14 0.064020 0.132280 0.972217
O O15 0.263541 0.158398 0.931429
O O16 0.770750 0.633899 0.143737
O O17 0.855936 0.893341 0.140210
#
# Coordination Sequence:
#
# PCOD8141637 Si02
#       8
#     8   8   8   8   8   8   8   8
#     4  12  24  38  63  97 129 171 224 271 333 392
#     4   9  20  41  68  93 119 172 224 271 323 392
#     4   9  17  38  68  88 115 169 216 253 319 386
#     4  11  22  37  61  95 135 172 209 258 332 393
#     4  11  20  38  63  87 124 169 213 256 318 397
#     4  10  22  40  62  95 128 167 215 269 325 379
#     4  10  21  40  63  93 126 163 217 272 324 383
#     4  10  21  37  60  95 136 163 205 267 319 390
#
# _framework density 21.608328
#
# number of rings (size 3 to 8) (size 9 to 14) (size 15 to 20)
#    0.000    1.750    2.500    2.625    0.000    4.000 
#    6.750    0.000    0.000    0.000    0.000    0.000 
#    0.000    0.000    0.000    0.000    0.000    0.000 
#
# Total GULP energy -396421.710482 kJ/mol
# GULP energy per Si atom -12388.178453 kJ/mol
# Density = 2.155915 g / cm^3
# Si number density = 21.608328 Si / 1000 Ang^3
#
#
#
# Elastic Constant Matrix: (Units=GPa)
#
#
# Indices 1 2 3 4 5 6 
#
# 1 96.2204 49.5560 35.3868 0.0000 6.2319 0.0000
# 2 49.5560 103.7410 37.9540 0.0000 15.7663 0.0000
# 3 35.3868 37.9540 94.5297 0.0000 15.5795 0.0000
# 4 0.0000 0.0000 0.0000 24.8754 0.0000 0.4142
# 5 6.2319 15.7663 15.5795 0.0000 41.3912 0.0000
# 6 0.0000 0.0000 0.0000 0.4142 0.0000 29.6991
#
#
#
# Elastic Compliance Matrix: (Units=1/GPa)
#
#
# Indices 1 2 3 4 5 6 
#
# 1 0.014588 -0.005967 -0.003281 0.000000 0.001312 0.000000
# 2 -0.005967 0.014046 -0.002849 0.000000 -0.003380 0.000000
# 3 -0.003281 -0.002849 0.013530 0.000000 -0.003513 0.000000
# 4 0.000000 0.000000 0.000000 0.040210 0.000000 -0.000561
# 5 0.001312 -0.003380 -0.003513 0.000000 0.026572 0.000000
# 6 0.000000 0.000000 0.000000 -0.000561 0.000000 0.033679
#
#
# Mechanical properties :
#
#
# Convention : Reuss Voigt Hill
#
# Bulk Modulus (GPa) = 55.65108 60.03164 57.84136
# Shear Modulus (GPa) = 28.93386 30.63277 29.78331
#
# Velocity S-wave (km/s) = 3.66322 3.76924 3.71661
# Velocity P-wave (km/s) = 6.61080 6.83995 6.72635
#
# Compressibility (1/GPa) = 0.01796910
#
# Stress axis : x y z
#
# Youngs Moduli (GPa) = 68.54982 71.19601 73.91123
#
# Poissons Ratio (x) = 0.42486 0.24252
# Poissons Ratio (y) = 0.40907 0.21054
# Poissons Ratio (z) = 0.22492 0.20281
#
# Static dielectric constant tensor:
#      x y z
#    x 3.924540 0.000000 -0.012160 
#    y 0.000000 3.820160 0.000000 
#    z -0.012160 0.000000 3.907280 
# 
# 
# High freq. dielectric constant tensor:
#      x y z
#    x 1.846960 0.000000 -0.000250 
#    y 0.000000 1.831770 0.000000 
#    z -0.000250 0.000000 1.839470 
# 
# From -- ./inp_files/273189.got.cif
#   From: 2010.06.25/outbox.cif.g09.slc.cpg/sg15_137_cif.got.tgz:273189.got - 2010.06.28 07:06:18.
