data_PCOD8141055
_publ_section_title
;
Structure prediction by ZEFSAII (Michael W. Deem and Ramdas Pophale) SiO2 
 PCOD8141055
Probable space group: C 2/C
;
_chemical_formula_sum "Si O2"
_cell_formula_units_Z 56
_cell_length_a 10.163393
_cell_length_b 25.774447
_cell_length_c 10.354412
_cell_angle_alpha 90.000000
_cell_angle_beta 106.676630
_cell_angle_gamma 90.000000
_cell_volume 2598.314129
_symmetry_space_group_name_H-M "C 2/C"
_symmetry_group_IT_number 15
_symmetry_cell_setting 'monoclinic'
loop_
_space_group_symop_operation_xyz
x,y,z
-x,y,1/2-z
-x,-y,-z
x,-y,1/2+z
1/2+x,1/2+y,z
1/2-x,1/2+y,1/2-z
1/2-x,1/2-y,-z
1/2+x,1/2-y,1/2+z
loop_
_atom_site_type_symbol
_atom_site_label
_atom_site_fract_x
_atom_site_fract_y
_atom_site_fract_z
Si Si1 0.404544 0.943927 0.102145
Si Si2 0.436288 0.210813 0.376930
Si Si3 0.713243 0.163019 0.478336
Si Si4 0.740907 0.651340 0.490372
Si Si5 0.528401 0.293529 0.594383
Si Si6 0.914175 0.559909 0.100869
Si Si7 0.220764 0.718196 0.747712
O O1 0.500000 0.926694 0.250000
O O2 0.270746 0.907227 0.047362
O O3 0.350082 0.002705 0.106714
O O4 0.491355 0.940030 0.997359
O O5 0.580358 0.186907 0.362835
O O6 0.336546 0.163743 0.393725
O O7 0.456516 0.244767 0.509984
O O8 0.363796 0.251571 0.257949
O O9 0.857035 0.183409 0.469588
O O10 0.708662 0.100905 0.459225
O O11 0.690749 0.179540 0.620846
O O12 0.580754 0.660439 0.404252
O O13 0.779453 0.687675 0.620482
O O14 0.610374 0.266102 0.736784
O O15 0.000000 0.576957 0.250000
#
# Coordination Sequence:
#
# PCOD8141055 Si02
#       7
#     8   8   8   8   8   8   8
#     4  10  21  41  67  91 115 155 211 263 307 360
#     4  10  21  35  53  83 114 160 203 240 284 361
#     4  11  22  37  57  86 118 164 202 243 309 354
#     4  11  22  37  58  86 117 156 203 251 305 351
#     4  10  23  34  49  87 121 153 196 240 297 364
#     4  10  22  40  63  93 119 152 208 265 309 357
#     4  10  21  36  56  81 124 162 203 240 294 366
#
# _framework density 21.552437999999999
#
# number of rings (size 3 to 8) (size 9 to 14) (size 15 to 20)
#    0.000    1.714    1.429    4.286    4.000    7.429 
#    0.000    0.714    0.000    0.000    0.000   10.000 
#    0.000    0.000    0.000    0.000    0.000    0.000 
#
# Total GULP energy -346919.239863 kJ/mol
# GULP energy per Si atom -12389.972852 kJ/mol
# Density = 2.150338 g / cm^3
# Si number density = 21.552438 Si / 1000 Ang^3
#
#
#
# Elastic Constant Matrix: (Units=GPa)
#
#
# Indices 1 2 3 4 5 6 
#
# 1 101.2191 34.7271 16.7267 0.0000 6.8756 0.0000
# 2 34.7271 129.1969 32.1167 0.0000 16.8897 0.0000
# 3 16.7267 32.1167 81.6428 0.0000 -0.3523 0.0000
# 4 0.0000 0.0000 0.0000 37.3793 0.0000 2.6392
# 5 6.8756 16.8897 -0.3523 0.0000 32.9939 0.0000
# 6 0.0000 0.0000 0.0000 2.6392 0.0000 23.0335
#
#
#
# Elastic Compliance Matrix: (Units=1/GPa)
#
#
# Indices 1 2 3 4 5 6 
#
# 1 0.011022 -0.002512 -0.001274 0.000000 -0.001025 0.000000
# 2 -0.002512 0.009851 -0.003380 0.000000 -0.004555 0.000000
# 3 -0.001274 -0.003380 0.013849 0.000000 0.002144 0.000000
# 4 0.000000 0.000000 0.000000 0.026971 0.000000 -0.003090
# 5 -0.001025 -0.004555 0.002144 0.000000 0.032877 0.000000
# 6 0.000000 0.000000 0.000000 -0.003090 0.000000 0.043769
#
#
# Mechanical properties :
#
#
# Convention : Reuss Voigt Hill
#
# Bulk Modulus (GPa) = 49.04775 53.24442 51.14608
# Shear Modulus (GPa) = 31.35440 33.91389 32.63414
#
# Velocity S-wave (km/s) = 3.81832 3.97111 3.89546
# Velocity P-wave (km/s) = 6.49971 6.76642 6.63441
#
# Compressibility (1/GPa) = 0.02038829
#
# Stress axis : x y z
#
# Youngs Moduli (GPa) = 90.73167 101.51174 72.20965
#
# Poissons Ratio (x) = 0.25497 0.09202
# Poissons Ratio (y) = 0.22789 0.24409
# Poissons Ratio (z) = 0.11563 0.34314
#
# Static dielectric constant tensor:
#      x y z
#    x 3.980020 0.000000 0.316690 
#    y 0.000000 4.230510 0.000000 
#    z 0.316690 0.000000 4.307530 
# 
# 
# High freq. dielectric constant tensor:
#      x y z
#    x 1.832770 0.000000 -0.009810 
#    y 0.000000 1.834290 0.000000 
#    z -0.009810 0.000000 1.870370 
# 
# From -- ./inp_files/81408.got.cif
#   From: 2010.06.25/outbox.cif.g09.slc.cpg/sg15_41_cif.got.tgz:81408.got - 2010.06.28 07:06:18.
