data_PCOD8141425
_publ_section_title
;
Structure prediction by ZEFSAII (Michael W. Deem and Ramdas Pophale) SiO2 
 PCOD8141425
Probable space group: C 2/C
;
_chemical_formula_sum "Si O2"
_cell_formula_units_Z 40
_cell_length_a 17.954422
_cell_length_b 9.523747
_cell_length_c 28.222544
_cell_angle_alpha 90.000000
_cell_angle_beta 24.473593
_cell_angle_gamma 90.000000
_cell_volume 1999.230704
_symmetry_space_group_name_H-M "C 2/C"
_symmetry_group_IT_number 15
_symmetry_cell_setting 'monoclinic'
loop_
_space_group_symop_operation_xyz
x,y,z
-x,y,1/2-z
-x,-y,-z
x,-y,1/2+z
1/2+x,1/2+y,z
1/2-x,1/2+y,1/2-z
1/2-x,1/2-y,-z
1/2+x,1/2-y,1/2+z
loop_
_atom_site_type_symbol
_atom_site_label
_atom_site_fract_x
_atom_site_fract_y
_atom_site_fract_z
Si Si1 0.369909 0.551878 0.208742
Si Si2 0.266992 0.972829 0.982219
Si Si3 0.681792 0.271448 0.117496
Si Si4 0.633723 0.117024 0.906070
Si Si5 0.403318 0.141534 0.675075
O O1 0.579799 0.541424 0.074721
O O2 0.322426 0.463188 0.283564
O O3 0.324243 0.716343 0.244208
O O4 0.245435 0.484586 0.238498
O O5 0.241466 0.889977 0.045843
O O6 0.332885 0.875595 0.900916
O O7 0.417077 0.092299 0.902131
O O8 0.500000 0.306901 0.250000
O O9 0.833653 0.270290 0.071040
O O10 0.553883 0.187195 0.904491
O O11 0.500000 0.000000 0.000000
#
# Coordination Sequence:
#
# PCOD8141425 Si02
#       5
#     8   8   8   8   8
#     4  10  23  40  64  92 128 170 213 268 323 386
#     4  11  23  38  67  92 132 170 212 269 327 383
#     4  11  21  38  64  95 122 166 221 260 323 388
#     4  10  21  36  63  91 126 165 216 263 315 395
#     4  10  23  40  64  93 128 167 220 263 325 386
#
# _framework density 20.007695999999999
#
# number of rings (size 3 to 8) (size 9 to 14) (size 15 to 20)
#    1.200    0.400    4.000    0.600   11.200    0.000 
#    0.000    3.000    0.000    0.000    0.000    0.000 
#    0.000    0.000    0.000    0.000    0.000    0.000 
#
# Total GULP energy -247766.416906 kJ/mol
# GULP energy per Si atom -12388.320845 kJ/mol
# Density = 1.996216 g / cm^3
# Si number density = 20.007696 Si / 1000 Ang^3
#
#
#
# Elastic Constant Matrix: (Units=GPa)
#
#
# Indices 1 2 3 4 5 6 
#
# 1 94.9562 23.2816 25.2650 -0.0013 -3.4516 0.0001
# 2 23.2816 98.9761 21.4587 -0.0030 -5.5760 0.0004
# 3 25.2650 21.4587 62.5796 -0.0115 -15.0265 -0.0060
# 4 -0.0013 -0.0030 -0.0115 26.1022 -0.0044 -8.3760
# 5 -3.4516 -5.5760 -15.0265 -0.0044 39.7796 0.0014
# 6 0.0001 0.0004 -0.0060 -8.3760 0.0014 33.3257
#
#
#
# Elastic Compliance Matrix: (Units=1/GPa)
#
#
# Indices 1 2 3 4 5 6 
#
# 1 0.012162 -0.001945 -0.004460 -0.000002 -0.000902 -0.000001
# 2 -0.001945 0.011226 -0.002999 0.000000 0.000272 -0.000001
# 3 -0.004460 -0.002999 0.020472 0.000012 0.006926 0.000006
# 4 -0.000002 0.000000 0.000012 0.041672 0.000008 0.010474
# 5 -0.000902 0.000272 0.006926 0.000008 0.027714 0.000002
# 6 -0.000001 -0.000001 0.000006 0.010474 0.000002 0.032639
#
#
# Mechanical properties :
#
#
# Convention : Reuss Voigt Hill
#
# Bulk Modulus (GPa) = 39.91600 44.05805 41.98702
# Shear Modulus (GPa) = 28.89447 32.27529 30.58488
#
# Velocity S-wave (km/s) = 3.80434 4.02075 3.91404
# Velocity P-wave (km/s) = 6.26825 6.60482 6.43874
#
# Compressibility (1/GPa) = 0.02505261
#
# Stress axis : x y z
#
# Youngs Moduli (GPa) = 82.22466 89.07544 48.84825
#
# Poissons Ratio (x) = 0.17322 0.21785
# Poissons Ratio (y) = 0.15990 0.14650
# Poissons Ratio (z) = 0.36671 0.26715
#
# Static dielectric constant tensor:
#      x y z
#    x 5.791380 0.000150 -0.498900 
#    y 0.000150 3.286620 -0.000080 
#    z -0.498900 -0.000080 3.761110 
# 
# 
# High freq. dielectric constant tensor:
#      x y z
#    x 1.776330 0.000000 -0.011390 
#    y 0.000000 1.763060 0.000000 
#    z -0.011390 0.000000 1.773630 
# 
# From -- ./inp_files/315294.got.cif
#   From: 2010.06.25/outbox.cif.g09.slc.cpg/sg15_158_cif.got.tgz:315294.got - 2010.06.28 07:06:18.
