data_PCOD8141776
_publ_section_title
;
Structure prediction by ZEFSAII (Michael W. Deem and Ramdas Pophale) SiO2 
 PCOD8141776
Probable space group: C 2/C
;
_chemical_formula_sum "Si O2"
_cell_formula_units_Z 44
_cell_length_a 9.140698
_cell_length_b 12.299829
_cell_length_c 21.364169
_cell_angle_alpha 90.000000
_cell_angle_beta 66.821463
_cell_angle_gamma 90.000000
_cell_volume 2208.073852
_symmetry_space_group_name_H-M "C 2/C"
_symmetry_group_IT_number 15
_symmetry_cell_setting 'monoclinic'
loop_
_space_group_symop_operation_xyz
x,y,z
-x,y,1/2-z
-x,-y,-z
x,-y,1/2+z
1/2+x,1/2+y,z
1/2-x,1/2+y,1/2-z
1/2-x,1/2-y,-z
1/2+x,1/2-y,1/2+z
loop_
_atom_site_type_symbol
_atom_site_label
_atom_site_fract_x
_atom_site_fract_y
_atom_site_fract_z
Si Si1 0.220917 0.744480 0.078655
Si Si2 0.759202 0.984191 0.428302
Si Si3 0.000000 0.755326 0.750000
Si Si4 0.071811 0.112569 0.362164
Si Si5 0.855244 0.451307 0.311693
Si Si6 0.957233 0.453851 0.914151
O O1 0.184624 0.866657 0.108087
O O2 0.368547 0.694514 0.093579
O O3 0.071426 0.663825 0.113887
O O4 0.250000 0.750000 0.000000
O O5 0.657161 0.967322 0.507490
O O6 0.643899 0.039388 0.396857
O O7 0.908107 0.061756 0.415517
O O8 0.045677 0.828208 0.801111
O O9 0.151092 0.675870 0.708441
O O10 0.190829 0.013172 0.327888
O O11 0.903230 0.451043 0.376676
O O12 0.000000 0.511156 0.250000
#
# Coordination Sequence:
#
# PCOD8141776 Si02
#       6
#     8   8   4   8   8   8
#     4   9  20  38  58  88 122 150 193 242 298 355
#     4  10  21  37  64  92 120 149 200 247 302 352
#     4  10  24  40  60  88 124 152 210 246 288 358
#     4  11  23  39  63  90 116 161 202 244 295 361
#     4   9  22  42  59  79 125 157 194 246 293 348
#     4   9  19  39  62  88 123 157 186 253 301 348
#
# _framework density 19.926870000000001
#
# number of rings (size 3 to 8) (size 9 to 14) (size 15 to 20)
#    0.545    1.818    0.000    1.091    2.545    8.000 
#    3.273   12.727    0.000    0.000    0.000    0.000 
#    0.000    0.000    0.000    0.000    0.000    0.000 
#
# Total GULP energy -272572.429409 kJ/mol
# GULP energy per Si atom -12389.655882 kJ/mol
# Density = 1.988152 g / cm^3
# Si number density = 19.926870 Si / 1000 Ang^3
#
#
#
# Elastic Constant Matrix: (Units=GPa)
#
#
# Indices 1 2 3 4 5 6 
#
# 1 125.2826 70.1639 48.8998 0.0000 15.2091 0.0000
# 2 70.1639 102.2456 31.1304 0.0000 14.7884 0.0000
# 3 48.8998 31.1304 42.4994 0.0000 13.3249 0.0000
# 4 0.0000 0.0000 0.0000 20.2133 0.0000 -2.3799
# 5 15.2091 14.7884 13.3249 0.0000 31.3013 0.0000
# 6 0.0000 0.0000 0.0000 -2.3799 0.0000 27.5934
#
#
#
# Elastic Compliance Matrix: (Units=1/GPa)
#
#
# Indices 1 2 3 4 5 6 
#
# 1 0.018528 -0.008110 -0.015875 0.000000 0.001587 0.000000
# 2 -0.008110 0.016287 -0.001640 0.000000 -0.003056 0.000000
# 3 -0.015875 -0.001640 0.046548 0.000000 -0.011327 0.000000
# 4 0.000000 0.000000 0.000000 0.049980 0.000000 0.004311
# 5 0.001587 -0.003056 -0.011327 0.000000 0.037442 0.000000
# 6 0.000000 0.000000 0.000000 0.004311 0.000000 0.036612
#
#
# Mechanical properties :
#
#
# Convention : Reuss Voigt Hill
#
# Bulk Modulus (GPa) = 33.20922 63.37954 48.29438
# Shear Modulus (GPa) = 18.74865 23.81050 21.27958
#
# Velocity S-wave (km/s) = 3.07069 3.46047 3.27139
# Velocity P-wave (km/s) = 5.41054 6.91676 6.20949
#
# Compressibility (1/GPa) = 0.03011212
#
# Stress axis : x y z
#
# Youngs Moduli (GPa) = 53.97353 61.39706 21.48315
#
# Poissons Ratio (x) = 0.49796 0.34104
# Poissons Ratio (y) = 0.43775 0.03524
# Poissons Ratio (z) = 0.85681 0.10072
#
# Static dielectric constant tensor:
#      x y z
#    x 3.676080 0.000000 0.171870 
#    y 0.000000 4.018710 0.000000 
#    z 0.171870 0.000000 3.478800 
# 
# 
# High freq. dielectric constant tensor:
#      x y z
#    x 1.774990 0.000000 0.019980 
#    y 0.000000 1.783230 0.000000 
#    z 0.019980 0.000000 1.764360 
# 
# From -- ./inp_files/263032.got.cif
#   From: 2010.06.25/outbox.cif.g09.slc.cpg/sg15_132_cif.got.tgz:263032.got - 2010.06.28 07:06:18.
