data_PCOD8141896
_publ_section_title
;
Structure prediction by ZEFSAII (Michael W. Deem and Ramdas Pophale) SiO2 
 PCOD8141896
Probable space group: C 2/C
;
_chemical_formula_sum "Si O2"
_cell_formula_units_Z 40
_cell_length_a 28.602305
_cell_length_b 10.230017
_cell_length_c 15.653760
_cell_angle_alpha 90.000000
_cell_angle_beta 25.667959
_cell_angle_gamma 90.000000
_cell_volume 1983.990132
_symmetry_space_group_name_H-M "C 2/C"
_symmetry_group_IT_number 15
_symmetry_cell_setting 'monoclinic'
loop_
_space_group_symop_operation_xyz
x,y,z
-x,y,1/2-z
-x,-y,-z
x,-y,1/2+z
1/2+x,1/2+y,z
1/2-x,1/2+y,1/2-z
1/2-x,1/2-y,-z
1/2+x,1/2-y,1/2+z
loop_
_atom_site_type_symbol
_atom_site_label
_atom_site_fract_x
_atom_site_fract_y
_atom_site_fract_z
Si Si1 0.796008 0.493770 0.871565
Si Si2 0.052742 0.372175 0.250328
Si Si3 0.373436 0.507911 0.211031
Si Si4 0.656988 0.242177 0.324665
Si Si5 0.743841 0.247568 0.660239
O O1 0.892778 0.514246 0.781694
O O2 0.808553 0.353876 0.807747
O O3 0.678715 0.497393 0.109070
O O4 0.802000 0.605127 0.788555
O O5 0.000000 0.432375 0.250000
O O6 0.965213 0.291236 0.447665
O O7 0.145496 0.268603 0.074151
O O8 0.327802 0.389758 0.230311
O O9 0.344737 0.646468 0.218046
O O10 0.500000 0.500000 0.000000
O O11 0.738937 0.232848 0.268054
#
# Coordination Sequence:
#
# PCOD8141896 Si02
#       5
#     8   8   8   8   8
#     4  11  21  37  58  84 115 151 190 237 283 337
#     4   9  19  35  58  82 109 149 192 229 283 351
#     4  11  22  38  58  83 115 154 191 234 286 338
#     4  11  21  36  58  86 114 144 189 245 287 329
#     4  10  21  38  58  81 112 154 193 227 282 353
#
# _framework density 20.161390000000001
#
# number of rings (size 3 to 8) (size 9 to 14) (size 15 to 20)
#    0.000    1.600    0.000    7.200    0.000    0.000 
#    0.000    3.000    0.000    0.000    0.000    0.000 
#    0.000    0.000    0.000    0.000    0.000    0.000 
#
# Total GULP energy -248014.059999 kJ/mol
# GULP energy per Si atom -12400.703000 kJ/mol
# Density = 2.011550 g / cm^3
# Si number density = 20.161390 Si / 1000 Ang^3
#
#
#
# Elastic Constant Matrix: (Units=GPa)
#
#
# Indices 1 2 3 4 5 6 
#
# 1 94.2822 10.5098 34.7600 0.0000 -1.1257 0.0000
# 2 10.5098 57.7727 33.3114 0.0000 5.0387 0.0000
# 3 34.7600 33.3114 74.7429 0.0000 -11.8249 0.0000
# 4 0.0000 0.0000 0.0000 22.7389 0.0000 7.7433
# 5 -1.1257 5.0387 -11.8249 0.0000 28.6740 0.0000
# 6 0.0000 0.0000 0.0000 7.7433 0.0000 26.1407
#
#
#
# Elastic Compliance Matrix: (Units=1/GPa)
#
#
# Indices 1 2 3 4 5 6 
#
# 1 0.013112 0.002243 -0.007573 0.000000 -0.003002 0.000000
# 2 0.002243 0.026050 -0.014296 0.000000 -0.010385 0.000000
# 3 -0.007573 -0.014296 0.025272 0.000000 0.012637 0.000000
# 4 0.000000 0.000000 0.000000 0.048911 0.000000 -0.014488
# 5 -0.003002 -0.010385 0.012637 0.000000 0.041793 0.000000
# 6 0.000000 0.000000 0.000000 -0.014488 0.000000 0.042546
#
#
# Mechanical properties :
#
#
# Convention : Reuss Voigt Hill
#
# Bulk Modulus (GPa) = 39.71033 42.66226 41.18630
# Shear Modulus (GPa) = 20.38071 25.39183 22.88627
#
# Velocity S-wave (km/s) = 3.18288 3.55269 3.37286
# Velocity P-wave (km/s) = 5.76599 6.16726 5.97000
#
# Compressibility (1/GPa) = 0.02518236
#
# Stress axis : x y z
#
# Youngs Moduli (GPa) = 76.26312 38.38783 39.57016
#
# Poissons Ratio (x) = -0.08610 0.29965
# Poissons Ratio (y) = -0.17104 0.56569
# Poissons Ratio (z) = 0.57752 0.54879
#
# Static dielectric constant tensor:
#      x y z
#    x 3.887940 0.000000 0.045290 
#    y 0.000000 3.704010 0.000000 
#    z 0.045290 0.000000 3.684750 
# 
# 
# High freq. dielectric constant tensor:
#      x y z
#    x 1.795180 0.000000 0.001610 
#    y 0.000000 1.781790 0.000000 
#    z 0.001610 0.000000 1.787510 
# 
# From -- ./inp_files/177289.got.cif
#   From: 2010.06.25/outbox.cif.g09.slc.cpg/sg15_89_cif.got.tgz:177289.got - 2010.06.28 07:06:18.
