data_PCOD8141874
_publ_section_title
;
Structure prediction by ZEFSAII (Michael W. Deem and Ramdas Pophale) SiO2 
 PCOD8141874
Probable space group: C 2/C
;
_chemical_formula_sum "Si O2"
_cell_formula_units_Z 56
_cell_length_a 22.513777
_cell_length_b 9.489497
_cell_length_c 14.668842
_cell_angle_alpha 90.000000
_cell_angle_beta 117.151131
_cell_angle_gamma 90.000000
_cell_volume 2788.577215
_symmetry_space_group_name_H-M "C 2/C"
_symmetry_group_IT_number 15
_symmetry_cell_setting 'monoclinic'
loop_
_space_group_symop_operation_xyz
x,y,z
-x,y,1/2-z
-x,-y,-z
x,-y,1/2+z
1/2+x,1/2+y,z
1/2-x,1/2+y,1/2-z
1/2-x,1/2-y,-z
1/2+x,1/2-y,1/2+z
loop_
_atom_site_type_symbol
_atom_site_label
_atom_site_fract_x
_atom_site_fract_y
_atom_site_fract_z
Si Si1 0.755293 0.084429 0.513634
Si Si2 0.881660 0.289130 0.841939
Si Si3 0.619281 0.202940 0.767698
Si Si4 0.010152 0.481680 0.654611
Si Si5 0.341115 0.493486 0.237008
Si Si6 0.629321 0.093724 0.974354
Si Si7 0.273592 0.008453 0.200391
O O1 0.750000 0.250000 0.500000
O O2 0.819150 0.046497 0.619502
O O3 0.687978 0.020980 0.510592
O O4 0.767340 0.017382 0.422425
O O5 0.953608 0.359483 0.876842
O O6 0.886030 0.126379 0.815695
O O7 0.826537 0.363338 0.739168
O O8 0.859359 0.303465 0.931696
O O9 0.552948 0.126125 0.685485
O O10 0.614444 0.365786 0.736053
O O11 0.625717 0.188068 0.881302
O O12 0.685028 0.137366 0.766199
O O13 0.000000 0.425843 0.750000
O O14 0.939343 0.508699 0.557622
O O15 0.274512 0.516839 0.248139
#
# Coordination Sequence:
#
# PCOD8141874 Si02
#       7
#     8   8   8   8   8   8   8
#     4  11  23  36  60  94 124 152 196 248 305 353
#     4  11  21  37  61  92 114 155 200 250 290 353
#     4   9  22  38  59  83 117 163 193 246 297 355
#     4   9  20  41  63  81 113 157 209 237 290 357
#     4  12  23  36  59  91 126 148 195 250 306 349
#     4  10  21  40  65  83 116 164 207 239 294 364
#     4  10  21  38  56  84 125 158 194 232 300 368
#
# _framework density 20.081924999999998
#
# number of rings (size 3 to 8) (size 9 to 14) (size 15 to 20)
#    0.000    1.714    2.857    2.143    2.000    1.143 
#    0.000    2.857    0.000    0.000    0.000    0.000 
#    0.000    0.000    0.000    0.000    0.000    0.000 
#
# Total GULP energy -347281.400789 kJ/mol
# GULP energy per Si atom -12402.907171 kJ/mol
# Density = 2.003622 g / cm^3
# Si number density = 20.081925 Si / 1000 Ang^3
#
#
#
# Elastic Constant Matrix: (Units=GPa)
#
#
# Indices 1 2 3 4 5 6 
#
# 1 63.1043 33.3105 13.2911 0.0000 -7.5327 0.0000
# 2 33.3105 142.2855 20.4150 0.0000 -3.1391 0.0000
# 3 13.2911 20.4150 70.7113 0.0000 -4.0933 0.0000
# 4 0.0000 0.0000 0.0000 19.4094 0.0000 -8.2932
# 5 -7.5327 -3.1391 -4.0933 0.0000 25.5570 0.0000
# 6 0.0000 0.0000 0.0000 -8.2932 0.0000 12.0187
#
#
#
# Elastic Compliance Matrix: (Units=1/GPa)
#
#
# Indices 1 2 3 4 5 6 
#
# 1 0.018994 -0.004036 -0.002129 0.000000 0.004762 0.000000
# 2 -0.004036 0.008198 -0.001634 0.000000 -0.000444 0.000000
# 3 -0.002129 -0.001634 0.015106 0.000000 0.001591 0.000000
# 4 0.000000 0.000000 0.000000 0.073062 0.000000 0.050415
# 5 0.004762 -0.000444 0.001591 0.000000 0.040732 0.000000
# 6 0.000000 0.000000 0.000000 0.050415 0.000000 0.117991
#
#
# Mechanical properties :
#
#
# Convention : Reuss Voigt Hill
#
# Bulk Modulus (GPa) = 37.45410 45.57046 41.51228
# Shear Modulus (GPa) = 16.74583 25.33598 21.04090
#
# Velocity S-wave (km/s) = 2.89082 3.55580 3.24041
# Velocity P-wave (km/s) = 5.46202 6.29284 5.89209
#
# Compressibility (1/GPa) = 0.02669935
#
# Stress axis : x y z
#
# Youngs Moduli (GPa) = 52.64765 121.98624 66.19872
#
# Poissons Ratio (x) = 0.49236 0.14096
# Poissons Ratio (y) = 0.21250 0.10816
# Poissons Ratio (z) = 0.11210 0.19930
#
# Static dielectric constant tensor:
#      x y z
#    x 3.560130 0.000000 -0.103290 
#    y 0.000000 3.488740 0.000000 
#    z -0.103290 0.000000 3.748750 
# 
# 
# High freq. dielectric constant tensor:
#      x y z
#    x 1.771960 0.000000 -0.013100 
#    y 0.000000 1.769800 0.000000 
#    z -0.013100 0.000000 1.791870 
# 
# From -- ./inp_files/171968.got.cif
#   From: 2010.06.25/outbox.cif.g09.slc.cpg/sg15_86_cif.got.tgz:171968.got - 2010.06.28 07:06:18.
