data_PCOD8141209
_publ_section_title
;
Structure prediction by ZEFSAII (Michael W. Deem and Ramdas Pophale) SiO2 
 PCOD8141209
Probable space group: C 2/C
;
_chemical_formula_sum "Si O2"
_cell_formula_units_Z 40
_cell_length_a 26.633203
_cell_length_b 8.809724
_cell_length_c 20.874787
_cell_angle_alpha 90.000000
_cell_angle_beta 159.096930
_cell_angle_gamma 90.000000
_cell_volume 1747.503526
_symmetry_space_group_name_H-M "C 2/C"
_symmetry_group_IT_number 15
_symmetry_cell_setting 'monoclinic'
loop_
_space_group_symop_operation_xyz
x,y,z
-x,y,1/2-z
-x,-y,-z
x,-y,1/2+z
1/2+x,1/2+y,z
1/2-x,1/2+y,1/2-z
1/2-x,1/2-y,-z
1/2+x,1/2-y,1/2+z
loop_
_atom_site_type_symbol
_atom_site_label
_atom_site_fract_x
_atom_site_fract_y
_atom_site_fract_z
Si Si1 0.218106 0.138090 0.068433
Si Si2 0.594914 0.764604 0.094515
Si Si3 0.148469 0.404707 0.633131
Si Si4 0.640413 0.622060 0.384253
Si Si5 0.561263 0.366179 0.203420
O O1 0.292337 0.101361 0.224194
O O2 0.299422 0.265585 0.125393
O O3 0.057993 0.193817 0.889207
O O4 0.218819 0.988941 0.026587
O O5 0.743556 0.679624 0.287374
O O6 0.627443 0.917489 0.090488
O O7 0.503529 0.816705 0.047801
O O8 0.502587 0.643235 0.944287
O O9 0.500000 0.689939 0.250000
O O10 0.750000 0.750000 0.500000
O O11 0.600060 0.537803 0.269399
#
# Coordination Sequence:
#
# PCOD8141209 Si02
#       5
#     8   8   8   8   8
#     4   9  18  34  54  77 104 136 175 216 259 313
#     4   9  18  34  53  76 105 139 177 218 264 312
#     4   9  18  34  53  77 108 140 178 221 261 313
#     4  10  21  36  53  77 107 134 171 221 267 314
#     4   9  18  34  55  76 102 137 175 212 258 318
#
# _framework density 22.889794999999999
#
# number of rings (size 3 to 8) (size 9 to 14) (size 15 to 20)
#    0.000    2.800    0.000    0.600    0.000    2.400 
#    0.000   24.000    0.000    0.000    0.000    0.000 
#    0.000    0.000    0.000    0.000    0.000    0.000 
#
# Total GULP energy -247805.989358 kJ/mol
# GULP energy per Si atom -12390.299468 kJ/mol
# Density = 2.283770 g / cm^3
# Si number density = 22.889795 Si / 1000 Ang^3
#
#
#
# Elastic Constant Matrix: (Units=GPa)
#
#
# Indices 1 2 3 4 5 6 
#
# 1 41.0034 33.0470 29.6939 0.0000 20.4902 0.0000
# 2 33.0470 93.2731 49.8554 0.0001 29.7379 0.0000
# 3 29.6939 49.8554 85.5159 0.0001 47.1822 0.0001
# 4 0.0000 0.0001 0.0001 49.2677 0.0000 15.9250
# 5 20.4902 29.7379 47.1822 0.0000 47.2379 0.0000
# 6 0.0000 0.0000 0.0001 15.9250 0.0000 35.1628
#
#
#
# Elastic Compliance Matrix: (Units=1/GPa)
#
#
# Indices 1 2 3 4 5 6 
#
# 1 0.038115 -0.009118 -0.004375 0.000000 -0.006423 0.000000
# 2 -0.009118 0.017813 -0.007159 0.000000 -0.000108 0.000000
# 3 -0.004375 -0.007159 0.030859 0.000000 -0.024418 0.000000
# 4 0.000000 0.000000 0.000000 0.023778 0.000000 -0.010769
# 5 -0.006423 -0.000108 -0.024418 0.000000 0.048412 0.000000
# 6 0.000000 0.000000 0.000000 -0.010769 0.000000 0.033316
#
#
# Mechanical properties :
#
#
# Convention : Reuss Voigt Hill
#
# Bulk Modulus (GPa) = 21.98687 49.44277 35.71482
# Shear Modulus (GPa) = 20.09978 33.48008 26.78993
#
# Velocity S-wave (km/s) = 2.96651 3.82863 3.42480
# Velocity P-wave (km/s) = 4.62168 6.41808 5.59248
#
# Compressibility (1/GPa) = 0.04548170
#
# Stress axis : x y z
#
# Youngs Moduli (GPa) = 26.23639 56.13943 32.40560
#
# Poissons Ratio (x) = 0.51187 0.14179
# Poissons Ratio (y) = 0.23922 0.23200
# Poissons Ratio (z) = 0.11480 0.40191
#
# Static dielectric constant tensor:
#      x y z
#    x 4.020210 0.000000 0.318930 
#    y 0.000000 3.962830 0.000000 
#    z 0.318930 0.000000 3.857290 
# 
# 
# High freq. dielectric constant tensor:
#      x y z
#    x 1.874730 0.000000 0.033760 
#    y 0.000000 1.886560 0.000000 
#    z 0.033760 0.000000 1.912560 
# 
# From -- ./inp_files/60078.got.cif
#   From: 2010.06.25/outbox.cif.g09.slc.cpg/sg15_31_cif.got.tgz:60078.got - 2010.06.28 07:06:18.
