data_PCOD8141018
_publ_section_title
;
Structure prediction by ZEFSAII (Michael W. Deem and Ramdas Pophale) SiO2 
 PCOD8141018
Probable space group: C 2/C
;
_chemical_formula_sum "Si O2"
_cell_formula_units_Z 64
_cell_length_a 8.890397
_cell_length_b 29.792637
_cell_length_c 15.657383
_cell_angle_alpha 90.000000
_cell_angle_beta 126.654659
_cell_angle_gamma 90.000000
_cell_volume 3327.040544
_symmetry_space_group_name_H-M "C 2/C"
_symmetry_group_IT_number 15
_symmetry_cell_setting 'monoclinic'
loop_
_space_group_symop_operation_xyz
x,y,z
-x,y,1/2-z
-x,-y,-z
x,-y,1/2+z
1/2+x,1/2+y,z
1/2-x,1/2+y,1/2-z
1/2-x,1/2-y,-z
1/2+x,1/2-y,1/2+z
loop_
_atom_site_type_symbol
_atom_site_label
_atom_site_fract_x
_atom_site_fract_y
_atom_site_fract_z
Si Si1 0.866988 0.815319 0.783566
Si Si2 0.235064 0.969089 0.970937
Si Si3 0.191190 0.398747 0.794133
Si Si4 0.524470 0.402862 0.014419
Si Si5 0.513189 0.771208 0.851787
Si Si6 0.420431 0.463824 0.310948
Si Si7 0.081707 0.480536 0.644338
Si Si8 0.578735 0.302038 0.513190
O O1 0.845954 0.868427 0.797705
O O2 0.662997 0.800998 0.684859
O O3 0.943296 0.788427 0.893431
O O4 0.000000 0.806705 0.750000
O O5 0.177547 0.922236 0.997636
O O6 0.352509 0.960640 0.924656
O O7 0.040007 0.993958 0.885360
O O8 0.369092 0.000734 0.074151
O O9 0.310846 0.416526 0.915898
O O10 0.098809 0.439248 0.712617
O O11 0.000000 0.369852 0.750000
O O12 0.528652 0.349390 0.031508
O O13 0.577771 0.423680 0.122531
O O14 0.500000 0.751918 0.750000
O O15 0.696218 0.802652 0.926833
O O16 0.495901 0.731541 0.915643
O O17 0.500000 0.444211 0.250000
O O18 0.209342 0.479078 0.221465
#
# Coordination Sequence:
#
# PCOD8141018 Si02
#       8
#     8   8   8   8   8   8   8   8
#     4  10  21  34  58  88 118 151 189 244 296 352
#     4  10  21  36  53  81 112 151 197 243 288 351
#     4  11  22  34  57  85 113 147 197 245 292 349
#     4  11  21  34  58  82 115 148 200 246 291 346
#     4   9  18  39  62  87 119 150 195 235 298 371
#     4  10  21  36  52  76 111 155 195 241 288 345
#     4  10  22  35  55  78 114 156 196 238 299 343
#     4   9  20  36  61  88 115 155 190 245 294 359
#
# _framework density 19.236315000000001
#
# number of rings (size 3 to 8) (size 9 to 14) (size 15 to 20)
#    0.000    2.000    1.250    3.000    5.250    1.000 
#    0.000    0.000    2.750    0.000    0.000    0.000 
#    0.000    0.000    0.000    0.000    0.000    0.000 
#
# Total GULP energy -396445.390762 kJ/mol
# GULP energy per Si atom -12388.918461 kJ/mol
# Density = 1.919253 g / cm^3
# Si number density = 19.236315 Si / 1000 Ang^3
#
#
#
# Elastic Constant Matrix: (Units=GPa)
#
#
# Indices 1 2 3 4 5 6 
#
# 1 90.6400 31.0261 34.5632 0.0000 -13.1823 0.0000
# 2 31.0261 75.7350 35.1858 0.0000 -11.8245 0.0000
# 3 34.5632 35.1858 103.3251 0.0000 -7.8279 0.0000
# 4 0.0000 0.0000 0.0000 27.1452 0.0000 0.0727
# 5 -13.1823 -11.8245 -7.8279 0.0000 26.4587 0.0000
# 6 0.0000 0.0000 0.0000 0.0727 0.0000 23.8173
#
#
#
# Elastic Compliance Matrix: (Units=1/GPa)
#
#
# Indices 1 2 3 4 5 6 
#
# 1 0.014127 -0.003622 -0.003152 0.000000 0.004487 0.000000
# 2 -0.003622 0.017455 -0.004376 0.000000 0.004701 0.000000
# 3 -0.003152 -0.004376 0.012230 0.000000 0.000092 0.000000
# 4 0.000000 0.000000 0.000000 0.036839 0.000000 -0.000112
# 5 0.004487 0.004701 0.000092 0.000000 0.042159 0.000000
# 6 0.000000 0.000000 0.000000 -0.000112 0.000000 0.041987
#
#
# Mechanical properties :
#
#
# Convention : Reuss Voigt Hill
#
# Bulk Modulus (GPa) = 46.48880 52.36117 49.42498
# Shear Modulus (GPa) = 25.73763 26.74590 26.24177
#
# Velocity S-wave (km/s) = 3.66180 3.73283 3.69749
# Velocity P-wave (km/s) = 6.48830 6.77184 6.63158
#
# Compressibility (1/GPa) = 0.02151056
#
# Stress axis : x y z
#
# Youngs Moduli (GPa) = 70.78550 57.29004 81.76729
#
# Poissons Ratio (x) = 0.20753 0.25775
# Poissons Ratio (y) = 0.25641 0.35783
# Poissons Ratio (z) = 0.22313 0.25071
#
# Static dielectric constant tensor:
#      x y z
#    x 3.586850 0.000000 -0.019020 
#    y 0.000000 3.269300 0.000000 
#    z -0.019020 0.000000 3.865040 
# 
# 
# High freq. dielectric constant tensor:
#      x y z
#    x 1.746930 0.000000 -0.000240 
#    y 0.000000 1.719790 0.000000 
#    z -0.000240 0.000000 1.763800 
# 
# From -- ./inp_files/139541.got.cif
#   From: 2010.06.25/outbox.cif.g09.slc.cpg/sg15_70_cif.got.tgz:139541.got - 2010.06.28 07:06:18.
