data_PCOD8141751
_publ_section_title
;
Structure prediction by ZEFSAII (Michael W. Deem and Ramdas Pophale) SiO2 
 PCOD8141751
Probable space group: C 2/C
;
_chemical_formula_sum "Si O2"
_cell_formula_units_Z 48
_cell_length_a 12.130675
_cell_length_b 18.832274
_cell_length_c 10.930409
_cell_angle_alpha 90.000000
_cell_angle_beta 114.364880
_cell_angle_gamma 90.000000
_cell_volume 2274.638297
_symmetry_space_group_name_H-M "C 2/C"
_symmetry_group_IT_number 15
_symmetry_cell_setting 'monoclinic'
loop_
_space_group_symop_operation_xyz
x,y,z
-x,y,1/2-z
-x,-y,-z
x,-y,1/2+z
1/2+x,1/2+y,z
1/2-x,1/2+y,1/2-z
1/2-x,1/2-y,-z
1/2+x,1/2-y,1/2+z
loop_
_atom_site_type_symbol
_atom_site_label
_atom_site_fract_x
_atom_site_fract_y
_atom_site_fract_z
Si Si1 0.129282 0.241826 0.308905
Si Si2 0.978661 0.904070 0.100116
Si Si3 0.324183 0.136154 0.496697
Si Si4 0.804053 0.019738 0.919496
Si Si5 0.124318 0.588456 0.238628
Si Si6 0.798632 0.203954 0.413838
O O1 0.210059 0.184198 0.412366
O O2 0.107578 0.316617 0.370210
O O3 0.177388 0.254009 0.192859
O O4 0.000000 0.203537 0.250000
O O5 0.000000 0.884474 0.250000
O O6 0.110499 0.923853 0.109227
O O7 0.924186 0.835571 0.005888
O O8 0.885881 0.969018 0.041558
O O9 0.285441 0.061152 0.532769
O O10 0.402647 0.115467 0.412410
O O11 0.719317 0.977434 0.783812
O O12 0.188822 0.650837 0.340982
O O13 0.000000 0.568081 0.250000
O O14 0.750000 0.250000 0.500000
#
# Coordination Sequence:
#
# PCOD8141751 Si02
#       6
#     8   8   8   8   8   8
#     4  10  22  40  62  87 120 165 210 253 306 374
#     4  10  21  37  63  92 124 164 208 266 314 371
#     4  10  22  40  62  87 122 163 207 255 309 381
#     4  10  21  39  62  92 123 162 216 257 315 375
#     4  10  23  41  61  91 128 164 208 264 321 376
#     4  10  23  39  60  95 128 163 214 264 313 379
#
# _framework density 21.102257999999999
#
# number of rings (size 3 to 8) (size 9 to 14) (size 15 to 20)
#    0.000    2.000    0.000    2.000    4.667    5.333 
#    0.000    0.000    0.000    0.000    0.000    0.000 
#    0.000    0.000    0.000    0.000    0.000    0.000 
#
# Total GULP energy -297504.241328 kJ/mol
# GULP energy per Si atom -12396.010055 kJ/mol
# Density = 2.105423 g / cm^3
# Si number density = 21.102258 Si / 1000 Ang^3
#
#
#
# Elastic Constant Matrix: (Units=GPa)
#
#
# Indices 1 2 3 4 5 6 
#
# 1 103.2111 34.3617 34.2185 0.0000 2.0715 0.0000
# 2 34.3617 87.8198 41.6791 0.0000 -14.2399 0.0000
# 3 34.2185 41.6791 117.4131 0.0000 -13.4069 0.0000
# 4 0.0000 0.0000 0.0000 17.3919 0.0000 -13.8798
# 5 2.0715 -14.2399 -13.4069 0.0000 26.0969 0.0000
# 6 0.0000 0.0000 0.0000 -13.8798 0.0000 29.7878
#
#
#
# Elastic Compliance Matrix: (Units=1/GPa)
#
#
# Indices 1 2 3 4 5 6 
#
# 1 0.012032 -0.004253 -0.002518 0.000000 -0.004570 0.000000
# 2 -0.004253 0.015920 -0.003592 0.000000 0.007179 0.000000
# 3 -0.002518 -0.003592 0.010968 0.000000 0.003875 0.000000
# 4 0.000000 0.000000 0.000000 0.091537 0.000000 0.042652
# 5 -0.004570 0.007179 0.003875 0.000000 0.044589 0.000000
# 6 0.000000 0.000000 0.000000 0.042652 0.000000 0.053445
#
#
# Mechanical properties :
#
#
# Convention : Reuss Voigt Hill
#
# Bulk Modulus (GPa) = 54.96740 58.77364 56.87052
# Shear Modulus (GPa) = 19.58612 27.86763 23.72687
#
# Velocity S-wave (km/s) = 3.04986 3.63795 3.35681
# Velocity P-wave (km/s) = 6.20539 6.74970 6.48326
#
# Compressibility (1/GPa) = 0.01819260
#
# Stress axis : x y z
#
# Youngs Moduli (GPa) = 83.11431 62.81397 91.17111
#
# Poissons Ratio (x) = 0.26718 0.22960
# Poissons Ratio (y) = 0.35352 0.32748
# Poissons Ratio (z) = 0.20931 0.22562
#
# Static dielectric constant tensor:
#      x y z
#    x 3.722670 0.000000 0.019810 
#    y 0.000000 3.821460 0.000000 
#    z 0.019810 0.000000 4.057250 
# 
# 
# High freq. dielectric constant tensor:
#      x y z
#    x 1.824560 0.000000 -0.002210 
#    y 0.000000 1.819980 0.000000 
#    z -0.002210 0.000000 1.834390 
# 
# From -- ./inp_files/87876.got.cif
#   From: 2010.06.25/outbox.cif.g09.slc.cpg/sg15_44_cif.got.tgz:87876.got - 2010.06.28 07:06:18.
