data_PCOD8141036
_publ_section_title
;
Structure prediction by ZEFSAII (Michael W. Deem and Ramdas Pophale) SiO2 
 PCOD8141036
Probable space group: C 2/C
;
_chemical_formula_sum "Si O2"
_cell_formula_units_Z 60
_cell_length_a 13.260615
_cell_length_b 17.093906
_cell_length_c 23.583870
_cell_angle_alpha 90.000000
_cell_angle_beta 33.439805
_cell_angle_gamma 90.000000
_cell_volume 2945.909564
_symmetry_space_group_name_H-M "C 2/C"
_symmetry_group_IT_number 15
_symmetry_cell_setting 'monoclinic'
loop_
_space_group_symop_operation_xyz
x,y,z
-x,y,1/2-z
-x,-y,-z
x,-y,1/2+z
1/2+x,1/2+y,z
1/2-x,1/2+y,1/2-z
1/2-x,1/2-y,-z
1/2+x,1/2-y,1/2+z
loop_
_atom_site_type_symbol
_atom_site_label
_atom_site_fract_x
_atom_site_fract_y
_atom_site_fract_z
Si Si1 0.741897 0.187826 0.953329
Si Si2 0.012035 0.906048 0.091601
Si Si3 0.668875 0.703014 0.985533
Si Si4 0.316314 0.001262 0.261589
Si Si5 0.279956 0.026584 0.912029
Si Si6 0.126162 0.743947 0.387279
Si Si7 0.000000 0.734456 0.250000
Si Si8 0.271372 0.672941 0.209929
O O1 0.849025 0.109690 0.921727
O O2 0.837269 0.214459 0.851006
O O3 0.750000 0.250000 0.000000
O O4 0.527768 0.174935 0.039726
O O5 0.976665 0.827049 0.072798
O O6 0.813457 0.935729 0.207052
O O7 0.109570 0.971722 0.007887
O O8 0.449496 0.701104 0.092972
O O9 0.750000 0.750000 0.000000
O O10 0.745520 0.615567 0.946362
O O11 0.725556 0.750259 0.901586
O O12 0.225804 0.080718 0.280924
O O13 0.530504 0.996576 0.144820
O O14 0.299159 0.984901 0.336356
O O15 0.265591 0.722593 0.271287
O O16 0.086678 0.683275 0.259594
#
# Coordination Sequence:
#
# PCOD8141036 Si02
#       8
#     8   8   8   8   8   8   4   8
#     4  10  21  34  61  95 124 164 201 274 326 386
#     4  11  20  39  63  93 129 165 212 275 327 390
#     4  12  27  43  67  95 136 179 224 273 331 408
#     4  11  23  36  67  93 129 174 215 273 336 395
#     4  11  23  39  63  97 133 167 221 278 334 385
#     4  11  23  41  65  95 135 169 217 277 337 391
#     4  12  20  34  64  96 128 158 220 260 334 396
#     4  12  24  40  66 103 131 174 219 275 336 400
#
# _framework density 20.367224
#
# number of rings (size 3 to 8) (size 9 to 14) (size 15 to 20)
#    0.000    0.800    6.667    2.800    5.600    0.533 
#    0.000    0.000    2.933    1.600    0.000    0.000 
#    0.000    0.000    0.000    0.000    0.000    0.000 
#
# Total GULP energy -371828.265330 kJ/mol
# GULP energy per Si atom -12394.275511 kJ/mol
# Density = 2.032087 g / cm^3
# Si number density = 20.367224 Si / 1000 Ang^3
#
#
#
# Elastic Constant Matrix: (Units=GPa)
#
#
# Indices 1 2 3 4 5 6 
#
# 1 85.7236 46.9149 16.1382 0.0005 6.2014 0.0000
# 2 46.9149 89.4715 23.2045 0.0036 8.1076 -0.0001
# 3 16.1382 23.2045 85.4709 0.0056 2.8117 0.0020
# 4 0.0005 0.0036 0.0056 30.8907 -0.0004 -7.0208
# 5 6.2014 8.1076 2.8117 -0.0004 35.5879 -0.0003
# 6 0.0000 -0.0001 0.0020 -7.0208 -0.0003 30.4376
#
#
#
# Elastic Compliance Matrix: (Units=1/GPa)
#
#
# Indices 1 2 3 4 5 6 
#
# 1 0.016442 -0.008329 -0.000814 0.000001 -0.000903 0.000000
# 2 -0.008329 0.016466 -0.002829 -0.000001 -0.002076 0.000000
# 3 -0.000814 -0.002829 0.012629 -0.000002 -0.000211 -0.000001
# 4 0.000001 -0.000001 -0.000002 0.034163 0.000001 0.007880
# 5 -0.000903 -0.002076 -0.000211 0.000001 0.028747 0.000000
# 6 0.000000 0.000000 -0.000001 0.007880 0.000000 0.034672
#
#
# Mechanical properties :
#
#
# Convention : Reuss Voigt Hill
#
# Bulk Modulus (GPa) = 46.31097 48.13122 47.22109
# Shear Modulus (GPa) = 28.69292 31.01049 29.85170
#
# Velocity S-wave (km/s) = 3.75744 3.90624 3.83257
# Velocity P-wave (km/s) = 6.45072 6.63536 6.54369
#
# Compressibility (1/GPa) = 0.02159316
#
# Stress axis : x y z
#
# Youngs Moduli (GPa) = 60.81983 60.73178 79.18513
#
# Poissons Ratio (x) = 0.50581 0.06443
# Poissons Ratio (y) = 0.50654 0.22405
# Poissons Ratio (z) = 0.04949 0.17184
#
# Static dielectric constant tensor:
#      x y z
#    x 3.868320 0.000010 -0.338170 
#    y 0.000010 3.705330 0.000000 
#    z -0.338170 0.000000 3.898250 
# 
# 
# High freq. dielectric constant tensor:
#      x y z
#    x 1.781610 0.000000 -0.020980 
#    y 0.000000 1.778780 0.000000 
#    z -0.020980 0.000000 1.800210 
# 
# From -- ./inp_files/239966.got.cif
#   From: 2010.06.25/outbox.cif.g09.slc.cpg/sg15_120_cif.got.tgz:239966.got - 2010.06.28 07:06:18.
