data_PCOD8141426
_publ_section_title
;
Structure prediction by ZEFSAII (Michael W. Deem and Ramdas Pophale) SiO2 
 PCOD8141426
Probable space group: C 2/C
;
_chemical_formula_sum "Si O2"
_cell_formula_units_Z 56
_cell_length_a 21.144122
_cell_length_b 21.831968
_cell_length_c 17.471288
_cell_angle_alpha 90.000000
_cell_angle_beta 159.481169
_cell_angle_gamma 90.000000
_cell_volume 2826.925317
_symmetry_space_group_name_H-M "C 2/C"
_symmetry_group_IT_number 15
_symmetry_cell_setting 'monoclinic'
loop_
_space_group_symop_operation_xyz
x,y,z
-x,y,1/2-z
-x,-y,-z
x,-y,1/2+z
1/2+x,1/2+y,z
1/2-x,1/2+y,1/2-z
1/2-x,1/2-y,-z
1/2+x,1/2-y,1/2+z
loop_
_atom_site_type_symbol
_atom_site_label
_atom_site_fract_x
_atom_site_fract_y
_atom_site_fract_z
Si Si1 0.500000 0.625824 0.250000
Si Si2 0.248638 0.306149 0.352897
Si Si3 0.267756 0.671964 0.702634
Si Si4 0.151926 0.673163 0.076186
Si Si5 0.500000 0.621581 0.750000
Si Si6 0.195194 0.572523 0.006529
Si Si7 0.807285 0.567210 0.995296
Si Si8 0.363594 0.302526 0.956983
O O1 0.586922 0.670257 0.410701
O O2 0.348553 0.583221 0.116749
O O3 0.260058 0.338768 0.283945
O O4 0.253884 0.232938 0.352627
O O5 0.061238 0.324403 0.179701
O O6 0.201046 0.610010 0.588073
O O7 0.148870 0.730003 0.540347
O O8 0.471488 0.686111 0.912142
O O9 0.229930 0.614271 0.120532
O O10 0.192544 0.671706 0.214097
O O11 0.355564 0.580290 0.630496
O O12 0.384780 0.663621 0.561621
O O13 0.207949 0.502667 0.049263
O O14 0.000000 0.587159 0.750000
O O15 0.000000 0.580520 0.250000
#
# Coordination Sequence:
#
# PCOD8141426 Si02
#       8
#     4   8   8   8   4   8   8   8
#     4  12  23  40  68  88 123 158 202 266 298 362
#     4  11  23  37  64  93 122 159 201 255 317 351
#     4  10  21  39  58  93 122 163 202 250 307 366
#     4  11  22  40  61  91 127 159 203 253 301 376
#     4  10  23  40  62  96 117 164 204 256 308 352
#     4  11  23  43  60  92 123 165 207 248 300 363
#     4  10  24  40  64  87 127 164 206 252 295 365
#     4  10  21  36  63  91 127 154 203 255 310 357
#
# _framework density 19.809508000000001
#
# number of rings (size 3 to 8) (size 9 to 14) (size 15 to 20)
#    0.000    1.429    1.429    5.571    6.000    2.286 
#    0.000    8.571    0.000    0.000    0.000    0.000 
#    0.000    0.000    0.000    0.000    0.000    0.000 
#
# Total GULP energy -347283.048632 kJ/mol
# GULP energy per Si atom -12402.966023 kJ/mol
# Density = 1.976442 g / cm^3
# Si number density = 19.809508 Si / 1000 Ang^3
#
#
#
# Elastic Constant Matrix: (Units=GPa)
#
#
# Indices 1 2 3 4 5 6 
#
# 1 101.4680 68.0575 38.7570 0.0001 -6.2502 -0.0002
# 2 68.0575 140.4876 56.4097 0.0000 -20.2344 -0.0001
# 3 38.7570 56.4097 104.8601 0.0007 -5.5381 -0.0010
# 4 0.0001 0.0000 0.0007 28.6352 0.0003 -0.2062
# 5 -6.2502 -20.2344 -5.5381 0.0003 32.5827 -0.0006
# 6 -0.0002 -0.0001 -0.0010 -0.2062 -0.0006 34.3860
#
#
#
# Elastic Compliance Matrix: (Units=1/GPa)
#
#
# Indices 1 2 3 4 5 6 
#
# 1 0.015023 -0.006693 -0.002038 0.000000 -0.001621 0.000000
# 2 -0.006693 0.012891 -0.004143 0.000000 0.006017 0.000000
# 3 -0.002038 -0.004143 0.012474 0.000000 -0.000844 0.000000
# 4 0.000000 0.000000 0.000000 0.034924 0.000000 0.000209
# 5 -0.001621 0.006017 -0.000844 0.000000 0.033974 0.000001
# 6 0.000000 0.000000 0.000000 0.000209 0.000001 0.029083
#
#
# Mechanical properties :
#
#
# Convention : Reuss Voigt Hill
#
# Bulk Modulus (GPa) = 68.30550 74.80713 71.55632
# Shear Modulus (GPa) = 29.58673 31.36021 30.47347
#
# Velocity S-wave (km/s) = 3.86886 3.98312 3.92640
# Velocity P-wave (km/s) = 7.38332 7.68107 7.53367
#
# Compressibility (1/GPa) = 0.01464011
#
# Stress axis : x y z
#
# Youngs Moduli (GPa) = 66.56468 77.57611 80.16796
#
# Poissons Ratio (x) = 0.51922 0.16336
# Poissons Ratio (y) = 0.44552 0.33213
# Poissons Ratio (z) = 0.13564 0.32139
#
# Static dielectric constant tensor:
#      x y z
#    x 3.575450 0.000000 0.030070 
#    y 0.000000 3.584040 0.000000 
#    z 0.030070 0.000000 3.811740 
# 
# 
# High freq. dielectric constant tensor:
#      x y z
#    x 1.774200 0.000000 0.008220 
#    y 0.000000 1.763940 0.000000 
#    z 0.008220 0.000000 1.787900 
# 
# From -- ./inp_files/216650.got.cif
#   From: 2010.06.25/outbox.cif.g09.slc.cpg/sg15_109_cif.got.tgz:216650.got - 2010.06.28 07:06:18.
