data_PCOD8141137
_publ_section_title
;
Structure prediction by ZEFSAII (Michael W. Deem and Ramdas Pophale) SiO2 
 PCOD8141137
Probable space group: C 2/C
;
_chemical_formula_sum "Si O2"
_cell_formula_units_Z 48
_cell_length_a 8.583048
_cell_length_b 19.610160
_cell_length_c 19.582703
_cell_angle_alpha 90.000000
_cell_angle_beta 41.190143
_cell_angle_gamma 90.000000
_cell_volume 2170.654331
_symmetry_space_group_name_H-M "C 2/C"
_symmetry_group_IT_number 15
_symmetry_cell_setting 'monoclinic'
loop_
_space_group_symop_operation_xyz
x,y,z
-x,y,1/2-z
-x,-y,-z
x,-y,1/2+z
1/2+x,1/2+y,z
1/2-x,1/2+y,1/2-z
1/2-x,1/2-y,-z
1/2+x,1/2-y,1/2+z
loop_
_atom_site_type_symbol
_atom_site_label
_atom_site_fract_x
_atom_site_fract_y
_atom_site_fract_z
Si Si1 0.138841 0.455486 0.364643
Si Si2 0.803040 0.038832 0.956489
Si Si3 0.299176 0.679327 0.757658
Si Si4 0.617292 0.318388 0.024056
Si Si5 0.248535 0.037709 0.295958
Si Si6 0.216130 0.815091 0.839467
O O1 0.309466 0.444557 0.373399
O O2 0.127783 0.385254 0.325324
O O3 0.236884 0.517280 0.287521
O O4 0.875807 0.476745 0.472903
O O5 0.938860 0.987564 0.104616
O O6 0.736251 0.109955 0.016648
O O7 0.500000 0.679274 0.750000
O O8 0.393107 0.675259 0.648593
O O9 0.146485 0.749108 0.816799
O O10 0.750000 0.250000 0.000000
O O11 0.572641 0.310396 0.958288
O O12 0.500000 0.030255 0.250000
O O13 0.142933 0.113980 0.329067
O O14 0.500000 0.815516 0.750000
#
# Coordination Sequence:
#
# PCOD8141137 Si02
#       6
#     8   8   8   8   8   8
#     4  11  22  40  64  92 130 167 217 271 318 380
#     4  11  23  39  66  97 124 172 222 259 327 385
#     4  11  19  38  61  89 128 166 221 266 313 384
#     4  12  20  35  65  93 123 167 217 267 319 382
#     4  11  23  41  62  92 133 167 209 272 325 380
#     4  10  21  35  59  93 124 164 215 268 315 379
#
# _framework density 22.113147000000001
#
# number of rings (size 3 to 8) (size 9 to 14) (size 15 to 20)
#    0.000    1.000    6.667    2.500    0.000    2.667 
#    0.000    0.833    0.000    6.000    0.000    0.000 
#    0.000    0.000    0.000    0.000    0.000    0.000 
#
# Total GULP energy -297397.948355 kJ/mol
# GULP energy per Si atom -12391.581181 kJ/mol
# Density = 2.206282 g / cm^3
# Si number density = 22.113147 Si / 1000 Ang^3
#
#
#
# Elastic Constant Matrix: (Units=GPa)
#
#
# Indices 1 2 3 4 5 6 
#
# 1 33.0335 28.7307 19.5984 0.0013 -9.6339 -0.0010
# 2 28.7307 203.6921 59.8804 0.0006 -1.9637 0.0003
# 3 19.5984 59.8804 129.7758 0.0007 20.6392 -0.0004
# 4 0.0013 0.0006 0.0007 45.8703 -0.0001 7.2482
# 5 -9.6339 -1.9637 20.6392 -0.0001 26.1768 0.0013
# 6 -0.0010 0.0003 -0.0004 7.2482 0.0013 22.4405
#
#
#
# Elastic Compliance Matrix: (Units=1/GPa)
#
#
# Indices 1 2 3 4 5 6 
#
# 1 0.045589 -0.003558 -0.008997 -0.000001 0.023605 0.000001
# 2 -0.003558 0.006150 -0.002476 0.000000 0.001104 0.000000
# 3 -0.008997 -0.002476 0.012306 0.000000 -0.013200 0.000001
# 4 -0.000001 0.000000 0.000000 0.022973 0.000000 -0.007420
# 5 0.023605 0.001104 -0.013200 0.000000 0.057379 -0.000003
# 6 0.000001 0.000000 0.000001 -0.007420 -0.000003 0.046959
#
#
# Mechanical properties :
#
#
# Convention : Reuss Voigt Hill
#
# Bulk Modulus (GPa) = 29.42663 64.76894 47.09778
# Shear Modulus (GPa) = 21.48272 36.11698 28.79985
#
# Velocity S-wave (km/s) = 3.12026 4.04577 3.61277
# Velocity P-wave (km/s) = 5.13006 7.15386 6.22476
#
# Compressibility (1/GPa) = 0.03398283
#
# Stress axis : x y z
#
# Youngs Moduli (GPa) = 21.93520 162.61022 81.26143
#
# Poissons Ratio (x) = 0.57853 0.73113
# Poissons Ratio (y) = 0.07804 0.20119
# Poissons Ratio (z) = 0.19736 0.40260
#
# Static dielectric constant tensor:
#      x y z
#    x 3.492870 0.000000 0.400820 
#    y 0.000000 4.827480 0.000010 
#    z 0.400820 0.000010 4.702590 
# 
# 
# High freq. dielectric constant tensor:
#      x y z
#    x 1.799460 0.000000 0.017680 
#    y 0.000000 1.903290 0.000000 
#    z 0.017680 0.000000 1.886780 
# 
# From -- ./inp_files/191952.got.cif
#   From: 2010.06.25/outbox.cif.g09.slc.cpg/sg15_96_cif.got.tgz:191952.got - 2010.06.28 07:06:18.
