data_PCOD8141781
_publ_section_title
;
Structure prediction by ZEFSAII (Michael W. Deem and Ramdas Pophale) SiO2 
 PCOD8141781
Probable space group: C 2/C
;
_chemical_formula_sum "Si O2"
_cell_formula_units_Z 44
_cell_length_a 11.711906
_cell_length_b 15.551661
_cell_length_c 11.392294
_cell_angle_alpha 90.000000
_cell_angle_beta 87.641126
_cell_angle_gamma 90.000000
_cell_volume 2073.229497
_symmetry_space_group_name_H-M "C 2/C"
_symmetry_group_IT_number 15
_symmetry_cell_setting 'monoclinic'
loop_
_space_group_symop_operation_xyz
x,y,z
-x,y,1/2-z
-x,-y,-z
x,-y,1/2+z
1/2+x,1/2+y,z
1/2-x,1/2+y,1/2-z
1/2-x,1/2-y,-z
1/2+x,1/2-y,1/2+z
loop_
_atom_site_type_symbol
_atom_site_label
_atom_site_fract_x
_atom_site_fract_y
_atom_site_fract_z
Si Si1 0.375014 0.905873 0.384671
Si Si2 0.678213 0.432112 0.231006
Si Si3 0.573256 0.716061 0.134534
Si Si4 0.495724 0.590991 0.939557
Si Si5 0.778736 0.397929 0.640107
Si Si6 0.500000 0.047335 0.250000
O O1 0.298378 0.894060 0.269915
O O2 0.442003 0.816490 0.395019
O O3 0.301549 0.925124 0.504158
O O4 0.459972 0.986061 0.359403
O O5 0.629446 0.390393 0.112811
O O6 0.588459 0.414811 0.335207
O O7 0.695777 0.533359 0.204984
O O8 0.500000 0.689848 0.250000
O O9 0.707830 0.691559 0.146680
O O10 0.521795 0.667653 0.025720
O O11 0.500000 0.500000 0.000000
O O12 0.898534 0.391299 0.706137
#
# Coordination Sequence:
#
# PCOD8141781 Si02
#       6
#     8   8   8   8   8   4
#     4  11  22  44  63  94 132 175 218 275 333 382
#     4  10  21  37  64  93 125 167 217 267 318 394
#     4  12  24  41  66  97 136 172 214 275 337 388
#     4  11  20  37  62  97 129 166 213 267 333 390
#     4  11  22  40  69  92 127 175 223 265 322 393
#     4  10  24  44  68  92 128 180 228 268 314 402
#
# _framework density 21.222926999999999
#
# number of rings (size 3 to 8) (size 9 to 14) (size 15 to 20)
#    0.000    1.091    4.545    2.182    0.000    1.455 
#    3.273    0.909    0.000    0.000    0.000    0.000 
#    0.000    0.000    0.000    0.000    0.000    0.000 
#
# Total GULP energy -272717.126465 kJ/mol
# GULP energy per Si atom -12396.233021 kJ/mol
# Density = 2.117462 g / cm^3
# Si number density = 21.222927 Si / 1000 Ang^3
#
#
#
# Elastic Constant Matrix: (Units=GPa)
#
#
# Indices 1 2 3 4 5 6 
#
# 1 88.2485 2.0926 22.2813 0.0000 25.9559 0.0000
# 2 2.0926 48.1818 12.3137 0.0000 15.1799 0.0000
# 3 22.2813 12.3137 99.3838 0.0000 8.1761 0.0000
# 4 0.0000 0.0000 0.0000 16.4925 0.0000 19.8659
# 5 25.9559 15.1799 8.1761 0.0000 47.0432 0.0000
# 6 0.0000 0.0000 0.0000 19.8659 0.0000 -9.1769
#
#
#
# Elastic Compliance Matrix: (Units=1/GPa)
#
#
# Indices 1 2 3 4 5 6 
#
# 1 0.014456 0.002745 -0.002893 0.000000 -0.008359 0.000000
# 2 0.002745 0.024146 -0.002883 0.000000 -0.008805 0.000000
# 3 -0.002893 -0.002883 0.011018 0.000000 0.000612 0.000000
# 4 0.000000 0.000000 0.000000 0.016807 0.000000 0.036384
# 5 -0.008359 -0.008805 0.000612 0.000000 0.028604 0.000000
# 6 0.000000 0.000000 0.000000 0.036384 0.000000 -0.030206
#
#
# Mechanical properties :
#
#
# Convention : Reuss Voigt Hill
#
# Bulk Modulus (GPa) = 22.95824 34.35436 28.65630
# Shear Modulus (GPa) = 58.54381 24.14684 41.34533
#
# Velocity S-wave (km/s) = 5.25786 3.37675 4.41857
# Velocity P-wave (km/s) = 6.90661 5.60587 6.28995
#
# Compressibility (1/GPa) = 0.04355734
#
# Stress axis : x y z
#
# Youngs Moduli (GPa) = 69.17760 41.41410 90.76453
#
# Poissons Ratio (x) = -0.11368 0.26261
# Poissons Ratio (y) = -0.18990 0.26166
# Poissons Ratio (z) = 0.20015 0.11939
#
# Static dielectric constant tensor:
#      x y z
#    x 4.164250 0.000000 0.266490 
#    y 0.000000 3.532690 0.000000 
#    z 0.266490 0.000000 4.190710 
# 
# 
# High freq. dielectric constant tensor:
#      x y z
#    x 1.840380 0.000000 0.003210 
#    y 0.000000 1.806040 0.000000 
#    z 0.003210 0.000000 1.843920 
# 
# From -- ./inp_files/86086.got.cif
#   From: 2010.06.25/outbox.cif.g09.slc.cpg/sg15_44_cif.got.tgz:86086.got - 2010.06.28 07:06:18.
