data_PCOD8141302
_publ_section_title
;
Structure prediction by ZEFSAII (Michael W. Deem and Ramdas Pophale) SiO2 
 PCOD8141302
Probable space group: C 2/C
;
_chemical_formula_sum "Si O2"
_cell_formula_units_Z 32
_cell_length_a 4.952723
_cell_length_b 34.698554
_cell_length_c 8.302333
_cell_angle_alpha 90.000000
_cell_angle_beta 88.207962
_cell_angle_gamma 90.000000
_cell_volume 1426.077428
_symmetry_space_group_name_H-M "C 2/C"
_symmetry_group_IT_number 15
_symmetry_cell_setting 'monoclinic'
loop_
_space_group_symop_operation_xyz
x,y,z
-x,y,1/2-z
-x,-y,-z
x,-y,1/2+z
1/2+x,1/2+y,z
1/2-x,1/2+y,1/2-z
1/2-x,1/2-y,-z
1/2+x,1/2-y,1/2+z
loop_
_atom_site_type_symbol
_atom_site_label
_atom_site_fract_x
_atom_site_fract_y
_atom_site_fract_z
Si Si1 0.571484 0.327260 0.432337
Si Si2 0.001080 0.908726 0.940214
Si Si3 0.989876 0.457072 0.561737
Si Si4 0.910434 0.287059 0.932594
O O1 0.500000 0.317549 0.250000
O O2 0.616841 0.372360 0.458539
O O3 0.312556 0.320410 0.553012
O O4 0.825960 0.299729 0.470054
O O5 0.283790 0.926040 0.999518
O O6 0.000000 0.898798 0.750000
O O7 0.796755 0.942234 0.991186
O O8 0.000000 0.459302 0.750000
O O9 0.000000 0.500000 0.500000
O O10 0.000000 0.279419 0.750000
O O11 0.750000 0.250000 0.000000
#
# Coordination Sequence:
#
# PCOD8141302 Si02
#       4
#     8   8   8   8
#     4  12  26  44  69 102 134 170 221 278 330 391
#     4  10  21  39  61  89 124 169 215 262 322 389
#     4  10  21  36  58  87 123 165 214 265 320 382
#     4  12  26  47  71  98 133 176 218 267 330 400
#
# _framework density 22.439174000000001
#
# number of rings (size 3 to 8) (size 9 to 14) (size 15 to 20)
#    0.000    1.000    0.000    6.750    0.000    6.000 
#    0.000    0.000    0.000    0.000    0.000    0.000 
#    0.000    0.000    0.000    0.000    0.000    0.000 
#
# Total GULP energy -198307.440923 kJ/mol
# GULP energy per Si atom -12394.215058 kJ/mol
# Density = 2.238810 g / cm^3
# Si number density = 22.439174 Si / 1000 Ang^3
#
#
#
# Elastic Constant Matrix: (Units=GPa)
#
#
# Indices 1 2 3 4 5 6 
#
# 1 152.9882 48.0143 64.8197 0.0000 -2.6258 0.0000
# 2 48.0143 133.1334 69.8515 0.0000 -2.7477 0.0000
# 3 64.8197 69.8515 82.3058 0.0000 -5.6398 0.0000
# 4 0.0000 0.0000 0.0000 20.6605 0.0000 -52.7994
# 5 -2.6258 -2.7477 -5.6398 0.0000 34.1287 0.0000
# 6 0.0000 0.0000 0.0000 -52.7994 0.0000 -93.5366
#
#
#
# Elastic Compliance Matrix: (Units=1/GPa)
#
#
# Indices 1 2 3 4 5 6 
#
# 1 0.009886 0.000953 -0.008634 0.000000 -0.000590 0.000000
# 2 0.000953 0.013655 -0.012399 0.000000 -0.000876 0.000000
# 3 -0.008634 -0.012399 0.029695 0.000000 0.003245 0.000000
# 4 0.000000 0.000000 0.000000 0.019816 0.000000 -0.011186
# 5 -0.000590 -0.000876 0.003245 0.000000 0.029721 0.000000
# 6 0.000000 0.000000 0.000000 -0.011186 0.000000 -0.004377
#
#
# Mechanical properties :
#
#
# Convention : Reuss Voigt Hill
#
# Bulk Modulus (GPa) = 76.48681 81.53316 79.00999
# Shear Modulus (GPa) = 34.98556 4.63332 19.80944
#
# Velocity S-wave (km/s) = 3.95286 1.43851 2.97443
# Velocity P-wave (km/s) = 7.41578 6.25885 6.86174
#
# Compressibility (1/GPa) = 0.01307415
#
# Stress axis : x y z
#
# Youngs Moduli (GPa) = 101.15689 73.23254 33.67532
#
# Poissons Ratio (x) = -0.06978 0.29077
# Poissons Ratio (y) = -0.09639 0.41755
# Poissons Ratio (z) = 0.87344 0.90804
#
# Static dielectric constant tensor:
#      x y z
#    x 4.699930 0.000000 -0.167880 
#    y 0.000000 4.022940 0.000000 
#    z -0.167880 0.000000 3.915620 
# 
# 
# High freq. dielectric constant tensor:
#      x y z
#    x 1.905720 0.000000 -0.004590 
#    y 0.000000 1.903240 0.000000 
#    z -0.004590 0.000000 1.870830 
# 
# From -- ./inp_files/19962.got.cif
#   From: 2010.06.25/outbox.cif.g09.slc.cpg/sg15_10_cif.got.tgz:19962.got - 2010.06.28 07:06:18.
