data_PCOD8141995
_publ_section_title
;
Structure prediction by ZEFSAII (Michael W. Deem and Ramdas Pophale) SiO2 
 PCOD8141995
Probable space group: C 2/C
;
_chemical_formula_sum "Si O2"
_cell_formula_units_Z 64
_cell_length_a 11.783106
_cell_length_b 29.817688
_cell_length_c 17.440694
_cell_angle_alpha 90.000000
_cell_angle_beta 29.620660
_cell_angle_gamma 90.000000
_cell_volume 3028.648704
_symmetry_space_group_name_H-M "C 2/C"
_symmetry_group_IT_number 15
_symmetry_cell_setting 'monoclinic'
loop_
_space_group_symop_operation_xyz
x,y,z
-x,y,1/2-z
-x,-y,-z
x,-y,1/2+z
1/2+x,1/2+y,z
1/2-x,1/2+y,1/2-z
1/2-x,1/2-y,-z
1/2+x,1/2-y,1/2+z
loop_
_atom_site_type_symbol
_atom_site_label
_atom_site_fract_x
_atom_site_fract_y
_atom_site_fract_z
Si Si1 0.802394 0.447100 0.145297
Si Si2 0.385348 0.063791 0.430003
Si Si3 0.459623 0.383746 0.949758
Si Si4 0.306650 0.703718 0.927369
Si Si5 0.614636 0.150237 0.366899
Si Si6 0.746868 0.901890 0.926732
Si Si7 0.002342 0.880603 0.097291
Si Si8 0.166761 0.021038 0.340193
O O1 0.685563 0.398456 0.231937
O O2 0.676356 0.486668 0.264101
O O3 0.773860 0.458653 0.071859
O O4 0.068801 0.442873 0.016115
O O5 0.497705 0.108181 0.396437
O O6 0.572542 0.030335 0.282037
O O7 0.199440 0.080185 0.476176
O O8 0.641691 0.344188 0.821156
O O9 0.245020 0.384458 0.016686
O O10 0.568241 0.432386 0.868247
O O11 0.387429 0.377105 0.080576
O O12 0.500000 0.710442 0.750000
O O13 0.395517 0.666873 0.936337
O O14 0.250000 0.750000 0.000000
O O15 0.059284 0.691491 0.036714
O O16 0.665738 0.141369 0.425930
O O17 0.000000 0.916941 0.750000
O O18 0.000000 0.000000 0.500000
#
# Coordination Sequence:
#
# PCOD8141995 Si02
#       8
#     8   8   8   8   8   8   8   8
#     4  11  21  39  60  82 120 164 221 267 314 376
#     4   9  20  36  60  78 115 167 204 255 317 382
#     4  10  21  38  60  89 123 167 216 259 319 377
#     4  11  24  40  67 103 131 159 201 259 325 395
#     4   8  18  38  63  84 121 160 207 245 306 384
#     4   9  19  38  62  86 111 167 221 256 303 380
#     4  11  22  40  63  91 128 165 212 259 335 387
#     4  11  22  39  52  89 125 160 218 277 317 372
#
# _framework density 21.131536000000001
#
# number of rings (size 3 to 8) (size 9 to 14) (size 15 to 20)
#    0.000    2.000    1.250    3.750    1.750    5.500 
#    2.250    3.750    0.000    1.500    6.500    0.000 
#    0.000    0.000    0.000    0.000    0.000    0.000 
#
# Total GULP energy -396479.420034 kJ/mol
# GULP energy per Si atom -12389.981876 kJ/mol
# Density = 2.108344 g / cm^3
# Si number density = 21.131536 Si / 1000 Ang^3
#
#
#
# Elastic Constant Matrix: (Units=GPa)
#
#
# Indices 1 2 3 4 5 6 
#
# 1 106.5538 17.3624 17.7169 -0.0008 14.8164 0.0016
# 2 17.3624 89.0713 38.3393 0.0000 1.4805 -0.0002
# 3 17.7169 38.3393 91.0501 -0.0037 14.0135 0.0033
# 4 -0.0008 0.0000 -0.0037 30.2881 0.0019 -2.2546
# 5 14.8164 1.4805 14.0135 0.0019 26.8392 -0.0023
# 6 0.0016 -0.0002 0.0033 -2.2546 -0.0023 24.4418
#
#
#
# Elastic Compliance Matrix: (Units=1/GPa)
#
#
# Indices 1 2 3 4 5 6 
#
# 1 0.010508 -0.001758 -0.000464 0.000000 -0.005462 -0.000001
# 2 -0.001758 0.014157 -0.006142 -0.000001 0.003396 0.000001
# 3 -0.000464 -0.006142 0.014753 0.000002 -0.007108 -0.000002
# 4 0.000000 -0.000001 0.000002 0.033245 -0.000003 0.003067
# 5 -0.005462 0.003396 -0.007108 -0.000003 0.043798 0.000005
# 6 -0.000001 0.000001 -0.000002 0.003067 0.000005 0.041196
#
#
# Mechanical properties :
#
#
# Convention : Reuss Voigt Hill
#
# Bulk Modulus (GPa) = 44.07006 48.16805 46.11905
# Shear Modulus (GPa) = 27.48039 30.53093 29.00566
#
# Velocity S-wave (km/s) = 3.61008 3.80518 3.70891
# Velocity P-wave (km/s) = 6.18686 6.49228 6.34141
#
# Compressibility (1/GPa) = 0.02269114
#
# Stress axis : x y z
#
# Youngs Moduli (GPa) = 95.16618 70.63743 67.78073
#
# Poissons Ratio (x) = 0.12417 0.03144
# Poissons Ratio (y) = 0.16729 0.41630
# Poissons Ratio (z) = 0.04415 0.43384
#
# Static dielectric constant tensor:
#      x y z
#    x 4.452110 -0.000010 -0.338740 
#    y -0.000010 3.674310 0.000000 
#    z -0.338740 0.000000 4.267170 
# 
# 
# High freq. dielectric constant tensor:
#      x y z
#    x 1.832670 0.000000 0.001340 
#    y 0.000000 1.776520 0.000000 
#    z 0.001340 0.000000 1.839010 
# 
# From -- ./inp_files/201470.got.cif
#   From: 2010.06.25/outbox.cif.g09.slc.cpg/sg15_101_cif.got.tgz:201470.got - 2010.06.28 07:06:18.
