data_PCOD8141893
_publ_section_title
;
Structure prediction by ZEFSAII (Michael W. Deem and Ramdas Pophale) SiO2 
 PCOD8141893
Probable space group: C 2/C
;
_chemical_formula_sum "Si O2"
_cell_formula_units_Z 52
_cell_length_a 23.260022
_cell_length_b 6.471665
_cell_length_c 19.001778
_cell_angle_alpha 90.000000
_cell_angle_beta 76.370444
_cell_angle_gamma 90.000000
_cell_volume 2779.809078
_symmetry_space_group_name_H-M "C 2/C"
_symmetry_group_IT_number 15
_symmetry_cell_setting 'monoclinic'
loop_
_space_group_symop_operation_xyz
x,y,z
-x,y,1/2-z
-x,-y,-z
x,-y,1/2+z
1/2+x,1/2+y,z
1/2-x,1/2+y,1/2-z
1/2-x,1/2-y,-z
1/2+x,1/2-y,1/2+z
loop_
_atom_site_type_symbol
_atom_site_label
_atom_site_fract_x
_atom_site_fract_y
_atom_site_fract_z
Si Si1 0.000000 0.610886 0.750000
Si Si2 0.757862 0.046756 0.574832
Si Si3 0.757184 0.843464 0.322790
Si Si4 0.055201 0.235044 0.804593
Si Si5 0.556758 0.512471 0.164731
Si Si6 0.320095 0.586048 0.419408
Si Si7 0.322132 0.199294 0.166319
O O1 0.963835 0.469052 0.706182
O O2 0.956275 0.754569 0.807308
O O3 0.696657 0.169258 0.574799
O O4 0.787037 0.969938 0.493236
O O5 0.804747 0.201861 0.596918
O O6 0.745927 0.859854 0.629842
O O7 0.783003 0.800414 0.238913
O O8 0.799930 0.003682 0.349439
O O9 0.692788 0.953245 0.331892
O O10 0.108794 0.253086 0.843535
O O11 0.075922 0.125593 0.726389
O O12 0.000849 0.099984 0.853294
O O13 0.610029 0.536594 0.093790
#
# Coordination Sequence:
#
# PCOD8141893 Si02
#       7
#     4   8   8   8   8   8   8
#     4   8  18  30  50  82 100 138 184 224 280 314
#     4  10  23  37  53  85 112 144 188 225 279 338
#     4  11  21  34  56  81 111 148 176 224 287 327
#     4   9  19  33  50  82 112 136 186 235 265 336
#     4   9  18  33  56  79 106 145 186 228 278 319
#     4  10  21  38  58  78 112 149 184 229 274 336
#     4  11  21  34  54  83 114 141 182 232 280 330
#
# _framework density 18.706320999999999
#
# number of rings (size 3 to 8) (size 9 to 14) (size 15 to 20)
#    0.000    2.462    3.077    0.462    2.154    2.462 
#    0.000    0.769    0.000    1.846    0.000    0.000 
#    0.000    0.000    0.000    0.000    0.000    0.000 
#
# Total GULP energy -322245.170281 kJ/mol
# GULP energy per Si atom -12394.045011 kJ/mol
# Density = 1.866374 g / cm^3
# Si number density = 18.706321 Si / 1000 Ang^3
#
#
#
# Elastic Constant Matrix: (Units=GPa)
#
#
# Indices 1 2 3 4 5 6 
#
# 1 116.6311 23.3478 20.1634 0.0000 -14.2384 0.0000
# 2 23.3478 81.5885 12.6812 0.0000 -11.1961 0.0000
# 3 20.1634 12.6812 60.0134 0.0000 -9.4410 0.0000
# 4 0.0000 0.0000 0.0000 20.5385 0.0000 4.0260
# 5 -14.2384 -11.1961 -9.4410 0.0000 28.3360 0.0000
# 6 0.0000 0.0000 0.0000 4.0260 0.0000 20.5981
#
#
#
# Elastic Compliance Matrix: (Units=1/GPa)
#
#
# Indices 1 2 3 4 5 6 
#
# 1 0.009784 -0.001975 -0.002342 0.000000 0.003356 0.000000
# 2 -0.001975 0.013599 -0.001605 0.000000 0.003846 0.000000
# 3 -0.002342 -0.001605 0.018472 0.000000 0.004344 0.000000
# 4 0.000000 0.000000 0.000000 0.050629 0.000000 -0.009896
# 5 0.003356 0.003846 0.004344 0.000000 0.039944 0.000000
# 6 0.000000 0.000000 0.000000 -0.009896 0.000000 0.050482
#
#
# Mechanical properties :
#
#
# Convention : Reuss Voigt Hill
#
# Bulk Modulus (GPa) = 33.32116 41.17977 37.25046
# Shear Modulus (GPa) = 24.41904 27.36389 25.89147
#
# Velocity S-wave (km/s) = 3.61694 3.82883 3.72439
# Velocity P-wave (km/s) = 5.94091 6.45044 6.20091
#
# Compressibility (1/GPa) = 0.03001096
#
# Stress axis : x y z
#
# Youngs Moduli (GPa) = 102.20763 73.53414 54.13530
#
# Poissons Ratio (x) = 0.14526 0.12678
# Poissons Ratio (y) = 0.20190 0.08688
# Poissons Ratio (z) = 0.23937 0.11801
#
# Static dielectric constant tensor:
#      x y z
#    x 3.400820 0.000000 0.018640 
#    y 0.000000 3.586460 0.000000 
#    z 0.018640 0.000000 3.241610 
# 
# 
# High freq. dielectric constant tensor:
#      x y z
#    x 1.715800 0.000000 -0.000100 
#    y 0.000000 1.735920 0.000000 
#    z -0.000100 0.000000 1.700700 
# 
# From -- ./inp_files/220984.got.cif
#   From: 2010.06.25/outbox.cif.g09.slc.cpg/sg15_111_cif.got.tgz:220984.got - 2010.06.28 07:06:18.
