data_PCOD8141315
_publ_section_title
;
Structure prediction by ZEFSAII (Michael W. Deem and Ramdas Pophale) SiO2 
 PCOD8141315
Probable space group: C 2/C
;
_chemical_formula_sum "Si O2"
_cell_formula_units_Z 48
_cell_length_a 18.109316
_cell_length_b 13.592414
_cell_length_c 9.488812
_cell_angle_alpha 90.000000
_cell_angle_beta 96.696375
_cell_angle_gamma 90.000000
_cell_volume 2319.730788
_symmetry_space_group_name_H-M "C 2/C"
_symmetry_group_IT_number 15
_symmetry_cell_setting 'monoclinic'
loop_
_space_group_symop_operation_xyz
x,y,z
-x,y,1/2-z
-x,-y,-z
x,-y,1/2+z
1/2+x,1/2+y,z
1/2-x,1/2+y,1/2-z
1/2-x,1/2-y,-z
1/2+x,1/2-y,1/2+z
loop_
_atom_site_type_symbol
_atom_site_label
_atom_site_fract_x
_atom_site_fract_y
_atom_site_fract_z
Si Si1 0.852967 0.814653 0.512182
Si Si2 0.641291 0.433090 0.238243
Si Si3 0.427498 0.761237 0.300255
Si Si4 0.701354 0.101706 0.031458
Si Si5 0.185624 0.572151 0.721480
Si Si6 0.931279 0.074383 0.473657
O O1 0.896153 0.858664 0.386253
O O2 0.899631 0.803148 0.662407
O O3 0.790879 0.897836 0.539650
O O4 0.820284 0.713475 0.445399
O O5 0.727568 0.402797 0.279306
O O6 0.627539 0.538840 0.160305
O O7 0.602630 0.421964 0.378704
O O8 0.500000 0.816259 0.250000
O O9 0.366670 0.838634 0.347003
O O10 0.451312 0.685957 0.430304
O O11 0.668578 0.031525 0.144447
O O12 0.665319 0.060280 0.880401
O O13 0.000000 0.000000 0.500000
#
# Coordination Sequence:
#
# PCOD8141315 Si02
#       6
#     8   8   8   8   8   8
#     4   9  19  36  58  84 117 156 193 242 298 351
#     4  11  21  35  59  89 117 152 198 247 301 361
#     4  11  23  40  58  82 121 160 197 246 305 360
#     4   9  18  35  58  85 117 151 196 246 295 348
#     4  10  21  36  59  86 115 155 199 246 296 354
#     4  12  24  38  61  90 122 157 196 248 311 370
#
# _framework density 20.692055
#
# number of rings (size 3 to 8) (size 9 to 14) (size 15 to 20)
#    0.000    1.667    0.000    7.500    0.000    2.000 
#    0.000    3.333    0.000    2.000    0.000    0.000 
#    0.000    0.000    0.000    0.000    0.000    0.000 
#
# Total GULP energy -297334.820885 kJ/mol
# GULP energy per Si atom -12388.950870 kJ/mol
# Density = 2.064496 g / cm^3
# Si number density = 20.692055 Si / 1000 Ang^3
#
#
#
# Elastic Constant Matrix: (Units=GPa)
#
#
# Indices 1 2 3 4 5 6 
#
# 1 82.0601 37.9446 25.7235 0.0000 -9.0835 0.0000
# 2 37.9446 102.6310 38.0723 0.0000 -10.3380 0.0000
# 3 25.7235 38.0723 92.2939 0.0000 -17.9192 0.0000
# 4 0.0000 0.0000 0.0000 46.0439 0.0000 -3.1953
# 5 -9.0835 -10.3380 -17.9192 0.0000 30.8341 0.0000
# 6 0.0000 0.0000 0.0000 -3.1953 0.0000 36.9366
#
#
#
# Elastic Compliance Matrix: (Units=1/GPa)
#
#
# Indices 1 2 3 4 5 6 
#
# 1 0.015168 -0.004710 -0.001943 0.000000 0.001760 0.000000
# 2 -0.004710 0.013009 -0.003918 0.000000 0.000697 0.000000
# 3 -0.001943 -0.003918 0.014232 0.000000 0.006385 0.000000
# 4 0.000000 0.000000 0.000000 0.021850 0.000000 0.001890
# 5 0.001760 0.000697 0.006385 0.000000 0.036895 0.000000
# 6 0.000000 0.000000 0.000000 0.001890 0.000000 0.027237
#
#
# Mechanical properties :
#
#
# Convention : Reuss Voigt Hill
#
# Bulk Modulus (GPa) = 47.02081 53.38508 50.20295
# Shear Modulus (GPa) = 31.92418 34.44588 33.18503
#
# Velocity S-wave (km/s) = 3.93214 4.08449 4.00904
# Velocity P-wave (km/s) = 6.58704 6.93541 6.76347
#
# Compressibility (1/GPa) = 0.02126718
#
# Stress axis : x y z
#
# Youngs Moduli (GPa) = 65.92875 76.87177 70.26177
#
# Poissons Ratio (x) = 0.36205 0.13651
# Poissons Ratio (y) = 0.31051 0.27530
# Poissons Ratio (z) = 0.12809 0.30120
#
# Static dielectric constant tensor:
#      x y z
#    x 3.821530 0.000000 0.064570 
#    y 0.000000 3.714430 0.000000 
#    z 0.064570 0.000000 3.878690 
# 
# 
# High freq. dielectric constant tensor:
#      x y z
#    x 1.796610 0.000000 0.007860 
#    y 0.000000 1.799110 0.000000 
#    z 0.007860 0.000000 1.815840 
# 
# From -- ./inp_files/47437.got.cif
#   From: 2010.06.25/outbox.cif.g09.slc.cpg/sg15_24_cif.got.tgz:47437.got - 2010.06.28 07:06:18.
