data_PCOD8141954
_publ_section_title
;
Structure prediction by ZEFSAII (Michael W. Deem and Ramdas Pophale) SiO2 
 PCOD8141954
Probable space group: C 2/C
;
_chemical_formula_sum "Si O2"
_cell_formula_units_Z 64
_cell_length_a 13.897208
_cell_length_b 8.606245
_cell_length_c 27.073368
_cell_angle_alpha 90.000000
_cell_angle_beta 91.729913
_cell_angle_gamma 90.000000
_cell_volume 3236.574204
_symmetry_space_group_name_H-M "C 2/C"
_symmetry_group_IT_number 15
_symmetry_cell_setting 'monoclinic'
loop_
_space_group_symop_operation_xyz
x,y,z
-x,y,1/2-z
-x,-y,-z
x,-y,1/2+z
1/2+x,1/2+y,z
1/2-x,1/2+y,1/2-z
1/2-x,1/2-y,-z
1/2+x,1/2-y,1/2+z
loop_
_atom_site_type_symbol
_atom_site_label
_atom_site_fract_x
_atom_site_fract_y
_atom_site_fract_z
Si Si1 0.075559 0.891801 0.473636
Si Si2 0.097914 0.809389 0.723428
Si Si3 0.820933 0.768975 0.674636
Si Si4 0.759348 0.986666 0.589437
Si Si5 0.842831 0.053282 0.853900
Si Si6 0.847808 0.791013 0.926902
Si Si7 0.061807 0.678436 0.092636
Si Si8 0.481906 0.864572 0.360226
O O1 0.145035 0.805890 0.513964
O O2 0.015949 0.753206 0.445991
O O3 0.144161 0.008878 0.442822
O O4 0.000000 0.000000 0.500000
O O5 0.180412 0.799687 0.766442
O O6 0.093242 0.656976 0.687285
O O7 0.000000 0.838868 0.750000
O O8 0.111790 0.956716 0.689203
O O9 0.785961 0.920821 0.643925
O O10 0.756734 0.619864 0.665662
O O11 0.921904 0.713818 0.656009
O O12 0.663555 0.887184 0.569453
O O13 0.731788 0.167366 0.591891
O O14 0.917028 0.189232 0.867407
O O15 0.820476 0.956430 0.903214
O O16 0.950380 0.735668 0.907249
O O17 0.009960 0.542972 0.123253
#
# Coordination Sequence:
#
# PCOD8141954 Si02
#       8
#     8   8   8   8   8   8   8   8
#     4  12  23  39  65  88 122 166 210 247 311 363
#     4   9  20  38  62  82 118 159 194 244 308 363
#     4  10  21  39  61  90 116 162 197 246 316 364
#     4  10  24  40  59  90 126 156 206 253 306 365
#     4  10  21  38  59  88 122 151 201 255 297 362
#     4  10  21  41  58  88 122 160 199 256 297 361
#     4  10  23  41  60  90 122 160 204 256 304 365
#     4   9  20  40  61  84 123 154 199 253 304 358
#
# _framework density 19.773993999999998
#
# number of rings (size 3 to 8) (size 9 to 14) (size 15 to 20)
#    0.000    2.000    1.250    1.125    5.250    6.500 
#    2.250    3.125    0.000    0.000    0.000    0.000 
#    0.000    0.000    0.000    0.000    0.000    0.000 
#
# Total GULP energy -396438.098070 kJ/mol
# GULP energy per Si atom -12388.690565 kJ/mol
# Density = 1.972899 g / cm^3
# Si number density = 19.773994 Si / 1000 Ang^3
#
#
#
# Elastic Constant Matrix: (Units=GPa)
#
#
# Indices 1 2 3 4 5 6 
#
# 1 56.1853 23.3607 28.8926 0.0000 1.8379 0.0000
# 2 23.3607 111.3112 50.3512 0.0000 11.7581 0.0000
# 3 28.8926 50.3512 123.3360 0.0000 17.4489 0.0000
# 4 0.0000 0.0000 0.0000 26.9604 0.0000 3.1278
# 5 1.8379 11.7581 17.4489 0.0000 32.3977 0.0000
# 6 0.0000 0.0000 0.0000 3.1278 0.0000 30.6269
#
#
#
# Elastic Compliance Matrix: (Units=1/GPa)
#
#
# Indices 1 2 3 4 5 6 
#
# 1 0.020977 -0.002776 -0.004065 0.000000 0.002007 0.000000
# 2 -0.002776 0.011474 -0.003753 0.000000 -0.001985 0.000000
# 3 -0.004065 -0.003753 0.011222 0.000000 -0.004451 0.000000
# 4 0.000000 0.000000 0.000000 0.037536 0.000000 -0.003833
# 5 0.002007 -0.001985 -0.004451 0.000000 0.033871 0.000000
# 6 0.000000 0.000000 0.000000 -0.003833 0.000000 0.033043
#
#
# Mechanical properties :
#
#
# Convention : Reuss Voigt Hill
#
# Bulk Modulus (GPa) = 44.47243 55.11573 49.79408
# Shear Modulus (GPa) = 28.27989 30.54553 29.41271
#
# Velocity S-wave (km/s) = 3.78584 3.93457 3.86092
# Velocity P-wave (km/s) = 6.45363 6.96954 6.71654
#
# Compressibility (1/GPa) = 0.02248584
#
# Stress axis : x y z
#
# Youngs Moduli (GPa) = 47.67141 87.15579 89.11048
#
# Poissons Ratio (x) = 0.24192 0.36221
# Poissons Ratio (y) = 0.13232 0.33443
# Poissons Ratio (z) = 0.19377 0.32709
#
# Static dielectric constant tensor:
#      x y z
#    x 3.889190 0.000000 0.108190 
#    y 0.000000 3.719380 0.000000 
#    z 0.108190 0.000000 4.075880 
# 
# 
# High freq. dielectric constant tensor:
#      x y z
#    x 1.771720 0.000000 0.004510 
#    y 0.000000 1.773860 0.000000 
#    z 0.004510 0.000000 1.770900 
# 
# From -- ./inp_files/295175.got.cif
#   From: 2010.06.25/outbox.cif.g09.slc.cpg/sg15_148_cif.got.tgz:295175.got - 2010.06.28 07:06:18.
