data_PCOD8141829
_publ_section_title
;
Structure prediction by ZEFSAII (Michael W. Deem and Ramdas Pophale) SiO2 
 PCOD8141829
Probable space group: C 2/C
;
_chemical_formula_sum "Si O2"
_cell_formula_units_Z 64
_cell_length_a 30.101186
_cell_length_b 17.675790
_cell_length_c 9.386022
_cell_angle_alpha 90.000000
_cell_angle_beta 38.109599
_cell_angle_gamma 90.000000
_cell_volume 3082.103372
_symmetry_space_group_name_H-M "C 2/C"
_symmetry_group_IT_number 15
_symmetry_cell_setting 'monoclinic'
loop_
_space_group_symop_operation_xyz
x,y,z
-x,y,1/2-z
-x,-y,-z
x,-y,1/2+z
1/2+x,1/2+y,z
1/2-x,1/2+y,1/2-z
1/2-x,1/2-y,-z
1/2+x,1/2-y,1/2+z
loop_
_atom_site_type_symbol
_atom_site_label
_atom_site_fract_x
_atom_site_fract_y
_atom_site_fract_z
Si Si1 0.222832 0.584029 0.751606
Si Si2 0.931879 0.614143 0.007852
Si Si3 0.932972 0.616001 0.329132
Si Si4 0.931066 0.204641 0.839460
Si Si5 0.933791 0.206192 0.508768
Si Si6 0.216906 0.585304 0.267422
Si Si7 0.721834 0.328225 0.636364
Si Si8 0.279160 0.329166 0.368265
O O1 0.239302 0.498840 0.761517
O O2 0.276676 0.607788 0.489562
O O3 0.230464 0.644452 0.859857
O O4 0.139938 0.588620 0.909276
O O5 0.000000 0.581771 0.750000
O O6 0.934499 0.583904 0.163573
O O7 0.933588 0.704029 0.007261
O O8 0.862201 0.585268 0.100317
O O9 0.934716 0.705766 0.328249
O O10 0.000000 0.582842 0.250000
O O11 0.935262 0.174787 0.666556
O O12 0.000000 0.171658 0.750000
O O13 0.858364 0.177147 0.099710
O O14 0.861728 0.177507 0.612147
O O15 0.000000 0.173486 0.250000
O O16 0.222271 0.644874 0.383106
O O17 0.274432 0.608861 0.003542
O O18 0.750000 0.250000 0.500000
O O19 0.250000 0.250000 0.500000
#
# Coordination Sequence:
#
# PCOD8141829 Si02
#       8
#     8   8   8   8   8   8   8   8
#     4  12  26  41  64  99 132 176 214 266 338 386
#     4  10  22  38  63  92 127 175 219 260 320 388
#     4  10  21  40  60  91 133 172 217 263 318 390
#     4  10  21  39  62  98 132 160 214 280 324 376
#     4  10  21  37  66  97 124 167 221 272 322 376
#     4  12  25  43  64  95 138 172 216 273 326 392
#     4  12  25  40  68 100 128 172 222 274 327 381
#     4  12  21  44  71  92 126 172 225 272 311 387
#
# _framework density 20.765039000000002
#
# number of rings (size 3 to 8) (size 9 to 14) (size 15 to 20)
#    0.000    1.000    5.000    2.250    3.500    1.500 
#    0.000    1.250    0.000    4.500    0.000    0.000 
#    0.000    0.000    0.000    0.000    0.000    0.000 
#
# Total GULP energy -396819.448191 kJ/mol
# GULP energy per Si atom -12400.607756 kJ/mol
# Density = 2.071778 g / cm^3
# Si number density = 20.765039 Si / 1000 Ang^3
#
#
#
# Elastic Constant Matrix: (Units=GPa)
#
#
# Indices 1 2 3 4 5 6 
#
# 1 134.9543 52.7253 58.5436 0.0000 0.5053 0.0000
# 2 52.7253 59.0465 46.2916 0.0000 -5.3851 0.0000
# 3 58.5436 46.2916 165.3163 0.0000 -5.5850 0.0000
# 4 0.0000 0.0000 0.0000 21.0014 0.0000 7.2190
# 5 0.5053 -5.3851 -5.5850 0.0000 37.7434 0.0000
# 6 0.0000 0.0000 0.0000 7.2190 0.0000 12.8929
#
#
#
# Elastic Compliance Matrix: (Units=1/GPa)
#
#
# Indices 1 2 3 4 5 6 
#
# 1 0.011797 -0.009445 -0.001592 0.000000 -0.001741 0.000000
# 2 -0.009445 0.029446 -0.004778 0.000000 0.003621 0.000000
# 3 -0.001592 -0.004778 0.007968 0.000000 0.000519 0.000000
# 4 0.000000 0.000000 0.000000 0.058965 0.000000 -0.033016
# 5 -0.001741 0.003621 0.000519 0.000000 0.027111 0.000000
# 6 0.000000 0.000000 0.000000 -0.033016 0.000000 0.096048
#
#
# Mechanical properties :
#
#
# Convention : Reuss Voigt Hill
#
# Bulk Modulus (GPa) = 56.87912 74.93757 65.90834
# Shear Modulus (GPa) = 18.59942 27.77798 23.18870
#
# Velocity S-wave (km/s) = 2.99609 3.66146 3.34536
# Velocity P-wave (km/s) = 6.27853 7.35131 6.83600
#
# Compressibility (1/GPa) = 0.01758114
#
# Stress axis : x y z
#
# Youngs Moduli (GPa) = 84.76746 33.96049 125.49821
#
# Poissons Ratio (x) = 0.32075 0.19976
# Poissons Ratio (y) = 0.80062 0.59967
# Poissons Ratio (z) = 0.13493 0.16227
#
# Static dielectric constant tensor:
#      x y z
#    x 4.019190 0.000000 0.073570 
#    y 0.000000 3.586200 0.000000 
#    z 0.073570 0.000000 4.098470 
# 
# 
# High freq. dielectric constant tensor:
#      x y z
#    x 1.817890 0.000000 0.004370 
#    y 0.000000 1.786090 0.000000 
#    z 0.004370 0.000000 1.821520 
# 
# From -- ./inp_files/70593.got.cif
#   From: 2010.06.25/outbox.cif.g09.slc.cpg/sg15_36_cif.got.tgz:70593.got - 2010.06.28 07:06:18.
