data_PCOD8141401
_publ_section_title
;
Structure prediction by ZEFSAII (Michael W. Deem and Ramdas Pophale) SiO2 
 PCOD8141401
Probable space group: C 2/C
;
_chemical_formula_sum "Si O2"
_cell_formula_units_Z 60
_cell_length_a 8.226156
_cell_length_b 11.405580
_cell_length_c 30.611989
_cell_angle_alpha 90.000000
_cell_angle_beta 80.036020
_cell_angle_gamma 90.000000
_cell_volume 2828.820413
_symmetry_space_group_name_H-M "C 2/C"
_symmetry_group_IT_number 15
_symmetry_cell_setting 'monoclinic'
loop_
_space_group_symop_operation_xyz
x,y,z
-x,y,1/2-z
-x,-y,-z
x,-y,1/2+z
1/2+x,1/2+y,z
1/2-x,1/2+y,1/2-z
1/2-x,1/2-y,-z
1/2+x,1/2-y,1/2+z
loop_
_atom_site_type_symbol
_atom_site_label
_atom_site_fract_x
_atom_site_fract_y
_atom_site_fract_z
Si Si1 0.162442 0.842841 0.858943
Si Si2 0.500000 0.940610 0.750000
Si Si3 0.100196 0.258671 0.068610
Si Si4 0.434236 0.791071 0.581619
Si Si5 0.407157 0.330632 0.497131
Si Si6 0.372127 0.491207 0.217895
Si Si7 0.497592 0.246089 0.176773
Si Si8 0.791395 0.523363 0.434832
O O1 0.092661 0.912762 0.820886
O O2 0.304850 0.751135 0.838396
O O3 0.222849 0.939008 0.890963
O O4 0.027749 0.759258 0.886425
O O5 0.327500 0.014086 0.763064
O O6 0.541599 0.863505 0.790441
O O7 0.256200 0.175462 0.070735
O O8 0.159921 0.390719 0.068314
O O9 0.032080 0.231867 0.024405
O O10 0.503531 0.670100 0.554620
O O11 0.413539 0.770690 0.633823
O O12 0.547887 0.899241 0.562795
O O13 0.250000 0.250000 0.500000
O O14 0.347066 0.455390 0.520272
O O15 0.500000 0.529139 0.250000
O O16 0.426198 0.362291 0.201272
#
# Coordination Sequence:
#
# PCOD8141401 Si02
#       8
#     8   4   8   8   8   8   8   8
#     4   9  22  41  59  91 128 153 204 261 298 374
#     4  10  24  46  66  96 130 154 210 272 302 394
#     4  11  21  37  63  92 119 164 211 247 305 369
#     4  10  21  36  62  91 121 161 210 255 302 369
#     4   9  20  39  58  85 128 163 202 260 301 353
#     4  11  23  44  69  93 124 167 205 257 330 377
#     4  10  21  45  64  89 129 162 200 258 320 366
#     4   9  20  40  60  84 126 167 201 254 309 352
#
# _framework density 21.210256000000001
#
# number of rings (size 3 to 8) (size 9 to 14) (size 15 to 20)
#    0.000    2.133    0.667    2.000    1.867    3.733 
#    8.400    8.000    0.000    0.000    0.000    0.000 
#    0.000    0.000    0.000    0.000    0.000    0.000 
#
# Total GULP energy -371793.839185 kJ/mol
# GULP energy per Si atom -12393.127973 kJ/mol
# Density = 2.116198 g / cm^3
# Si number density = 21.210256 Si / 1000 Ang^3
#
#
#
# Elastic Constant Matrix: (Units=GPa)
#
#
# Indices 1 2 3 4 5 6 
#
# 1 136.6685 52.0272 57.2944 0.0000 17.0911 0.0000
# 2 52.0272 86.5197 35.7305 0.0000 -5.1189 0.0000
# 3 57.2944 35.7305 120.7909 0.0000 4.3588 0.0000
# 4 0.0000 0.0000 0.0000 25.8160 0.0000 1.1936
# 5 17.0911 -5.1189 4.3588 0.0000 38.0502 0.0000
# 6 0.0000 0.0000 0.0000 1.1936 0.0000 11.7038
#
#
#
# Elastic Compliance Matrix: (Units=1/GPa)
#
#
# Indices 1 2 3 4 5 6 
#
# 1 0.011816 -0.005937 -0.003643 0.000000 -0.005689 0.000000
# 2 -0.005937 0.016341 -0.002202 0.000000 0.005117 0.000000
# 3 -0.003643 -0.002202 0.010654 0.000000 0.000120 0.000000
# 4 0.000000 0.000000 0.000000 0.038919 0.000000 -0.003969
# 5 -0.005689 0.005117 0.000120 0.000000 0.029511 0.000000
# 6 0.000000 0.000000 0.000000 -0.003969 0.000000 0.085847
#
#
# Mechanical properties :
#
#
# Convention : Reuss Voigt Hill
#
# Bulk Modulus (GPa) = 65.59347 70.45370 68.02358
# Shear Modulus (GPa) = 22.54950 28.37580 25.46265
#
# Velocity S-wave (km/s) = 3.26412 3.66161 3.46856
# Velocity P-wave (km/s) = 6.72298 7.15300 6.94132
#
# Compressibility (1/GPa) = 0.01524542
#
# Stress axis : x y z
#
# Youngs Moduli (GPa) = 84.63192 61.19734 93.86327
#
# Poissons Ratio (x) = 0.36335 0.34194
# Poissons Ratio (y) = 0.50249 0.20669
# Poissons Ratio (z) = 0.30831 0.13476
#
# Static dielectric constant tensor:
#      x y z
#    x 4.137840 0.000000 -0.082170 
#    y 0.000000 3.507110 0.000000 
#    z -0.082170 0.000000 4.262420 
# 
# 
# High freq. dielectric constant tensor:
#      x y z
#    x 1.851100 0.000000 -0.003580 
#    y 0.000000 1.808990 0.000000 
#    z -0.003580 0.000000 1.848540 
# 
# From -- ./inp_files/307133.got.cif
#   From: 2010.06.25/outbox.cif.g09.slc.cpg/sg15_154_cif.got.tgz:307133.got - 2010.06.28 07:06:18.
