data_PCOD8141339
_publ_section_title
;
Structure prediction by ZEFSAII (Michael W. Deem and Ramdas Pophale) SiO2 
 PCOD8141339
Probable space group: C 2/C
;
_chemical_formula_sum "Si O2"
_cell_formula_units_Z 48
_cell_length_a 21.728114
_cell_length_b 22.734613
_cell_length_c 13.509028
_cell_angle_alpha 90.000000
_cell_angle_beta 159.701850
_cell_angle_gamma 90.000000
_cell_volume 2314.966546
_symmetry_space_group_name_H-M "C 2/C"
_symmetry_group_IT_number 15
_symmetry_cell_setting 'monoclinic'
loop_
_space_group_symop_operation_xyz
x,y,z
-x,y,1/2-z
-x,-y,-z
x,-y,1/2+z
1/2+x,1/2+y,z
1/2-x,1/2+y,1/2-z
1/2-x,1/2-y,-z
1/2+x,1/2-y,1/2+z
loop_
_atom_site_type_symbol
_atom_site_label
_atom_site_fract_x
_atom_site_fract_y
_atom_site_fract_z
Si Si1 0.636776 0.271990 0.739144
Si Si2 0.147986 0.809492 0.060441
Si Si3 0.682554 0.084779 0.569044
Si Si4 0.297625 0.104862 0.436189
Si Si5 0.733397 0.517223 0.184295
Si Si6 0.167570 0.995080 0.364979
O O1 0.678988 0.227060 0.713847
O O2 0.434178 0.271692 0.472169
O O3 0.750000 0.250000 0.000000
O O4 0.677561 0.338800 0.772240
O O5 0.214070 0.870770 0.203806
O O6 0.000000 0.820068 0.750000
O O7 0.806999 0.061760 0.666998
O O8 0.629875 0.028736 0.558472
O O9 0.500000 0.111748 0.250000
O O10 0.500000 0.125116 0.750000
O O11 0.266708 0.082216 0.277577
O O12 0.249896 0.054125 0.443025
O O13 0.539432 0.495142 0.926887
O O14 0.764464 0.518253 0.114618
#
# Coordination Sequence:
#
# PCOD8141339 Si02
#       6
#     8   8   8   8   8   8
#     4  10  21  39  63  93 116 155 214 260 301 353
#     4  10  22  41  67  90 120 160 210 257 306 361
#     4  11  23  39  60  92 127 158 201 251 308 373
#     4  11  21  35  57  87 124 151 198 260 302 357
#     4  10  21  36  60  87 120 164 201 245 307 365
#     4  10  21  37  60  89 120 162 205 245 306 366
#
# _framework density 20.734641
#
# number of rings (size 3 to 8) (size 9 to 14) (size 15 to 20)
#    0.000    1.667    0.000    7.500    7.000    2.667 
#    3.000    0.833    3.667    0.000    0.000    0.000 
#    0.000    0.000    0.000    0.000    0.000    0.000 
#
# Total GULP energy -297481.397597 kJ/mol
# GULP energy per Si atom -12395.058233 kJ/mol
# Density = 2.068745 g / cm^3
# Si number density = 20.734641 Si / 1000 Ang^3
#
#
#
# Elastic Constant Matrix: (Units=GPa)
#
#
# Indices 1 2 3 4 5 6 
#
# 1 133.7659 58.8256 23.9862 0.0000 -13.7359 0.0000
# 2 58.8256 106.0571 9.8697 0.0000 -11.8890 0.0000
# 3 23.9862 9.8697 48.8833 -0.0001 -12.9500 0.0000
# 4 0.0000 0.0000 -0.0001 21.5374 0.0000 -4.8203
# 5 -13.7359 -11.8890 -12.9500 0.0000 33.4609 0.0000
# 6 0.0000 0.0000 0.0000 -4.8203 0.0000 31.3277
#
#
#
# Elastic Compliance Matrix: (Units=1/GPa)
#
#
# Indices 1 2 3 4 5 6 
#
# 1 0.010665 -0.005449 -0.003884 0.000000 0.000939 0.000000
# 2 -0.005449 0.012665 0.000798 0.000000 0.002572 0.000000
# 3 -0.003884 0.000798 0.024351 0.000000 0.008113 0.000000
# 4 0.000000 0.000000 0.000000 0.048087 0.000000 0.007399
# 5 0.000939 0.002572 0.008113 0.000000 0.034325 0.000000
# 6 0.000000 0.000000 0.000000 0.007399 0.000000 0.033059
#
#
# Mechanical properties :
#
#
# Convention : Reuss Voigt Hill
#
# Bulk Modulus (GPa) = 32.66814 52.67437 42.67125
# Shear Modulus (GPa) = 26.25701 30.33352 28.29527
#
# Velocity S-wave (km/s) = 3.56242 3.82899 3.69811
# Velocity P-wave (km/s) = 5.71932 6.70876 6.23370
#
# Compressibility (1/GPa) = 0.03061087
#
# Stress axis : x y z
#
# Youngs Moduli (GPa) = 93.76682 78.95718 41.06591
#
# Poissons Ratio (x) = 0.43021 0.15951
# Poissons Ratio (y) = 0.51090 -0.03276
# Poissons Ratio (z) = 0.36421 -0.06299
#
# Static dielectric constant tensor:
#      x y z
#    x 4.382870 0.000000 0.174270 
#    y 0.000000 3.744220 0.000000 
#    z 0.174270 0.000000 3.765690 
# 
# 
# High freq. dielectric constant tensor:
#      x y z
#    x 1.826740 0.000000 0.010460 
#    y 0.000000 1.797520 0.000000 
#    z 0.010460 0.000000 1.794690 
# 
# From -- ./inp_files/174552.got.cif
#   From: 2010.06.25/outbox.cif.g09.slc.cpg/sg15_88_cif.got.tgz:174552.got - 2010.06.28 07:06:18.
