data_PCOD8141005
_publ_section_title
;
Structure prediction by ZEFSAII (Michael W. Deem and Ramdas Pophale) SiO2 
 PCOD8141005
Probable space group: C 2/C
;
_chemical_formula_sum "Si O2"
_cell_formula_units_Z 48
_cell_length_a 11.520191
_cell_length_b 20.127315
_cell_length_c 10.846789
_cell_angle_alpha 90.000000
_cell_angle_beta 104.066534
_cell_angle_gamma 90.000000
_cell_volume 2439.634587
_symmetry_space_group_name_H-M "C 2/C"
_symmetry_group_IT_number 15
_symmetry_cell_setting 'monoclinic'
loop_
_space_group_symop_operation_xyz
x,y,z
-x,y,1/2-z
-x,-y,-z
x,-y,1/2+z
1/2+x,1/2+y,z
1/2-x,1/2+y,1/2-z
1/2-x,1/2-y,-z
1/2+x,1/2-y,1/2+z
loop_
_atom_site_type_symbol
_atom_site_label
_atom_site_fract_x
_atom_site_fract_y
_atom_site_fract_z
Si Si1 0.192308 0.157995 0.875502
Si Si2 0.661908 0.192918 0.087776
Si Si3 0.523799 0.423129 0.488723
Si Si4 0.392579 0.681834 0.313413
Si Si5 0.905100 0.718479 0.043344
Si Si6 0.790872 0.842466 0.396492
O O1 0.116703 0.227630 0.853181
O O2 0.251151 0.148790 0.755795
O O3 0.104244 0.096662 0.889132
O O4 0.297382 0.164550 0.005727
O O5 0.763645 0.178539 0.214298
O O6 0.526953 0.176931 0.098904
O O7 0.653575 0.271052 0.055990
O O8 0.683295 0.149683 0.967818
O O9 0.500000 0.500000 0.500000
O O10 0.588836 0.391126 0.623577
O O11 0.391294 0.395797 0.445535
O O12 0.500000 0.698773 0.250000
O O13 0.397821 0.740125 0.414352
#
# Coordination Sequence:
#
# PCOD8141005 Si02
#       6
#     8   8   8   8   8   8
#     4  10  21  37  55  88 120 159 197 242 301 357
#     4  11  20  34  59  90 125 149 190 253 310 366
#     4  11  24  40  57  84 119 160 206 246 288 352
#     4  11  19  35  57  88 119 153 196 242 303 353
#     4  10  21  34  57  90 126 150 186 251 309 359
#     4  11  20  35  59  87 117 158 198 243 307 355
#
# _framework density 19.675077999999999
#
# number of rings (size 3 to 8) (size 9 to 14) (size 15 to 20)
#    0.000    1.333    6.667    1.500    0.000    1.333 
#    0.000    0.000    0.000    1.000    4.333    0.000 
#    0.000    0.000    0.000    0.000    0.000    0.000 
#
# Total GULP energy -297388.430802 kJ/mol
# GULP energy per Si atom -12391.184617 kJ/mol
# Density = 1.963030 g / cm^3
# Si number density = 19.675078 Si / 1000 Ang^3
#
#
#
# Elastic Constant Matrix: (Units=GPa)
#
#
# Indices 1 2 3 4 5 6 
#
# 1 93.1515 17.5745 19.6707 0.0000 29.7444 0.0000
# 2 17.5745 89.2007 18.6742 0.0000 11.8688 0.0000
# 3 19.6707 18.6742 74.9588 0.0000 6.7234 0.0000
# 4 0.0000 0.0000 0.0000 14.7732 0.0000 4.6966
# 5 29.7444 11.8688 6.7234 0.0000 33.1760 0.0000
# 6 0.0000 0.0000 0.0000 4.6966 0.0000 22.8952
#
#
#
# Elastic Compliance Matrix: (Units=1/GPa)
#
#
# Indices 1 2 3 4 5 6 
#
# 1 0.015682 -0.000755 -0.002740 0.000000 -0.013235 0.000000
# 2 -0.000755 0.012328 -0.002585 0.000000 -0.003209 0.000000
# 3 -0.002740 -0.002585 0.014667 0.000000 0.000409 0.000000
# 4 0.000000 0.000000 0.000000 0.072412 0.000000 -0.014854
# 5 -0.013235 -0.003209 0.000409 0.000000 0.043073 0.000000
# 6 0.000000 0.000000 0.000000 -0.014854 0.000000 0.046724
#
#
# Mechanical properties :
#
#
# Convention : Reuss Voigt Hill
#
# Bulk Modulus (GPa) = 32.76945 41.01664 36.89305
# Shear Modulus (GPa) = 22.00510 27.59499 24.80004
#
# Velocity S-wave (km/s) = 3.34791 3.74911 3.55418
# Velocity P-wave (km/s) = 5.62460 6.29550 5.96949
#
# Compressibility (1/GPa) = 0.03051623
#
# Stress axis : x y z
#
# Youngs Moduli (GPa) = 63.76614 81.11839 68.18006
#
# Poissons Ratio (x) = 0.06125 0.18682
# Poissons Ratio (y) = 0.04815 0.17625
# Poissons Ratio (z) = 0.17473 0.20970
#
# Static dielectric constant tensor:
#      x y z
#    x 4.086250 0.000000 -0.190840 
#    y 0.000000 3.130030 0.000000 
#    z -0.190840 0.000000 3.775300 
# 
# 
# High freq. dielectric constant tensor:
#      x y z
#    x 1.782000 0.000000 -0.008980 
#    y 0.000000 1.692560 0.000000 
#    z -0.008980 0.000000 1.778620 
# 
# From -- ./inp_files/88575.got.cif
#   From: 2010.06.25/outbox.cif.g09.slc.cpg/sg15_45_cif.got.tgz:88575.got - 2010.06.28 07:06:18.
