data_PCOD8141099
_publ_section_title
;
Structure prediction by ZEFSAII (Michael W. Deem and Ramdas Pophale) SiO2 
 PCOD8141099
Probable space group: C 2/C
;
_chemical_formula_sum "Si O2"
_cell_formula_units_Z 60
_cell_length_a 6.346329
_cell_length_b 23.147636
_cell_length_c 30.216346
_cell_angle_alpha 90.000000
_cell_angle_beta 48.252887
_cell_angle_gamma 90.000000
_cell_volume 3311.791065
_symmetry_space_group_name_H-M "C 2/C"
_symmetry_group_IT_number 15
_symmetry_cell_setting 'monoclinic'
loop_
_space_group_symop_operation_xyz
x,y,z
-x,y,1/2-z
-x,-y,-z
x,-y,1/2+z
1/2+x,1/2+y,z
1/2-x,1/2+y,1/2-z
1/2-x,1/2-y,-z
1/2+x,1/2-y,1/2+z
loop_
_atom_site_type_symbol
_atom_site_label
_atom_site_fract_x
_atom_site_fract_y
_atom_site_fract_z
Si Si1 0.792809 0.810053 0.018354
Si Si2 0.141782 0.217188 0.889863
Si Si3 0.798082 0.145422 0.876399
Si Si4 0.306857 0.919430 0.690879
Si Si5 0.500000 0.972283 0.750000
Si Si6 0.313710 0.179292 0.393879
Si Si7 0.560690 0.467523 0.192163
Si Si8 0.244668 0.752947 0.182390
O O1 0.036256 0.844970 0.957933
O O2 0.750000 0.750000 0.000000
O O3 0.888573 0.798080 0.054787
O O4 0.503488 0.846155 0.057534
O O5 0.459351 0.237784 0.833405
O O6 0.053099 0.159800 0.874710
O O7 0.929214 0.268171 0.907034
O O8 0.804817 0.080092 0.858364
O O9 0.837744 0.187055 0.828937
O O10 0.499227 0.931931 0.706763
O O11 0.454710 0.870989 0.640637
O O12 0.000000 0.897238 0.750000
O O13 0.271317 0.977619 0.666691
O O14 0.771788 0.012958 0.709761
O O15 0.225767 0.202009 0.357723
O O16 0.500000 0.442998 0.250000
O O17 0.000000 0.734130 0.250000
#
# Coordination Sequence:
#
# PCOD8141099 Si02
#       8
#     8   8   8   8   4   8   8   8
#     4  11  20  40  54  83 112 150 194 227 279 336
#     4  10  21  35  57  78 112 150 190 222 281 345
#     4  10  21  35  57  82 111 148 191 234 278 333
#     4   9  21  37  56  84 112 147 191 228 282 343
#     4   8  18  36  58  78 110 148 184 226 280 334
#     4  11  22  34  58  81 113 152 182 230 278 340
#     4   9  19  38  59  82 113 146 191 235 281 338
#     4  10  22  33  50  86 119 143 177 233 284 342
#
# _framework density 18.117083999999998
#
# number of rings (size 3 to 8) (size 9 to 14) (size 15 to 20)
#    0.000    2.400    4.000    0.800    2.800    8.000 
#    0.000    0.667    0.000    1.600    0.000    0.000 
#    0.000    0.000    0.000    0.000    0.000    0.000 
#
# Total GULP energy -371953.230993 kJ/mol
# GULP energy per Si atom -12398.441033 kJ/mol
# Density = 1.807585 g / cm^3
# Si number density = 18.117084 Si / 1000 Ang^3
#
#
#
# Elastic Constant Matrix: (Units=GPa)
#
#
# Indices 1 2 3 4 5 6 
#
# 1 117.7706 29.3142 44.0068 0.0000 -4.5708 0.0000
# 2 29.3142 91.1266 42.9703 0.0000 -5.5533 0.0000
# 3 44.0068 42.9703 124.8967 0.0000 -19.4889 0.0000
# 4 0.0000 0.0000 0.0000 31.6092 0.0000 -2.4537
# 5 -4.5708 -5.5533 -19.4889 0.0000 23.8407 0.0000
# 6 0.0000 0.0000 0.0000 -2.4537 0.0000 15.4461
#
#
#
# Elastic Compliance Matrix: (Units=1/GPa)
#
#
# Indices 1 2 3 4 5 6 
#
# 1 0.010058 -0.001852 -0.003064 0.000000 -0.001008 0.000000
# 2 -0.001852 0.013451 -0.004059 0.000000 -0.000540 0.000000
# 3 -0.003064 -0.004059 0.011741 0.000000 0.008065 0.000000
# 4 0.000000 0.000000 0.000000 0.032031 0.000000 0.005088
# 5 -0.001008 -0.000540 0.008065 0.000000 0.048219 0.000000
# 6 0.000000 0.000000 0.000000 0.005088 0.000000 0.065550
#
#
# Mechanical properties :
#
#
# Convention : Reuss Voigt Hill
#
# Bulk Modulus (GPa) = 57.80657 62.93072 60.36865
# Shear Modulus (GPa) = 24.41801 28.67938 26.54869
#
# Velocity S-wave (km/s) = 3.67521 3.98301 3.83220
# Velocity P-wave (km/s) = 7.07008 7.48087 7.27838
#
# Compressibility (1/GPa) = 0.01729907
#
# Stress axis : x y z
#
# Youngs Moduli (GPa) = 99.42487 74.34483 85.16973
#
# Poissons Ratio (x) = 0.13770 0.26095
# Poissons Ratio (y) = 0.18415 0.34574
# Poissons Ratio (z) = 0.30462 0.30180
#
# Static dielectric constant tensor:
#      x y z
#    x 3.627080 0.000000 -0.064720 
#    y 0.000000 3.102950 0.000000 
#    z -0.064720 0.000000 3.400130 
# 
# 
# High freq. dielectric constant tensor:
#      x y z
#    x 1.718410 0.000000 -0.003020 
#    y 0.000000 1.676850 0.000000 
#    z -0.003020 0.000000 1.691240 
# 
# From -- ./inp_files/286756.got.cif
#   From: 2010.06.25/outbox.cif.g09.slc.cpg/sg15_144_cif.got.tgz:286756.got - 2010.06.28 07:06:18.
