data_PCOD8141870
_publ_section_title
;
Structure prediction by ZEFSAII (Michael W. Deem and Ramdas Pophale) SiO2 
 PCOD8141870
Probable space group: C 2/C
;
_chemical_formula_sum "Si O2"
_cell_formula_units_Z 48
_cell_length_a 8.518578
_cell_length_b 17.163776
_cell_length_c 23.819252
_cell_angle_alpha 90.000000
_cell_angle_beta 129.941024
_cell_angle_gamma 90.000000
_cell_volume 2670.156640
_symmetry_space_group_name_H-M "C 2/C"
_symmetry_group_IT_number 15
_symmetry_cell_setting 'monoclinic'
loop_
_space_group_symop_operation_xyz
x,y,z
-x,y,1/2-z
-x,-y,-z
x,-y,1/2+z
1/2+x,1/2+y,z
1/2-x,1/2+y,1/2-z
1/2-x,1/2-y,-z
1/2+x,1/2-y,1/2+z
loop_
_atom_site_type_symbol
_atom_site_label
_atom_site_fract_x
_atom_site_fract_y
_atom_site_fract_z
Si Si1 0.783353 0.724884 0.673856
Si Si2 0.200215 0.684855 0.536580
Si Si3 0.434161 0.785428 0.670825
Si Si4 0.260007 0.693957 0.054971
Si Si5 0.090095 0.907454 0.580473
Si Si6 0.532964 0.585201 0.573232
O O1 0.635719 0.780589 0.677543
O O2 0.834077 0.761559 0.626277
O O3 0.686185 0.640680 0.641643
O O4 0.000000 0.709708 0.750000
O O5 0.250000 0.750000 0.500000
O O6 0.273677 0.719248 0.613547
O O7 0.310046 0.602801 0.548515
O O8 0.965379 0.660461 0.485528
O O9 0.500000 0.770438 0.750000
O O10 0.315333 0.868213 0.637239
O O11 0.427227 0.626523 0.086821
O O12 0.250000 0.750000 0.000000
O O13 0.985063 0.893271 0.496272
O O14 0.113390 0.998162 0.600184
#
# Coordination Sequence:
#
# PCOD8141870 Si02
#       6
#     8   8   8   8   8   8
#     4  11  22  37  59  84 113 150 194 234 279 331
#     4  11  18  38  59  82 112 147 188 240 276 325
#     4  11  21  36  58  85 112 151 189 234 279 335
#     4  12  19  34  62  88 108 147 193 238 269 338
#     4  11  21  35  59  86 115 147 191 227 291 338
#     4  10  21  38  56  83 117 152 183 234 286 338
#
# _framework density 17.976474
#
# number of rings (size 3 to 8) (size 9 to 14) (size 15 to 20)
#    0.000    1.000    8.333    1.000    0.000    1.333 
#    0.000    0.000    0.000   12.000    0.000    0.000 
#    0.000    0.000    0.000    0.000    0.000    0.000 
#
# Total GULP energy -297486.021282 kJ/mol
# GULP energy per Si atom -12395.250887 kJ/mol
# Density = 1.793556 g / cm^3
# Si number density = 17.976474 Si / 1000 Ang^3
#
#
#
# Elastic Constant Matrix: (Units=GPa)
#
#
# Indices 1 2 3 4 5 6 
#
# 1 118.4757 63.1063 53.8001 0.0000 11.6398 0.0000
# 2 63.1063 98.6979 45.7625 0.0000 4.0115 0.0000
# 3 53.8001 45.7625 116.9860 0.0000 0.4150 0.0000
# 4 0.0000 0.0000 0.0000 20.8661 0.0000 2.4441
# 5 11.6398 4.0115 0.4150 0.0000 39.7237 0.0000
# 6 0.0000 0.0000 0.0000 2.4441 0.0000 30.9045
#
#
#
# Elastic Compliance Matrix: (Units=1/GPa)
#
#
# Indices 1 2 3 4 5 6 
#
# 1 0.014372 -0.007318 -0.003734 0.000000 -0.003433 0.000000
# 2 -0.007318 0.016160 -0.002958 0.000000 0.000543 0.000000
# 3 -0.003734 -0.002958 0.011418 0.000000 0.001274 0.000000
# 4 0.000000 0.000000 0.000000 0.048373 0.000000 -0.003826
# 5 -0.003433 0.000543 0.001274 0.000000 0.026112 0.000000
# 6 0.000000 0.000000 0.000000 -0.003826 0.000000 0.032660
#
#
# Mechanical properties :
#
#
# Convention : Reuss Voigt Hill
#
# Bulk Modulus (GPa) = 71.79263 73.27749 72.53506
# Shear Modulus (GPa) = 27.50894 29.73157 28.62026
#
# Velocity S-wave (km/s) = 3.91612 4.07125 3.99444
# Velocity P-wave (km/s) = 7.77635 7.93420 7.85567
#
# Compressibility (1/GPa) = 0.01392901
#
# Stress axis : x y z
#
# Youngs Moduli (GPa) = 69.58166 61.87942 87.58029
#
# Poissons Ratio (x) = 0.45283 0.32706
# Poissons Ratio (y) = 0.50920 0.25907
# Poissons Ratio (z) = 0.25985 0.18305
#
# Static dielectric constant tensor:
#      x y z
#    x 3.647660 0.000000 -0.022480 
#    y 0.000000 3.094560 0.000000 
#    z -0.022480 0.000000 3.353940 
# 
# 
# High freq. dielectric constant tensor:
#      x y z
#    x 1.707790 0.000000 0.002120 
#    y 0.000000 1.670590 0.000000 
#    z 0.002120 0.000000 1.701900 
# 
# From -- ./inp_files/189961.got.cif
#   From: 2010.06.25/outbox.cif.g09.slc.cpg/sg15_95_cif.got.tgz:189961.got - 2010.06.28 07:06:18.
