data_PCOD8141728
_publ_section_title
;
Structure prediction by ZEFSAII (Michael W. Deem and Ramdas Pophale) SiO2 
 PCOD8141728
Probable space group: C 2/C
;
_chemical_formula_sum "Si O2"
_cell_formula_units_Z 44
_cell_length_a 8.236369
_cell_length_b 27.031425
_cell_length_c 9.420147
_cell_angle_alpha 90.000000
_cell_angle_beta 110.529151
_cell_angle_gamma 90.000000
_cell_volume 1964.117042
_symmetry_space_group_name_H-M "C 2/C"
_symmetry_group_IT_number 15
_symmetry_cell_setting 'monoclinic'
loop_
_space_group_symop_operation_xyz
x,y,z
-x,y,1/2-z
-x,-y,-z
x,-y,1/2+z
1/2+x,1/2+y,z
1/2-x,1/2+y,1/2-z
1/2-x,1/2-y,-z
1/2+x,1/2-y,1/2+z
loop_
_atom_site_type_symbol
_atom_site_label
_atom_site_fract_x
_atom_site_fract_y
_atom_site_fract_z
Si Si1 0.692548 0.938888 0.303260
Si Si2 0.703885 0.903400 0.010647
Si Si3 0.037976 0.776737 0.599465
Si Si4 0.500000 0.033938 0.250000
Si Si5 0.898982 0.699660 0.087621
Si Si6 0.025408 0.110620 0.422523
O O1 0.500000 0.914224 0.250000
O O2 0.807200 0.918509 0.468097
O O3 0.671247 0.998696 0.295114
O O4 0.777927 0.924528 0.179955
O O5 0.531907 0.932342 0.900121
O O6 0.663283 0.845914 0.027524
O O7 0.853686 0.910283 0.941626
O O8 0.971458 0.734951 0.466930
O O9 0.241008 0.772805 0.620048
O O10 0.954641 0.830405 0.543007
O O11 0.000000 0.760819 0.750000
O O12 0.000000 0.675521 0.250000
O O13 0.000000 0.099829 0.250000
#
# Coordination Sequence:
#
# PCOD8141728 Si02
#       6
#     8   8   8   4   8   8
#     4  10  25  41  66  99 127 172 226 272 325 390
#     4  11  22  41  68  92 137 170 220 271 334 388
#     4   9  21  39  60  92 132 170 217 263 316 390
#     4  10  24  42  68  96 132 172 220 278 332 392
#     4  10  21  37  62  94 125 177 214 263 326 386
#     4  10  23  42  67  97 135 179 217 269 327 391
#
# _framework density 22.401923
#
# number of rings (size 3 to 8) (size 9 to 14) (size 15 to 20)
#    0.545    1.455    0.909    1.091    2.545    8.000 
#    0.000    0.000    0.000    0.000    0.000    0.000 
#    0.000    0.000    0.000    0.000    0.000    0.000 
#
# Total GULP energy -272576.465435 kJ/mol
# GULP energy per Si atom -12389.839338 kJ/mol
# Density = 2.235094 g / cm^3
# Si number density = 22.401923 Si / 1000 Ang^3
#
#
#
# Elastic Constant Matrix: (Units=GPa)
#
#
# Indices 1 2 3 4 5 6 
#
# 1 67.8153 41.0064 46.3023 0.0000 -6.4959 0.0000
# 2 41.0064 111.4144 68.2183 0.0000 -7.2429 0.0000
# 3 46.3023 68.2183 154.2592 0.0000 -5.7269 0.0000
# 4 0.0000 0.0000 0.0000 24.2652 0.0000 -0.7147
# 5 -6.4959 -7.2429 -5.7269 0.0000 42.6638 0.0000
# 6 0.0000 0.0000 0.0000 -0.7147 0.0000 21.2085
#
#
#
# Elastic Compliance Matrix: (Units=1/GPa)
#
#
# Indices 1 2 3 4 5 6 
#
# 1 0.020651 -0.005116 -0.003871 0.000000 0.001756 0.000000
# 2 -0.005116 0.013656 -0.004468 0.000000 0.000939 0.000000
# 3 -0.003871 -0.004468 0.009618 0.000000 -0.000057 0.000000
# 4 0.000000 0.000000 0.000000 0.041252 0.000000 0.001390
# 5 0.001756 0.000939 -0.000057 0.000000 0.023858 0.000000
# 6 0.000000 0.000000 0.000000 0.001390 0.000000 0.047198
#
#
# Mechanical properties :
#
#
# Convention : Reuss Voigt Hill
#
# Bulk Modulus (GPa) = 58.77567 71.61589 65.19578
# Shear Modulus (GPa) = 26.48095 29.49163 27.98629
#
# Velocity S-wave (km/s) = 3.44187 3.63227 3.53835
# Velocity P-wave (km/s) = 6.48762 7.04480 6.77194
#
# Compressibility (1/GPa) = 0.01701384
#
# Stress axis : x y z
#
# Youngs Moduli (GPa) = 48.42451 73.23001 103.96806
#
# Poissons Ratio (x) = 0.37467 0.40243
# Poissons Ratio (y) = 0.24776 0.46456
# Poissons Ratio (z) = 0.18744 0.32722
#
# Static dielectric constant tensor:
#      x y z
#    x 3.790000 0.000000 -0.085930 
#    y 0.000000 3.937360 0.000000 
#    z -0.085930 0.000000 4.063050 
# 
# 
# High freq. dielectric constant tensor:
#      x y z
#    x 1.862300 0.000000 -0.009620 
#    y 0.000000 1.884430 0.000000 
#    z -0.009620 0.000000 1.884180 
# 
# From -- ./inp_files/25665.got.cif
#   From: 2010.06.25/outbox.cif.g09.slc.cpg/sg15_13_cif.got.tgz:25665.got - 2010.06.28 07:06:18.
