data_PCOD8141174
_publ_section_title
;
Structure prediction by ZEFSAII (Michael W. Deem and Ramdas Pophale) SiO2 
 PCOD8141174
Probable space group: C 2/C
;
_chemical_formula_sum "Si O2"
_cell_formula_units_Z 60
_cell_length_a 15.710189
_cell_length_b 13.893528
_cell_length_c 13.380197
_cell_angle_alpha 90.000000
_cell_angle_beta 120.064689
_cell_angle_gamma 90.000000
_cell_volume 2527.572526
_symmetry_space_group_name_H-M "C 2/C"
_symmetry_group_IT_number 15
_symmetry_cell_setting 'monoclinic'
loop_
_space_group_symop_operation_xyz
x,y,z
-x,y,1/2-z
-x,-y,-z
x,-y,1/2+z
1/2+x,1/2+y,z
1/2-x,1/2+y,1/2-z
1/2-x,1/2-y,-z
1/2+x,1/2-y,1/2+z
loop_
_atom_site_type_symbol
_atom_site_label
_atom_site_fract_x
_atom_site_fract_y
_atom_site_fract_z
Si Si1 0.606538 0.013849 0.635115
Si Si2 0.281306 0.737015 0.848606
Si Si3 0.000000 0.559145 0.250000
Si Si4 0.919472 0.277135 0.370124
Si Si5 0.748534 0.530463 0.615964
Si Si6 0.357454 0.655676 0.501041
Si Si7 0.350006 0.774116 0.677293
Si Si8 0.612193 0.876492 0.457840
O O1 0.514179 0.008648 0.660474
O O2 0.579317 0.940909 0.532806
O O3 0.618517 0.122445 0.601379
O O4 0.706936 0.985047 0.754756
O O5 0.164664 0.751167 0.759091
O O6 0.308424 0.628728 0.896959
O O7 0.355516 0.755482 0.799020
O O8 0.299530 0.809526 0.950369
O O9 0.095206 0.627336 0.318314
O O10 0.935715 0.192843 0.463151
O O11 0.022972 0.303008 0.377002
O O12 0.669551 0.457593 0.520140
O O13 0.845363 0.555910 0.605631
O O14 0.393310 0.686046 0.634056
O O15 0.263484 0.718507 0.416480
#
# Coordination Sequence:
#
# PCOD8141174 Si02
#       8
#     8   8   4   8   8   8   8   8
#     4  11  22  36  61 102 136 164 211 281 338 407
#     4  10  23  44  59  94 134 182 220 285 335 406
#     4  12  18  36  62  98 126 166 218 270 338 400
#     4  10  23  39  64  96 138 174 218 275 349 405
#     4  11  24  40  67  93 136 177 229 272 339 415
#     4  10  21  39  58  94 124 176 211 274 332 406
#     4  10  21  35  62  86 133 163 213 272 343 393
#     4  12  23  41  67  99 131 184 225 280 345 403
#
# _framework density 23.738191
#
# number of rings (size 3 to 8) (size 9 to 14) (size 15 to 20)
#    0.000    1.333    2.667    3.200    7.467    1.600 
#    0.000    0.667    0.000    0.000    0.000    0.000 
#    0.000    0.000    0.000    0.000    0.000    0.000 
#
# Total GULP energy -371828.055293 kJ/mol
# GULP energy per Si atom -12394.268510 kJ/mol
# Density = 2.368416 g / cm^3
# Si number density = 23.738191 Si / 1000 Ang^3
#
#
#
# Elastic Constant Matrix: (Units=GPa)
#
#
# Indices 1 2 3 4 5 6 
#
# 1 81.1004 47.0088 19.1699 0.0000 -5.6339 0.0000
# 2 47.0088 99.3712 31.6147 0.0000 -12.1147 0.0000
# 3 19.1699 31.6147 81.0438 0.0000 -0.9759 0.0000
# 4 0.0000 0.0000 0.0000 29.0692 0.0000 -0.5163
# 5 -5.6339 -12.1147 -0.9759 0.0000 27.7966 0.0000
# 6 0.0000 0.0000 0.0000 -0.5163 0.0000 43.6149
#
#
#
# Elastic Compliance Matrix: (Units=1/GPa)
#
#
# Indices 1 2 3 4 5 6 
#
# 1 0.017061 -0.007742 -0.001015 0.000000 0.000048 0.000000
# 2 -0.007742 0.015696 -0.004230 0.000000 0.005123 0.000000
# 3 -0.001015 -0.004230 0.014210 0.000000 -0.001550 0.000000
# 4 0.000000 0.000000 0.000000 0.034408 0.000000 0.000407
# 5 0.000048 0.005123 -0.001550 0.000000 0.038164 0.000000
# 6 0.000000 0.000000 0.000000 0.000407 0.000000 0.022933
#
#
# Mechanical properties :
#
#
# Convention : Reuss Voigt Hill
#
# Bulk Modulus (GPa) = 47.63318 50.78914 49.21116
# Shear Modulus (GPa) = 28.49901 31.01095 29.75498
#
# Velocity S-wave (km/s) = 3.46866 3.61830 3.54427
# Velocity P-wave (km/s) = 6.01263 6.23684 6.12576
#
# Compressibility (1/GPa) = 0.02099377
#
# Stress axis : x y z
#
# Youngs Moduli (GPa) = 58.61188 63.70953 70.37072
#
# Poissons Ratio (x) = 0.49326 0.07141
# Poissons Ratio (y) = 0.45380 0.29766
# Poissons Ratio (z) = 0.05948 0.26949
#
# Static dielectric constant tensor:
#      x y z
#    x 4.186970 0.000000 -0.198340 
#    y 0.000000 4.294340 0.000000 
#    z -0.198340 0.000000 4.356530 
# 
# 
# High freq. dielectric constant tensor:
#      x y z
#    x 1.920750 0.000000 -0.005270 
#    y 0.000000 1.937040 0.000000 
#    z -0.005270 0.000000 1.942860 
# 
# From -- ./inp_files/154266.got.cif
#   From: 2010.06.25/outbox.cif.g09.slc.cpg/sg15_78_cif.got.tgz:154266.got - 2010.06.28 07:06:18.
