data_PCOD8141267
_publ_section_title
;
Structure prediction by ZEFSAII (Michael W. Deem and Ramdas Pophale) SiO2 
 PCOD8141267
Probable space group: C 2/C
;
_chemical_formula_sum "Si O2"
_cell_formula_units_Z 56
_cell_length_a 14.620378
_cell_length_b 24.309525
_cell_length_c 9.037733
_cell_angle_alpha 90.000000
_cell_angle_beta 66.324079
_cell_angle_gamma 90.000000
_cell_volume 2941.779565
_symmetry_space_group_name_H-M "C 2/C"
_symmetry_group_IT_number 15
_symmetry_cell_setting 'monoclinic'
loop_
_space_group_symop_operation_xyz
x,y,z
-x,y,1/2-z
-x,-y,-z
x,-y,1/2+z
1/2+x,1/2+y,z
1/2-x,1/2+y,1/2-z
1/2-x,1/2-y,-z
1/2+x,1/2-y,1/2+z
loop_
_atom_site_type_symbol
_atom_site_label
_atom_site_fract_x
_atom_site_fract_y
_atom_site_fract_z
Si Si1 0.113950 0.208536 0.653755
Si Si2 0.098691 0.329564 0.755559
Si Si3 0.304208 0.624106 0.115717
Si Si4 0.114190 0.907376 0.638343
Si Si5 0.571472 0.523399 0.581325
Si Si6 0.197667 0.819013 0.403000
Si Si7 0.399794 0.211904 0.912526
O O1 0.122025 0.274506 0.644270
O O2 0.148110 0.180451 0.478414
O O3 0.187962 0.187932 0.734063
O O4 0.000000 0.190135 0.750000
O O5 0.185560 0.373636 0.669353
O O6 0.000000 0.356832 0.750000
O O7 0.084133 0.317157 0.939187
O O8 0.319842 0.622136 0.280226
O O9 0.350028 0.568953 0.017836
O O10 0.147680 0.878271 0.465700
O O11 0.000000 0.896262 0.750000
O O12 0.133557 0.972639 0.611085
O O13 0.500000 0.550898 0.750000
O O14 0.500000 0.500000 0.500000
O O15 0.313608 0.818274 0.374195
O O16 0.133473 0.774321 0.535809
O O17 0.500000 0.210578 0.750000
#
# Coordination Sequence:
#
# PCOD8141267 Si02
#       7
#     8   8   8   8   8   8   8
#     4  10  22  36  57  90 125 163 202 244 300 371
#     4  10  23  41  57  87 122 165 210 248 299 360
#     4  12  22  38  62  86 124 160 198 254 307 365
#     4  11  21  36  59  87 121 155 189 247 307 368
#     4  11  23  40  59  90 122 155 197 251 318 371
#     4  10  21  36  56  90 117 158 202 237 303 362
#     4  10  21  38  59  84 122 159 202 249 293 358
#
# _framework density 19.036096000000001
#
# number of rings (size 3 to 8) (size 9 to 14) (size 15 to 20)
#    0.000    1.429    4.286    2.143    4.000    2.286 
#    0.000    0.000    0.000    1.714    0.000    0.000 
#    0.000    0.000    0.000    0.000    0.000    0.000 
#
# Total GULP energy -347146.905886 kJ/mol
# GULP energy per Si atom -12398.103782 kJ/mol
# Density = 1.899277 g / cm^3
# Si number density = 19.036096 Si / 1000 Ang^3
#
#
#
# Elastic Constant Matrix: (Units=GPa)
#
#
# Indices 1 2 3 4 5 6 
#
# 1 141.7809 40.4009 39.3151 0.0000 -7.4881 0.0000
# 2 40.4009 67.8694 34.1459 0.0000 -11.9849 0.0000
# 3 39.3151 34.1459 76.3343 0.0000 -10.0682 0.0000
# 4 0.0000 0.0000 0.0000 31.5506 0.0000 -5.1641
# 5 -7.4881 -11.9849 -10.0682 0.0000 36.3597 0.0000
# 6 0.0000 0.0000 0.0000 -5.1641 0.0000 23.8972
#
#
#
# Elastic Compliance Matrix: (Units=1/GPa)
#
#
# Indices 1 2 3 4 5 6 
#
# 1 0.008960 -0.003922 -0.002893 0.000000 -0.000249 0.000000
# 2 -0.003922 0.021325 -0.006953 0.000000 0.004296 0.000000
# 3 -0.002893 -0.006953 0.017976 0.000000 0.002090 0.000000
# 4 0.000000 0.000000 0.000000 0.032857 0.000000 0.007100
# 5 -0.000249 0.004296 0.002090 0.000000 0.029447 0.000000
# 6 0.000000 0.000000 0.000000 0.007100 0.000000 0.043380
#
#
# Mechanical properties :
#
#
# Convention : Reuss Voigt Hill
#
# Bulk Modulus (GPa) = 48.24872 57.07874 52.66373
# Shear Modulus (GPa) = 26.54074 29.83635 28.18854
#
# Velocity S-wave (km/s) = 3.73799 3.96328 3.85228
# Velocity P-wave (km/s) = 6.63559 7.14094 6.89290
#
# Compressibility (1/GPa) = 0.02072594
#
# Stress axis : x y z
#
# Youngs Moduli (GPa) = 111.60961 46.89227 55.62945
#
# Poissons Ratio (x) = 0.18391 0.16094
# Poissons Ratio (y) = 0.43772 0.38678
# Poissons Ratio (z) = 0.32290 0.32603
#
# Static dielectric constant tensor:
#      x y z
#    x 3.811250 0.000000 0.221020 
#    y 0.000000 3.415510 0.000000 
#    z 0.221020 0.000000 3.560550 
# 
# 
# High freq. dielectric constant tensor:
#      x y z
#    x 1.743630 0.000000 0.011770 
#    y 0.000000 1.715320 0.000000 
#    z 0.011770 0.000000 1.743970 
# 
# From -- ./inp_files/42511.got.cif
#   From: 2010.06.25/outbox.cif.g09.slc.cpg/sg15_22_cif.got.tgz:42511.got - 2010.06.28 07:06:18.
