data_PCOD8141213
_publ_section_title
;
Structure prediction by ZEFSAII (Michael W. Deem and Ramdas Pophale) SiO2 
 PCOD8141213
Probable space group: C 2/C
;
_chemical_formula_sum "Si O2"
_cell_formula_units_Z 36
_cell_length_a 30.521115
_cell_length_b 8.994762
_cell_length_c 10.166495
_cell_angle_alpha 90.000000
_cell_angle_beta 131.774466
_cell_angle_gamma 90.000000
_cell_volume 2081.459477
_symmetry_space_group_name_H-M "C 2/C"
_symmetry_group_IT_number 15
_symmetry_cell_setting 'monoclinic'
loop_
_space_group_symop_operation_xyz
x,y,z
-x,y,1/2-z
-x,-y,-z
x,-y,1/2+z
1/2+x,1/2+y,z
1/2-x,1/2+y,1/2-z
1/2-x,1/2-y,-z
1/2+x,1/2-y,1/2+z
loop_
_atom_site_type_symbol
_atom_site_label
_atom_site_fract_x
_atom_site_fract_y
_atom_site_fract_z
Si Si1 0.698162 0.866115 0.746843
Si Si2 0.000000 0.999993 0.250000
Si Si3 0.887141 0.884488 0.127044
Si Si4 0.198163 0.366127 0.045800
Si Si5 0.612858 0.615500 0.578482
O O1 0.750000 0.749992 0.824700
O O2 0.636323 0.781288 0.597661
O O3 0.703510 0.999988 0.657011
O O4 0.701013 0.927409 0.902020
O O5 0.041755 0.107821 0.421199
O O6 0.041755 0.892165 0.245824
O O7 0.863676 0.718699 0.052371
O O8 0.857255 0.999991 0.964503
O O9 0.868841 0.933159 0.237677
#
# Coordination Sequence:
#
# PCOD8141213 Si02
#       5
#     8   4   8   8   8
#     4  10  21  36  53  78 108 137 174 216 260 312
#     4   8  18  32  56  76 106 136 176 214 250 308
#     4   9  18  32  53  78 103 134 175 215 254 305
#     4  10  21  36  53  78 108 137 174 216 260 312
#     4   9  18  32  53  78 103 134 175 215 254 305
#
# _framework density 17.295555
#
# number of rings (size 3 to 8) (size 9 to 14) (size 15 to 20)
#    1.333    1.333    0.000    2.000    0.000    2.667 
#    0.000    1.111    0.000    5.333    0.000    0.000 
#    0.000    0.000    0.000    0.000    0.000    0.000 
#
# Total GULP energy -222989.207445 kJ/mol
# GULP energy per Si atom -12388.289302 kJ/mol
# Density = 1.725619 g / cm^3
# Si number density = 17.295555 Si / 1000 Ang^3
#
#
#
# Elastic Constant Matrix: (Units=GPa)
#
#
# Indices 1 2 3 4 5 6 
#
# 1 79.9582 63.4253 66.5073 0.0000 0.2747 0.0000
# 2 63.4253 112.9150 80.8043 0.0000 -20.9872 0.0000
# 3 66.5073 80.8043 101.3170 0.0000 -26.0827 0.0000
# 4 0.0000 0.0000 0.0000 36.9555 0.0000 -4.7445
# 5 0.2747 -20.9872 -26.0827 0.0000 38.3405 0.0000
# 6 0.0000 0.0000 0.0000 -4.7445 0.0000 33.0170
#
#
#
# Elastic Compliance Matrix: (Units=1/GPa)
#
#
# Indices 1 2 3 4 5 6 
#
# 1 0.040876 -0.008843 -0.025582 0.000000 -0.022536 0.000000
# 2 -0.008843 0.022544 -0.010889 0.000000 0.004996 0.000000
# 3 -0.025582 -0.010889 0.041049 0.000000 0.022148 0.000000
# 4 0.000000 0.000000 0.000000 0.027568 0.000000 0.003962
# 5 -0.022536 0.004996 0.022148 0.000000 0.044045 0.000000
# 6 0.000000 0.000000 0.000000 0.003962 0.000000 0.030857
#
#
# Mechanical properties :
#
#
# Convention : Reuss Voigt Hill
#
# Bulk Modulus (GPa) = 72.24218 79.51822 75.88020
# Shear Modulus (GPa) = 16.54632 27.22615 21.88624
#
# Velocity S-wave (km/s) = 3.09638 3.97189 3.56114
# Velocity P-wave (km/s) = 7.39211 8.19209 7.80236
#
# Compressibility (1/GPa) = 0.01384233
#
# Stress axis : x y z
#
# Youngs Moduli (GPa) = 24.46394 44.35690 24.36107
#
# Poissons Ratio (x) = 0.39223 0.62320
# Poissons Ratio (y) = 0.21632 0.26528
# Poissons Ratio (z) = 0.62583 0.48302
#
# Static dielectric constant tensor:
#      x y z
#    x 3.282890 0.000000 0.020780 
#    y 0.000000 2.963490 0.000000 
#    z 0.020780 0.000000 3.265590 
# 
# 
# High freq. dielectric constant tensor:
#      x y z
#    x 1.671570 0.000000 -0.004340 
#    y 0.000000 1.637170 0.000000 
#    z -0.004340 0.000000 1.675170 
# 
# From -- ./inp_files/59784.got.cif
#   From: 2010.06.25/outbox.cif.g09.slc.cpg/sg15_30_cif.got.tgz:59784.got - 2010.06.28 07:06:18.
