data_PCOD8141608
_publ_section_title
;
Structure prediction by ZEFSAII (Michael W. Deem and Ramdas Pophale) SiO2 
 PCOD8141608
Probable space group: C 2/C
;
_chemical_formula_sum "Si O2"
_cell_formula_units_Z 40
_cell_length_a 23.143849
_cell_length_b 4.942626
_cell_length_c 23.850255
_cell_angle_alpha 90.000000
_cell_angle_beta 136.772100
_cell_angle_gamma 90.000000
_cell_volume 1868.593328
_symmetry_space_group_name_H-M "C 2/C"
_symmetry_group_IT_number 15
_symmetry_cell_setting 'monoclinic'
loop_
_space_group_symop_operation_xyz
x,y,z
-x,y,1/2-z
-x,-y,-z
x,-y,1/2+z
1/2+x,1/2+y,z
1/2-x,1/2+y,1/2-z
1/2-x,1/2-y,-z
1/2+x,1/2-y,1/2+z
loop_
_atom_site_type_symbol
_atom_site_label
_atom_site_fract_x
_atom_site_fract_y
_atom_site_fract_z
Si Si1 0.648700 0.366739 0.537774
Si Si2 0.198341 0.036497 0.197201
Si Si3 0.969779 0.158500 0.861854
Si Si4 0.008455 0.358076 0.321520
Si Si5 0.316824 0.120774 0.505957
O O1 0.678279 0.340129 0.622312
O O2 0.548824 0.297710 0.460296
O O3 0.662953 0.672748 0.529388
O O4 0.707113 0.161671 0.541816
O O5 0.237895 0.282191 0.261179
O O6 0.111421 0.934495 0.161981
O O7 0.948258 0.437813 0.814082
O O8 0.992286 0.946148 0.829289
O O9 0.000000 0.385864 0.250000
O O10 0.103338 0.449175 0.400038
O O11 0.250000 0.250000 0.500000
#
# Coordination Sequence:
#
# PCOD8141608 Si02
#       5
#     8   8   8   8   8
#     4  10  22  41  61  84 120 163 199 236 296 366
#     4  12  25  40  61  92 120 152 201 257 303 343
#     4  10  22  41  61  84 119 162 200 238 297 367
#     4  10  21  37  60  88 117 155 199 242 294 353
#     4  10  21  37  60  88 118 156 198 241 292 351
#
# _framework density 21.406478
#
# number of rings (size 3 to 8) (size 9 to 14) (size 15 to 20)
#    0.000    1.600    0.000    4.200    0.000    4.800 
#    0.000    8.000    0.000    0.000    0.000    0.000 
#    0.000    0.000    0.000    0.000    0.000    0.000 
#
# Total GULP energy -247994.619236 kJ/mol
# GULP energy per Si atom -12399.730962 kJ/mol
# Density = 2.135776 g / cm^3
# Si number density = 21.406478 Si / 1000 Ang^3
#
#
#
# Elastic Constant Matrix: (Units=GPa)
#
#
# Indices 1 2 3 4 5 6 
#
# 1 102.1033 19.4090 56.1946 -0.0003 -1.1925 -0.0207
# 2 19.4090 113.0770 45.2674 -0.0080 -1.7759 -0.0579
# 3 56.1946 45.2674 118.9166 -0.0080 -21.9010 0.0023
# 4 -0.0003 -0.0080 -0.0080 20.8267 0.0057 0.0792
# 5 -1.1925 -1.7759 -21.9010 0.0057 27.8136 0.0084
# 6 -0.0207 -0.0579 0.0023 0.0792 0.0084 44.2675
#
#
#
# Elastic Compliance Matrix: (Units=1/GPa)
#
#
# Indices 1 2 3 4 5 6 
#
# 1 0.013926 0.000668 -0.007857 -0.000001 -0.005547 0.000009
# 2 0.000668 0.010666 -0.004965 0.000003 -0.003200 0.000015
# 3 -0.007857 -0.004965 0.016248 0.000001 0.012140 -0.000013
# 4 -0.000001 0.000003 0.000001 0.048016 -0.000009 -0.000086
# 5 -0.005547 -0.003200 0.012140 -0.000009 0.045071 -0.000016
# 6 0.000009 0.000015 -0.000013 -0.000086 -0.000016 0.022590
#
#
# Mechanical properties :
#
#
# Convention : Reuss Voigt Hill
#
# Bulk Modulus (GPa) = 60.48777 63.98211 62.23494
# Shear Modulus (GPa) = 26.83319 32.79662 29.81491
#
# Velocity S-wave (km/s) = 3.54433 3.91844 3.73607
# Velocity P-wave (km/s) = 6.71326 7.10114 6.90992
#
# Compressibility (1/GPa) = 0.01653227
#
# Stress axis : x y z
#
# Youngs Moduli (GPa) = 71.80613 93.75273 61.54638
#
# Poissons Ratio (x) = -0.06260 0.48355
# Poissons Ratio (y) = -0.04795 0.30559
# Poissons Ratio (z) = 0.56416 0.46550
#
# Static dielectric constant tensor:
#      x y z
#    x 3.699280 -0.000260 0.058280 
#    y -0.000260 4.471920 0.000100 
#    z 0.058280 0.000100 3.925440 
# 
# 
# High freq. dielectric constant tensor:
#      x y z
#    x 1.828940 -0.000010 -0.003280 
#    y -0.000010 1.862150 0.000000 
#    z -0.003280 0.000000 1.839020 
# 
# From -- ./inp_files/212720.got.cif
#   From: 2010.06.25/outbox.cif.g09.slc.cpg/sg15_107_cif.got.tgz:212720.got - 2010.06.28 07:06:18.
