data_PCOD8141435
_publ_section_title
;
Structure prediction by ZEFSAII (Michael W. Deem and Ramdas Pophale) SiO2 
 PCOD8141435
Probable space group: C 2/C
;
_chemical_formula_sum "Si O2"
_cell_formula_units_Z 52
_cell_length_a 11.405826
_cell_length_b 26.950296
_cell_length_c 8.381219
_cell_angle_alpha 90.000000
_cell_angle_beta 106.986835
_cell_angle_gamma 90.000000
_cell_volume 2463.906833
_symmetry_space_group_name_H-M "C 2/C"
_symmetry_group_IT_number 15
_symmetry_cell_setting 'monoclinic'
loop_
_space_group_symop_operation_xyz
x,y,z
-x,y,1/2-z
-x,-y,-z
x,-y,1/2+z
1/2+x,1/2+y,z
1/2-x,1/2+y,1/2-z
1/2-x,1/2-y,-z
1/2+x,1/2-y,1/2+z
loop_
_atom_site_type_symbol
_atom_site_label
_atom_site_fract_x
_atom_site_fract_y
_atom_site_fract_z
Si Si1 0.642655 0.749785 0.577783
Si Si2 0.500000 0.791079 0.250000
Si Si3 0.271808 0.481756 0.519204
Si Si4 0.354936 0.833319 0.675896
Si Si5 0.139733 0.440850 0.750110
Si Si6 0.235934 0.333176 0.202786
Si Si7 0.627427 0.432968 0.229497
O O1 0.750000 0.750000 0.500000
O O2 0.519747 0.757876 0.420909
O O3 0.683870 0.794053 0.708744
O O4 0.646889 0.698518 0.682810
O O5 0.618402 0.826094 0.272165
O O6 0.168358 0.450193 0.574067
O O7 0.200424 0.514231 0.364744
O O8 0.366931 0.446375 0.457965
O O9 0.349247 0.516622 0.665157
O O10 0.500000 0.836560 0.750000
O O11 0.298617 0.887813 0.685972
O O12 0.305420 0.814058 0.487090
O O13 0.000000 0.440023 0.750000
O O14 0.269446 0.391006 0.204200
O O15 0.500000 0.411818 0.250000
#
# Coordination Sequence:
#
# PCOD8141435 Si02
#       7
#     8   4   8   8   8   8   8
#     4  10  23  40  64  92 130 170 211 261 327 396
#     4  10  22  44  66  98 130 170 206 268 348 390
#     4  10  22  41  63  89 133 172 218 271 325 379
#     4  11  21  39  65  93 131 171 210 261 327 390
#     4  10  21  36  63  99 132 166 212 266 328 398
#     4  11  23  42  69  97 130 168 220 269 324 399
#     4  11  24  44  65  93 125 175 227 271 321 385
#
# _framework density 21.104693999999999
#
# number of rings (size 3 to 8) (size 9 to 14) (size 15 to 20)
#    0.000    1.538    3.077    1.385    4.308    0.615 
#   11.077    0.000    1.692    0.000    0.000    0.000 
#    0.000    0.000    0.000    0.000    0.000    0.000 
#
# Total GULP energy -322104.511743 kJ/mol
# GULP energy per Si atom -12388.635067 kJ/mol
# Density = 2.105666 g / cm^3
# Si number density = 21.104694 Si / 1000 Ang^3
#
#
#
# Elastic Constant Matrix: (Units=GPa)
#
#
# Indices 1 2 3 4 5 6 
#
# 1 96.2261 37.2801 39.6298 0.0000 -19.1740 0.0000
# 2 37.2801 92.9983 49.1469 0.0000 -12.7540 0.0000
# 3 39.6298 49.1469 140.8599 0.0000 -12.0624 0.0000
# 4 0.0000 0.0000 0.0000 35.4110 0.0000 -1.2408
# 5 -19.1740 -12.7540 -12.0624 0.0000 37.8181 0.0000
# 6 0.0000 0.0000 0.0000 -1.2408 0.0000 32.5796
#
#
#
# Elastic Compliance Matrix: (Units=1/GPa)
#
#
# Indices 1 2 3 4 5 6 
#
# 1 0.013697 -0.003669 -0.002143 0.000000 0.005024 0.000000
# 2 -0.003669 0.014521 -0.003880 0.000000 0.001799 0.000000
# 3 -0.002143 -0.003880 0.009099 0.000000 0.000507 0.000000
# 4 0.000000 0.000000 0.000000 0.028278 0.000000 0.001077
# 5 0.005024 0.001799 0.000507 0.000000 0.029758 0.000000
# 6 0.000000 0.000000 0.000000 0.001077 0.000000 0.030735
#
#
# Mechanical properties :
#
#
# Convention : Reuss Voigt Hill
#
# Bulk Modulus (GPa) = 55.76397 64.68865 60.22631
# Shear Modulus (GPa) = 33.01392 34.76357 33.88874
#
# Velocity S-wave (km/s) = 3.95940 4.06297 4.01152
# Velocity P-wave (km/s) = 6.88349 7.26141 7.07498
#
# Compressibility (1/GPa) = 0.01793272
#
# Stress axis : x y z
#
# Youngs Moduli (GPa) = 73.00641 68.86553 109.89672
#
# Poissons Ratio (x) = 0.25269 0.23553
# Poissons Ratio (y) = 0.26788 0.42641
# Poissons Ratio (z) = 0.15647 0.26720
#
# Static dielectric constant tensor:
#      x y z
#    x 3.983540 0.000000 -0.019800 
#    y 0.000000 2.854380 0.000000 
#    z -0.019800 0.000000 4.286890 
# 
# 
# High freq. dielectric constant tensor:
#      x y z
#    x 1.809690 0.000000 -0.016760 
#    y 0.000000 1.826570 0.000000 
#    z -0.016760 0.000000 1.841350 
# 
# From -- ./inp_files/33647.got.cif
#   From: 2010.06.25/outbox.cif.g09.slc.cpg/sg15_17_cif.got.tgz:33647.got - 2010.06.28 07:06:18.
