data_PCOD8141620
_publ_section_title
;
Structure prediction by ZEFSAII (Michael W. Deem and Ramdas Pophale) SiO2 
 PCOD8141620
Probable space group: C 2/C
;
_chemical_formula_sum "Si O2"
_cell_formula_units_Z 56
_cell_length_a 9.168930
_cell_length_b 16.135211
_cell_length_c 28.432283
_cell_angle_alpha 90.000000
_cell_angle_beta 141.216431
_cell_angle_gamma 90.000000
_cell_volume 2634.772510
_symmetry_space_group_name_H-M "C 2/C"
_symmetry_group_IT_number 15
_symmetry_cell_setting 'monoclinic'
loop_
_space_group_symop_operation_xyz
x,y,z
-x,y,1/2-z
-x,-y,-z
x,-y,1/2+z
1/2+x,1/2+y,z
1/2-x,1/2+y,1/2-z
1/2-x,1/2-y,-z
1/2+x,1/2-y,1/2+z
loop_
_atom_site_type_symbol
_atom_site_label
_atom_site_fract_x
_atom_site_fract_y
_atom_site_fract_z
Si Si1 0.300027 0.803534 0.927600
Si Si2 0.836254 0.444492 0.013537
Si Si3 0.500352 0.643611 0.008515
Si Si4 0.112522 0.245325 0.860361
Si Si5 0.096268 0.723758 0.724194
Si Si6 0.742192 0.627732 0.975531
Si Si7 0.755345 0.622170 0.822541
O O1 0.532994 0.815020 0.953486
O O2 0.074458 0.795551 0.838497
O O3 0.296294 0.879527 0.962175
O O4 0.320888 0.720605 0.964459
O O5 0.831049 0.534428 0.988109
O O6 0.077631 0.434628 0.103235
O O7 0.618338 0.433150 0.994676
O O8 0.745622 0.671153 0.092918
O O9 0.546481 0.621618 0.965956
O O10 0.207340 0.211193 0.834712
O O11 0.842857 0.269887 0.791097
O O12 0.137862 0.167833 0.902526
O O13 0.119172 0.643599 0.695656
O O14 0.000000 0.691347 0.750000
O O15 0.500000 0.578818 0.750000
#
# Coordination Sequence:
#
# PCOD8141620 Si02
#       7
#     8   8   8   8   8   8   8
#     4  11  21  38  66  89 117 163 214 254 294 370
#     4  12  22  39  63  94 125 164 207 251 314 371
#     4  11  20  37  60  90 119 160 210 250 294 364
#     4  10  21  38  62  87 122 160 210 252 306 360
#     4  11  21  37  62  92 119 157 214 259 305 355
#     4  11  23  37  61  93 130 157 197 260 313 361
#     4  10  21  37  60  90 119 163 201 255 304 369
#
# _framework density 21.254206
#
# number of rings (size 3 to 8) (size 9 to 14) (size 15 to 20)
#    0.000    1.143    4.286    5.571    0.000    0.000 
#    0.000    2.143    0.000    1.714    0.000    0.000 
#    0.000    0.000    0.000    0.000    0.000    0.000 
#
# Total GULP energy -347119.267197 kJ/mol
# GULP energy per Si atom -12397.116686 kJ/mol
# Density = 2.120583 g / cm^3
# Si number density = 21.254206 Si / 1000 Ang^3
#
#
#
# Elastic Constant Matrix: (Units=GPa)
#
#
# Indices 1 2 3 4 5 6 
#
# 1 94.6614 -4.9413 30.4761 0.0002 -0.6830 0.0001
# 2 -4.9413 51.4963 32.4080 0.0001 1.6998 0.0001
# 3 30.4761 32.4080 146.7821 0.0007 15.8551 0.0004
# 4 0.0002 0.0001 0.0007 17.9324 0.0004 0.3011
# 5 -0.6830 1.6998 15.8551 0.0004 33.6792 0.0002
# 6 0.0001 0.0001 0.0004 0.3011 0.0002 22.9154
#
#
#
# Elastic Compliance Matrix: (Units=1/GPa)
#
#
# Indices 1 2 3 4 5 6 
#
# 1 0.011815 0.003176 -0.003332 0.000000 0.001648 0.000000
# 2 0.003176 0.023458 -0.006024 0.000000 0.001717 0.000000
# 3 -0.003332 -0.006024 0.009281 0.000000 -0.004133 0.000000
# 4 0.000000 0.000000 0.000000 0.055777 -0.000001 -0.000733
# 5 0.001648 0.001717 -0.004133 -0.000001 0.031584 0.000000
# 6 0.000000 0.000000 0.000000 -0.000733 0.000000 0.043648
#
#
# Mechanical properties :
#
#
# Convention : Reuss Voigt Hill
#
# Bulk Modulus (GPa) = 31.06216 45.42504 38.24360
# Shear Modulus (GPa) = 25.16921 30.57188 27.87054
#
# Velocity S-wave (km/s) = 3.44495 3.79673 3.62511
# Velocity P-wave (km/s) = 5.51996 6.37486 5.96275
#
# Compressibility (1/GPa) = 0.03219352
#
# Stress axis : x y z
#
# Youngs Moduli (GPa) = 84.64168 42.62898 107.74440
#
# Poissons Ratio (x) = -0.13541 0.35904
# Poissons Ratio (y) = -0.26886 0.64908
# Poissons Ratio (z) = 0.28206 0.25681
#
# Static dielectric constant tensor:
#      x y z
#    x 4.212410 0.000000 0.128780 
#    y 0.000000 3.504450 0.000000 
#    z 0.128780 0.000000 3.987610 
# 
# 
# High freq. dielectric constant tensor:
#      x y z
#    x 1.860120 0.000000 0.004670 
#    y 0.000000 1.787960 0.000000 
#    z 0.004670 0.000000 1.834700 
# 
# From -- ./inp_files/265465.got.cif
#   From: 2010.06.25/outbox.cif.g09.slc.cpg/sg15_133_cif.got.tgz:265465.got - 2010.06.28 07:06:18.
