data_PCOD8141562
_publ_section_title
;
Structure prediction by ZEFSAII (Michael W. Deem and Ramdas Pophale) SiO2 
 PCOD8141562
Probable space group: C 2/C
;
_chemical_formula_sum "Si O2"
_cell_formula_units_Z 56
_cell_length_a 14.598888
_cell_length_b 24.700110
_cell_length_c 8.364267
_cell_angle_alpha 90.000000
_cell_angle_beta 118.827460
_cell_angle_gamma 90.000000
_cell_volume 2642.336850
_symmetry_space_group_name_H-M "C 2/C"
_symmetry_group_IT_number 15
_symmetry_cell_setting 'monoclinic'
loop_
_space_group_symop_operation_xyz
x,y,z
-x,y,1/2-z
-x,-y,-z
x,-y,1/2+z
1/2+x,1/2+y,z
1/2-x,1/2+y,1/2-z
1/2-x,1/2-y,-z
1/2+x,1/2-y,1/2+z
loop_
_atom_site_type_symbol
_atom_site_label
_atom_site_fract_x
_atom_site_fract_y
_atom_site_fract_z
Si Si1 0.869790 0.192035 0.881840
Si Si2 0.000000 0.734809 0.250000
Si Si3 0.855737 0.033481 0.469945
Si Si4 0.629015 0.816082 0.123623
Si Si5 0.287046 0.005088 0.413914
Si Si6 0.600683 0.936675 0.224341
Si Si7 0.500000 0.744123 0.250000
Si Si8 0.039651 0.917032 0.959921
O O1 0.748266 0.203007 0.743550
O O2 0.936644 0.225251 0.811025
O O3 0.907622 0.209542 0.090291
O O4 0.888226 0.127635 0.894622
O O5 0.084418 0.695058 0.407742
O O6 0.767424 0.042634 0.262148
O O7 0.944871 0.077043 0.508924
O O8 0.796941 0.040454 0.592024
O O9 0.900924 0.973061 0.506276
O O10 0.614033 0.877316 0.167200
O O11 0.555214 0.780616 0.168494
O O12 0.307110 0.045563 0.578643
O O13 0.390137 0.976415 0.423537
O O14 0.500000 0.944197 0.250000
O O15 0.000000 0.899322 0.750000
#
# Coordination Sequence:
#
# PCOD8141562 Si02
#       8
#     8   4   8   8   8   8   4   8
#     4  11  22  40  70  96 129 166 217 266 326 393
#     4  10  26  46  64  98 130 164 218 282 336 380
#     4  10  21  37  58  94 139 172 205 254 315 383
#     4  11  23  45  68  91 128 169 216 269 333 389
#     4  10  21  39  62  91 127 172 217 258 315 390
#     4  11  23  42  64  92 124 168 219 272 324 380
#     4  10  22  42  66  98 122 162 216 276 322 384
#     4  11  21  36  63  96 138 171 210 252 319 395
#
# _framework density 21.193362
#
# number of rings (size 3 to 8) (size 9 to 14) (size 15 to 20)
#    0.000    1.429    2.857    3.000    0.000    2.286 
#    6.429    0.000    0.000    0.000    0.000    0.000 
#    0.000    0.000    0.000    0.000    0.000    0.000 
#
# Total GULP energy -346917.387007 kJ/mol
# GULP energy per Si atom -12389.906679 kJ/mol
# Density = 2.114512 g / cm^3
# Si number density = 21.193362 Si / 1000 Ang^3
#
#
#
# Elastic Constant Matrix: (Units=GPa)
#
#
# Indices 1 2 3 4 5 6 
#
# 1 95.1342 17.9189 20.7652 0.0000 2.6167 0.0000
# 2 17.9189 86.0104 35.2123 0.0000 2.2840 0.0000
# 3 20.7652 35.2123 113.7151 0.0000 10.9899 0.0000
# 4 0.0000 0.0000 0.0000 29.2666 0.0000 2.8178
# 5 2.6167 2.2840 10.9899 0.0000 37.5546 0.0000
# 6 0.0000 0.0000 0.0000 2.8178 0.0000 23.5880
#
#
#
# Elastic Compliance Matrix: (Units=1/GPa)
#
#
# Indices 1 2 3 4 5 6 
#
# 1 0.011165 -0.001711 -0.001486 0.000000 -0.000239 0.000000
# 2 -0.001711 0.013583 -0.003936 0.000000 0.000445 0.000000
# 3 -0.001486 -0.003936 0.010549 0.000000 -0.002744 0.000000
# 4 0.000000 0.000000 0.000000 0.034566 0.000000 -0.004129
# 5 -0.000239 0.000445 -0.002744 0.000000 0.027421 0.000000
# 6 0.000000 0.000000 0.000000 -0.004129 0.000000 0.042888
#
#
# Mechanical properties :
#
#
# Convention : Reuss Voigt Hill
#
# Bulk Modulus (GPa) = 47.55182 49.18362 48.36772
# Shear Modulus (GPa) = 30.96964 32.81271 31.89118
#
# Velocity S-wave (km/s) = 3.82683 3.93905 3.88335
# Velocity P-wave (km/s) = 6.48167 6.62915 6.55582
#
# Compressibility (1/GPa) = 0.02102969
#
# Stress axis : x y z
#
# Youngs Moduli (GPa) = 89.56820 73.62255 94.79247
#
# Poissons Ratio (x) = 0.12600 0.14083
# Poissons Ratio (y) = 0.15329 0.37315
# Poissons Ratio (z) = 0.13307 0.28981
#
# Static dielectric constant tensor:
#      x y z
#    x 4.196950 0.000000 -0.048500 
#    y 0.000000 3.630660 0.000000 
#    z -0.048500 0.000000 4.110080 
# 
# 
# High freq. dielectric constant tensor:
#      x y z
#    x 1.846320 0.000000 -0.004380 
#    y 0.000000 1.810530 0.000000 
#    z -0.004380 0.000000 1.842540 
# 
# From -- ./inp_files/42783.got.cif
#   From: 2010.06.25/outbox.cif.g09.slc.cpg/sg15_22_cif.got.tgz:42783.got - 2010.06.28 07:06:18.
