data_PCOD8141537
_publ_section_title
;
Structure prediction by ZEFSAII (Michael W. Deem and Ramdas Pophale) SiO2 
 PCOD8141537
Probable space group: C 2/C
;
_chemical_formula_sum "Si O2"
_cell_formula_units_Z 40
_cell_length_a 9.623079
_cell_length_b 16.476407
_cell_length_c 12.305227
_cell_angle_alpha 90.000000
_cell_angle_beta 98.029400
_cell_angle_gamma 90.000000
_cell_volume 1931.913112
_symmetry_space_group_name_H-M "C 2/C"
_symmetry_group_IT_number 15
_symmetry_cell_setting 'monoclinic'
loop_
_space_group_symop_operation_xyz
x,y,z
-x,y,1/2-z
-x,-y,-z
x,-y,1/2+z
1/2+x,1/2+y,z
1/2-x,1/2+y,1/2-z
1/2-x,1/2-y,-z
1/2+x,1/2-y,1/2+z
loop_
_atom_site_type_symbol
_atom_site_label
_atom_site_fract_x
_atom_site_fract_y
_atom_site_fract_z
Si Si1 0.758524 0.291894 0.887090
Si Si2 0.039099 0.627281 0.370561
Si Si3 0.456843 0.573983 0.129881
Si Si4 0.201271 0.072555 0.987750
Si Si5 0.647178 0.704621 0.806399
O O1 0.618368 0.342121 0.851030
O O2 0.763365 0.224074 0.792299
O O3 0.892692 0.351599 0.911422
O O4 0.750000 0.250000 0.000000
O O5 0.140623 0.565622 0.446622
O O6 0.126324 0.710667 0.366568
O O7 0.000000 0.587774 0.250000
O O8 0.500000 0.534298 0.250000
O O9 0.345484 0.514544 0.061082
O O10 0.589903 0.596162 0.069050
O O11 0.214951 0.139046 0.893602
O O12 0.500000 0.667596 0.750000
#
# Coordination Sequence:
#
# PCOD8141537 Si02
#       5
#     8   8   8   8   8
#     4  10  21  37  58  86 121 157 201 251 292 351
#     4   9  19  36  57  81 114 157 197 245 300 355
#     4  11  23  38  60  90 121 152 198 257 303 356
#     4  11  22  38  61  86 119 161 197 240 310 373
#     4   9  18  35  59  84 114 153 198 240 292 359
#
# _framework density 20.704865000000002
#
# number of rings (size 3 to 8) (size 9 to 14) (size 15 to 20)
#    0.000    2.400    0.000    6.000    0.000    4.000 
#    0.000    0.000    0.000    1.200    0.000    0.000 
#    0.000    0.000    0.000    0.000    0.000    0.000 
#
# Total GULP energy -247903.537922 kJ/mol
# GULP energy per Si atom -12395.176896 kJ/mol
# Density = 2.065774 g / cm^3
# Si number density = 20.704865 Si / 1000 Ang^3
#
#
#
# Elastic Constant Matrix: (Units=GPa)
#
#
# Indices 1 2 3 4 5 6 
#
# 1 109.7849 27.3617 68.6329 0.0000 -1.0829 0.0000
# 2 27.3617 38.9243 40.2310 0.0000 0.5108 0.0000
# 3 68.6329 40.2310 136.6185 0.0000 -1.4984 0.0000
# 4 0.0000 0.0000 0.0000 25.4664 0.0000 5.7264
# 5 -1.0829 0.5108 -1.4984 0.0000 48.8749 0.0000
# 6 0.0000 0.0000 0.0000 5.7264 0.0000 19.9796
#
#
#
# Elastic Compliance Matrix: (Units=1/GPa)
#
#
# Indices 1 2 3 4 5 6 
#
# 1 0.013622 -0.003603 -0.005780 0.000000 0.000162 0.000000
# 2 -0.003603 0.037910 -0.009362 0.000000 -0.000763 0.000000
# 3 -0.005780 -0.009362 0.012984 0.000000 0.000368 0.000000
# 4 0.000000 0.000000 0.000000 0.041972 0.000000 -0.012030
# 5 0.000162 -0.000763 0.000368 0.000000 0.020483 0.000000
# 6 0.000000 0.000000 0.000000 -0.012030 0.000000 0.053499
#
#
# Mechanical properties :
#
#
# Convention : Reuss Voigt Hill
#
# Bulk Modulus (GPa) = 37.00223 61.97544 49.48884
# Shear Modulus (GPa) = 22.02932 28.80431 25.41681
#
# Velocity S-wave (km/s) = 3.26539 3.73391 3.50748
# Velocity P-wave (km/s) = 5.66808 6.97045 6.35273
#
# Compressibility (1/GPa) = 0.02702540
#
# Stress axis : x y z
#
# Youngs Moduli (GPa) = 73.41042 26.37839 77.01521
#
# Poissons Ratio (x) = 0.09505 0.44518
# Poissons Ratio (y) = 0.26451 0.72100
# Poissons Ratio (z) = 0.42435 0.24695
#
# Static dielectric constant tensor:
#      x y z
#    x 3.772030 0.000000 -0.034380 
#    y 0.000000 3.340460 0.000000 
#    z -0.034380 0.000000 3.889090 
# 
# 
# High freq. dielectric constant tensor:
#      x y z
#    x 1.808050 0.000000 -0.000240 
#    y 0.000000 1.779400 0.000000 
#    z -0.000240 0.000000 1.823760 
# 
# From -- ./inp_files/76835.got.cif
#   From: 2010.06.25/outbox.cif.g09.slc.cpg/sg15_39_cif.got.tgz:76835.got - 2010.06.28 07:06:18.
