data_PCOD8141483
_publ_section_title
;
Structure prediction by ZEFSAII (Michael W. Deem and Ramdas Pophale) SiO2 
 PCOD8141483
Probable space group: C 2/C
;
_chemical_formula_sum "Si O2"
_cell_formula_units_Z 52
_cell_length_a 31.473818
_cell_length_b 15.768580
_cell_length_c 9.126140
_cell_angle_alpha 90.000000
_cell_angle_beta 38.023886
_cell_angle_gamma 90.000000
_cell_volume 2789.990714
_symmetry_space_group_name_H-M "C 2/C"
_symmetry_group_IT_number 15
_symmetry_cell_setting 'monoclinic'
loop_
_space_group_symop_operation_xyz
x,y,z
-x,y,1/2-z
-x,-y,-z
x,-y,1/2+z
1/2+x,1/2+y,z
1/2-x,1/2+y,1/2-z
1/2-x,1/2-y,-z
1/2+x,1/2-y,1/2+z
loop_
_atom_site_type_symbol
_atom_site_label
_atom_site_fract_x
_atom_site_fract_y
_atom_site_fract_z
Si Si1 0.000000 0.292847 0.250000
Si Si2 0.150806 0.251633 0.860755
Si Si3 0.890920 0.351612 0.035211
Si Si4 0.000862 0.401675 0.525520
Si Si5 0.680979 0.717807 0.112571
Si Si6 0.746810 0.891148 0.489744
Si Si7 0.748263 0.941199 0.154953
O O1 0.930406 0.237131 0.456263
O O2 0.020454 0.352775 0.327406
O O3 0.188697 0.172670 0.681218
O O4 0.176966 0.339244 0.715639
O O5 0.168861 0.257110 0.984086
O O6 0.878957 0.252354 0.114977
O O7 0.820485 0.403947 0.230621
O O8 0.928576 0.360435 0.776778
O O9 0.938988 0.394094 0.022564
O O10 0.000000 0.500000 0.500000
O O11 0.750000 0.750000 0.000000
O O12 0.686424 0.615728 0.079359
O O13 0.740529 0.936940 0.350674
O O14 0.760037 0.962101 0.577068
#
# Coordination Sequence:
#
# PCOD8141483 Si02
#       7
#     4   8   8   8   8   8   8
#     4  12  22  38  62  80 120 162 188 236 292 360
#     4  10  22  40  60  87 121 157 198 237 301 359
#     4  10  21  37  55  80 118 152 194 232 288 356
#     4  11  24  35  51  85 119 156 188 231 287 362
#     4   9  19  38  59  83 113 153 197 245 290 345
#     4  10  23  39  60  90 118 153 199 248 298 350
#     4  10  22  36  61  86 113 150 196 253 295 339
#
# _framework density 18.638052999999999
#
# number of rings (size 3 to 8) (size 9 to 14) (size 15 to 20)
#    0.000    1.846    1.538    1.846   10.769    1.231 
#    0.000    0.000    0.000    5.538    0.000    0.000 
#    0.000    0.000    0.000    0.000    0.000    0.000 
#
# Total GULP energy -322223.353009 kJ/mol
# GULP energy per Si atom -12393.205885 kJ/mol
# Density = 1.859563 g / cm^3
# Si number density = 18.638053 Si / 1000 Ang^3
#
#
#
# Elastic Constant Matrix: (Units=GPa)
#
#
# Indices 1 2 3 4 5 6 
#
# 1 77.5101 33.1434 28.7983 0.0000 -6.7787 0.0000
# 2 33.1434 115.2569 58.9281 0.0000 2.4695 0.0000
# 3 28.7983 58.9281 104.4917 0.0000 -4.1616 0.0000
# 4 0.0000 0.0000 0.0000 15.4873 0.0000 10.5994
# 5 -6.7787 2.4695 -4.1616 0.0000 30.1118 0.0000
# 6 0.0000 0.0000 0.0000 10.5994 0.0000 21.5782
#
#
#
# Elastic Compliance Matrix: (Units=1/GPa)
#
#
# Indices 1 2 3 4 5 6 
#
# 1 0.015477 -0.003392 -0.002215 0.000000 0.003456 0.000000
# 2 -0.003392 0.013051 -0.006534 0.000000 -0.002737 0.000000
# 3 -0.002215 -0.006534 0.013944 0.000000 0.001964 0.000000
# 4 0.000000 0.000000 0.000000 0.097269 0.000000 -0.047779
# 5 0.003456 -0.002737 0.001964 0.000000 0.034484 0.000000
# 6 0.000000 0.000000 0.000000 -0.047779 0.000000 0.069813
#
#
# Mechanical properties :
#
#
# Convention : Reuss Voigt Hill
#
# Bulk Modulus (GPa) = 54.97715 59.88871 57.43293
# Shear Modulus (GPa) = 18.22268 25.19472 21.70870
#
# Velocity S-wave (km/s) = 3.13023 3.68066 3.41655
# Velocity P-wave (km/s) = 6.52884 7.08980 6.81509
#
# Compressibility (1/GPa) = 0.01818938
#
# Stress axis : x y z
#
# Youngs Moduli (GPa) = 64.61080 76.62094 71.71635
#
# Poissons Ratio (x) = 0.25992 0.15884
# Poissons Ratio (y) = 0.21918 0.46862
# Poissons Ratio (z) = 0.14310 0.50067
#
# Static dielectric constant tensor:
#      x y z
#    x 3.811550 0.000000 0.001010 
#    y 0.000000 3.590260 0.000000 
#    z 0.001010 0.000000 4.160960 
# 
# 
# High freq. dielectric constant tensor:
#      x y z
#    x 1.732070 0.000000 0.011870 
#    y 0.000000 1.706980 0.000000 
#    z 0.011870 0.000000 1.721970 
# 
# From -- ./inp_files/55310.got.cif
#   From: 2010.06.25/outbox.cif.g09.slc.cpg/sg15_28_cif.got.tgz:55310.got - 2010.06.28 07:06:18.
