data_PCOD8141794
_publ_section_title
;
Structure prediction by ZEFSAII (Michael W. Deem and Ramdas Pophale) SiO2 
 PCOD8141794
Probable space group: C 2/C
;
_chemical_formula_sum "Si O2"
_cell_formula_units_Z 44
_cell_length_a 18.747510
_cell_length_b 19.232000
_cell_length_c 4.938393
_cell_angle_alpha 90.000000
_cell_angle_beta 92.551558
_cell_angle_gamma 90.000000
_cell_volume 1778.782732
_symmetry_space_group_name_H-M "C 2/C"
_symmetry_group_IT_number 15
_symmetry_cell_setting 'monoclinic'
loop_
_space_group_symop_operation_xyz
x,y,z
-x,y,1/2-z
-x,-y,-z
x,-y,1/2+z
1/2+x,1/2+y,z
1/2-x,1/2+y,1/2-z
1/2-x,1/2-y,-z
1/2+x,1/2-y,1/2+z
loop_
_atom_site_type_symbol
_atom_site_label
_atom_site_fract_x
_atom_site_fract_y
_atom_site_fract_z
Si Si1 0.000000 0.950254 0.750000
Si Si2 0.753321 0.135894 0.963825
Si Si3 0.637734 0.047932 0.719058
Si Si4 0.181715 0.745745 0.299303
Si Si5 0.649785 0.546803 0.186742
Si Si6 0.952270 0.675936 0.981138
O O1 0.924087 0.909640 0.759397
O O2 0.000000 0.000000 0.500000
O O3 0.691894 0.187091 0.070130
O O4 0.782965 0.093988 0.226888
O O5 0.714806 0.087006 0.732652
O O6 0.819591 0.178065 0.841119
O O7 0.576548 0.102834 0.637441
O O8 0.631218 0.982442 0.520115
O O9 0.250000 0.750000 0.500000
O O10 0.110139 0.730639 0.454935
O O11 0.653377 0.476858 0.375046
O O12 0.000000 0.710128 0.750000
O O13 0.000000 0.660418 0.250000
#
# Coordination Sequence:
#
# PCOD8141794 Si02
#       6
#     4   8   8   8   8   8
#     4   8  16  34  56  84 128 174 204 256 340 406
#     4  11  24  42  71 107 140 185 244 304 356 425
#     4  12  25  43  72 110 148 189 241 297 370 447
#     4  11  25  47  75  98 141 194 242 298 362 419
#     4  10  21  37  64  98 139 179 224 286 355 426
#     4  12  27  49  75 106 150 195 243 307 367 433
#
# _framework density 24.736018000000001
#
# number of rings (size 3 to 8) (size 9 to 14) (size 15 to 20)
#    0.000    1.091    1.818    4.364    5.091    2.182 
#    0.000    1.818    2.000    0.000    0.000    0.000 
#    0.000    0.182    0.000    0.000    0.000    0.000 
#
# Total GULP energy -272661.956606 kJ/mol
# GULP energy per Si atom -12393.725300 kJ/mol
# Density = 2.467972 g / cm^3
# Si number density = 24.736018 Si / 1000 Ang^3
#
#
#
# Elastic Constant Matrix: (Units=GPa)
#
#
# Indices 1 2 3 4 5 6 
#
# 1 137.0564 34.6582 32.2405 0.0000 -1.1779 0.0000
# 2 34.6582 66.2007 14.2215 0.0000 -3.0255 0.0000
# 3 32.2405 14.2215 111.9780 0.0000 5.6008 0.0000
# 4 0.0000 0.0000 0.0000 13.1170 0.0000 1.9882
# 5 -1.1779 -3.0255 5.6008 0.0000 49.6980 0.0000
# 6 0.0000 0.0000 0.0000 1.9882 0.0000 20.4550
#
#
#
# Elastic Compliance Matrix: (Units=1/GPa)
#
#
# Indices 1 2 3 4 5 6 
#
# 1 0.008830 -0.004181 -0.002021 0.000000 0.000182 0.000000
# 2 -0.004181 0.017577 -0.001083 0.000000 0.001093 0.000000
# 3 -0.002021 -0.001083 0.009710 0.000000 -0.001208 0.000000
# 4 0.000000 0.000000 0.000000 0.077377 0.000000 -0.007521
# 5 0.000182 0.001093 -0.001208 0.000000 0.020329 0.000000
# 6 0.000000 0.000000 0.000000 -0.007521 0.000000 0.049619
#
#
# Mechanical properties :
#
#
# Convention : Reuss Voigt Hill
#
# Bulk Modulus (GPa) = 46.40720 53.05285 49.73003
# Shear Modulus (GPa) = 24.36728 32.26166 28.31447
#
# Velocity S-wave (km/s) = 3.14202 3.61534 3.38696
# Velocity P-wave (km/s) = 5.65374 6.23873 5.95343
#
# Compressibility (1/GPa) = 0.02154838
#
# Stress axis : x y z
#
# Youngs Moduli (GPa) = 113.24633 56.89284 102.98551
#
# Poissons Ratio (x) = 0.23784 0.20809
# Poissons Ratio (y) = 0.47343 0.11157
# Poissons Ratio (z) = 0.22883 0.06163
#
# Static dielectric constant tensor:
#      x y z
#    x 5.016470 0.000000 0.057950 
#    y 0.000000 4.389630 0.000000 
#    z 0.057950 0.000000 4.687120 
# 
# 
# High freq. dielectric constant tensor:
#      x y z
#    x 1.986550 0.000000 0.006440 
#    y 0.000000 1.956700 0.000000 
#    z 0.006440 0.000000 2.007320 
# 
# From -- ./inp_files/12948.got.cif
#   From: 2010.06.25/outbox.cif.g09.slc.cpg/sg15_7_cif.got.tgz:12948.got - 2010.06.28 07:06:18.
