data_PCOD8141037
_publ_section_title
;
Structure prediction by ZEFSAII (Michael W. Deem and Ramdas Pophale) SiO2 
 PCOD8141037
Probable space group: C 2/C
;
_chemical_formula_sum "Si O2"
_cell_formula_units_Z 40
_cell_length_a 20.879089
_cell_length_b 10.248412
_cell_length_c 23.725640
_cell_angle_alpha 90.000000
_cell_angle_beta 22.007600
_cell_angle_gamma 90.000000
_cell_volume 1902.409607
_symmetry_space_group_name_H-M "C 2/C"
_symmetry_group_IT_number 15
_symmetry_cell_setting 'monoclinic'
loop_
_space_group_symop_operation_xyz
x,y,z
-x,y,1/2-z
-x,-y,-z
x,-y,1/2+z
1/2+x,1/2+y,z
1/2-x,1/2+y,1/2-z
1/2-x,1/2-y,-z
1/2+x,1/2-y,1/2+z
loop_
_atom_site_type_symbol
_atom_site_label
_atom_site_fract_x
_atom_site_fract_y
_atom_site_fract_z
Si Si1 0.043028 0.620990 0.926492
Si Si2 0.643368 0.303645 0.020518
Si Si3 0.441139 0.372733 0.079229
Si Si4 0.000000 0.573395 0.250000
Si Si5 0.855577 0.500636 0.479134
Si Si6 0.000000 0.073614 0.750000
O O1 0.241840 0.627275 0.752705
O O2 0.943036 0.601999 0.949411
O O3 0.000000 0.500000 0.000000
O O4 0.986136 0.751328 0.003519
O O5 0.537802 0.380477 0.059894
O O6 0.613317 0.152185 0.030259
O O7 0.576446 0.334758 0.137921
O O8 0.844283 0.337834 0.852835
O O9 0.500000 0.500000 0.000000
O O10 0.931858 0.477506 0.354555
O O11 0.650804 0.478331 0.648231
#
# Coordination Sequence:
#
# PCOD8141037 Si02
#       6
#     8   8   8   4   8   4
#     4  12  25  45  67  96 137 180 221 280 336 397
#     4  11  20  36  62  95 136 162 223 273 335 395
#     4  12  27  43  69  98 137 184 227 275 337 405
#     4  10  21  34  62 103 128 171 212 281 338 391
#     4  11  20  37  64  92 134 164 222 273 336 393
#     4  10  21  34  62 103 126 173 212 285 334 391
#
# _framework density 21.025966
#
# number of rings (size 3 to 8) (size 9 to 14) (size 15 to 20)
#    0.000    0.800    2.000    8.400    2.800    0.000 
#    0.000    0.000    0.000   20.400    0.000    0.000 
#    0.000    0.000    0.000    0.000    0.000    0.000 
#
# Total GULP energy -248008.762298 kJ/mol
# GULP energy per Si atom -12400.438115 kJ/mol
# Density = 2.097811 g / cm^3
# Si number density = 21.025966 Si / 1000 Ang^3
#
#
#
# Elastic Constant Matrix: (Units=GPa)
#
#
# Indices 1 2 3 4 5 6 
#
# 1 116.6889 41.8747 53.3091 -0.0035 -27.4452 -0.0018
# 2 41.8747 105.1774 52.2137 -0.0011 0.7109 -0.0020
# 3 53.3091 52.2137 199.0454 -0.0056 -22.8521 -0.0043
# 4 -0.0035 -0.0011 -0.0056 27.1982 -0.0001 1.0759
# 5 -27.4452 0.7109 -22.8521 -0.0001 40.9320 -0.0012
# 6 -0.0018 -0.0020 -0.0043 1.0759 -0.0012 26.7084
#
#
#
# Elastic Compliance Matrix: (Units=1/GPa)
#
#
# Indices 1 2 3 4 5 6 
#
# 1 0.012584 -0.004407 -0.001322 0.000001 0.007776 0.000001
# 2 -0.004407 0.012616 -0.002665 -0.000001 -0.004661 0.000000
# 3 -0.001322 -0.002665 0.006390 0.000001 0.002728 0.000001
# 4 0.000001 -0.000001 0.000001 0.036826 0.000001 -0.001483
# 5 0.007776 -0.004661 0.002728 0.000001 0.031249 0.000002
# 6 0.000001 0.000000 0.000001 -0.001483 0.000002 0.037501
#
#
# Mechanical properties :
#
#
# Convention : Reuss Voigt Hill
#
# Bulk Modulus (GPa) = 67.54450 79.52298 73.53374
# Shear Modulus (GPa) = 31.46906 37.20199 34.33553
#
# Velocity S-wave (km/s) = 3.87289 4.21091 4.04543
# Velocity P-wave (km/s) = 7.22448 7.84511 7.54118
#
# Compressibility (1/GPa) = 0.01480506
#
# Stress axis : x y z
#
# Youngs Moduli (GPa) = 79.46696 79.26183 156.49348
#
# Poissons Ratio (x) = 0.34927 0.20681
# Poissons Ratio (y) = 0.35018 0.41698
# Poissons Ratio (z) = 0.10502 0.21120
#
# Static dielectric constant tensor:
#      x y z
#    x 4.140510 0.000000 -0.042830 
#    y 0.000000 3.202390 0.000010 
#    z -0.042830 0.000010 4.241320 
# 
# 
# High freq. dielectric constant tensor:
#      x y z
#    x 1.840820 0.000000 -0.000470 
#    y 0.000000 1.784470 0.000000 
#    z -0.000470 0.000000 1.856550 
# 
# From -- ./inp_files/54208.got.cif
#   From: 2010.06.25/outbox.cif.g09.slc.cpg/sg15_28_cif.got.tgz:54208.got - 2010.06.28 07:06:18.
