data_PCOD8141183
_publ_section_title
;
Structure prediction by ZEFSAII (Michael W. Deem and Ramdas Pophale) SiO2 
 PCOD8141183
Probable space group: C 2/C
;
_chemical_formula_sum "Si O2"
_cell_formula_units_Z 56
_cell_length_a 18.767846
_cell_length_b 8.763398
_cell_length_c 17.725072
_cell_angle_alpha 90.000000
_cell_angle_beta 101.965809
_cell_angle_gamma 90.000000
_cell_volume 2851.900539
_symmetry_space_group_name_H-M "C 2/C"
_symmetry_group_IT_number 15
_symmetry_cell_setting 'monoclinic'
loop_
_space_group_symop_operation_xyz
x,y,z
-x,y,1/2-z
-x,-y,-z
x,-y,1/2+z
1/2+x,1/2+y,z
1/2-x,1/2+y,1/2-z
1/2-x,1/2-y,-z
1/2+x,1/2-y,1/2+z
loop_
_atom_site_type_symbol
_atom_site_label
_atom_site_fract_x
_atom_site_fract_y
_atom_site_fract_z
Si Si1 0.415229 0.329778 0.974703
Si Si2 0.799724 0.549032 0.768507
Si Si3 0.693904 0.856995 0.591005
Si Si4 0.423285 0.670577 0.029186
Si Si5 0.154592 0.682257 0.861309
Si Si6 0.818421 0.596389 0.033843
Si Si7 0.220589 0.827365 0.643742
O O1 0.494946 0.273767 0.967912
O O2 0.366356 0.335326 0.887821
O O3 0.416568 0.491537 0.015942
O O4 0.383537 0.208714 0.026615
O O5 0.831404 0.419646 0.831780
O O6 0.859661 0.642428 0.730772
O O7 0.755809 0.674466 0.807172
O O8 0.744514 0.475351 0.695822
O O9 0.629376 0.759927 0.539929
O O10 0.764522 0.751673 0.612019
O O11 0.713316 0.005951 0.545331
O O12 0.402902 0.702748 0.112687
O O13 0.145393 0.523364 0.901867
O O14 0.753580 0.681363 0.065670
#
# Coordination Sequence:
#
# PCOD8141183 Si02
#       7
#     8   8   8   8   8   8   8
#     4  11  22  38  62  93 114 160 200 249 299 357
#     4  11  22  35  59  88 119 155 195 241 309 339
#     4  11  20  38  60  89 119 154 199 258 295 348
#     4  10  23  39  62  86 126 154 202 251 300 350
#     4  10  21  39  58  92 118 158 195 249 304 356
#     4  10  21  35  63  87 115 149 206 246 292 344
#     4  11  22  37  59  92 116 154 199 250 292 365
#
# _framework density 19.636028
#
# number of rings (size 3 to 8) (size 9 to 14) (size 15 to 20)
#    0.000    1.429    2.857    4.714    2.000    2.286 
#    0.000    0.714    3.143    0.000    0.000    0.000 
#    0.000    0.000    0.000    0.000    0.000    0.000 
#
# Total GULP energy -347045.803342 kJ/mol
# GULP energy per Si atom -12394.492976 kJ/mol
# Density = 1.959134 g / cm^3
# Si number density = 19.636028 Si / 1000 Ang^3
#
#
#
# Elastic Constant Matrix: (Units=GPa)
#
#
# Indices 1 2 3 4 5 6 
#
# 1 113.1849 57.4539 45.6488 0.0000 -13.2302 0.0000
# 2 57.4539 100.2955 42.7251 0.0000 -15.4428 0.0000
# 3 45.6488 42.7251 103.6030 0.0000 -30.8514 0.0000
# 4 0.0000 0.0000 0.0000 41.3542 0.0000 -12.6353
# 5 -13.2302 -15.4428 -30.8514 0.0000 23.6331 0.0000
# 6 0.0000 0.0000 0.0000 -12.6353 0.0000 32.9857
#
#
#
# Elastic Compliance Matrix: (Units=1/GPa)
#
#
# Indices 1 2 3 4 5 6 
#
# 1 0.013362 -0.006293 -0.003745 0.000000 -0.001521 0.000000
# 2 -0.006293 0.015135 -0.002573 0.000000 0.003008 0.000000
# 3 -0.003745 -0.002573 0.018386 0.000000 0.020223 0.000000
# 4 0.000000 0.000000 0.000000 0.027387 0.000000 0.010491
# 5 -0.001521 0.003008 0.020223 0.000000 0.069828 0.000000
# 6 0.000000 0.000000 0.000000 0.010491 0.000000 0.034335
#
#
# Mechanical properties :
#
#
# Convention : Reuss Voigt Hill
#
# Bulk Modulus (GPa) = 46.16807 67.63767 56.90287
# Shear Modulus (GPa) = 23.71076 31.01164 27.36120
#
# Velocity S-wave (km/s) = 3.47870 3.97838 3.73690
# Velocity P-wave (km/s) = 6.30064 7.45814 6.90369
#
# Compressibility (1/GPa) = 0.02165999
#
# Stress axis : x y z
#
# Youngs Moduli (GPa) = 74.83694 66.07281 54.39021
#
# Poissons Ratio (x) = 0.41582 0.20370
# Poissons Ratio (y) = 0.47098 0.13994
# Poissons Ratio (z) = 0.28028 0.16999
#
# Static dielectric constant tensor:
#      x y z
#    x 3.521560 0.000000 -0.387550 
#    y 0.000000 3.897770 0.000000 
#    z -0.387550 0.000000 3.836250 
# 
# 
# High freq. dielectric constant tensor:
#      x y z
#    x 1.730830 0.000000 -0.026140 
#    y 0.000000 1.792220 0.000000 
#    z -0.026140 0.000000 1.766030 
# 
# From -- ./inp_files/209656.got.cif
#   From: 2010.06.25/outbox.cif.g09.slc.cpg/sg15_105_cif.got.tgz:209656.got - 2010.06.28 07:06:18.
