data_PCOD8141392
_publ_section_title
;
Structure prediction by ZEFSAII (Michael W. Deem and Ramdas Pophale) SiO2 
 PCOD8141392
Probable space group: C 2/C
;
_chemical_formula_sum "Si O2"
_cell_formula_units_Z 36
_cell_length_a 12.004901
_cell_length_b 20.882752
_cell_length_c 9.406875
_cell_angle_alpha 90.000000
_cell_angle_beta 124.344682
_cell_angle_gamma 90.000000
_cell_volume 1947.117610
_symmetry_space_group_name_H-M "C 2/C"
_symmetry_group_IT_number 15
_symmetry_cell_setting 'monoclinic'
loop_
_space_group_symop_operation_xyz
x,y,z
-x,y,1/2-z
-x,-y,-z
x,-y,1/2+z
1/2+x,1/2+y,z
1/2-x,1/2+y,1/2-z
1/2-x,1/2-y,-z
1/2+x,1/2-y,1/2+z
loop_
_atom_site_type_symbol
_atom_site_label
_atom_site_fract_x
_atom_site_fract_y
_atom_site_fract_z
Si Si1 0.500000 0.899859 0.750000
Si Si2 0.186198 0.499611 0.237833
Si Si3 0.211251 0.677599 0.947005
Si Si4 0.944854 0.631806 0.912057
Si Si5 0.349226 0.554406 0.099009
O O1 0.441157 0.855635 0.579493
O O2 0.379916 0.941664 0.727401
O O3 0.073822 0.444496 0.130053
O O4 0.241948 0.524318 0.129248
O O5 0.313370 0.473875 0.419059
O O6 0.175717 0.669733 0.753672
O O7 0.085246 0.655681 0.950294
O O8 0.250000 0.750000 0.000000
O O9 0.334997 0.631694 0.080589
O O10 0.500000 0.535795 0.250000
#
# Coordination Sequence:
#
# PCOD8141392 Si02
#       5
#     4   8   8   8   8
#     4  12  18  34  62  86 120 140 196 252 290 344
#     4  11  20  36  57  92 121 147 194 243 301 350
#     4  10  22  39  58  84 115 155 209 237 281 348
#     4  10  21  36  62  88 110 156 196 250 287 338
#     4  11  22  35  57  87 123 160 186 240 303 353
#
# _framework density 18.488868
#
# number of rings (size 3 to 8) (size 9 to 14) (size 15 to 20)
#    0.000    1.333    4.444    4.000    3.111    0.000 
#    0.000    1.111    0.000    0.000    0.000    0.000 
#    0.000    0.000    0.000    0.000    0.000    0.000 
#
# Total GULP energy -223165.471228 kJ/mol
# GULP energy per Si atom -12398.081735 kJ/mol
# Density = 1.844679 g / cm^3
# Si number density = 18.488868 Si / 1000 Ang^3
#
#
#
# Elastic Constant Matrix: (Units=GPa)
#
#
# Indices 1 2 3 4 5 6 
#
# 1 64.2915 26.7658 32.7556 0.0000 0.5720 0.0000
# 2 26.7658 106.6565 44.6863 0.0000 -5.2801 0.0000
# 3 32.7556 44.6863 130.6978 0.0000 -19.3090 0.0000
# 4 0.0000 0.0000 0.0000 19.5871 0.0000 -2.4250
# 5 0.5720 -5.2801 -19.3090 0.0000 32.9236 0.0000
# 6 0.0000 0.0000 0.0000 -2.4250 0.0000 8.5928
#
#
#
# Elastic Compliance Matrix: (Units=1/GPa)
#
#
# Indices 1 2 3 4 5 6 
#
# 1 0.019035 -0.003195 -0.004163 0.000000 -0.003285 0.000000
# 2 -0.003195 0.011487 -0.003116 0.000000 0.000070 0.000000
# 3 -0.004163 -0.003116 0.010617 0.000000 0.005799 0.000000
# 4 0.000000 0.000000 0.000000 0.052902 0.000000 0.014930
# 5 -0.003285 0.000070 0.005799 0.000000 0.033843 0.000000
# 6 0.000000 0.000000 0.000000 0.014930 0.000000 0.120589
#
#
# Mechanical properties :
#
#
# Convention : Reuss Voigt Hill
#
# Bulk Modulus (GPa) = 49.53213 56.67347 53.10280
# Shear Modulus (GPa) = 18.10596 25.38326 21.74461
#
# Velocity S-wave (km/s) = 3.13276 3.70928 3.43314
# Velocity P-wave (km/s) = 6.31933 7.00459 6.67077
#
# Compressibility (1/GPa) = 0.02018892
#
# Stress axis : x y z
#
# Youngs Moduli (GPa) = 52.53546 87.05620 94.18947
#
# Poissons Ratio (x) = 0.27815 0.39215
# Poissons Ratio (y) = 0.16786 0.29352
# Poissons Ratio (z) = 0.21872 0.27129
#
# Static dielectric constant tensor:
#      x y z
#    x 3.160430 0.000000 -0.207970 
#    y 0.000000 3.233270 0.000000 
#    z -0.207970 0.000000 3.939970 
# 
# 
# High freq. dielectric constant tensor:
#      x y z
#    x 1.695540 0.000000 -0.002540 
#    y 0.000000 1.691990 0.000000 
#    z -0.002540 0.000000 1.743700 
# 
# From -- ./inp_files/29416.got.cif
#   From: 2010.06.25/outbox.cif.g09.slc.cpg/sg15_15_cif.got.tgz:29416.got - 2010.06.28 07:06:18.
