data_PCOD8141668
_publ_section_title
;
Structure prediction by ZEFSAII (Michael W. Deem and Ramdas Pophale) SiO2 
 PCOD8141668
Probable space group: C 2/C
;
_chemical_formula_sum "Si O2"
_cell_formula_units_Z 64
_cell_length_a 16.391388
_cell_length_b 8.800364
_cell_length_c 33.001494
_cell_angle_alpha 90.000000
_cell_angle_beta 140.036940
_cell_angle_gamma 90.000000
_cell_volume 3057.620308
_symmetry_space_group_name_H-M "C 2/C"
_symmetry_group_IT_number 15
_symmetry_cell_setting 'monoclinic'
loop_
_space_group_symop_operation_xyz
x,y,z
-x,y,1/2-z
-x,-y,-z
x,-y,1/2+z
1/2+x,1/2+y,z
1/2-x,1/2+y,1/2-z
1/2-x,1/2-y,-z
1/2+x,1/2-y,1/2+z
loop_
_atom_site_type_symbol
_atom_site_label
_atom_site_fract_x
_atom_site_fract_y
_atom_site_fract_z
Si Si1 0.640620 0.970469 0.106541
Si Si2 0.736875 0.262281 0.705587
Si Si3 0.061428 0.137259 0.207812
Si Si4 0.322236 0.523566 0.878825
Si Si5 0.836484 0.203840 0.168960
Si Si6 0.032057 0.732834 0.437871
Si Si7 0.211338 0.228388 0.074319
Si Si8 0.509796 0.302902 0.337360
O O1 0.707277 0.897509 0.172113
O O2 0.618902 0.837051 0.065854
O O3 0.720188 0.097407 0.112229
O O4 0.513708 0.059862 0.070935
O O5 0.659126 0.264559 0.718238
O O6 0.686115 0.402700 0.660277
O O7 0.887655 0.282451 0.771508
O O8 0.111321 0.112505 0.272183
O O9 0.927873 0.223808 0.164739
O O10 0.028978 0.978131 0.174426
O O11 0.198343 0.628611 0.829390
O O12 0.443878 0.631777 0.921266
O O13 0.317726 0.440987 0.920755
O O14 0.169002 0.756172 0.511425
O O15 0.043016 0.741873 0.394146
O O16 0.360165 0.273229 0.138545
#
# Coordination Sequence:
#
# PCOD8141668 Si02
#       8
#     8   8   8   8   8   8   8   8
#     4  10  21  39  66  91 118 162 209 257 305 371
#     4  11  23  39  63  95 125 155 204 258 326 366
#     4  11  22  38  60  89 129 159 194 256 315 378
#     4  10  23  40  64  95 122 160 203 265 312 363
#     4  10  21  37  61  89 122 157 196 248 319 366
#     4  11  23  42  64  91 125 170 212 250 306 367
#     4  11  24  42  64  90 127 169 213 252 299 373
#     4  12  24  39  64  91 130 161 205 260 312 373
#
# _framework density 20.931311000000001
#
# number of rings (size 3 to 8) (size 9 to 14) (size 15 to 20)
#    0.000    1.250    3.750    2.625    0.000    5.000 
#    0.000    0.000    0.000    1.500    0.000    0.000 
#    0.000    0.000    0.000    0.000    0.000    0.000 
#
# Total GULP energy -396534.516496 kJ/mol
# GULP energy per Si atom -12391.703641 kJ/mol
# Density = 2.088367 g / cm^3
# Si number density = 20.931311 Si / 1000 Ang^3
#
#
#
# Elastic Constant Matrix: (Units=GPa)
#
#
# Indices 1 2 3 4 5 6 
#
# 1 80.5061 29.6318 16.9957 0.0000 4.3516 0.0000
# 2 29.6318 91.0160 16.0021 0.0000 5.4615 0.0000
# 3 16.9957 16.0021 94.2241 0.0000 -1.7211 0.0000
# 4 0.0000 0.0000 0.0000 21.1782 0.0000 -0.0599
# 5 4.3516 5.4615 -1.7211 0.0000 29.1328 0.0000
# 6 0.0000 0.0000 0.0000 -0.0599 0.0000 21.0758
#
#
#
# Elastic Compliance Matrix: (Units=1/GPa)
#
#
# Indices 1 2 3 4 5 6 
#
# 1 0.014484 -0.004291 -0.001911 0.000000 -0.001472 0.000000
# 2 -0.004291 0.012744 -0.001424 0.000000 -0.001832 0.000000
# 3 -0.001911 -0.001424 0.011222 0.000000 0.001215 0.000000
# 4 0.000000 0.000000 0.000000 0.047219 0.000000 0.000134
# 5 -0.001472 -0.001832 0.001215 0.000000 0.034961 0.000000
# 6 0.000000 0.000000 0.000000 0.000134 0.000000 0.047448
#
#
# Mechanical properties :
#
#
# Convention : Reuss Voigt Hill
#
# Bulk Modulus (GPa) = 43.10619 43.44506 43.27563
# Shear Modulus (GPa) = 26.16958 27.81848 26.99403
#
# Velocity S-wave (km/s) = 3.53974 3.64955 3.59506
# Velocity P-wave (km/s) = 6.11107 6.20967 6.16057
#
# Compressibility (1/GPa) = 0.02319852
#
# Stress axis : x y z
#
# Youngs Moduli (GPa) = 69.04270 78.46563 89.11352
#
# Poissons Ratio (x) = 0.33671 0.17026
# Poissons Ratio (y) = 0.29628 0.12688
# Poissons Ratio (z) = 0.13192 0.11172
#
# Static dielectric constant tensor:
#      x y z
#    x 3.922800 0.000000 0.077160 
#    y 0.000000 3.791620 0.000000 
#    z 0.077160 0.000000 3.611250 
# 
# 
# High freq. dielectric constant tensor:
#      x y z
#    x 1.821260 0.000000 -0.000340 
#    y 0.000000 1.821580 0.000000 
#    z -0.000340 0.000000 1.804910 
# 
# From -- ./inp_files/315726.got.cif
#   From: 2010.06.25/outbox.cif.g09.slc.cpg/sg15_158_cif.got.tgz:315726.got - 2010.06.28 07:06:18.
