data_PCOD8141233
_publ_section_title
;
Structure prediction by ZEFSAII (Michael W. Deem and Ramdas Pophale) SiO2 
 PCOD8141233
Probable space group: C 2/C
;
_chemical_formula_sum "Si O2"
_cell_formula_units_Z 56
_cell_length_a 24.334892
_cell_length_b 14.528812
_cell_length_c 24.595755
_cell_angle_alpha 90.000000
_cell_angle_beta 18.864346
_cell_angle_gamma 90.000000
_cell_volume 2811.666731
_symmetry_space_group_name_H-M "C 2/C"
_symmetry_group_IT_number 15
_symmetry_cell_setting 'monoclinic'
loop_
_space_group_symop_operation_xyz
x,y,z
-x,y,1/2-z
-x,-y,-z
x,-y,1/2+z
1/2+x,1/2+y,z
1/2-x,1/2+y,1/2-z
1/2-x,1/2-y,-z
1/2+x,1/2-y,1/2+z
loop_
_atom_site_type_symbol
_atom_site_label
_atom_site_fract_x
_atom_site_fract_y
_atom_site_fract_z
Si Si1 0.225584 0.539481 0.214956
Si Si2 0.835044 0.400054 0.937458
Si Si3 0.264279 0.836849 0.257687
Si Si4 0.354000 0.850647 0.605032
Si Si5 0.149022 0.507230 0.969852
Si Si6 0.442401 0.621031 0.646458
Si Si7 0.420066 0.708506 0.881829
O O1 0.273225 0.431724 0.175796
O O2 0.236822 0.588421 0.263264
O O3 0.037372 0.553042 0.365500
O O4 0.369458 0.581143 0.040909
O O5 0.829473 0.306022 0.979890
O O6 0.000000 0.428999 0.750000
O O7 0.799314 0.481144 0.014851
O O8 0.691715 0.383603 0.025226
O O9 0.240459 0.746289 0.317462
O O10 0.124697 0.819698 0.341223
O O11 0.452270 0.837538 0.056866
O O12 0.357451 0.900954 0.542901
O O13 0.297294 0.546034 0.792587
O O14 0.451117 0.687201 0.690583
O O15 0.500000 0.738707 0.750000
#
# Coordination Sequence:
#
# PCOD8141233 Si02
#       7
#     8   8   8   8   8   8   8
#     4  11  23  40  56  89 122 157 208 241 298 368
#     4  10  21  38  57  81 122 155 194 256 291 356
#     4  11  23  39  59  85 127 161 201 251 292 355
#     4  11  23  40  58  89 120 162 207 246 296 366
#     4  11  22  39  59  83 122 157 202 249 300 351
#     4  12  22  36  63  86 122 170 194 241 304 357
#     4  10  21  36  54  86 117 152 204 236 290 363
#
# _framework density 19.917012
#
# number of rings (size 3 to 8) (size 9 to 14) (size 15 to 20)
#    0.000    1.143    4.286    3.000    4.000    1.143 
#    0.000    0.000    0.000    0.000    0.000   10.000 
#    0.000    0.143    0.000    0.000    0.000    0.000 
#
# Total GULP energy -346932.530623 kJ/mol
# GULP energy per Si atom -12390.447522 kJ/mol
# Density = 1.987168 g / cm^3
# Si number density = 19.917012 Si / 1000 Ang^3
#
#
#
# Elastic Constant Matrix: (Units=GPa)
#
#
# Indices 1 2 3 4 5 6 
#
# 1 81.2545 27.0370 15.2432 -0.0145 1.2647 0.0037
# 2 27.0370 94.3435 23.8530 0.0521 9.8255 -0.0138
# 3 15.2432 23.8530 102.4818 0.1118 4.2984 -0.0182
# 4 -0.0145 0.0521 0.1118 29.9432 -0.0188 1.5396
# 5 1.2647 9.8255 4.2984 -0.0188 27.6214 -0.0041
# 6 0.0037 -0.0138 -0.0182 1.5396 -0.0041 23.4845
#
#
#
# Elastic Compliance Matrix: (Units=1/GPa)
#
#
# Indices 1 2 3 4 5 6 
#
# 1 0.013762 -0.003729 -0.001216 0.000019 0.000886 -0.000006
# 2 -0.003729 0.012644 -0.002221 -0.000018 -0.003981 0.000007
# 3 -0.001216 -0.002221 0.010489 -0.000037 -0.000786 0.000009
# 4 0.000019 -0.000018 -0.000037 0.033510 0.000034 -0.002197
# 5 0.000886 -0.003981 -0.000786 0.000034 0.037702 0.000001
# 6 -0.000006 0.000007 0.000009 -0.002197 0.000001 0.042725
#
#
# Mechanical properties :
#
#
# Convention : Reuss Voigt Hill
#
# Bulk Modulus (GPa) = 44.32112 45.59402 44.95757
# Shear Modulus (GPa) = 28.95428 30.33958 29.64693
#
# Velocity S-wave (km/s) = 3.81694 3.90718 3.86232
# Velocity P-wave (km/s) = 6.45961 6.58000 6.52009
#
# Compressibility (1/GPa) = 0.02256261
#
# Stress axis : x y z
#
# Youngs Moduli (GPa) = 72.66329 79.08621 95.33969
#
# Poissons Ratio (x) = 0.29489 0.11596
# Poissons Ratio (y) = 0.27094 0.21179
# Poissons Ratio (z) = 0.08838 0.17568
#
# Static dielectric constant tensor:
#      x y z
#    x 3.429210 -0.000050 -0.125910 
#    y -0.000050 3.486520 0.000130 
#    z -0.125910 0.000130 3.784330 
# 
# 
# High freq. dielectric constant tensor:
#      x y z
#    x 1.752250 0.000000 -0.005690 
#    y 0.000000 1.749860 0.000010 
#    z -0.005690 0.000010 1.797170 
# 
# From -- ./inp_files/282083.got.cif
#   From: 2010.06.25/outbox.cif.g09.slc.cpg/sg15_142_cif.got.tgz:282083.got - 2010.06.28 07:06:18.
