data_PCOD8141045
_publ_section_title
;
Structure prediction by ZEFSAII (Michael W. Deem and Ramdas Pophale) SiO2 
 PCOD8141045
Probable space group: C 2/C
;
_chemical_formula_sum "Si O2"
_cell_formula_units_Z 64
_cell_length_a 20.769849
_cell_length_b 23.145308
_cell_length_c 8.486625
_cell_angle_alpha 90.000000
_cell_angle_beta 65.883671
_cell_angle_gamma 90.000000
_cell_volume 3723.641150
_symmetry_space_group_name_H-M "C 2/C"
_symmetry_group_IT_number 15
_symmetry_cell_setting 'monoclinic'
loop_
_space_group_symop_operation_xyz
x,y,z
-x,y,1/2-z
-x,-y,-z
x,-y,1/2+z
1/2+x,1/2+y,z
1/2-x,1/2+y,1/2-z
1/2-x,1/2-y,-z
1/2+x,1/2-y,1/2+z
loop_
_atom_site_type_symbol
_atom_site_label
_atom_site_fract_x
_atom_site_fract_y
_atom_site_fract_z
Si Si1 0.852772 0.225230 0.081117
Si Si2 0.777393 0.333150 0.655986
Si Si3 0.777422 0.666864 0.789242
Si Si4 0.852741 0.774757 0.213395
Si Si5 0.144226 0.436278 0.421026
Si Si6 0.500006 0.126252 0.433064
Si Si7 0.855762 0.436282 0.709526
Si Si8 0.999988 0.752037 0.934135
O O1 0.804074 0.179563 0.222455
O O2 0.828124 0.290596 0.140388
O O3 0.932649 0.217071 0.056475
O O4 0.846138 0.212833 0.903873
O O5 0.791178 0.322239 0.458852
O O6 0.828073 0.290610 0.703520
O O7 0.795715 0.398307 0.685204
O O8 0.695963 0.679582 0.830542
O O9 0.795742 0.601709 0.723376
O O10 0.932606 0.782913 0.078221
O O11 0.157960 0.435830 0.592021
O O12 0.151199 0.499996 0.348770
O O13 0.067428 0.411853 0.454536
O O14 0.500000 0.144548 0.250000
O O15 0.567450 0.088156 0.410577
O O16 0.500006 0.183687 0.536229
O O17 0.000000 0.763785 0.750000
#
# Coordination Sequence:
#
# PCOD8141045 Si02
#       8
#     8   8   8   8   8   8   8   8
#     4  11  21  35  54  76 105 139 174 216 268 320
#     4  11  21  35  53  77 104 136 178 222 266 313
#     4  11  21  35  53  77 104 136 178 222 266 313
#     4  11  21  35  54  76 105 139 174 216 268 320
#     4  11  22  36  53  75 105 144 185 223 265 312
#     4  10  21  35  51  72 106 144 182 219 260 309
#     4  11  22  36  53  75 105 144 185 223 265 312
#     4  12  22  33  53  80 108 140 177 217 264 317
#
# _framework density 17.187477999999999
#
# number of rings (size 3 to 8) (size 9 to 14) (size 15 to 20)
#    0.000    1.000    2.500    8.250    0.000    1.000 
#    0.000    0.000    0.000    0.000    0.000    0.875 
#    0.000    0.000    0.000    0.000    0.000    0.000 
#
# Total GULP energy -397009.198558 kJ/mol
# GULP energy per Si atom -12406.537455 kJ/mol
# Density = 1.714836 g / cm^3
# Si number density = 17.187478 Si / 1000 Ang^3
#
#
#
# Elastic Constant Matrix: (Units=GPa)
#
#
# Indices 1 2 3 4 5 6 
#
# 1 106.1483 40.0818 35.1440 0.0000 -11.3319 0.0000
# 2 40.0818 80.5948 27.5820 0.0000 -9.0957 0.0000
# 3 35.1440 27.5820 90.7125 0.0000 0.0759 0.0000
# 4 0.0000 0.0000 0.0000 27.6401 0.0000 1.3922
# 5 -11.3319 -9.0957 0.0759 0.0000 36.0303 0.0000
# 6 0.0000 0.0000 0.0000 1.3922 0.0000 25.7188
#
#
#
# Elastic Compliance Matrix: (Units=1/GPa)
#
#
# Indices 1 2 3 4 5 6 
#
# 1 0.012676 -0.004809 -0.003451 0.000000 0.002780 0.000000
# 2 -0.004809 0.016131 -0.003044 0.000000 0.002566 0.000000
# 3 -0.003451 -0.003044 0.013288 0.000000 -0.001882 0.000000
# 4 0.000000 0.000000 0.000000 0.036278 0.000000 -0.001964
# 5 0.002780 0.002566 -0.001882 0.000000 0.029280 0.000000
# 6 0.000000 0.000000 0.000000 -0.001964 0.000000 0.038988
#
#
# Mechanical properties :
#
#
# Convention : Reuss Voigt Hill
#
# Bulk Modulus (GPa) = 51.31685 53.67459 52.49572
# Shear Modulus (GPa) = 28.45025 29.52104 28.98564
#
# Velocity S-wave (km/s) = 4.07294 4.14888 4.11108
# Velocity P-wave (km/s) = 7.21390 7.36530 7.28999
#
# Compressibility (1/GPa) = 0.01948678
#
# Stress axis : x y z
#
# Youngs Moduli (GPa) = 78.88821 61.99324 75.25680
#
# Poissons Ratio (x) = 0.29815 0.25971
# Poissons Ratio (y) = 0.37941 0.22905
# Poissons Ratio (z) = 0.27224 0.18868
#
# Static dielectric constant tensor:
#      x y z
#    x 3.385950 0.000000 -0.034290 
#    y 0.000000 2.961800 0.000000 
#    z -0.034290 0.000000 3.338840 
# 
# 
# High freq. dielectric constant tensor:
#      x y z
#    x 1.668600 0.000000 0.008190 
#    y 0.000000 1.632070 0.000000 
#    z 0.008190 0.000000 1.679860 
# 
# From -- ./inp_files/57857.got.cif
#   From: 2010.06.25/outbox.cif.g09.slc.cpg/sg15_29_cif.got.tgz:57857.got - 2010.06.28 07:06:18.
