data_PCOD8141955
_publ_section_title
;
Structure prediction by ZEFSAII (Michael W. Deem and Ramdas Pophale) SiO2 
 PCOD8141955
Probable space group: C 2/C
;
_chemical_formula_sum "Si O2"
_cell_formula_units_Z 56
_cell_length_a 25.575954
_cell_length_b 19.692262
_cell_length_c 9.053060
_cell_angle_alpha 90.000000
_cell_angle_beta 142.221722
_cell_angle_gamma 90.000000
_cell_volume 2793.219834
_symmetry_space_group_name_H-M "C 2/C"
_symmetry_group_IT_number 15
_symmetry_cell_setting 'monoclinic'
loop_
_space_group_symop_operation_xyz
x,y,z
-x,y,1/2-z
-x,-y,-z
x,-y,1/2+z
1/2+x,1/2+y,z
1/2-x,1/2+y,1/2-z
1/2-x,1/2-y,-z
1/2+x,1/2-y,1/2+z
loop_
_atom_site_type_symbol
_atom_site_label
_atom_site_fract_x
_atom_site_fract_y
_atom_site_fract_z
Si Si1 0.415187 0.672182 0.643433
Si Si2 0.822001 0.490238 0.589597
Si Si3 0.343339 0.227240 0.752853
Si Si4 0.973611 0.199927 0.357156
Si Si5 0.554371 0.451590 0.725959
Si Si6 0.292781 0.546632 0.405485
Si Si7 0.902267 0.414387 0.497291
O O1 0.500000 0.645026 0.750000
O O2 0.369237 0.730541 0.452590
O O3 0.352418 0.610849 0.530184
O O4 0.440020 0.706100 0.854773
O O5 0.767542 0.544833 0.373329
O O6 0.760566 0.448737 0.562552
O O7 0.863356 0.437863 0.566768
O O8 0.893131 0.527759 0.850091
O O9 0.250000 0.250000 0.500000
O O10 0.405897 0.242931 0.754876
O O11 0.349992 0.149089 0.815801
O O12 0.934299 0.125319 0.306711
O O13 0.000000 0.214053 0.250000
O O14 0.500000 0.445422 0.750000
O O15 0.500000 0.500000 0.500000
O O16 0.649423 0.478895 0.964265
O O17 0.000000 0.396094 0.750000
#
# Coordination Sequence:
#
# PCOD8141955 Si02
#       7
#     8   8   8   8   8   8   8
#     4  10  21  38  59  88 127 173 210 249 306 395
#     4  10  25  38  65  95 124 157 215 281 319 378
#     4  11  25  43  68  91 128 169 212 267 326 391
#     4  10  23  39  59  92 130 168 217 249 307 386
#     4  11  21  32  56  93 131 182 203 246 299 381
#     4  11  21  35  57  93 135 163 210 259 321 360
#     4  11  23  48  69  92 119 166 215 270 336 379
#
# _framework density 20.048546999999999
#
# number of rings (size 3 to 8) (size 9 to 14) (size 15 to 20)
#    0.000    1.429    1.429    3.857   12.000    0.000 
#    0.000   10.714    0.000    0.000    0.000    0.000 
#    0.000    0.000    0.000    0.000    0.000    0.000 
#
# Total GULP energy -347177.296265 kJ/mol
# GULP energy per Si atom -12399.189152 kJ/mol
# Density = 2.000292 g / cm^3
# Si number density = 20.048547 Si / 1000 Ang^3
#
#
#
# Elastic Constant Matrix: (Units=GPa)
#
#
# Indices 1 2 3 4 5 6 
#
# 1 110.2117 53.5315 55.3480 0.0000 -17.1631 0.0000
# 2 53.5315 97.2837 22.3352 0.0000 -1.4006 0.0000
# 3 55.3480 22.3352 104.0338 0.0000 -6.3803 0.0000
# 4 0.0000 0.0000 0.0000 36.9503 0.0000 -0.9090
# 5 -17.1631 -1.4006 -6.3803 0.0000 36.8243 0.0000
# 6 0.0000 0.0000 0.0000 -0.9090 0.0000 29.9652
#
#
#
# Elastic Compliance Matrix: (Units=1/GPa)
#
#
# Indices 1 2 3 4 5 6 
#
# 1 0.017600 -0.007923 -0.007255 0.000000 0.006645 0.000000
# 2 -0.007923 0.014379 0.000945 0.000000 -0.002982 0.000000
# 3 -0.007255 0.000945 0.013204 0.000000 -0.001058 0.000000
# 4 0.000000 0.000000 0.000000 0.027084 0.000000 0.000822
# 5 0.006645 -0.002982 -0.001058 0.000000 0.029956 0.000000
# 6 0.000000 0.000000 0.000000 0.000822 0.000000 0.033397
#
#
# Mechanical properties :
#
#
# Convention : Reuss Voigt Hill
#
# Bulk Modulus (GPa) = 59.81735 63.77320 61.79527
# Shear Modulus (GPa) = 29.47090 32.76893 31.11991
#
# Velocity S-wave (km/s) = 3.83819 4.04726 3.94411
# Velocity P-wave (km/s) = 7.03870 7.32931 7.18547
#
# Compressibility (1/GPa) = 0.01671756
#
# Stress axis : x y z
#
# Youngs Moduli (GPa) = 56.81761 69.54513 75.73327
#
# Poissons Ratio (x) = 0.55103 0.54945
# Poissons Ratio (y) = 0.45019 -0.07160
# Poissons Ratio (z) = 0.41221 -0.06575
#
# Static dielectric constant tensor:
#      x y z
#    x 3.637190 0.000000 -0.087420 
#    y 0.000000 3.791650 0.000000 
#    z -0.087420 0.000000 4.116280 
# 
# 
# High freq. dielectric constant tensor:
#      x y z
#    x 1.783090 0.000000 -0.011550 
#    y 0.000000 1.770070 0.000000 
#    z -0.011550 0.000000 1.803060 
# 
# From -- ./inp_files/67200.got.cif
#   From: 2010.06.25/outbox.cif.g09.slc.cpg/sg15_34_cif.got.tgz:67200.got - 2010.06.28 07:06:18.
