data_PCOD8141077
_publ_section_title
;
Structure prediction by ZEFSAII (Michael W. Deem and Ramdas Pophale) SiO2 
 PCOD8141077
Probable space group: C 2/C
;
_chemical_formula_sum "Si O2"
_cell_formula_units_Z 28
_cell_length_a 16.377853
_cell_length_b 18.128507
_cell_length_c 5.154765
_cell_angle_alpha 90.000000
_cell_angle_beta 125.155262
_cell_angle_gamma 90.000000
_cell_volume 1251.313034
_symmetry_space_group_name_H-M "C 2/C"
_symmetry_group_IT_number 15
_symmetry_cell_setting 'monoclinic'
loop_
_space_group_symop_operation_xyz
x,y,z
-x,y,1/2-z
-x,-y,-z
x,-y,1/2+z
1/2+x,1/2+y,z
1/2-x,1/2+y,1/2-z
1/2-x,1/2-y,-z
1/2+x,1/2-y,1/2+z
loop_
_atom_site_type_symbol
_atom_site_label
_atom_site_fract_x
_atom_site_fract_y
_atom_site_fract_z
Si Si1 0.500000 0.948086 0.250000
Si Si2 0.182337 0.337093 0.641889
Si Si3 0.309395 0.328503 0.377664
Si Si4 0.610091 0.530145 0.650004
O O1 0.596053 0.895504 0.431263
O O2 0.500000 0.000000 0.500000
O O3 0.270072 0.348475 0.592008
O O4 0.143063 0.252841 0.537841
O O5 0.220934 0.342534 0.007344
O O6 0.396215 0.385363 0.453878
O O7 0.500000 0.500000 0.500000
O O8 0.667045 0.482386 0.528280
#
# Coordination Sequence:
#
# PCOD8141077 Si02
#       4
#     4   8   8   8
#     4  12  26  42  62  92 126 162 210 260 310 362
#     4  10  23  41  63  87 117 163 206 253 301 359
#     4  10  21  41  64  88 119 158 206 247 305 371
#     4  10  21  35  55  89 123 152 187 237 302 364
#
# _framework density 22.376497000000001
#
# number of rings (size 3 to 8) (size 9 to 14) (size 15 to 20)
#    0.000    1.714    0.000    3.429    0.000    9.143 
#    0.000    8.571    0.000    0.000    0.000    0.000 
#    0.000    0.000    0.000    0.000    0.000    0.000 
#
# Total GULP energy -173459.999555 kJ/mol
# GULP energy per Si atom -12389.999968 kJ/mol
# Density = 2.232557 g / cm^3
# Si number density = 22.376497 Si / 1000 Ang^3
#
#
#
# Elastic Constant Matrix: (Units=GPa)
#
#
# Indices 1 2 3 4 5 6 
#
# 1 85.9584 77.8233 39.1710 0.0000 -25.9325 0.0000
# 2 77.8233 190.8563 48.7570 0.0000 -4.6268 0.0000
# 3 39.1710 48.7570 97.7736 0.0000 -32.2152 0.0000
# 4 0.0000 0.0000 0.0000 44.8339 0.0000 3.4139
# 5 -25.9325 -4.6268 -32.2152 0.0000 51.0194 0.0000
# 6 0.0000 0.0000 0.0000 3.4139 0.0000 51.0968
#
#
#
# Elastic Compliance Matrix: (Units=1/GPa)
#
#
# Indices 1 2 3 4 5 6 
#
# 1 0.023505 -0.008921 -0.001639 0.000000 0.010103 0.000000
# 2 -0.008921 0.009509 -0.003003 0.000000 -0.005568 0.000000
# 3 -0.001639 -0.003003 0.015175 0.000000 0.008476 0.000000
# 4 0.000000 0.000000 0.000000 0.022419 0.000000 -0.001498
# 5 0.010103 -0.005568 0.008476 0.000000 0.029583 0.000000
# 6 0.000000 0.000000 0.000000 -0.001498 0.000000 0.019671
#
#
# Mechanical properties :
#
#
# Convention : Reuss Voigt Hill
#
# Bulk Modulus (GPa) = 47.47594 78.45453 62.96523
# Shear Modulus (GPa) = 32.46602 43.31248 37.88925
#
# Velocity S-wave (km/s) = 3.81320 4.40435 4.11939
# Velocity P-wave (km/s) = 6.37575 7.81035 7.12923
#
# Compressibility (1/GPa) = 0.02106330
#
# Stress axis : x y z
#
# Youngs Moduli (GPa) = 42.54427 105.16278 65.89958
#
# Poissons Ratio (x) = 0.93811 0.10804
# Poissons Ratio (y) = 0.37952 0.19787
# Poissons Ratio (z) = 0.06975 0.31576
#
# Static dielectric constant tensor:
#      x y z
#    x 3.600040 0.000000 0.078600 
#    y 0.000000 4.469850 0.000000 
#    z 0.078600 0.000000 2.614630 
# 
# 
# High freq. dielectric constant tensor:
#      x y z
#    x 1.864410 0.000000 -0.043690 
#    y 0.000000 1.905990 0.000000 
#    z -0.043690 0.000000 1.888430 
# 
# From -- ./inp_files/6339.got.cif
#   From: 2010.06.25/outbox.cif.g09.slc.cpg/sg15_4_cif.got.tgz:6339.got - 2010.06.28 07:06:18.
