data_PCOD8141626
_publ_section_title
;
Structure prediction by ZEFSAII (Michael W. Deem and Ramdas Pophale) SiO2 
 PCOD8141626
Probable space group: C 2/C
;
_chemical_formula_sum "Si O2"
_cell_formula_units_Z 40
_cell_length_a 15.253089
_cell_length_b 15.070297
_cell_length_c 8.592853
_cell_angle_alpha 90.000000
_cell_angle_beta 69.102563
_cell_angle_gamma 90.000000
_cell_volume 1845.297354
_symmetry_space_group_name_H-M "C 2/C"
_symmetry_group_IT_number 15
_symmetry_cell_setting 'monoclinic'
loop_
_space_group_symop_operation_xyz
x,y,z
-x,y,1/2-z
-x,-y,-z
x,-y,1/2+z
1/2+x,1/2+y,z
1/2-x,1/2+y,1/2-z
1/2-x,1/2-y,-z
1/2+x,1/2-y,1/2+z
loop_
_atom_site_type_symbol
_atom_site_label
_atom_site_fract_x
_atom_site_fract_y
_atom_site_fract_z
Si Si1 0.675850 0.401019 0.733914
Si Si2 0.452542 0.121464 0.431380
Si Si3 0.067832 0.960853 0.084419
Si Si4 0.629456 0.939178 0.010800
Si Si5 0.102512 0.714588 0.751147
O O1 0.618355 0.462357 0.651221
O O2 0.784010 0.430930 0.662717
O O3 0.667427 0.299833 0.680220
O O4 0.642774 0.404515 0.936643
O O5 0.500000 0.165097 0.250000
O O6 0.532602 0.087399 0.495190
O O7 0.397716 0.196699 0.562389
O O8 0.383659 0.040742 0.423317
O O9 0.000000 0.906678 0.250000
O O10 0.000000 0.000000 0.000000
O O11 0.647246 0.873565 0.145227
O O12 0.000000 0.737627 0.750000
#
# Coordination Sequence:
#
# PCOD8141626 Si02
#       5
#     8   8   8   8   8
#     4  11  22  37  64  91 118 157 213 248 297 360
#     4  10  21  38  62  87 127 159 199 248 313 353
#     4   9  20  38  57  84 120 160 198 245 304 362
#     4  10  21  37  60  91 120 159 203 249 302 367
#     4  10  21  39  61  86 123 165 198 247 305 365
#
# _framework density 21.676724
#
# number of rings (size 3 to 8) (size 9 to 14) (size 15 to 20)
#    0.000    2.000    0.000    5.400    5.600    0.800 
#    0.000    3.000    0.000    0.000    0.000    0.000 
#    0.000    0.000    0.000    0.000    0.000    0.000 
#
# Total GULP energy -247830.516629 kJ/mol
# GULP energy per Si atom -12391.525831 kJ/mol
# Density = 2.162739 g / cm^3
# Si number density = 21.676724 Si / 1000 Ang^3
#
#
#
# Elastic Constant Matrix: (Units=GPa)
#
#
# Indices 1 2 3 4 5 6 
#
# 1 40.1261 28.7065 16.6300 0.0000 -19.5489 0.0000
# 2 28.7065 91.6843 34.8784 0.0000 0.8813 0.0000
# 3 16.6300 34.8784 150.0393 0.0000 -14.9978 0.0000
# 4 0.0000 0.0000 0.0000 33.0875 0.0000 -3.4870
# 5 -19.5489 0.8813 -14.9978 0.0000 37.4110 0.0000
# 6 0.0000 0.0000 0.0000 -3.4870 0.0000 17.2519
#
#
#
# Elastic Compliance Matrix: (Units=1/GPa)
#
#
# Indices 1 2 3 4 5 6 
#
# 1 0.048578 -0.015803 0.000900 0.000000 0.026117 0.000000
# 2 -0.015803 0.017183 -0.003238 0.000000 -0.009961 0.000000
# 3 0.000900 -0.003238 0.007680 0.000000 0.003626 0.000000
# 4 0.000000 0.000000 0.000000 0.030881 0.000000 0.006242
# 5 0.026117 -0.009961 0.003626 0.000000 0.042066 0.000000
# 6 0.000000 0.000000 0.000000 0.006242 0.000000 0.059226
#
#
# Mechanical properties :
#
#
# Convention : Reuss Voigt Hill
#
# Bulk Modulus (GPa) = 26.91220 49.14219 38.02719
# Shear Modulus (GPa) = 19.66311 30.99240 25.32775
#
# Velocity S-wave (km/s) = 3.01509 3.78531 3.42194
# Velocity P-wave (km/s) = 4.95613 6.46719 5.76141
#
# Compressibility (1/GPa) = 0.03715787
#
# Stress axis : x y z
#
# Youngs Moduli (GPa) = 20.58537 58.19790 130.20189
#
# Poissons Ratio (x) = 0.91972 -0.11719
# Poissons Ratio (y) = 0.32532 0.42165
# Poissons Ratio (z) = -0.01853 0.18847
#
# Static dielectric constant tensor:
#      x y z
#    x 3.705500 0.000000 -0.283270 
#    y 0.000000 3.680620 0.000000 
#    z -0.283270 0.000000 4.836430 
# 
# 
# High freq. dielectric constant tensor:
#      x y z
#    x 1.831650 0.000000 -0.010070 
#    y 0.000000 1.825180 0.000000 
#    z -0.010070 0.000000 1.872070 
# 
# From -- ./inp_files/37824.got.cif
#   From: 2010.06.25/outbox.cif.g09.slc.cpg/sg15_19_cif.got.tgz:37824.got - 2010.06.28 07:06:18.
