data_PCOD8141793
_publ_section_title
;
Structure prediction by ZEFSAII (Michael W. Deem and Ramdas Pophale) SiO2 
 PCOD8141793
Probable space group: C 2/C
;
_chemical_formula_sum "Si O2"
_cell_formula_units_Z 52
_cell_length_a 11.473942
_cell_length_b 24.570038
_cell_length_c 8.175757
_cell_angle_alpha 90.000000
_cell_angle_beta 87.219671
_cell_angle_gamma 90.000000
_cell_volume 2302.156917
_symmetry_space_group_name_H-M "C 2/C"
_symmetry_group_IT_number 15
_symmetry_cell_setting 'monoclinic'
loop_
_space_group_symop_operation_xyz
x,y,z
-x,y,1/2-z
-x,-y,-z
x,-y,1/2+z
1/2+x,1/2+y,z
1/2-x,1/2+y,1/2-z
1/2-x,1/2-y,-z
1/2+x,1/2-y,1/2+z
loop_
_atom_site_type_symbol
_atom_site_label
_atom_site_fract_x
_atom_site_fract_y
_atom_site_fract_z
Si Si1 0.264989 0.476106 0.168794
Si Si2 0.582177 0.155212 0.497633
Si Si3 0.847097 0.624659 0.662229
Si Si4 0.500000 0.359690 0.750000
Si Si5 0.500000 0.573763 0.750000
Si Si6 0.500000 0.242356 0.250000
Si Si7 0.734432 0.579672 0.161533
Si Si8 0.615014 0.332867 0.053994
O O1 0.182500 0.436738 0.282309
O O2 0.399123 0.466113 0.201672
O O3 0.240082 0.540985 0.184314
O O4 0.247819 0.463985 0.981870
O O5 0.464365 0.122126 0.547497
O O6 0.644877 0.162193 0.671350
O O7 0.550696 0.210067 0.402400
O O8 0.666182 0.125083 0.363048
O O9 0.751229 0.651649 0.549121
O O10 0.395622 0.395976 0.832434
O O11 0.564552 0.320120 0.876769
O O12 0.541468 0.613586 0.603569
O O13 0.398664 0.281433 0.326036
#
# Coordination Sequence:
#
# PCOD8141793 Si02
#       8
#     8   8   8   4   4   4   8   8
#     4  10  21  37  64  98 132 181 217 264 332 397
#     4  10  24  46  65 100 136 177 224 282 320 398
#     4   9  22  46  71  92 140 178 221 274 332 394
#     4  12  25  42  67 102 138 171 220 285 334 400
#     4   9  17  38  60  92 134 162 218 276 324 386
#     4  11  26  44  71 100 128 173 228 281 344 390
#     4  11  25  40  64 100 137 178 223 272 329 395
#     4  10  23  43  69  98 130 175 220 284 336 395
#
# _framework density 22.587513000000001
#
# number of rings (size 3 to 8) (size 9 to 14) (size 15 to 20)
#    0.000    1.846    1.538    0.462    8.615    4.308 
#    0.000    1.538    0.000    0.000    0.000    0.000 
#    0.000    0.000    0.000    0.000    0.000    0.000 
#
# Total GULP energy -322186.016682 kJ/mol
# GULP energy per Si atom -12391.769872 kJ/mol
# Density = 2.253610 g / cm^3
# Si number density = 22.587513 Si / 1000 Ang^3
#
#
#
# Elastic Constant Matrix: (Units=GPa)
#
#
# Indices 1 2 3 4 5 6 
#
# 1 133.9042 35.4430 37.1189 0.0000 -16.0999 0.0000
# 2 35.4430 70.9146 10.6143 0.0000 -12.9294 0.0000
# 3 37.1189 10.6143 49.9507 0.0000 -1.2924 0.0000
# 4 0.0000 0.0000 0.0000 35.6538 0.0000 11.8327
# 5 -16.0999 -12.9294 -1.2924 0.0000 42.1635 0.0000
# 6 0.0000 0.0000 0.0000 11.8327 0.0000 13.0764
#
#
#
# Elastic Compliance Matrix: (Units=1/GPa)
#
#
# Indices 1 2 3 4 5 6 
#
# 1 0.010785 -0.003826 -0.007131 0.000000 0.002727 0.000000
# 2 -0.003826 0.016776 -0.000627 0.000000 0.003664 0.000000
# 3 -0.007131 -0.000627 0.025397 0.000000 -0.002137 0.000000
# 4 0.000000 0.000000 0.000000 0.040086 0.000000 -0.036273
# 5 0.002727 0.003664 -0.002137 0.000000 0.025816 0.000000
# 6 0.000000 0.000000 0.000000 -0.036273 0.000000 0.109297
#
#
# Mechanical properties :
#
#
# Convention : Reuss Voigt Hill
#
# Bulk Modulus (GPa) = 33.56843 46.79130 40.17987
# Shear Modulus (GPa) = 19.13843 29.61830 24.37836
#
# Velocity S-wave (km/s) = 2.91400 3.62507 3.28881
# Velocity P-wave (km/s) = 5.12012 6.18725 5.67881
#
# Compressibility (1/GPa) = 0.02978990
#
# Stress axis : x y z
#
# Youngs Moduli (GPa) = 92.71848 59.61052 39.37492
#
# Poissons Ratio (x) = 0.22807 0.28079
# Poissons Ratio (y) = 0.35474 0.02468
# Poissons Ratio (z) = 0.66119 0.03736
#
# Static dielectric constant tensor:
#      x y z
#    x 4.130130 0.000000 -0.044070 
#    y 0.000000 3.873710 0.000000 
#    z -0.044070 0.000000 4.259460 
# 
# 
# High freq. dielectric constant tensor:
#      x y z
#    x 1.892890 0.000000 -0.001860 
#    y 0.000000 1.868980 0.000000 
#    z -0.001860 0.000000 1.901540 
# 
# From -- ./inp_files/33586.got.cif
#   From: 2010.06.25/outbox.cif.g09.slc.cpg/sg15_17_cif.got.tgz:33586.got - 2010.06.28 07:06:18.
