data_PCOD8141438
_publ_section_title
;
Structure prediction by ZEFSAII (Michael W. Deem and Ramdas Pophale) SiO2 
 PCOD8141438
Probable space group: C 2/C
;
_chemical_formula_sum "Si O2"
_cell_formula_units_Z 56
_cell_length_a 11.108577
_cell_length_b 18.266944
_cell_length_c 17.985894
_cell_angle_alpha 90.000000
_cell_angle_beta 47.855067
_cell_angle_gamma 90.000000
_cell_volume 2706.064447
_symmetry_space_group_name_H-M "C 2/C"
_symmetry_group_IT_number 15
_symmetry_cell_setting 'monoclinic'
loop_
_space_group_symop_operation_xyz
x,y,z
-x,y,1/2-z
-x,-y,-z
x,-y,1/2+z
1/2+x,1/2+y,z
1/2-x,1/2+y,1/2-z
1/2-x,1/2-y,-z
1/2+x,1/2-y,1/2+z
loop_
_atom_site_type_symbol
_atom_site_label
_atom_site_fract_x
_atom_site_fract_y
_atom_site_fract_z
Si Si1 0.156655 0.216126 0.401021
Si Si2 0.500000 0.160107 0.750000
Si Si3 0.798907 0.632864 0.566313
Si Si4 0.800621 0.572483 0.722294
Si Si5 0.405403 0.914526 0.638977
Si Si6 0.758609 0.768192 0.795482
Si Si7 0.500000 0.154656 0.250000
Si Si8 0.013958 0.147483 0.903313
O O1 0.119018 0.287058 0.467204
O O2 0.123817 0.224410 0.326241
O O3 0.346888 0.203207 0.334733
O O4 0.044348 0.153623 0.485905
O O5 0.463314 0.106523 0.694459
O O6 0.347873 0.217304 0.820808
O O7 0.752191 0.619204 0.670721
O O8 0.639872 0.626737 0.582474
O O9 0.937834 0.577337 0.479158
O O10 0.814677 0.491094 0.684905
O O11 0.648289 0.582209 0.842025
O O12 0.284221 0.850313 0.658802
O O13 0.460874 0.897517 0.698412
O O14 0.594456 0.724178 0.841633
#
# Coordination Sequence:
#
# PCOD8141438 Si02
#       8
#     8   4   8   8   8   8   4   8
#     4  11  19  35  63 101 116 155 207 274 324 366
#     4  10  21  46  62  83 132 188 216 244 323 400
#     4  12  20  37  65  96 129 155 214 272 331 377
#     4  11  25  40  63  88 134 176 212 262 322 390
#     4  11  22  40  62  96 127 171 212 268 329 381
#     4  10  22  39  66  93 126 168 216 266 312 385
#     4  10  21  36  64  91 134 152 204 270 325 382
#     4  11  21  38  64  97 124 158 212 270 325 377
#
# _framework density 20.69426
#
# number of rings (size 3 to 8) (size 9 to 14) (size 15 to 20)
#    0.000    1.143    5.714    3.429    0.000    0.000 
#    2.571    9.286    6.286    0.000    0.000    0.000 
#    0.000    0.000    0.000    0.000    0.000    0.000 
#
# Total GULP energy -346886.763369 kJ/mol
# GULP energy per Si atom -12388.812977 kJ/mol
# Density = 2.064716 g / cm^3
# Si number density = 20.694260 Si / 1000 Ang^3
#
#
#
# Elastic Constant Matrix: (Units=GPa)
#
#
# Indices 1 2 3 4 5 6 
#
# 1 69.8479 34.7934 22.4121 0.0026 -3.7348 -0.0009
# 2 34.7934 101.0854 37.0185 0.0075 -23.4355 -0.0037
# 3 22.4121 37.0185 122.0902 0.0118 -13.9742 -0.0069
# 4 0.0026 0.0075 0.0118 15.1318 -0.0065 2.6886
# 5 -3.7348 -23.4355 -13.9742 -0.0065 25.0124 0.0033
# 6 -0.0009 -0.0037 -0.0069 2.6886 0.0033 23.1800
#
#
#
# Elastic Compliance Matrix: (Units=1/GPa)
#
#
# Indices 1 2 3 4 5 6 
#
# 1 0.017918 -0.006536 -0.001818 0.000000 -0.004465 0.000000
# 2 -0.006536 0.015876 -0.002161 0.000000 0.012692 0.000000
# 3 -0.001818 -0.002161 0.009526 -0.000005 0.003026 0.000003
# 4 0.000000 0.000000 -0.000005 0.067476 0.000016 -0.007826
# 5 -0.004465 0.012692 0.003026 0.000016 0.052896 -0.000006
# 6 0.000000 0.000000 0.000003 -0.007826 -0.000006 0.044048
#
#
# Mechanical properties :
#
#
# Convention : Reuss Voigt Hill
#
# Bulk Modulus (GPa) = 44.86688 53.49683 49.18185
# Shear Modulus (GPa) = 21.16833 25.91814 23.54324
#
# Velocity S-wave (km/s) = 3.20176 3.54281 3.37660
# Velocity P-wave (km/s) = 5.94948 6.53012 6.24655
#
# Compressibility (1/GPa) = 0.02228816
#
# Stress axis : x y z
#
# Youngs Moduli (GPa) = 55.81132 62.98642 104.97520
#
# Poissons Ratio (x) = 0.41171 0.19087
# Poissons Ratio (y) = 0.36481 0.22688
# Poissons Ratio (z) = 0.10148 0.13613
#
# Static dielectric constant tensor:
#      x y z
#    x 3.679330 0.000000 -0.008780 
#    y 0.000000 3.714090 0.000000 
#    z -0.008780 0.000000 3.901580 
# 
# 
# High freq. dielectric constant tensor:
#      x y z
#    x 1.789870 0.000000 -0.001320 
#    y 0.000000 1.797080 0.000000 
#    z -0.001320 0.000000 1.812290 
# 
# From -- ./inp_files/199480.got.cif
#   From: 2010.06.25/outbox.cif.g09.slc.cpg/sg15_100_cif.got.tgz:199480.got - 2010.06.28 07:06:18.
