data_PCOD8141700
_publ_section_title
;
Structure prediction by ZEFSAII (Michael W. Deem and Ramdas Pophale) SiO2 
 PCOD8141700
Probable space group: C 2/C
;
_chemical_formula_sum "Si O2"
_cell_formula_units_Z 56
_cell_length_a 25.150506
_cell_length_b 6.046620
_cell_length_c 27.248860
_cell_angle_alpha 90.000000
_cell_angle_beta 138.185326
_cell_angle_gamma 90.000000
_cell_volume 2762.825275
_symmetry_space_group_name_H-M "C 2/C"
_symmetry_group_IT_number 15
_symmetry_cell_setting 'monoclinic'
loop_
_space_group_symop_operation_xyz
x,y,z
-x,y,1/2-z
-x,-y,-z
x,-y,1/2+z
1/2+x,1/2+y,z
1/2-x,1/2+y,1/2-z
1/2-x,1/2-y,-z
1/2+x,1/2-y,1/2+z
loop_
_atom_site_type_symbol
_atom_site_label
_atom_site_fract_x
_atom_site_fract_y
_atom_site_fract_z
Si Si1 0.687681 0.944100 0.463185
Si Si2 0.570190 0.646697 0.423776
Si Si3 0.933694 0.154521 0.833289
Si Si4 0.521806 0.037120 0.570535
Si Si5 0.792556 0.408535 0.705707
Si Si6 0.219286 0.163238 0.051191
Si Si7 0.327086 0.275362 0.796130
O O1 0.750000 0.750000 0.500000
O O2 0.599917 0.831865 0.405022
O O3 0.700912 0.100120 0.425127
O O4 0.699044 0.084866 0.521558
O O5 0.499155 0.500223 0.350727
O O6 0.644843 0.495964 0.490033
O O7 0.535298 0.771566 0.447322
O O8 0.986625 0.306593 0.905940
O O9 0.880869 0.300499 0.759307
O O10 0.871334 0.006929 0.820668
O O11 0.500000 0.000000 0.500000
O O12 0.614312 0.102849 0.636955
O O13 0.739630 0.360994 0.622020
O O14 0.750445 0.296744 0.723628
O O15 0.802658 0.669514 0.725974
#
# Coordination Sequence:
#
# PCOD8141700 Si02
#       7
#     8   8   8   8   8   8   8
#     4   9  20  41  61  95 117 153 204 272 316 373
#     4  10  21  37  62  87 123 159 202 263 318 368
#     4  10  22  39  55  83 127 166 203 253 307 372
#     4  10  23  35  56  88 122 160 209 249 312 374
#     4  11  22  38  59  88 124 168 204 249 314 377
#     4  10  22  37  69  91 122 156 215 264 321 375
#     4  10  22  36  55  82 126 165 199 249 298 379
#
# _framework density 20.269107999999999
#
# number of rings (size 3 to 8) (size 9 to 14) (size 15 to 20)
#    0.000    2.000    1.429    0.857    6.000    3.429 
#    0.000    0.000    0.000   49.714    0.000    0.000 
#    0.000    0.000    0.000    0.000    0.000    0.000 
#
# Total GULP energy -346962.799798 kJ/mol
# GULP energy per Si atom -12391.528564 kJ/mol
# Density = 2.022297 g / cm^3
# Si number density = 20.269108 Si / 1000 Ang^3
#
#
#
# Elastic Constant Matrix: (Units=GPa)
#
#
# Indices 1 2 3 4 5 6 
#
# 1 75.2178 35.6387 33.2295 -0.0257 18.7941 -0.0140
# 2 35.6387 108.1995 34.2033 -0.0478 6.7101 -0.0320
# 3 33.2295 34.2033 70.0688 -0.0062 6.1632 0.0084
# 4 -0.0257 -0.0478 -0.0062 26.7577 0.0066 16.3810
# 5 18.7941 6.7101 6.1632 0.0066 28.4315 -0.0103
# 6 -0.0140 -0.0320 0.0084 16.3810 -0.0103 43.3890
#
#
#
# Elastic Compliance Matrix: (Units=1/GPa)
#
#
# Indices 1 2 3 4 5 6 
#
# 1 0.021216 -0.004036 -0.007077 0.000017 -0.011538 -0.000004
# 2 -0.004036 0.011755 -0.003889 0.000014 0.000736 0.000003
# 3 -0.007077 -0.003889 0.019404 -0.000006 0.001390 -0.000006
# 4 0.000017 0.000014 -0.000006 0.048607 -0.000031 -0.018351
# 5 -0.011538 0.000736 0.001390 -0.000031 0.042324 0.000018
# 6 -0.000004 0.000003 -0.000006 -0.018351 0.000018 0.029976
#
#
# Mechanical properties :
#
#
# Convention : Reuss Voigt Hill
#
# Bulk Modulus (GPa) = 44.69790 51.06992 47.88391
# Shear Modulus (GPa) = 23.72566 29.74326 26.73446
#
# Velocity S-wave (km/s) = 3.42502 3.83485 3.63571
# Velocity P-wave (km/s) = 6.14338 6.69766 6.42650
#
# Compressibility (1/GPa) = 0.02237242
#
# Stress axis : x y z
#
# Youngs Moduli (GPa) = 47.13405 85.06910 51.53584
#
# Poissons Ratio (x) = 0.34330 0.36471
# Poissons Ratio (y) = 0.19021 0.20043
# Poissons Ratio (z) = 0.33356 0.33084
#
# Static dielectric constant tensor:
#      x y z
#    x 3.908920 -0.000060 0.406770 
#    y -0.000060 4.233580 0.000010 
#    z 0.406770 0.000010 3.460400 
# 
# 
# High freq. dielectric constant tensor:
#      x y z
#    x 1.782160 0.000000 0.035190 
#    y 0.000000 1.817440 0.000000 
#    z 0.035190 0.000000 1.760620 
# 
# From -- ./inp_files/319189.got.cif
#   From: 2010.06.25/outbox.cif.g09.slc.cpg/sg15_160_cif.got.tgz:319189.got - 2010.06.28 07:06:18.
