data_PCOD8141469
_publ_section_title
;
Structure prediction by ZEFSAII (Michael W. Deem and Ramdas Pophale) SiO2 
 PCOD8141469
Probable space group: C 2/C
;
_chemical_formula_sum "Si O2"
_cell_formula_units_Z 56
_cell_length_a 18.060149
_cell_length_b 26.953359
_cell_length_c 8.999644
_cell_angle_alpha 90.000000
_cell_angle_beta 138.824612
_cell_angle_gamma 90.000000
_cell_volume 2884.211314
_symmetry_space_group_name_H-M "C 2/C"
_symmetry_group_IT_number 15
_symmetry_cell_setting 'monoclinic'
loop_
_space_group_symop_operation_xyz
x,y,z
-x,y,1/2-z
-x,-y,-z
x,-y,1/2+z
1/2+x,1/2+y,z
1/2-x,1/2+y,1/2-z
1/2-x,1/2-y,-z
1/2+x,1/2-y,1/2+z
loop_
_atom_site_type_symbol
_atom_site_label
_atom_site_fract_x
_atom_site_fract_y
_atom_site_fract_z
Si Si1 0.358966 0.540675 0.370203
Si Si2 0.339494 0.345494 0.335236
Si Si3 0.055909 0.790145 0.570834
Si Si4 0.376569 0.556240 0.731033
Si Si5 0.124684 0.707053 0.901404
Si Si6 0.200057 0.129846 0.402047
Si Si7 0.781659 0.745351 0.878611
O O1 0.324915 0.545418 0.490775
O O2 0.489439 0.554841 0.555610
O O3 0.331134 0.484726 0.277599
O O4 0.286314 0.575324 0.148618
O O5 0.426599 0.301272 0.414615
O O6 0.332750 0.389085 0.205589
O O7 0.360700 0.370725 0.527633
O O8 0.224682 0.313542 0.170021
O O9 0.118391 0.755640 0.787442
O O10 0.113216 0.843840 0.659651
O O11 0.090196 0.764771 0.463920
O O12 0.000000 0.688881 0.750000
O O13 0.182485 0.659452 0.911034
O O14 0.194051 0.721590 0.152032
O O15 0.750000 0.750000 0.000000
#
# Coordination Sequence:
#
# PCOD8141469 Si02
#       7
#     8   8   8   8   8   8   8
#     4  10  21  37  52  83 117 149 189 241 287 356
#     4  12  21  35  58  81 113 157 192 233 292 342
#     4  11  20  37  52  78 111 156 195 228 278 347
#     4  10  22  34  54  81 118 150 188 232 297 352
#     4  11  20  39  56  78 112 158 200 238 279 351
#     4  11  20  34  57  79 108 151 196 231 286 344
#     4  11  24  34  51  79 115 149 196 242 282 338
#
# _framework density 19.416052000000001
#
# number of rings (size 3 to 8) (size 9 to 14) (size 15 to 20)
#    0.000    1.143    5.714    2.143    4.000    1.714 
#    0.000    0.000    0.000    0.000    0.000    4.000 
#    0.000    0.000    0.000    0.000    0.000    0.000 
#
# Total GULP energy -346955.947377 kJ/mol
# GULP energy per Si atom -12391.283835 kJ/mol
# Density = 1.937186 g / cm^3
# Si number density = 19.416052 Si / 1000 Ang^3
#
#
#
# Elastic Constant Matrix: (Units=GPa)
#
#
# Indices 1 2 3 4 5 6 
#
# 1 103.2542 38.8995 41.5288 0.0000 -27.7319 0.0000
# 2 38.8995 109.3535 37.5078 0.0000 -11.0996 0.0000
# 3 41.5288 37.5078 55.5570 0.0000 -20.5940 0.0000
# 4 0.0000 0.0000 0.0000 25.5854 0.0000 -7.4934
# 5 -27.7319 -11.0996 -20.5940 0.0000 36.0353 0.0000
# 6 0.0000 0.0000 0.0000 -7.4934 0.0000 32.4248
#
#
#
# Elastic Compliance Matrix: (Units=1/GPa)
#
#
# Indices 1 2 3 4 5 6 
#
# 1 0.015359 -0.002215 -0.007431 0.000000 0.006891 0.000000
# 2 -0.002215 0.012259 -0.007426 0.000000 -0.002173 0.000000
# 3 -0.007431 -0.007426 0.032480 0.000000 0.010557 0.000000
# 4 0.000000 0.000000 0.000000 0.041922 0.000000 0.009688
# 5 0.006891 -0.002173 0.010557 0.000000 0.038417 0.000000
# 6 0.000000 0.000000 0.000000 0.009688 0.000000 0.033080
#
#
# Mechanical properties :
#
#
# Convention : Reuss Voigt Hill
#
# Bulk Modulus (GPa) = 38.52885 56.00410 47.26647
# Shear Modulus (GPa) = 23.11464 28.82435 25.96950
#
# Velocity S-wave (km/s) = 3.45409 3.85718 3.66119
# Velocity P-wave (km/s) = 5.98286 6.98169 6.50148
#
# Compressibility (1/GPa) = 0.02595458
#
# Stress axis : x y z
#
# Youngs Moduli (GPa) = 65.10933 81.57131 30.78772
#
# Poissons Ratio (x) = 0.18071 0.22878
# Poissons Ratio (y) = 0.14424 0.22863
# Poissons Ratio (z) = 0.48381 0.60574
#
# Static dielectric constant tensor:
#      x y z
#    x 3.824140 0.000000 -0.121370 
#    y 0.000000 3.585600 0.000000 
#    z -0.121370 0.000000 3.285880 
# 
# 
# High freq. dielectric constant tensor:
#      x y z
#    x 1.752520 0.000000 -0.030980 
#    y 0.000000 1.750780 0.000000 
#    z -0.030980 0.000000 1.725480 
# 
# From -- ./inp_files/52002.got.cif
#   From: 2010.06.25/outbox.cif.g09.slc.cpg/sg15_27_cif.got.tgz:52002.got - 2010.06.28 07:06:18.
