data_PCOD8141255
_publ_section_title
;
Structure prediction by ZEFSAII (Michael W. Deem and Ramdas Pophale) SiO2 
 PCOD8141255
Probable space group: C 2/C
;
_chemical_formula_sum "Si O2"
_cell_formula_units_Z 56
_cell_length_a 25.939327
_cell_length_b 17.937872
_cell_length_c 9.206095
_cell_angle_alpha 90.000000
_cell_angle_beta 138.154919
_cell_angle_gamma 90.000000
_cell_volume 2857.644927
_symmetry_space_group_name_H-M "C 2/C"
_symmetry_group_IT_number 15
_symmetry_cell_setting 'monoclinic'
loop_
_space_group_symop_operation_xyz
x,y,z
-x,y,1/2-z
-x,-y,-z
x,-y,1/2+z
1/2+x,1/2+y,z
1/2-x,1/2+y,1/2-z
1/2-x,1/2-y,-z
1/2+x,1/2-y,1/2+z
loop_
_atom_site_type_symbol
_atom_site_label
_atom_site_fract_x
_atom_site_fract_y
_atom_site_fract_z
Si Si1 0.636185 0.770308 0.173144
Si Si2 0.174151 0.977760 0.300342
Si Si3 0.013504 0.798183 0.616241
Si Si4 0.573467 0.540850 0.320311
Si Si5 0.274119 0.146635 0.148534
Si Si6 0.746900 0.865461 0.575235
Si Si7 0.868330 0.254354 0.658471
O O1 0.566621 0.759162 0.140141
O O2 0.683429 0.843614 0.321325
O O3 0.688070 0.697149 0.285196
O O4 0.604293 0.783034 0.942881
O O5 0.240659 0.923222 0.492273
O O6 0.100509 0.982005 0.255176
O O7 0.211206 0.058928 0.378090
O O8 0.144049 0.949031 0.081818
O O9 0.050798 0.880216 0.701779
O O10 0.000000 0.767168 0.750000
O O11 0.931304 0.800889 0.361252
O O12 0.500000 0.505430 0.250000
O O13 0.295521 0.124987 0.358351
O O14 0.351164 0.175181 0.227839
O O15 0.211086 0.211111 0.026324
#
# Coordination Sequence:
#
# PCOD8141255 Si02
#       7
#     8   8   8   8   8   8   8
#     4  10  21  37  60  83 115 155 209 258 299 356
#     4  12  22  39  58  87 122 166 201 245 305 366
#     4  11  21  38  58  86 121 158 197 248 306 361
#     4  11  24  37  56  86 126 167 199 241 299 371
#     4  10  21  38  57  83 118 155 206 250 299 358
#     4  10  21  36  56  84 116 157 203 253 300 354
#     4  10  22  37  60  84 113 159 205 254 299 358
#
# _framework density 19.596556
#
# number of rings (size 3 to 8) (size 9 to 14) (size 15 to 20)
#    0.000    1.429    2.857    3.429    2.000    2.286 
#    0.000    0.000    0.000    0.857    0.000    0.000 
#    0.000    0.000    0.000    0.000    0.000    0.000 
#
# Total GULP energy -347200.155343 kJ/mol
# GULP energy per Si atom -12400.005548 kJ/mol
# Density = 1.955195 g / cm^3
# Si number density = 19.596556 Si / 1000 Ang^3
#
#
#
# Elastic Constant Matrix: (Units=GPa)
#
#
# Indices 1 2 3 4 5 6 
#
# 1 98.8256 17.6122 22.4003 0.0000 -15.9994 0.0000
# 2 17.6122 68.6650 25.6586 0.0000 2.7042 0.0000
# 3 22.4003 25.6586 92.6210 0.0000 -22.9196 0.0000
# 4 0.0000 0.0000 0.0000 31.2534 0.0000 6.0040
# 5 -15.9994 2.7042 -22.9196 0.0000 30.0014 0.0000
# 6 0.0000 0.0000 0.0000 6.0040 0.0000 20.6224
#
#
#
# Elastic Compliance Matrix: (Units=1/GPa)
#
#
# Indices 1 2 3 4 5 6 
#
# 1 0.011780 -0.003097 -0.000453 0.000000 0.006215 0.000000
# 2 -0.003097 0.018000 -0.006224 0.000000 -0.008029 0.000000
# 3 -0.000453 -0.006224 0.015672 0.000000 0.012292 0.000000
# 4 0.000000 0.000000 0.000000 0.033892 0.000000 -0.009867
# 5 0.006215 -0.008029 0.012292 0.000000 0.046761 0.000000
# 6 0.000000 0.000000 0.000000 -0.009867 0.000000 0.051364
#
#
# Mechanical properties :
#
#
# Convention : Reuss Voigt Hill
#
# Bulk Modulus (GPa) = 38.60500 43.49490 41.04995
# Shear Modulus (GPa) = 24.31301 29.33815 26.82558
#
# Velocity S-wave (km/s) = 3.52615 3.87344 3.70387
# Velocity P-wave (km/s) = 6.02669 6.49986 6.26774
#
# Compressibility (1/GPa) = 0.02590338
#
# Stress axis : x y z
#
# Youngs Moduli (GPa) = 84.89245 55.55589 63.80650
#
# Poissons Ratio (x) = 0.17205 0.02891
# Poissons Ratio (y) = 0.26290 0.39715
# Poissons Ratio (z) = 0.03846 0.34580
#
# Static dielectric constant tensor:
#      x y z
#    x 3.915650 0.000000 -0.301810 
#    y 0.000000 3.290940 0.000000 
#    z -0.301810 0.000000 3.603130 
# 
# 
# High freq. dielectric constant tensor:
#      x y z
#    x 1.772200 0.000000 -0.023860 
#    y 0.000000 1.730800 0.000000 
#    z -0.023860 0.000000 1.759400 
# 
# From -- ./inp_files/49153.got.cif
#   From: 2010.06.25/outbox.cif.g09.slc.cpg/sg15_25_cif.got.tgz:49153.got - 2010.06.28 07:06:18.
