data_PCOD8141993
_publ_section_title
;
Structure prediction by ZEFSAII (Michael W. Deem and Ramdas Pophale) SiO2 
 PCOD8141993
Probable space group: C 2/C
;
_chemical_formula_sum "Si O2"
_cell_formula_units_Z 40
_cell_length_a 26.735876
_cell_length_b 6.315113
_cell_length_c 22.837370
_cell_angle_alpha 90.000000
_cell_angle_beta 148.936665
_cell_angle_gamma 90.000000
_cell_volume 1989.568708
_symmetry_space_group_name_H-M "C 2/C"
_symmetry_group_IT_number 15
_symmetry_cell_setting 'monoclinic'
loop_
_space_group_symop_operation_xyz
x,y,z
-x,y,1/2-z
-x,-y,-z
x,-y,1/2+z
1/2+x,1/2+y,z
1/2-x,1/2+y,1/2-z
1/2-x,1/2-y,-z
1/2+x,1/2-y,1/2+z
loop_
_atom_site_type_symbol
_atom_site_label
_atom_site_fract_x
_atom_site_fract_y
_atom_site_fract_z
Si Si1 0.753923 0.232984 0.820912
Si Si2 0.897846 0.646422 0.674337
Si Si3 0.751826 0.478332 0.933266
Si Si4 0.153486 0.645464 0.278095
Si Si5 0.396611 0.567038 0.872810
O O1 0.791166 0.355779 0.915583
O O2 0.665930 0.357801 0.702185
O O3 0.844130 0.216138 0.867528
O O4 0.719540 0.998441 0.802719
O O5 0.836524 0.514044 0.565697
O O6 0.843337 0.861575 0.636905
O O7 0.913688 0.499364 0.747562
O O8 0.000000 0.713113 0.750000
O O9 0.725512 0.718250 0.891031
O O10 0.088825 0.799982 0.172708
O O11 0.500000 0.500000 0.000000
#
# Coordination Sequence:
#
# PCOD8141993 Si02
#       5
#     8   8   8   8   8
#     4  10  21  40  59  87 124 158 205 257 306 368
#     4  10  21  38  60  89 120 157 206 253 305 368
#     4   9  21  38  60  85 120 159 200 256 307 359
#     4  10  21  39  60  87 123 160 203 252 312 361
#     4  11  23  39  62  90 123 164 206 252 309 371
#
# _framework density 20.104861
#
# number of rings (size 3 to 8) (size 9 to 14) (size 15 to 20)
#    0.000    2.000    2.000    0.600    0.000    8.000 
#    0.000    0.000    0.000    0.000    0.000    0.000 
#    0.000    0.000    0.000    0.000    0.000    0.000 
#
# Total GULP energy -248058.318269 kJ/mol
# GULP energy per Si atom -12402.915913 kJ/mol
# Density = 2.005910 g / cm^3
# Si number density = 20.104861 Si / 1000 Ang^3
#
#
#
# Elastic Constant Matrix: (Units=GPa)
#
#
# Indices 1 2 3 4 5 6 
#
# 1 115.6567 27.5916 58.9197 -0.0001 4.0430 0.0000
# 2 27.5916 70.9886 23.1257 -0.0006 6.2471 -0.0002
# 3 58.9197 23.1257 100.4390 -0.0001 5.2489 0.0000
# 4 -0.0001 -0.0006 -0.0001 21.8367 -0.0001 -10.3421
# 5 4.0430 6.2471 5.2489 -0.0001 26.6037 0.0000
# 6 0.0000 -0.0002 0.0000 -10.3421 0.0000 27.8721
#
#
#
# Elastic Compliance Matrix: (Units=1/GPa)
#
#
# Indices 1 2 3 4 5 6 
#
# 1 0.012805 -0.002739 -0.006884 0.000000 0.000055 0.000000
# 2 -0.002739 0.016042 -0.001931 0.000001 -0.002970 0.000000
# 3 -0.006884 -0.001931 0.014510 0.000000 -0.001363 0.000000
# 4 0.000000 0.000001 0.000000 0.055558 0.000000 0.020615
# 5 0.000055 -0.002970 -0.001363 0.000000 0.038547 0.000000
# 6 0.000000 0.000000 0.000000 0.020615 0.000000 0.043528
#
#
# Mechanical properties :
#
#
# Convention : Reuss Voigt Hill
#
# Bulk Modulus (GPa) = 49.38731 56.26204 52.82467
# Shear Modulus (GPa) = 23.71381 27.09232 25.40306
#
# Velocity S-wave (km/s) = 3.43812 3.67488 3.55847
# Velocity P-wave (km/s) = 6.35445 6.78612 6.57383
#
# Compressibility (1/GPa) = 0.02024812
#
# Stress axis : x y z
#
# Youngs Moduli (GPa) = 78.09682 62.33635 68.91629
#
# Poissons Ratio (x) = 0.17076 0.47440
# Poissons Ratio (y) = 0.21393 0.13311
# Poissons Ratio (z) = 0.53759 0.12040
#
# Static dielectric constant tensor:
#      x y z
#    x 3.861110 0.000000 -0.337610 
#    y 0.000000 3.792950 0.000000 
#    z -0.337610 0.000000 3.356910 
# 
# 
# High freq. dielectric constant tensor:
#      x y z
#    x 1.797840 0.000000 -0.026240 
#    y 0.000000 1.792100 0.000000 
#    z -0.026240 0.000000 1.761450 
# 
# From -- ./inp_files/124942.got.cif
#   From: 2010.06.25/outbox.cif.g09.slc.cpg/sg15_63_cif.got.tgz:124942.got - 2010.06.28 07:06:18.
