data_PCOD8141774
_publ_section_title
;
Structure prediction by ZEFSAII (Michael W. Deem and Ramdas Pophale) SiO2 
 PCOD8141774
Probable space group: C 2/C
;
_chemical_formula_sum "Si O2"
_cell_formula_units_Z 52
_cell_length_a 13.390570
_cell_length_b 32.010764
_cell_length_c 8.450572
_cell_angle_alpha 90.000000
_cell_angle_beta 42.457903
_cell_angle_gamma 90.000000
_cell_volume 2445.209496
_symmetry_space_group_name_H-M "C 2/C"
_symmetry_group_IT_number 15
_symmetry_cell_setting 'monoclinic'
loop_
_space_group_symop_operation_xyz
x,y,z
-x,y,1/2-z
-x,-y,-z
x,-y,1/2+z
1/2+x,1/2+y,z
1/2-x,1/2+y,1/2-z
1/2-x,1/2-y,-z
1/2+x,1/2-y,1/2+z
loop_
_atom_site_type_symbol
_atom_site_label
_atom_site_fract_x
_atom_site_fract_y
_atom_site_fract_z
Si Si1 0.688780 0.528883 0.124360
Si Si2 0.500000 0.933908 0.250000
Si Si3 0.531217 0.131577 0.447334
Si Si4 0.694620 0.721610 0.705441
Si Si5 0.966243 0.277944 0.112346
Si Si6 0.748857 0.630945 0.562436
Si Si7 0.591139 0.446598 0.390641
O O1 0.644673 0.480430 0.198329
O O2 0.586161 0.554167 0.370537
O O3 0.861524 0.536405 0.953808
O O4 0.664323 0.543087 0.973320
O O5 0.524567 0.904023 0.369425
O O6 0.547347 0.177223 0.505338
O O7 0.402065 0.134107 0.473172
O O8 0.693277 0.120553 0.183373
O O9 0.750000 0.750000 0.500000
O O10 0.798257 0.720335 0.742951
O O11 0.667108 0.675198 0.670539
O O12 0.537215 0.741056 0.927963
O O13 0.000000 0.263429 0.250000
O O14 0.635845 0.597528 0.765932
#
# Coordination Sequence:
#
# PCOD8141774 Si02
#       7
#     8   4   8   8   8   8   8
#     4  10  24  41  67  87 132 163 207 262 317 376
#     4  12  22  40  62 104 118 164 210 264 308 384
#     4  10  21  37  64  91 129 163 212 265 318 375
#     4  11  22  41  65  92 125 171 217 264 319 387
#     4  11  22  41  61  92 132 172 209 269 331 377
#     4  10  21  41  64  89 124 172 211 260 319 384
#     4  10  22  46  62  91 125 170 203 260 321 373
#
# _framework density 21.266072000000001
#
# number of rings (size 3 to 8) (size 9 to 14) (size 15 to 20)
#    0.000    1.538    3.846    0.923    2.154    1.846 
#    5.538    0.000    0.000    0.000    0.000    0.000 
#    0.000    0.000    0.000    0.000    0.000    0.000 
#
# Total GULP energy -322170.672333 kJ/mol
# GULP energy per Si atom -12391.179705 kJ/mol
# Density = 2.121767 g / cm^3
# Si number density = 21.266072 Si / 1000 Ang^3
#
#
#
# Elastic Constant Matrix: (Units=GPa)
#
#
# Indices 1 2 3 4 5 6 
#
# 1 34.5124 6.3216 8.5385 0.0000 -8.8163 0.0000
# 2 6.3216 137.6581 64.7764 0.0000 -8.7909 0.0000
# 3 8.5385 64.7764 117.1817 0.0000 -16.8015 0.0000
# 4 0.0000 0.0000 0.0000 50.5210 0.0000 -4.7354
# 5 -8.8163 -8.7909 -16.8015 0.0000 36.3047 0.0000
# 6 0.0000 0.0000 0.0000 -4.7354 0.0000 27.1859
#
#
#
# Elastic Compliance Matrix: (Units=1/GPa)
#
#
# Indices 1 2 3 4 5 6 
#
# 1 0.031094 -0.000523 -0.000977 0.000000 0.006972 0.000000
# 2 -0.000523 0.009828 -0.005432 0.000000 -0.000261 0.000000
# 3 -0.000977 -0.005432 0.012194 0.000000 0.004091 0.000000
# 4 0.000000 0.000000 0.000000 0.020122 0.000000 0.003505
# 5 0.006972 -0.000261 0.004091 0.000000 0.031068 0.000000
# 6 0.000000 0.000000 0.000000 0.003505 0.000000 0.037394
#
#
# Mechanical properties :
#
#
# Convention : Reuss Voigt Hill
#
# Bulk Modulus (GPa) = 25.47651 49.84724 37.66187
# Shear Modulus (GPa) = 29.64762 36.78336 33.21549
#
# Velocity S-wave (km/s) = 3.73785 4.16345 3.95638
# Velocity P-wave (km/s) = 5.53485 6.82664 6.21441
#
# Compressibility (1/GPa) = 0.03925185
#
# Stress axis : x y z
#
# Youngs Moduli (GPa) = 32.16097 101.75218 82.00610
#
# Poissons Ratio (x) = 0.05321 0.08011
# Poissons Ratio (y) = 0.01682 0.44546
# Poissons Ratio (z) = 0.03142 0.55272
#
# Static dielectric constant tensor:
#      x y z
#    x 3.672180 0.000000 0.064030 
#    y 0.000000 2.669140 0.000000 
#    z 0.064030 0.000000 3.843960 
# 
# 
# High freq. dielectric constant tensor:
#      x y z
#    x 1.823170 0.000000 0.009740 
#    y 0.000000 1.832620 0.000000 
#    z 0.009740 0.000000 1.843550 
# 
# From -- ./inp_files/44775.got.cif
#   From: 2010.06.25/outbox.cif.g09.slc.cpg/sg15_23_cif.got.tgz:44775.got - 2010.06.28 07:06:18.
