data_PCOD8141095
_publ_section_title
;
Structure prediction by ZEFSAII (Michael W. Deem and Ramdas Pophale) SiO2 
 PCOD8141095
Probable space group: C 2/C
;
_chemical_formula_sum "Si O2"
_cell_formula_units_Z 64
_cell_length_a 10.695671
_cell_length_b 12.247884
_cell_length_c 23.390466
_cell_angle_alpha 90.000000
_cell_angle_beta 79.771815
_cell_angle_gamma 90.000000
_cell_volume 3015.441468
_symmetry_space_group_name_H-M "C 2/C"
_symmetry_group_IT_number 15
_symmetry_cell_setting 'monoclinic'
loop_
_space_group_symop_operation_xyz
x,y,z
-x,y,1/2-z
-x,-y,-z
x,-y,1/2+z
1/2+x,1/2+y,z
1/2-x,1/2+y,1/2-z
1/2-x,1/2-y,-z
1/2+x,1/2-y,1/2+z
loop_
_atom_site_type_symbol
_atom_site_label
_atom_site_fract_x
_atom_site_fract_y
_atom_site_fract_z
Si Si1 0.608875 0.477791 0.200500
Si Si2 0.646234 0.091279 0.646782
Si Si3 0.833364 0.787123 0.777376
Si Si4 0.867393 0.361731 0.174145
Si Si5 0.866145 0.612112 0.285557
Si Si6 0.317996 0.501775 0.545656
Si Si7 0.276599 0.225160 0.399736
Si Si8 0.916779 0.079518 0.928487
O O1 0.500000 0.422476 0.250000
O O2 0.591449 0.607126 0.208064
O O3 0.750656 0.437078 0.206236
O O4 0.585477 0.454018 0.136657
O O5 0.688804 0.209290 0.666199
O O6 0.495090 0.070098 0.652853
O O7 0.701292 0.999572 0.686330
O O8 0.701427 0.073959 0.578401
O O9 0.908314 0.724022 0.720555
O O10 0.701900 0.827087 0.760829
O O11 0.832625 0.302676 0.117818
O O12 0.870441 0.692734 0.339756
O O13 0.000000 0.577908 0.250000
O O14 0.297804 0.376084 0.566755
O O15 0.441327 0.563105 0.560537
O O16 0.326719 0.497437 0.475886
O O17 0.363936 0.294929 0.437012
#
# Coordination Sequence:
#
# PCOD8141095 Si02
#       8
#     8   8   8   8   8   8   8   8
#     4  11  24  38  64  90 126 159 206 260 308 377
#     4  11  22  38  59  84 123 162 204 248 317 371
#     4  11  22  34  58  87 123 166 194 246 316 374
#     4  10  22  39  57  92 123 160 200 252 315 379
#     4  10  21  35  56  90 126 157 202 252 306 376
#     4  10  23  42  67  85 124 167 210 264 314 370
#     4   9  21  38  66  87 120 164 208 255 320 374
#     4  10  23  42  64  93 119 160 221 258 307 386
#
# _framework density 21.224088999999999
#
# number of rings (size 3 to 8) (size 9 to 14) (size 15 to 20)
#    0.000    1.750    0.000    3.750   10.500    3.500 
#    0.000    3.125    0.000    0.000    0.000    0.000 
#    0.000    0.000    0.000    0.000    0.000    0.000 
#
# Total GULP energy -396541.833744 kJ/mol
# GULP energy per Si atom -12391.932305 kJ/mol
# Density = 2.117578 g / cm^3
# Si number density = 21.224089 Si / 1000 Ang^3
#
#
#
# Elastic Constant Matrix: (Units=GPa)
#
#
# Indices 1 2 3 4 5 6 
#
# 1 70.6766 29.8871 34.1572 0.0000 -13.7187 0.0000
# 2 29.8871 85.1229 11.3968 0.0000 2.4736 0.0000
# 3 34.1572 11.3968 104.1203 0.0000 -9.3686 0.0000
# 4 0.0000 0.0000 0.0000 18.2968 0.0000 -0.3661
# 5 -13.7187 2.4736 -9.3686 0.0000 29.8889 0.0000
# 6 0.0000 0.0000 0.0000 -0.3661 0.0000 31.2931
#
#
#
# Elastic Compliance Matrix: (Units=1/GPa)
#
#
# Indices 1 2 3 4 5 6 
#
# 1 0.021481 -0.007061 -0.005489 0.000000 0.008723 0.000000
# 2 -0.007061 0.014303 0.000363 0.000000 -0.004311 0.000000
# 3 -0.005489 0.000363 0.011459 0.000000 0.001042 0.000000
# 4 0.000000 0.000000 0.000000 0.054667 0.000000 0.000640
# 5 0.008723 -0.004311 0.001042 0.000000 0.038145 0.000000
# 6 0.000000 0.000000 0.000000 0.000640 0.000000 0.031963
#
#
# Mechanical properties :
#
#
# Convention : Reuss Voigt Hill
#
# Bulk Modulus (GPa) = 43.72663 45.64467 44.68565
# Shear Modulus (GPa) = 24.50797 28.19435 26.35116
#
# Velocity S-wave (km/s) = 3.40181 3.64869 3.52741
# Velocity P-wave (km/s) = 6.00640 6.26924 6.13923
#
# Compressibility (1/GPa) = 0.02286936
#
# Stress axis : x y z
#
# Youngs Moduli (GPa) = 46.55341 69.91339 87.26685
#
# Poissons Ratio (x) = 0.49363 0.47902
# Poissons Ratio (y) = 0.32869 -0.03166
# Poissons Ratio (z) = 0.25554 -0.02536
#
# Static dielectric constant tensor:
#      x y z
#    x 3.800090 0.000000 -0.080060 
#    y 0.000000 4.084510 0.000000 
#    z -0.080060 0.000000 3.937700 
# 
# 
# High freq. dielectric constant tensor:
#      x y z
#    x 1.821890 0.000000 -0.007340 
#    y 0.000000 1.837930 0.000000 
#    z -0.007340 0.000000 1.826470 
# 
# From -- ./inp_files/269257.got.cif
#   From: 2010.06.25/outbox.cif.g09.slc.cpg/sg15_135_cif.got.tgz:269257.got - 2010.06.28 07:06:18.
