data_PCOD8141963
_publ_section_title
;
Structure prediction by ZEFSAII (Michael W. Deem and Ramdas Pophale) SiO2 
 PCOD8141963
Probable space group: C 2/C
;
_chemical_formula_sum "Si O2"
_cell_formula_units_Z 64
_cell_length_a 5.838594
_cell_length_b 23.658281
_cell_length_c 23.163730
_cell_angle_alpha 90.000000
_cell_angle_beta 114.292120
_cell_angle_gamma 90.000000
_cell_volume 2916.335645
_symmetry_space_group_name_H-M "C 2/C"
_symmetry_group_IT_number 15
_symmetry_cell_setting 'monoclinic'
loop_
_space_group_symop_operation_xyz
x,y,z
-x,y,1/2-z
-x,-y,-z
x,-y,1/2+z
1/2+x,1/2+y,z
1/2-x,1/2+y,1/2-z
1/2-x,1/2-y,-z
1/2+x,1/2-y,1/2+z
loop_
_atom_site_type_symbol
_atom_site_label
_atom_site_fract_x
_atom_site_fract_y
_atom_site_fract_z
Si Si1 0.451006 0.487415 0.591310
Si Si2 0.573220 0.040312 0.819162
Si Si3 0.428528 0.177127 0.996510
Si Si4 0.190518 0.313519 0.714046
Si Si5 0.760041 0.063952 0.184256
Si Si6 0.324048 0.128764 0.586656
Si Si7 0.336000 0.572313 0.493205
Si Si8 0.437605 0.263967 0.402207
O O1 0.627874 0.528228 0.648252
O O2 0.308162 0.445698 0.620709
O O3 0.251871 0.522400 0.529968
O O4 0.631852 0.450883 0.567906
O O5 0.500000 0.065706 0.750000
O O6 0.490507 0.089327 0.856144
O O7 0.436546 0.981729 0.815419
O O8 0.578678 0.142876 0.965543
O O9 0.331555 0.128329 0.029605
O O10 0.216867 0.212422 0.940855
O O11 0.610624 0.218303 0.051704
O O12 0.500000 0.305881 0.750000
O O13 0.141135 0.374171 0.679900
O O14 0.086025 0.264117 0.662500
O O15 0.000000 0.309830 0.750000
O O16 0.000000 0.057833 0.250000
O O17 0.264366 0.186093 0.615118
O O18 0.090224 0.089417 0.550796
#
# Coordination Sequence:
#
# PCOD8141963 Si02
#       8
#     8   8   8   8   8   8   8   8
#     4  10  21  38  59  92 133 168 214 274 333 422
#     4  11  22  39  62  90 130 167 221 271 343 406
#     4  10  21  41  66  95 126 170 228 282 350 410
#     4  11  28  47  71 102 139 183 235 290 347 417
#     4  11  23  39  63  91 128 173 221 272 335 411
#     4  10  22  40  63  95 127 168 222 279 339 415
#     4   9  21  37  60  95 130 166 216 275 343 406
#     4  10  24  43  66  94 130 175 226 291 343 412
#
# _framework density 21.945346000000001
#
# number of rings (size 3 to 8) (size 9 to 14) (size 15 to 20)
#    0.000    1.750    1.250    1.500    7.000    0.500 
#    0.000    3.750    0.000    0.000    0.000    0.000 
#    0.000    0.000    0.000    0.000    0.000    0.000 
#
# Total GULP energy -396482.817286 kJ/mol
# GULP energy per Si atom -12390.088040 kJ/mol
# Density = 2.189540 g / cm^3
# Si number density = 21.945346 Si / 1000 Ang^3
#
#
#
# Elastic Constant Matrix: (Units=GPa)
#
#
# Indices 1 2 3 4 5 6 
#
# 1 52.2200 1.9086 15.9258 0.0000 -7.2354 0.0000
# 2 1.9086 93.1790 39.1237 0.0000 7.1711 0.0000
# 3 15.9258 39.1237 86.4472 0.0000 -24.2396 0.0000
# 4 0.0000 0.0000 0.0000 47.3626 0.0000 2.2755
# 5 -7.2354 7.1711 -24.2396 0.0000 25.6043 0.0000
# 6 0.0000 0.0000 0.0000 2.2755 0.0000 18.5571
#
#
#
# Elastic Compliance Matrix: (Units=1/GPa)
#
#
# Indices 1 2 3 4 5 6 
#
# 1 0.020509 0.000929 -0.003603 0.000000 0.002124 0.000000
# 2 0.000929 0.017291 -0.012635 0.000000 -0.016542 0.000000
# 3 -0.003603 -0.012635 0.025399 0.000000 0.026565 0.000000
# 4 0.000000 0.000000 0.000000 0.021239 0.000000 -0.002604
# 5 0.002124 -0.016542 0.026565 0.000000 0.069438 0.000000
# 6 0.000000 0.000000 0.000000 -0.002604 0.000000 0.054207
#
#
# Mechanical properties :
#
#
# Convention : Reuss Voigt Hill
#
# Bulk Modulus (GPa) = 30.69269 38.41803 34.55536
# Shear Modulus (GPa) = 20.03514 29.96400 24.99957
#
# Velocity S-wave (km/s) = 3.02479 3.69913 3.37883
# Velocity P-wave (km/s) = 5.12011 5.98239 5.56797
#
# Compressibility (1/GPa) = 0.03258105
#
# Stress axis : x y z
#
# Youngs Moduli (GPa) = 48.75903 57.83291 39.37205
#
# Poissons Ratio (x) = -0.05375 0.14187
# Poissons Ratio (y) = -0.04532 0.49747
# Poissons Ratio (z) = 0.17570 0.73072
#
# Static dielectric constant tensor:
#      x y z
#    x 3.895850 0.000000 0.006690 
#    y 0.000000 4.309980 0.000000 
#    z 0.006690 0.000000 4.122790 
# 
# 
# High freq. dielectric constant tensor:
#      x y z
#    x 1.841170 0.000000 -0.005000 
#    y 0.000000 1.879880 0.000000 
#    z -0.005000 0.000000 1.869080 
# 
# From -- ./inp_files/261828.got.cif
#   From: 2010.06.25/outbox.cif.g09.slc.cpg/sg15_131_cif.got.tgz:261828.got - 2010.06.28 07:06:18.
