data_PCOD8141767
_publ_section_title
;
Structure prediction by ZEFSAII (Michael W. Deem and Ramdas Pophale) SiO2 
 PCOD8141767
Probable space group: C 2/C
;
_chemical_formula_sum "Si O2"
_cell_formula_units_Z 48
_cell_length_a 12.254836
_cell_length_b 20.142099
_cell_length_c 10.845112
_cell_angle_alpha 90.000000
_cell_angle_beta 51.981288
_cell_angle_gamma 90.000000
_cell_volume 2108.956223
_symmetry_space_group_name_H-M "C 2/C"
_symmetry_group_IT_number 15
_symmetry_cell_setting 'monoclinic'
loop_
_space_group_symop_operation_xyz
x,y,z
-x,y,1/2-z
-x,-y,-z
x,-y,1/2+z
1/2+x,1/2+y,z
1/2-x,1/2+y,1/2-z
1/2-x,1/2-y,-z
1/2+x,1/2-y,1/2+z
loop_
_atom_site_type_symbol
_atom_site_label
_atom_site_fract_x
_atom_site_fract_y
_atom_site_fract_z
Si Si1 0.154544 0.078493 0.098557
Si Si2 0.578954 0.991506 0.574628
Si Si3 0.676002 0.850330 0.493736
Si Si4 0.650041 0.282225 0.703305
Si Si5 0.804055 0.840222 0.156281
Si Si6 0.912101 0.790496 0.470210
O O1 0.207446 0.145569 0.127611
O O2 0.000000 0.056603 0.250000
O O3 0.150467 0.095995 0.955529
O O4 0.267015 0.022099 0.047415
O O5 0.500000 0.023189 0.750000
O O6 0.593940 0.914177 0.597980
O O7 0.500000 0.000000 0.500000
O O8 0.688943 0.860515 0.335978
O O9 0.824296 0.845209 0.457362
O O10 0.594189 0.783004 0.585309
O O11 0.500000 0.269540 0.750000
O O12 0.751640 0.219769 0.600637
O O13 0.643560 0.283970 0.853999
O O14 0.931348 0.813836 0.147451
#
# Coordination Sequence:
#
# PCOD8141767 Si02
#       6
#     8   8   8   8   8   8
#     4  11  24  44  69 102 137 184 236 283 348 413
#     4  12  30  50  72 102 143 193 240 291 350 419
#     4  10  25  42  65  97 139 178 228 284 349 417
#     4  10  21  37  64 101 137 177 225 287 348 405
#     4  11  21  39  69 100 134 176 231 288 346 410
#     4  10  21  40  66 100 132 175 223 285 349 414
#
# _framework density 22.760075000000001
#
# number of rings (size 3 to 8) (size 9 to 14) (size 15 to 20)
#    0.000    1.333    3.333    2.000    4.667    6.000 
#    0.000    2.500    0.000    0.000    0.000    0.000 
#    0.000    0.000    0.000    0.000    0.000    0.000 
#
# Total GULP energy -297547.040465 kJ/mol
# GULP energy per Si atom -12397.793353 kJ/mol
# Density = 2.270827 g / cm^3
# Si number density = 22.760075 Si / 1000 Ang^3
#
#
#
# Elastic Constant Matrix: (Units=GPa)
#
#
# Indices 1 2 3 4 5 6 
#
# 1 132.6202 50.8221 32.5001 0.0000 -1.6308 0.0000
# 2 50.8221 90.0375 24.5045 0.0000 -9.4745 0.0000
# 3 32.5001 24.5045 93.2837 0.0000 -2.1560 0.0000
# 4 0.0000 0.0000 0.0000 27.1050 0.0000 -2.8784
# 5 -1.6308 -9.4745 -2.1560 0.0000 30.3910 0.0000
# 6 0.0000 0.0000 0.0000 -2.8784 0.0000 32.3896
#
#
#
# Elastic Compliance Matrix: (Units=1/GPa)
#
#
# Indices 1 2 3 4 5 6 
#
# 1 0.010054 -0.005217 -0.002161 0.000000 -0.001240 0.000000
# 2 -0.005217 0.015056 -0.002038 0.000000 0.004269 0.000000
# 3 -0.002161 -0.002038 0.012011 0.000000 0.000101 0.000000
# 4 0.000000 0.000000 0.000000 0.037245 0.000000 0.003310
# 5 -0.001240 0.004269 0.000101 0.000000 0.034176 0.000000
# 6 0.000000 0.000000 0.000000 0.003310 0.000000 0.031168
#
#
# Mechanical properties :
#
#
# Convention : Reuss Voigt Hill
#
# Bulk Modulus (GPa) = 54.68515 59.06608 56.87562
# Shear Modulus (GPa) = 30.36953 31.85144 31.11049
#
# Velocity S-wave (km/s) = 3.65682 3.74497 3.70116
# Velocity P-wave (km/s) = 6.47369 6.68638 6.58090
#
# Compressibility (1/GPa) = 0.01828650
#
# Stress axis : x y z
#
# Youngs Moduli (GPa) = 99.46243 66.42087 83.25933
#
# Poissons Ratio (x) = 0.34655 0.17992
# Poissons Ratio (y) = 0.51894 0.16972
# Poissons Ratio (z) = 0.21493 0.13540
#
# Static dielectric constant tensor:
#      x y z
#    x 4.261260 0.000000 0.007270 
#    y 0.000000 3.932680 0.000000 
#    z 0.007270 0.000000 4.195710 
# 
# 
# High freq. dielectric constant tensor:
#      x y z
#    x 1.899780 0.000000 0.014130 
#    y 0.000000 1.880250 0.000000 
#    z 0.014130 0.000000 1.914470 
# 
# From -- ./inp_files/89385.got.cif
#   From: 2010.06.25/outbox.cif.g09.slc.cpg/sg15_45_cif.got.tgz:89385.got - 2010.06.28 07:06:18.
