data_PCOD8141703
_publ_section_title
;
Structure prediction by ZEFSAII (Michael W. Deem and Ramdas Pophale) SiO2 
 PCOD8141703
Probable space group: C 2/C
;
_chemical_formula_sum "Si O2"
_cell_formula_units_Z 48
_cell_length_a 10.097477
_cell_length_b 13.844887
_cell_length_c 28.663071
_cell_angle_alpha 90.000000
_cell_angle_beta 144.390436
_cell_angle_gamma 90.000000
_cell_volume 2333.140995
_symmetry_space_group_name_H-M "C 2/C"
_symmetry_group_IT_number 15
_symmetry_cell_setting 'monoclinic'
loop_
_space_group_symop_operation_xyz
x,y,z
-x,y,1/2-z
-x,-y,-z
x,-y,1/2+z
1/2+x,1/2+y,z
1/2-x,1/2+y,1/2-z
1/2-x,1/2-y,-z
1/2+x,1/2-y,1/2+z
loop_
_atom_site_type_symbol
_atom_site_label
_atom_site_fract_x
_atom_site_fract_y
_atom_site_fract_z
Si Si1 0.264005 0.405986 0.121079
Si Si2 0.242381 0.028954 0.588188
Si Si3 0.657063 0.099417 0.224455
Si Si4 0.282674 0.864089 0.010010
Si Si5 0.000000 0.750986 0.250000
Si Si6 0.551029 0.518259 0.626894
Si Si7 0.500000 0.436175 0.750000
O O1 0.335141 0.312250 0.170384
O O2 0.369839 0.408640 0.098931
O O3 0.341302 0.501057 0.170608
O O4 0.992811 0.398955 0.038147
O O5 0.340259 0.108685 0.580567
O O6 0.194133 0.070352 0.626492
O O7 0.407769 0.935089 0.636362
O O8 0.000000 0.000000 0.500000
O O9 0.651423 0.187155 0.258751
O O10 0.766601 0.006985 0.281199
O O11 0.823375 0.129084 0.229178
O O12 0.250000 0.750000 0.000000
O O13 0.065281 0.920726 0.927091
#
# Coordination Sequence:
#
# PCOD8141703 Si02
#       7
#     8   8   8   8   4   8   4
#     4  10  21  38  58  88 125 162 200 247 310 364
#     4  10  21  37  62  88 120 161 197 247 312 361
#     4  11  19  39  64  89 121 154 209 250 305 370
#     4  11  22  38  62  91 123 160 208 255 301 365
#     4  11  22  36  64  91 118 160 209 258 300 358
#     4  10  21  39  61  88 118 168 200 245 313 366
#     4   9  20  36  62  89 116 166 193 250 308 360
#
# _framework density 20.573122999999999
#
# number of rings (size 3 to 8) (size 9 to 14) (size 15 to 20)
#    0.000    1.667    3.333    1.500    2.333    0.000 
#    0.000    5.833    0.000    0.000    0.000    0.000 
#    0.000    0.000    0.000    0.000    0.000    0.000 
#
# Total GULP energy -297477.970712 kJ/mol
# GULP energy per Si atom -12394.915446 kJ/mol
# Density = 2.052630 g / cm^3
# Si number density = 20.573123 Si / 1000 Ang^3
#
#
#
# Elastic Constant Matrix: (Units=GPa)
#
#
# Indices 1 2 3 4 5 6 
#
# 1 186.4008 44.7603 20.8856 0.0000 -0.7893 0.0000
# 2 44.7603 78.6241 10.7827 0.0000 -2.5390 0.0000
# 3 20.8856 10.7827 69.9469 0.0002 9.7822 -0.0001
# 4 0.0000 0.0000 0.0002 16.3612 0.0000 -2.6528
# 5 -0.7893 -2.5390 9.7822 0.0000 33.0042 0.0000
# 6 0.0000 0.0000 -0.0001 -2.6528 0.0000 25.2303
#
#
#
# Elastic Compliance Matrix: (Units=1/GPa)
#
#
# Indices 1 2 3 4 5 6 
#
# 1 0.006342 -0.003407 -0.001412 0.000000 0.000308 0.000000
# 2 -0.003407 0.014912 -0.001492 0.000000 0.001508 0.000000
# 3 -0.001412 -0.001492 0.015616 0.000000 -0.004777 0.000000
# 4 0.000000 0.000000 0.000000 0.062180 0.000000 0.006538
# 5 0.000308 0.001508 -0.004777 0.000000 0.031838 0.000000
# 6 0.000000 0.000000 0.000000 0.006538 0.000000 0.040322
#
#
# Mechanical properties :
#
#
# Convention : Reuss Voigt Hill
#
# Bulk Modulus (GPa) = 41.24009 54.20323 47.72166
# Shear Modulus (GPa) = 26.05300 32.15534 29.10417
#
# Velocity S-wave (km/s) = 3.56246 3.95774 3.76529
# Velocity P-wave (km/s) = 6.08363 6.87668 6.49228
#
# Compressibility (1/GPa) = 0.02424825
#
# Stress axis : x y z
#
# Youngs Moduli (GPa) = 157.66857 67.06109 64.03608
#
# Poissons Ratio (x) = 0.22849 0.09040
# Poissons Ratio (y) = 0.53720 0.09556
# Poissons Ratio (z) = 0.22257 0.10007
#
# Static dielectric constant tensor:
#      x y z
#    x 4.717350 0.000000 -0.110880 
#    y 0.000000 3.344470 0.000000 
#    z -0.110880 0.000000 3.812760 
# 
# 
# High freq. dielectric constant tensor:
#      x y z
#    x 1.833390 0.000000 0.006750 
#    y 0.000000 1.755490 0.000000 
#    z 0.006750 0.000000 1.807980 
# 
# From -- ./inp_files/182495.got.cif
#   From: 2010.06.25/outbox.cif.g09.slc.cpg/sg15_92_cif.got.tgz:182495.got - 2010.06.28 07:06:18.
