data_PCOD8141950
_publ_section_title
;
Structure prediction by ZEFSAII (Michael W. Deem and Ramdas Pophale) SiO2 
 PCOD8141950
Probable space group: C 2/C
;
_chemical_formula_sum "Si O2"
_cell_formula_units_Z 64
_cell_length_a 23.906966
_cell_length_b 9.009902
_cell_length_c 28.039295
_cell_angle_alpha 90.000000
_cell_angle_beta 147.549478
_cell_angle_gamma 90.000000
_cell_volume 3240.700482
_symmetry_space_group_name_H-M "C 2/C"
_symmetry_group_IT_number 15
_symmetry_cell_setting 'monoclinic'
loop_
_space_group_symop_operation_xyz
x,y,z
-x,y,1/2-z
-x,-y,-z
x,-y,1/2+z
1/2+x,1/2+y,z
1/2-x,1/2+y,1/2-z
1/2-x,1/2-y,-z
1/2+x,1/2-y,1/2+z
loop_
_atom_site_type_symbol
_atom_site_label
_atom_site_fract_x
_atom_site_fract_y
_atom_site_fract_z
Si Si1 0.500929 0.834062 0.646133
Si Si2 0.494615 0.173728 0.639762
Si Si3 0.606811 0.357803 0.853805
Si Si4 0.210397 0.665033 0.342732
Si Si5 0.292914 0.822349 0.155754
Si Si6 0.922094 0.677141 0.985840
Si Si7 0.157387 0.813621 0.402449
Si Si8 0.080230 0.670645 0.017933
O O1 0.625940 0.820077 0.739532
O O2 0.465129 0.778061 0.568704
O O3 0.451195 0.733828 0.651794
O O4 0.465636 0.003220 0.629396
O O5 0.415513 0.272994 0.613189
O O6 0.614437 0.205301 0.739776
O O7 0.478333 0.214515 0.572928
O O8 0.500000 0.395123 0.750000
O O9 0.681448 0.255210 0.875859
O O10 0.666992 0.508998 0.908502
O O11 0.225697 0.494742 0.368456
O O12 0.317392 0.732124 0.400171
O O13 0.165859 0.754372 0.355333
O O14 0.188921 0.753960 0.103062
O O15 0.896827 0.503857 0.963570
O O16 0.007145 0.724517 0.008269
O O17 0.250000 0.750000 0.500000
#
# Coordination Sequence:
#
# PCOD8141950 Si02
#       8
#     8   8   8   8   8   8   8   8
#     4  10  21  40  60  83 120 155 190 241 291 349
#     4   9  21  39  60  86 118 155 194 236 294 345
#     4  10  21  38  59  87 119 153 196 236 284 354
#     4  11  22  39  60  85 119 153 192 242 296 345
#     4  10  22  38  60  88 116 155 194 239 293 347
#     4  10  22  41  59  87 112 156 201 237 295 345
#     4  12  23  35  58  91 120 149 190 236 287 353
#     4  10  22  39  62  82 118 153 197 247 285 348
#
# _framework density 19.748818
#
# number of rings (size 3 to 8) (size 9 to 14) (size 15 to 20)
#    0.000    1.750    1.250    2.625    3.500    5.000 
#    0.000    0.000    0.000    0.000    0.000    0.000 
#    0.000    0.000    0.000    0.000    0.000    0.000 
#
# Total GULP energy -396968.172187 kJ/mol
# GULP energy per Si atom -12405.255381 kJ/mol
# Density = 1.970387 g / cm^3
# Si number density = 19.748818 Si / 1000 Ang^3
#
#
#
# Elastic Constant Matrix: (Units=GPa)
#
#
# Indices 1 2 3 4 5 6 
#
# 1 120.6290 52.8672 38.3741 0.0000 25.0793 -0.0001
# 2 52.8672 103.2331 47.4615 -0.0001 15.6692 0.0001
# 3 38.3741 47.4615 92.5663 0.0000 20.2018 0.0000
# 4 0.0000 -0.0001 0.0000 34.3578 0.0000 7.9826
# 5 25.0793 15.6692 20.2018 0.0000 28.5204 0.0000
# 6 -0.0001 0.0001 0.0000 7.9826 0.0000 31.3841
#
#
#
# Elastic Compliance Matrix: (Units=1/GPa)
#
#
# Indices 1 2 3 4 5 6 
#
# 1 0.012204 -0.004634 -0.001061 0.000000 -0.007434 0.000000
# 2 -0.004634 0.014625 -0.005575 0.000000 -0.000011 0.000000
# 3 -0.001061 -0.005575 0.015648 0.000000 -0.007088 0.000000
# 4 0.000000 0.000000 0.000000 0.030934 0.000000 -0.007868
# 5 -0.007434 -0.000011 -0.007088 0.000000 0.046627 0.000000
# 6 0.000000 0.000000 0.000000 -0.007868 0.000000 0.033865
#
#
# Mechanical properties :
#
#
# Convention : Reuss Voigt Hill
#
# Bulk Modulus (GPa) = 50.15696 65.98155 58.06926
# Shear Modulus (GPa) = 27.30948 30.70082 29.00515
#
# Velocity S-wave (km/s) = 3.72269 3.94707 3.83652
# Velocity P-wave (km/s) = 6.62801 7.36583 7.00664
#
# Compressibility (1/GPa) = 0.01993741
#
# Stress axis : x y z
#
# Youngs Moduli (GPa) = 81.94257 68.37784 63.90431
#
# Poissons Ratio (x) = 0.31683 0.06780
# Poissons Ratio (y) = 0.37968 0.35628
# Poissons Ratio (z) = 0.08694 0.38122
#
# Static dielectric constant tensor:
#      x y z
#    x 3.573030 0.000000 -0.009710 
#    y 0.000000 3.635830 0.000000 
#    z -0.009710 0.000000 3.713690 
# 
# 
# High freq. dielectric constant tensor:
#      x y z
#    x 1.762300 0.000000 0.002270 
#    y 0.000000 1.771760 0.000000 
#    z 0.002270 0.000000 1.781010 
# 
# From -- ./inp_files/318649.got.cif
#   From: 2010.06.25/outbox.cif.g09.slc.cpg/sg15_160_cif.got.tgz:318649.got - 2010.06.28 07:06:18.
