data_PCOD8141078
_publ_section_title
;
Structure prediction by ZEFSAII (Michael W. Deem and Ramdas Pophale) SiO2 
 PCOD8141078
Probable space group: C 2/C
;
_chemical_formula_sum "Si O2"
_cell_formula_units_Z 44
_cell_length_a 12.374369
_cell_length_b 23.177449
_cell_length_c 9.174706
_cell_angle_alpha 90.000000
_cell_angle_beta 58.478504
_cell_angle_gamma 90.000000
_cell_volume 2243.090260
_symmetry_space_group_name_H-M "C 2/C"
_symmetry_group_IT_number 15
_symmetry_cell_setting 'monoclinic'
loop_
_space_group_symop_operation_xyz
x,y,z
-x,y,1/2-z
-x,-y,-z
x,-y,1/2+z
1/2+x,1/2+y,z
1/2-x,1/2+y,1/2-z
1/2-x,1/2-y,-z
1/2+x,1/2-y,1/2+z
loop_
_atom_site_type_symbol
_atom_site_label
_atom_site_fract_x
_atom_site_fract_y
_atom_site_fract_z
Si Si1 0.000000 0.495156 0.750000
Si Si2 0.101744 0.312717 0.052619
Si Si3 0.107832 0.816028 0.553226
Si Si4 0.377768 0.928942 0.587245
Si Si5 0.046758 0.911081 0.369279
Si Si6 0.110405 0.967851 0.787456
O O1 0.902367 0.453901 0.731488
O O2 0.061451 0.534893 0.585403
O O3 0.077072 0.247984 0.011816
O O4 0.000000 0.325626 0.250000
O O5 0.248889 0.317972 0.992587
O O6 0.076896 0.362080 0.948703
O O7 0.104119 0.859900 0.422235
O O8 0.000000 0.832029 0.750000
O O9 0.229690 0.931015 0.653121
O O10 0.000000 0.884140 0.250000
O O11 0.928475 0.943514 0.527494
O O12 0.146774 0.963768 0.272181
O O13 0.000000 0.955968 0.750000
#
# Coordination Sequence:
#
# PCOD8141078 Si02
#       6
#     4   8   8   8   8   8
#     4  10  26  36  58  84 114 166 190 234 294 352
#     4  10  21  38  64  85 113 158 206 237 287 349
#     4  10  21  39  63  86 114 159 201 241 287 357
#     4  11  22  42  57  86 120 153 198 242 288 358
#     4  10  21  35  55  96 117 147 189 243 306 341
#     4  10  22  36  61  88 118 155 188 244 300 354
#
# _framework density 19.615796
#
# number of rings (size 3 to 8) (size 9 to 14) (size 15 to 20)
#    0.000    1.818    0.909    2.727   10.182    0.727 
#    1.636    0.000    0.000    4.364    0.000    0.000 
#    0.000    0.000    0.000    0.000    0.000    0.000 
#
# Total GULP energy -272607.032379 kJ/mol
# GULP energy per Si atom -12391.228745 kJ/mol
# Density = 1.957115 g / cm^3
# Si number density = 19.615796 Si / 1000 Ang^3
#
#
#
# Elastic Constant Matrix: (Units=GPa)
#
#
# Indices 1 2 3 4 5 6 
#
# 1 76.9888 22.1603 36.4816 0.0000 -3.3942 0.0000
# 2 22.1603 127.7807 28.3373 0.0000 18.3075 0.0000
# 3 36.4816 28.3373 72.2970 0.0000 7.1880 0.0000
# 4 0.0000 0.0000 0.0000 23.1028 0.0000 -5.6154
# 5 -3.3942 18.3075 7.1880 0.0000 39.2172 0.0000
# 6 0.0000 0.0000 0.0000 -5.6154 0.0000 121.3838
#
#
#
# Elastic Compliance Matrix: (Units=1/GPa)
#
#
# Indices 1 2 3 4 5 6 
#
# 1 0.017773 -0.001720 -0.008685 0.000000 0.003933 0.000000
# 2 -0.001720 0.009221 -0.002346 0.000000 -0.004023 0.000000
# 3 -0.008685 -0.002346 0.019455 0.000000 -0.003222 0.000000
# 4 0.000000 0.000000 0.000000 0.043777 0.000000 0.002025
# 5 0.003933 -0.004023 -0.003222 0.000000 0.028308 0.000000
# 6 0.000000 0.000000 0.000000 0.002025 0.000000 0.008332
#
#
# Mechanical properties :
#
#
# Convention : Reuss Voigt Hill
#
# Bulk Modulus (GPa) = 47.74283 50.11388 48.92836
# Shear Modulus (GPa) = 31.37742 49.41325 40.39534
#
# Velocity S-wave (km/s) = 4.00384 5.02446 4.54290
# Velocity P-wave (km/s) = 6.76507 7.69828 7.24671
#
# Compressibility (1/GPa) = 0.02094555
#
# Stress axis : x y z
#
# Youngs Moduli (GPa) = 56.26560 108.44903 51.40176
#
# Poissons Ratio (x) = 0.18649 0.44644
# Poissons Ratio (y) = 0.09676 0.12061
# Poissons Ratio (z) = 0.48868 0.25447
#
# Static dielectric constant tensor:
#      x y z
#    x 3.423200 0.000000 -0.117320 
#    y 0.000000 4.032020 0.000000 
#    z -0.117320 0.000000 3.682280 
# 
# 
# High freq. dielectric constant tensor:
#      x y z
#    x 1.743700 0.000000 -0.013750 
#    y 0.000000 1.783670 0.000000 
#    z -0.013750 0.000000 1.759720 
# 
# From -- ./inp_files/31855.got.cif
#   From: 2010.06.25/outbox.cif.g09.slc.cpg/sg15_16_cif.got.tgz:31855.got - 2010.06.28 07:06:18.
