data_PCOD8141535
_publ_section_title
;
Structure prediction by ZEFSAII (Michael W. Deem and Ramdas Pophale) SiO2 
 PCOD8141535
Probable space group: C 2/C
;
_chemical_formula_sum "Si O2"
_cell_formula_units_Z 52
_cell_length_a 25.478571
_cell_length_b 6.292912
_cell_length_c 23.560083
_cell_angle_alpha 90.000000
_cell_angle_beta 137.252681
_cell_angle_gamma 90.000000
_cell_volume 2564.034514
_symmetry_space_group_name_H-M "C 2/C"
_symmetry_group_IT_number 15
_symmetry_cell_setting 'monoclinic'
loop_
_space_group_symop_operation_xyz
x,y,z
-x,y,1/2-z
-x,-y,-z
x,-y,1/2+z
1/2+x,1/2+y,z
1/2-x,1/2+y,1/2-z
1/2-x,1/2-y,-z
1/2+x,1/2-y,1/2+z
loop_
_atom_site_type_symbol
_atom_site_label
_atom_site_fract_x
_atom_site_fract_y
_atom_site_fract_z
Si Si1 0.500000 0.017874 0.250000
Si Si2 0.061912 0.285818 0.079671
Si Si3 0.436244 0.401161 0.136060
Si Si4 0.682718 0.552638 0.244385
Si Si5 0.149036 0.309880 0.639517
Si Si6 0.925571 0.969601 0.506425
Si Si7 0.590930 0.365661 0.778801
O O1 0.448393 0.157011 0.165010
O O2 0.438302 0.876034 0.236037
O O3 0.071221 0.541175 0.078148
O O4 0.144146 0.226396 0.172875
O O5 0.045253 0.172095 0.006391
O O6 0.994706 0.204970 0.069165
O O7 0.385484 0.531748 0.141689
O O8 0.521571 0.496800 0.198234
O O9 0.395995 0.435225 0.042892
O O10 0.774604 0.553167 0.310082
O O11 0.652462 0.318721 0.201653
O O12 0.662921 0.611227 0.293710
O O13 0.143593 0.145129 0.582537
#
# Coordination Sequence:
#
# PCOD8141535 Si02
#       7
#     4   8   8   8   8   8   8
#     4   8  18  34  58  86 108 160 186 242 310 328
#     4  10  21  37  58  86 118 158 189 246 297 348
#     4   9  18  36  55  87 116 146 196 247 284 358
#     4  11  21  39  57  88 118 153 202 241 289 363
#     4  11  23  38  60  85 121 161 193 242 300 344
#     4  10  21  38  57  90 120 148 201 244 294 349
#     4   9  19  35  57  84 117 148 197 241 288 354
#
# _framework density 20.280538
#
# number of rings (size 3 to 8) (size 9 to 14) (size 15 to 20)
#    0.000    2.462    3.077    0.462    0.000    4.923 
#    0.000    0.769    0.000    1.846    0.000    0.000 
#    0.000    0.000    0.000    0.000    0.000    0.000 
#
# Total GULP energy -322230.686679 kJ/mol
# GULP energy per Si atom -12393.487949 kJ/mol
# Density = 2.023438 g / cm^3
# Si number density = 20.280538 Si / 1000 Ang^3
#
#
#
# Elastic Constant Matrix: (Units=GPa)
#
#
# Indices 1 2 3 4 5 6 
#
# 1 102.7640 44.7391 35.2319 -0.0013 -30.0170 -0.0031
# 2 44.7391 129.9133 28.8233 -0.0037 -14.8361 -0.0120
# 3 35.2319 28.8233 61.7841 0.0002 -18.6549 0.0006
# 4 -0.0013 -0.0037 0.0002 28.4666 0.0004 3.1665
# 5 -30.0170 -14.8361 -18.6549 0.0004 32.6624 -0.0006
# 6 -0.0031 -0.0120 0.0006 3.1665 -0.0006 20.7159
#
#
#
# Elastic Compliance Matrix: (Units=1/GPa)
#
#
# Indices 1 2 3 4 5 6 
#
# 1 0.015671 -0.003255 -0.004248 0.000000 0.010497 0.000001
# 2 -0.003255 0.009366 -0.002576 0.000001 -0.000209 0.000005
# 3 -0.004248 -0.002576 0.022086 0.000000 0.007540 -0.000002
# 4 0.000000 0.000001 0.000000 0.035737 0.000000 -0.005463
# 5 0.010497 -0.000209 0.007540 0.000000 0.044474 0.000003
# 6 0.000001 0.000005 -0.000002 -0.005463 0.000003 0.049107
#
#
# Mechanical properties :
#
#
# Convention : Reuss Voigt Hill
#
# Bulk Modulus (GPa) = 37.08650 56.89445 46.99047
# Shear Modulus (GPa) = 24.32040 28.74680 26.53360
#
# Velocity S-wave (km/s) = 3.46670 3.76900 3.62101
# Velocity P-wave (km/s) = 5.86093 6.85967 6.37987
#
# Compressibility (1/GPa) = 0.02696399
#
# Stress axis : x y z
#
# Youngs Moduli (GPa) = 63.81316 106.76630 45.27685
#
# Poissons Ratio (x) = 0.34757 0.19234
# Poissons Ratio (y) = 0.20774 0.11664
# Poissons Ratio (z) = 0.27109 0.27504
#
# Static dielectric constant tensor:
#      x y z
#    x 3.447740 -0.000010 -0.229500 
#    y -0.000010 3.795870 0.000000 
#    z -0.229500 0.000000 3.514400 
# 
# 
# High freq. dielectric constant tensor:
#      x y z
#    x 1.764300 0.000000 -0.016700 
#    y 0.000000 1.802760 0.000000 
#    z -0.016700 0.000000 1.773230 
# 
# From -- ./inp_files/281225.got.cif
#   From: 2010.06.25/outbox.cif.g09.slc.cpg/sg15_141_cif.got.tgz:281225.got - 2010.06.28 07:06:18.
