data_PCOD8141173
_publ_section_title
;
Structure prediction by ZEFSAII (Michael W. Deem and Ramdas Pophale) SiO2 
 PCOD8141173
Probable space group: C 2/C
;
_chemical_formula_sum "Si O2"
_cell_formula_units_Z 28
_cell_length_a 17.036700
_cell_length_b 8.495655
_cell_length_c 16.239334
_cell_angle_alpha 90.000000
_cell_angle_beta 144.422487
_cell_angle_gamma 90.000000
_cell_volume 1367.499310
_symmetry_space_group_name_H-M "C 2/C"
_symmetry_group_IT_number 15
_symmetry_cell_setting 'monoclinic'
loop_
_space_group_symop_operation_xyz
x,y,z
-x,y,1/2-z
-x,-y,-z
x,-y,1/2+z
1/2+x,1/2+y,z
1/2-x,1/2+y,1/2-z
1/2-x,1/2-y,-z
1/2+x,1/2-y,1/2+z
loop_
_atom_site_type_symbol
_atom_site_label
_atom_site_fract_x
_atom_site_fract_y
_atom_site_fract_z
Si Si1 0.327007 0.860562 0.808221
Si Si2 0.000000 0.620374 0.750000
Si Si3 0.062522 0.292500 0.127271
Si Si4 0.858413 0.318731 0.651654
O O1 0.175514 0.843406 0.714971
O O2 0.324423 0.779570 0.716700
O O3 0.364898 0.042810 0.831621
O O4 0.436684 0.769630 0.958136
O O5 0.998843 0.721825 0.832679
O O6 0.867974 0.506710 0.641021
O O7 0.750000 0.250000 0.500000
O O8 0.000000 0.235779 0.750000
#
# Coordination Sequence:
#
# PCOD8141173 Si02
#       4
#     8   4   8   8
#     4  10  21  35  62  82 116 149 190 236 283 334
#     4   8  20  36  58  78 116 152 182 230 288 336
#     4  10  21  39  57  84 115 153 188 233 283 339
#     4   9  17  32  55  83 106 147 189 230 270 329
#
# _framework density 20.475331000000001
#
# number of rings (size 3 to 8) (size 9 to 14) (size 15 to 20)
#    0.857    1.714    0.000    1.714    4.000    2.286 
#    0.000    0.000    3.143    0.000    0.000    0.000 
#    0.000    0.000    0.000    0.000    0.000    0.000 
#
# Total GULP energy -173486.365014 kJ/mol
# GULP energy per Si atom -12391.883215 kJ/mol
# Density = 2.042873 g / cm^3
# Si number density = 20.475331 Si / 1000 Ang^3
#
#
#
# Elastic Constant Matrix: (Units=GPa)
#
#
# Indices 1 2 3 4 5 6 
#
# 1 165.4091 18.8187 75.9671 0.0000 -29.7297 0.0000
# 2 18.8187 14.7987 17.3569 0.0000 -7.3837 0.0000
# 3 75.9671 17.3569 156.9518 0.0000 -20.4598 0.0000
# 4 0.0000 0.0000 0.0000 24.9932 0.0000 5.6647
# 5 -29.7297 -7.3837 -20.4598 0.0000 39.8357 0.0000
# 6 0.0000 0.0000 0.0000 5.6647 0.0000 29.9001
#
#
#
# Elastic Compliance Matrix: (Units=1/GPa)
#
#
# Indices 1 2 3 4 5 6 
#
# 1 0.008833 -0.005577 -0.003145 0.000000 0.003943 0.000000
# 2 -0.005577 0.085665 -0.005623 0.000000 0.008828 0.000000
# 3 -0.003145 -0.005623 0.008653 0.000000 0.001055 0.000000
# 4 0.000000 0.000000 0.000000 0.041806 0.000000 -0.007920
# 5 0.003943 0.008828 0.001055 0.000000 0.030224 0.000000
# 6 0.000000 0.000000 0.000000 -0.007920 0.000000 0.034945
#
#
# Mechanical properties :
#
#
# Convention : Reuss Voigt Hill
#
# Bulk Modulus (GPa) = 13.42977 62.38280 37.90628
# Shear Modulus (GPa) = 18.96550 33.94693 26.45621
#
# Velocity S-wave (km/s) = 3.04676 4.07620 3.59848
# Velocity P-wave (km/s) = 4.35318 7.25860 5.98488
#
# Compressibility (1/GPa) = 0.07446143
#
# Stress axis : x y z
#
# Youngs Moduli (GPa) = 113.21100 11.67336 115.56946
#
# Poissons Ratio (x) = 0.06510 0.36341
# Poissons Ratio (y) = 0.63136 0.64990
# Poissons Ratio (z) = 0.35600 0.06564
#
# Static dielectric constant tensor:
#      x y z
#    x 3.806010 0.000000 -0.108260 
#    y 0.000000 3.215940 0.000000 
#    z -0.108260 0.000000 3.621040 
# 
# 
# High freq. dielectric constant tensor:
#      x y z
#    x 1.814810 0.000000 -0.010240 
#    y 0.000000 1.751720 0.000000 
#    z -0.010240 0.000000 1.802960 
# 
# From -- ./inp_files/36334.got.cif
#   From: 2010.06.25/outbox.cif.g09.slc.cpg/sg15_19_cif.got.tgz:36334.got - 2010.06.28 07:06:18.
