data_PCOD8141167
_publ_section_title
;
Structure prediction by ZEFSAII (Michael W. Deem and Ramdas Pophale) SiO2 
 PCOD8141167
Probable space group: C 2/C
;
_chemical_formula_sum "Si O2"
_cell_formula_units_Z 56
_cell_length_a 10.827335
_cell_length_b 22.975677
_cell_length_c 11.834825
_cell_angle_alpha 90.000000
_cell_angle_beta 68.913435
_cell_angle_gamma 90.000000
_cell_volume 2746.951728
_symmetry_space_group_name_H-M "C 2/C"
_symmetry_group_IT_number 15
_symmetry_cell_setting 'monoclinic'
loop_
_space_group_symop_operation_xyz
x,y,z
-x,y,1/2-z
-x,-y,-z
x,-y,1/2+z
1/2+x,1/2+y,z
1/2-x,1/2+y,1/2-z
1/2-x,1/2-y,-z
1/2+x,1/2-y,1/2+z
loop_
_atom_site_type_symbol
_atom_site_label
_atom_site_fract_x
_atom_site_fract_y
_atom_site_fract_z
Si Si1 0.149396 0.605573 0.724481
Si Si2 0.231203 0.188932 0.380395
Si Si3 0.681066 0.668713 0.003168
Si Si4 0.143382 0.276264 0.881160
Si Si5 0.415844 0.461065 0.174105
Si Si6 0.545711 0.586066 0.408291
Si Si7 0.617105 0.807505 0.441690
O O1 0.194607 0.635121 0.592824
O O2 0.260314 0.557484 0.722301
O O3 0.146994 0.652599 0.825079
O O4 0.000000 0.580073 0.750000
O O5 0.345407 0.210936 0.256168
O O6 0.175415 0.126201 0.365564
O O7 0.279241 0.181462 0.492565
O O8 0.121062 0.239371 0.406373
O O9 0.617368 0.708221 0.922233
O O10 0.722553 0.707286 0.096637
O O11 0.577873 0.624097 0.094005
O O12 0.028906 0.318935 0.963230
O O13 0.500000 0.435343 0.250000
O O14 0.418544 0.531189 0.181098
O O15 0.502029 0.436818 0.044092
#
# Coordination Sequence:
#
# PCOD8141167 Si02
#       7
#     8   8   8   8   8   8   8
#     4  11  21  41  65  91 126 166 207 260 320 380
#     4  11  23  36  61  90 127 171 201 257 312 382
#     4  10  21  35  61  90 123 163 202 252 304 377
#     4  11  21  36  55  94 130 160 200 246 313 382
#     4  10  23  42  68  91 118 166 221 269 310 362
#     4  10  22  42  62  91 123 157 221 259 306 369
#     4  11  22  38  58  92 132 165 204 246 324 388
#
# _framework density 20.386234999999999
#
# number of rings (size 3 to 8) (size 9 to 14) (size 15 to 20)
#    0.000    1.429    4.286    1.286    2.000    0.000 
#    0.000    1.429    0.000    4.286    0.000    0.000 
#    0.000    0.000    0.000    0.000    0.000    0.000 
#
# Total GULP energy -346968.637499 kJ/mol
# GULP energy per Si atom -12391.737054 kJ/mol
# Density = 2.033983 g / cm^3
# Si number density = 20.386235 Si / 1000 Ang^3
#
#
#
# Elastic Constant Matrix: (Units=GPa)
#
#
# Indices 1 2 3 4 5 6 
#
# 1 94.9783 40.6456 33.9550 0.0000 -7.2779 0.0000
# 2 40.6456 91.0308 9.0372 0.0000 -2.7533 0.0000
# 3 33.9550 9.0372 24.2056 0.0000 -0.2510 0.0000
# 4 0.0000 0.0000 0.0000 24.4487 0.0000 -7.4182
# 5 -7.2779 -2.7533 -0.2510 0.0000 31.2670 0.0000
# 6 0.0000 0.0000 0.0000 -7.4182 0.0000 29.2541
#
#
#
# Elastic Compliance Matrix: (Units=1/GPa)
#
#
# Indices 1 2 3 4 5 6 
#
# 1 0.026854 -0.008409 -0.034475 0.000000 0.005233 0.000000
# 2 -0.008409 0.014071 0.006536 0.000000 -0.000666 0.000000
# 3 -0.034475 0.006536 0.087164 0.000000 -0.006749 0.000000
# 4 0.000000 0.000000 0.000000 0.044311 0.000000 0.011236
# 5 0.005233 -0.000666 -0.006749 0.000000 0.033088 0.000000
# 6 0.000000 0.000000 0.000000 0.011236 0.000000 0.037033
#
#
# Mechanical properties :
#
#
# Convention : Reuss Voigt Hill
#
# Bulk Modulus (GPa) = 18.05359 41.94338 29.99848
# Shear Modulus (GPa) = 14.98437 25.43242 20.20840
#
# Velocity S-wave (km/s) = 2.71407 3.53587 3.15187
# Velocity P-wave (km/s) = 4.32396 6.10646 5.29082
#
# Compressibility (1/GPa) = 0.05539066
#
# Stress axis : x y z
#
# Youngs Moduli (GPa) = 37.23908 71.06774 11.47268
#
# Poissons Ratio (x) = 0.59763 0.39553
# Poissons Ratio (y) = 0.31316 -0.07499
# Poissons Ratio (z) = 1.28383 -0.46450
#
# Static dielectric constant tensor:
#      x y z
#    x 3.602770 0.000000 -0.061140 
#    y 0.000000 3.771380 0.000000 
#    z -0.061140 0.000000 3.657810 
# 
# 
# High freq. dielectric constant tensor:
#      x y z
#    x 1.792220 0.000000 -0.003010 
#    y 0.000000 1.781060 0.000000 
#    z -0.003010 0.000000 1.804000 
# 
# From -- ./inp_files/89544.got.cif
#   From: 2010.06.25/outbox.cif.g09.slc.cpg/sg15_45_cif.got.tgz:89544.got - 2010.06.28 07:06:18.
