data_PCOD8141903
_publ_section_title
;
Structure prediction by ZEFSAII (Michael W. Deem and Ramdas Pophale) SiO2 
 PCOD8141903
Probable space group: C 2/C
;
_chemical_formula_sum "Si O2"
_cell_formula_units_Z 64
_cell_length_a 9.450064
_cell_length_b 13.984572
_cell_length_c 29.938196
_cell_angle_alpha 90.000000
_cell_angle_beta 118.798762
_cell_angle_gamma 90.000000
_cell_volume 3467.135680
_symmetry_space_group_name_H-M "C 2/C"
_symmetry_group_IT_number 15
_symmetry_cell_setting 'monoclinic'
loop_
_space_group_symop_operation_xyz
x,y,z
-x,y,1/2-z
-x,-y,-z
x,-y,1/2+z
1/2+x,1/2+y,z
1/2-x,1/2+y,1/2-z
1/2-x,1/2-y,-z
1/2+x,1/2-y,1/2+z
loop_
_atom_site_type_symbol
_atom_site_label
_atom_site_fract_x
_atom_site_fract_y
_atom_site_fract_z
Si Si1 0.634883 0.888945 0.871613
Si Si2 0.632151 0.892167 0.361423
Si Si3 0.467521 0.385836 0.873189
Si Si4 0.913100 0.240467 0.281566
Si Si5 0.245967 0.743799 0.052269
Si Si6 0.950404 0.238533 0.791117
Si Si7 0.916037 0.740675 0.050933
Si Si8 0.966253 0.897763 0.370029
O O1 0.823828 0.876760 0.887674
O O2 0.525087 0.840375 0.816824
O O3 0.598554 0.841188 0.913771
O O4 0.581904 0.999766 0.865910
O O5 0.484653 0.835283 0.316226
O O6 0.694116 0.842884 0.416518
O O7 0.773386 0.892535 0.346292
O O8 0.409863 0.344976 0.816875
O O9 0.628929 0.336874 0.914579
O O10 0.523666 0.494230 0.875377
O O11 0.739540 0.261086 0.235733
O O12 0.000000 0.205920 0.250000
O O13 0.066326 0.714804 0.041432
O O14 0.250000 0.750000 0.000000
O O15 0.019834 0.156245 0.833501
O O16 0.000000 0.208457 0.750000
O O17 0.946208 0.845549 0.075644
O O18 0.750000 0.750000 0.000000
#
# Coordination Sequence:
#
# PCOD8141903 Si02
#       8
#     8   8   8   8   8   8   8   8
#     4  10  21  38  59  82 113 144 191 230 274 332
#     4   9  20  38  59  81 106 153 189 222 271 338
#     4  10  21  38  58  84 110 148 187 234 273 326
#     4  11  21  36  59  80 115 152 190 225 276 329
#     4  10  21  39  61  84 112 144 185 229 281 336
#     4  11  21  36  55  86 113 148 186 233 276 320
#     4  10  21  39  61  83 112 149 179 229 284 336
#     4   9  20  38  58  80 113 145 189 226 273 334
#
# _framework density 18.459040999999999
#
# number of rings (size 3 to 8) (size 9 to 14) (size 15 to 20)
#    0.000    2.000    2.500    0.750    1.750    3.000 
#    2.250    5.000    0.000    0.000    0.000    0.000 
#    0.000    0.000    0.000    0.000    0.000    0.000 
#
# Total GULP energy -396769.290884 kJ/mol
# GULP energy per Si atom -12399.040340 kJ/mol
# Density = 1.841703 g / cm^3
# Si number density = 18.459041 Si / 1000 Ang^3
#
#
#
# Elastic Constant Matrix: (Units=GPa)
#
#
# Indices 1 2 3 4 5 6 
#
# 1 112.7365 43.2850 46.4097 0.0000 -4.1002 0.0000
# 2 43.2850 144.6332 41.7324 0.0000 -2.7033 0.0000
# 3 46.4097 41.7324 95.3949 0.0000 -2.0961 0.0000
# 4 0.0000 0.0000 0.0000 13.3113 0.0000 0.9276
# 5 -4.1002 -2.7033 -2.0961 0.0000 44.3885 0.0000
# 6 0.0000 0.0000 0.0000 0.9276 0.0000 24.8260
#
#
#
# Elastic Compliance Matrix: (Units=1/GPa)
#
#
# Indices 1 2 3 4 5 6 
#
# 1 0.011654 -0.002109 -0.004731 0.000000 0.000725 0.000000
# 2 -0.002109 0.008299 -0.002600 0.000000 0.000188 0.000000
# 3 -0.004731 -0.002600 0.013923 0.000000 0.000062 0.000000
# 4 0.000000 0.000000 0.000000 0.075320 0.000000 -0.002814
# 5 0.000725 0.000188 0.000062 0.000000 0.022610 0.000000
# 6 0.000000 0.000000 0.000000 -0.002814 0.000000 0.040385
#
#
# Mechanical properties :
#
#
# Convention : Reuss Voigt Hill
#
# Bulk Modulus (GPa) = 66.68762 68.40212 67.54487
# Shear Modulus (GPa) = 25.50091 31.26100 28.38095
#
# Velocity S-wave (km/s) = 3.72087 4.11972 3.92536
# Velocity P-wave (km/s) = 7.39362 7.73085 7.56411
#
# Compressibility (1/GPa) = 0.01499529
#
# Stress axis : x y z
#
# Youngs Moduli (GPa) = 85.80739 120.49554 71.82164
#
# Poissons Ratio (x) = 0.25414 0.33980
# Poissons Ratio (y) = 0.18098 0.18676
# Poissons Ratio (z) = 0.40596 0.31334
#
# Static dielectric constant tensor:
#      x y z
#    x 3.442790 0.000000 -0.105960 
#    y 0.000000 3.451110 0.000000 
#    z -0.105960 0.000000 3.631030 
# 
# 
# High freq. dielectric constant tensor:
#      x y z
#    x 1.722320 0.000000 -0.001320 
#    y 0.000000 1.712690 0.000000 
#    z -0.001320 0.000000 1.722330 
# 
# From -- ./inp_files/307999.got.cif
#   From: 2010.06.25/outbox.cif.g09.slc.cpg/sg15_154_cif.got.tgz:307999.got - 2010.06.28 07:06:18.
