data_PCOD8141480
_publ_section_title
;
Structure prediction by ZEFSAII (Michael W. Deem and Ramdas Pophale) SiO2 
 PCOD8141480
Probable space group: C 2/C
;
_chemical_formula_sum "Si O2"
_cell_formula_units_Z 64
_cell_length_a 8.996913
_cell_length_b 27.820950
_cell_length_c 14.057407
_cell_angle_alpha 90.000000
_cell_angle_beta 90.000034
_cell_angle_gamma 90.000000
_cell_volume 3518.606459
_symmetry_space_group_name_H-M "C 2/C"
_symmetry_group_IT_number 15
_symmetry_cell_setting 'monoclinic'
loop_
_space_group_symop_operation_xyz
x,y,z
-x,y,1/2-z
-x,-y,-z
x,-y,1/2+z
1/2+x,1/2+y,z
1/2-x,1/2+y,1/2-z
1/2-x,1/2-y,-z
1/2+x,1/2-y,1/2+z
loop_
_atom_site_type_symbol
_atom_site_label
_atom_site_fract_x
_atom_site_fract_y
_atom_site_fract_z
Si Si1 0.328344 0.876313 0.905335
Si Si2 0.675015 0.801606 0.250000
Si Si3 0.326658 0.631545 0.603836
Si Si4 0.328344 0.123687 0.094665
Si Si5 0.673342 0.631545 0.603836
Si Si6 0.832629 0.703268 0.250000
Si Si7 0.669764 0.449807 0.250000
Si Si8 0.824468 0.550329 0.250000
O O1 0.500000 0.882806 0.935867
O O2 0.307866 0.828351 0.843884
O O3 0.269776 0.921973 0.844594
O O4 0.224919 0.872807 0.996381
O O5 0.500000 0.808449 0.250000
O O6 0.740322 0.825388 0.154956
O O7 0.740322 0.825388 0.345044
O O8 0.713638 0.745569 0.250000
O O9 0.275081 0.627194 0.496381
O O10 0.500000 0.644062 0.608540
O O11 0.293676 0.581343 0.656631
O O12 0.307866 0.171648 0.156117
O O13 0.269776 0.078027 0.155406
O O14 0.706324 0.581343 0.656631
O O15 0.000000 0.724305 0.250000
O O16 0.500000 0.467122 0.250000
O O17 0.772770 0.495951 0.250000
O O18 0.000000 0.552824 0.250000
#
# Coordination Sequence:
#
# PCOD8141480 Si02
#       8
#     8   8   8   8   8   8   8   8
#     4   9  19  36  56  79 106 138 176 216 260 310
#     4  11  22  36  56  80 105 136 176 218 261 312
#     4  10  21  37  55  77 107 141 176 216 262 310
#     4   9  19  36  56  79 106 138 176 216 260 310
#     4  10  21  37  55  77 107 141 176 216 262 310
#     4   9  19  37  57  77 107 140 172 216 263 309
#     4   9  20  36  52  74 105 140 176 214 261 314
#     4   9  19  35  55  79 107 138 174 218 263 307
#
# _framework density 18.189018000000001
#
# number of rings (size 3 to 8) (size 9 to 14) (size 15 to 20)
#    0.000    2.500    0.000    4.125    0.000    7.000 
#    0.000    7.500    0.000    0.000    0.000    0.000 
#    0.000    0.000    0.000    0.000    0.000    0.000 
#
# Total GULP energy -396856.836477 kJ/mol
# GULP energy per Si atom -12401.776140 kJ/mol
# Density = 1.814762 g / cm^3
# Si number density = 18.189018 Si / 1000 Ang^3
#
#
#
# Elastic Constant Matrix: (Units=GPa)
#
#
# Indices 1 2 3 4 5 6 
#
# 1 90.6817 43.9051 55.9903 0.0000 -3.1764 0.0000
# 2 43.9051 100.8894 47.3562 0.0000 -0.3145 0.0000
# 3 55.9903 47.3562 138.7730 0.0000 -1.2040 0.0000
# 4 0.0000 0.0000 0.0000 12.1500 0.0000 2.1330
# 5 -3.1764 -0.3145 -1.2040 0.0000 34.6030 0.0000
# 6 0.0000 0.0000 0.0000 2.1330 0.0000 35.5697
#
#
#
# Elastic Compliance Matrix: (Units=1/GPa)
#
#
# Indices 1 2 3 4 5 6 
#
# 1 0.016496 -0.004830 -0.004996 0.000000 0.001297 0.000000
# 2 -0.004830 0.013216 -0.002565 0.000000 -0.000412 0.000000
# 3 -0.004996 -0.002565 0.010096 0.000000 -0.000131 0.000000
# 4 0.000000 0.000000 0.000000 0.083180 0.000000 -0.004988
# 5 0.001297 -0.000412 -0.000131 0.000000 0.029010 0.000000
# 6 0.000000 0.000000 0.000000 -0.004988 0.000000 0.028413
#
#
# Mechanical properties :
#
#
# Convention : Reuss Voigt Hill
#
# Bulk Modulus (GPa) = 66.54847 69.42748 67.98798
# Shear Modulus (GPa) = 23.78659 28.67071 26.22865
#
# Velocity S-wave (km/s) = 3.62020 3.97453 3.80149
# Velocity P-wave (km/s) = 7.35806 7.70165 7.53181
#
# Compressibility (1/GPa) = 0.01502664
#
# Stress axis : x y z
#
# Youngs Moduli (GPa) = 60.61984 75.66416 99.04854
#
# Poissons Ratio (x) = 0.36543 0.49488
# Poissons Ratio (y) = 0.29277 0.25407
# Poissons Ratio (z) = 0.30288 0.19408
#
# Static dielectric constant tensor:
#      x y z
#    x 3.260920 0.000000 -0.014260 
#    y 0.000000 3.296970 0.000000 
#    z -0.014260 0.000000 3.417500 
# 
# 
# High freq. dielectric constant tensor:
#      x y z
#    x 1.704390 0.000000 -0.000470 
#    y 0.000000 1.704770 0.000000 
#    z -0.000470 0.000000 1.709520 
# 
# From -- ./inp_files/138627.got.cif
#   From: 2010.06.25/outbox.cif.g09.slc.cpg/sg15_70_cif.got.tgz:138627.got - 2010.06.28 07:06:18.
