data_PCOD8141177
_publ_section_title
;
Structure prediction by ZEFSAII (Michael W. Deem and Ramdas Pophale) SiO2 
 PCOD8141177
Probable space group: C 2/C
;
_chemical_formula_sum "Si O2"
_cell_formula_units_Z 52
_cell_length_a 19.361074
_cell_length_b 17.186427
_cell_length_c 9.783510
_cell_angle_alpha 90.000000
_cell_angle_beta 50.549061
_cell_angle_gamma 90.000000
_cell_volume 2513.749950
_symmetry_space_group_name_H-M "C 2/C"
_symmetry_group_IT_number 15
_symmetry_cell_setting 'monoclinic'
loop_
_space_group_symop_operation_xyz
x,y,z
-x,y,1/2-z
-x,-y,-z
x,-y,1/2+z
1/2+x,1/2+y,z
1/2-x,1/2+y,1/2-z
1/2-x,1/2-y,-z
1/2+x,1/2-y,1/2+z
loop_
_atom_site_type_symbol
_atom_site_label
_atom_site_fract_x
_atom_site_fract_y
_atom_site_fract_z
Si Si1 0.465452 0.245944 0.647943
Si Si2 0.315877 0.532167 0.369700
Si Si3 0.721961 0.356742 0.056849
Si Si4 0.000000 0.016725 0.750000
Si Si5 0.802000 0.672189 0.966302
Si Si6 0.104521 0.877770 0.951964
Si Si7 0.651638 0.782458 0.796061
O O1 0.500000 0.279295 0.750000
O O2 0.398151 0.174743 0.768139
O O3 0.411194 0.313935 0.643294
O O4 0.544235 0.219281 0.446953
O O5 0.271764 0.447456 0.416618
O O6 0.410981 0.533420 0.331694
O O7 0.248248 0.594595 0.523670
O O8 0.328983 0.558576 0.196992
O O9 0.692029 0.305470 0.226326
O O10 0.648095 0.340654 0.031961
O O11 0.818914 0.329654 0.877282
O O12 0.014537 0.074652 0.602461
O O13 0.750000 0.750000 0.000000
O O14 0.809949 0.672785 0.120846
#
# Coordination Sequence:
#
# PCOD8141177 Si02
#       7
#     8   8   8   4   8   8   8
#     4  10  21  35  62  88 119 162 202 248 291 357
#     4  11  22  36  57  87 124 154 197 239 309 356
#     4  10  22  40  63  87 122 162 193 256 300 359
#     4  10  24  34  58  88 120 158 192 252 304 374
#     4  11  21  39  58  88 125 159 196 246 296 363
#     4  11  20  39  56  89 125 151 198 244 307 365
#     4  10  21  40  61  89 118 157 208 241 300 352
#
# _framework density 20.686226000000001
#
# number of rings (size 3 to 8) (size 9 to 14) (size 15 to 20)
#    0.000    1.538    3.077    2.308    1.077    2.462 
#    0.000    0.769    0.000    0.000    0.000    0.000 
#    0.000    0.000    0.000    0.000    0.000    0.000 
#
# Total GULP energy -322229.029144 kJ/mol
# GULP energy per Si atom -12393.424198 kJ/mol
# Density = 2.063914 g / cm^3
# Si number density = 20.686226 Si / 1000 Ang^3
#
#
#
# Elastic Constant Matrix: (Units=GPa)
#
#
# Indices 1 2 3 4 5 6 
#
# 1 50.2505 43.3680 35.5692 0.0000 -5.2376 0.0000
# 2 43.3680 149.9398 58.6195 0.0000 -19.9389 0.0000
# 3 35.5692 58.6195 141.5984 0.0000 -32.4891 0.0000
# 4 0.0000 0.0000 0.0000 27.5610 0.0000 -6.2436
# 5 -5.2376 -19.9389 -32.4891 0.0000 26.3123 0.0000
# 6 0.0000 0.0000 0.0000 -6.2436 0.0000 27.8225
#
#
#
# Elastic Compliance Matrix: (Units=1/GPa)
#
#
# Indices 1 2 3 4 5 6 
#
# 1 0.029638 -0.007119 -0.006114 0.000000 -0.007044 0.000000
# 2 -0.007119 0.009811 -0.001246 0.000000 0.004480 0.000000
# 3 -0.006114 -0.001246 0.012025 0.000000 0.012686 0.000000
# 4 0.000000 0.000000 0.000000 0.038227 0.000000 0.008578
# 5 -0.007044 0.004480 0.012686 0.000000 0.055662 0.000000
# 6 0.000000 0.000000 0.000000 0.008578 0.000000 0.037867
#
#
# Mechanical properties :
#
#
# Convention : Reuss Voigt Hill
#
# Bulk Modulus (GPa) = 44.41222 68.54469 56.47846
# Shear Modulus (GPa) = 22.75927 29.95462 26.35695
#
# Velocity S-wave (km/s) = 3.32055 3.80945 3.57337
# Velocity P-wave (km/s) = 6.01809 7.24959 6.66236
#
# Compressibility (1/GPa) = 0.02251632
#
# Stress axis : x y z
#
# Youngs Moduli (GPa) = 33.74098 101.92689 83.16309
#
# Poissons Ratio (x) = 0.72558 0.50847
# Poissons Ratio (y) = 0.24019 0.10359
# Poissons Ratio (z) = 0.20630 0.12696
#
# Static dielectric constant tensor:
#      x y z
#    x 3.826810 0.000000 -0.234020 
#    y 0.000000 3.721460 0.000000 
#    z -0.234020 0.000000 4.144150 
# 
# 
# High freq. dielectric constant tensor:
#      x y z
#    x 1.784650 0.000000 -0.005740 
#    y 0.000000 1.791620 0.000000 
#    z -0.005740 0.000000 1.830360 
# 
# From -- ./inp_files/56939.got.cif
#   From: 2010.06.25/outbox.cif.g09.slc.cpg/sg15_29_cif.got.tgz:56939.got - 2010.06.28 07:06:18.
