data_PCOD8141909
_publ_section_title
;
Structure prediction by ZEFSAII (Michael W. Deem and Ramdas Pophale) SiO2 
 PCOD8141909
Probable space group: C 2/C
;
_chemical_formula_sum "Si O2"
_cell_formula_units_Z 56
_cell_length_a 9.122663
_cell_length_b 22.959703
_cell_length_c 14.108129
_cell_angle_alpha 90.000000
_cell_angle_beta 119.469285
_cell_angle_gamma 90.000000
_cell_volume 2572.679785
_symmetry_space_group_name_H-M "C 2/C"
_symmetry_group_IT_number 15
_symmetry_cell_setting 'monoclinic'
loop_
_space_group_symop_operation_xyz
x,y,z
-x,y,1/2-z
-x,-y,-z
x,-y,1/2+z
1/2+x,1/2+y,z
1/2-x,1/2+y,1/2-z
1/2-x,1/2-y,-z
1/2+x,1/2-y,1/2+z
loop_
_atom_site_type_symbol
_atom_site_label
_atom_site_fract_x
_atom_site_fract_y
_atom_site_fract_z
Si Si1 0.284986 0.387179 0.506672
Si Si2 0.311050 0.030332 0.689553
Si Si3 0.320083 0.621099 0.712853
Si Si4 0.753993 0.843245 0.987774
Si Si5 0.398426 0.292728 0.397468
Si Si6 0.849266 0.090008 0.343888
Si Si7 0.624780 0.163255 0.130570
O O1 0.237370 0.443109 0.428015
O O2 0.308282 0.329843 0.450435
O O3 0.455165 0.401123 0.619584
O O4 0.142102 0.374874 0.539994
O O5 0.500000 0.006154 0.750000
O O6 0.300808 0.079464 0.766401
O O7 0.193724 0.977356 0.684167
O O8 0.500000 0.590058 0.750000
O O9 0.227631 0.636237 0.586698
O O10 0.357687 0.680017 0.782558
O O11 0.895616 0.791963 0.023389
O O12 0.824379 0.896673 0.947585
O O13 0.566463 0.828628 0.892793
O O14 0.315521 0.228934 0.373319
O O15 0.735612 0.134459 0.247880
#
# Coordination Sequence:
#
# PCOD8141909 Si02
#       7
#     8   8   8   8   8   8   8
#     4  10  23  42  62  87 121 163 200 244 306 362
#     4  11  22  41  64  89 118 154 207 262 303 355
#     4   9  20  38  60  85 115 159 202 240 299 366
#     4  10  21  38  58  86 120 160 199 242 301 360
#     4   9  21  39  60  87 122 155 194 246 302 358
#     4  11  25  41  57  87 127 162 198 251 306 355
#     4  12  22  37  61  91 119 155 203 247 295 358
#
# _framework density 21.767185999999999
#
# number of rings (size 3 to 8) (size 9 to 14) (size 15 to 20)
#    0.000    1.714    0.000    4.714    0.000    8.000 
#    0.000   10.000    0.000    0.000    0.000    0.000 
#    0.000    0.000    0.000    0.000    0.000    0.000 
#
# Total GULP energy -347180.784943 kJ/mol
# GULP energy per Si atom -12399.313748 kJ/mol
# Density = 2.171764 g / cm^3
# Si number density = 21.767186 Si / 1000 Ang^3
#
#
#
# Elastic Constant Matrix: (Units=GPa)
#
#
# Indices 1 2 3 4 5 6 
#
# 1 70.3803 12.5781 14.2747 0.0000 2.1907 0.0000
# 2 12.5781 111.6079 28.1919 0.0000 9.0485 0.0000
# 3 14.2747 28.1919 94.4408 0.0000 6.3966 0.0000
# 4 0.0000 0.0000 0.0000 19.9750 0.0000 4.7491
# 5 2.1907 9.0485 6.3966 0.0000 31.8343 0.0000
# 6 0.0000 0.0000 0.0000 4.7491 0.0000 19.0701
#
#
#
# Elastic Compliance Matrix: (Units=1/GPa)
#
#
# Indices 1 2 3 4 5 6 
#
# 1 0.014806 -0.001172 -0.001867 0.000000 -0.000311 0.000000
# 2 -0.001172 0.009938 -0.002640 0.000000 -0.002214 0.000000
# 3 -0.001867 -0.002640 0.011759 0.000000 -0.001484 0.000000
# 4 0.000000 0.000000 0.000000 0.053213 0.000000 -0.013252
# 5 -0.000311 -0.002214 -0.001484 0.000000 0.032362 0.000000
# 6 0.000000 0.000000 0.000000 -0.013252 0.000000 0.055738
#
#
# Mechanical properties :
#
#
# Convention : Reuss Voigt Hill
#
# Bulk Modulus (GPa) = 39.76665 42.94650 41.35657
# Shear Modulus (GPa) = 25.30924 28.93483 27.12203
#
# Velocity S-wave (km/s) = 3.41357 3.64989 3.53371
# Velocity P-wave (km/s) = 5.81768 6.12659 5.97413
#
# Compressibility (1/GPa) = 0.02514670
#
# Stress axis : x y z
#
# Youngs Moduli (GPa) = 67.53873 100.62132 85.03871
#
# Poissons Ratio (x) = 0.11791 0.15878
# Poissons Ratio (y) = 0.07915 0.22447
# Poissons Ratio (z) = 0.12610 0.26560
#
# Static dielectric constant tensor:
#      x y z
#    x 3.939240 0.000000 -0.015180 
#    y 0.000000 3.615020 0.000000 
#    z -0.015180 0.000000 3.909270 
# 
# 
# High freq. dielectric constant tensor:
#      x y z
#    x 1.860610 0.000000 -0.002220 
#    y 0.000000 1.839530 0.000000 
#    z -0.002220 0.000000 1.859790 
# 
# From -- ./inp_files/137986.got.cif
#   From: 2010.06.25/outbox.cif.g09.slc.cpg/sg15_69_cif.got.tgz:137986.got - 2010.06.28 07:06:18.
