data_PCOD8141863
_publ_section_title
;
Structure prediction by ZEFSAII (Michael W. Deem and Ramdas Pophale) SiO2 
 PCOD8141863
Probable space group: C 2/C
;
_chemical_formula_sum "Si O2"
_cell_formula_units_Z 52
_cell_length_a 10.693888
_cell_length_b 10.697128
_cell_length_c 31.297425
_cell_angle_alpha 90.000000
_cell_angle_beta 46.016060
_cell_angle_gamma 90.000000
_cell_volume 2576.101937
_symmetry_space_group_name_H-M "C 2/C"
_symmetry_group_IT_number 15
_symmetry_cell_setting 'monoclinic'
loop_
_space_group_symop_operation_xyz
x,y,z
-x,y,1/2-z
-x,-y,-z
x,-y,1/2+z
1/2+x,1/2+y,z
1/2-x,1/2+y,1/2-z
1/2-x,1/2-y,-z
1/2+x,1/2-y,1/2+z
loop_
_atom_site_type_symbol
_atom_site_label
_atom_site_fract_x
_atom_site_fract_y
_atom_site_fract_z
Si Si1 0.837438 0.500814 0.930057
Si Si2 0.610395 0.709973 0.938931
Si Si3 0.069633 0.871284 0.648490
Si Si4 0.413660 0.486600 0.438969
Si Si5 0.341861 0.160519 0.656814
Si Si6 0.140963 0.804404 0.930115
Si Si7 0.000000 0.980463 0.250000
O O1 0.721653 0.608216 0.937257
O O2 0.808216 0.371630 0.911375
O O3 0.036515 0.539838 0.878894
O O4 0.777718 0.483058 0.993675
O O5 0.738196 0.814742 0.890403
O O6 0.509325 0.646253 0.923263
O O7 0.470333 0.764790 0.006212
O O8 0.093061 0.984597 0.609479
O O9 0.929950 0.767027 0.665718
O O10 0.009780 0.928886 0.707057
O O11 0.519067 0.595013 0.436890
O O12 0.294196 0.208620 0.620829
O O13 0.164533 0.109780 0.719100
#
# Coordination Sequence:
#
# PCOD8141863 Si02
#       7
#     8   8   8   8   8   8   4
#     4   8  14  28  55  87 110 131 165 210 267 330
#     4   8  14  28  55  87 110 131 165 210 267 330
#     4  10  21  38  56  73 104 145 176 216 266 302
#     4   8  14  28  55  87 110 131 165 210 267 330
#     4  10  21  38  56  73 104 145 176 216 266 302
#     4   8  14  28  55  87 110 131 165 210 267 330
#     4  12  28  40  50  76 104 140 200 230 236 296
#
# _framework density 20.185535999999999
#
# number of rings (size 3 to 8) (size 9 to 14) (size 15 to 20)
#    0.000    3.077    0.000    2.769    0.000    6.154 
#    0.000    3.077    0.000    3.692    0.000    0.000 
#    0.000    0.000    0.000    0.000    0.000    0.000 
#
# Total GULP energy -322203.090920 kJ/mol
# GULP energy per Si atom -12392.426574 kJ/mol
# Density = 2.013959 g / cm^3
# Si number density = 20.185536 Si / 1000 Ang^3
#
#
#
# Elastic Constant Matrix: (Units=GPa)
#
#
# Indices 1 2 3 4 5 6 
#
# 1 48.1988 31.4105 35.2842 0.0001 15.2117 0.0000
# 2 31.4105 48.3278 35.3448 0.0001 14.3681 0.0000
# 3 35.2842 35.3448 105.8674 0.0003 20.3303 -0.0001
# 4 0.0001 0.0001 0.0003 14.5348 -0.0002 8.6414
# 5 15.2117 14.3681 20.3303 -0.0002 19.3511 0.0001
# 6 0.0000 0.0000 -0.0001 8.6414 0.0001 25.8307
#
#
#
# Elastic Compliance Matrix: (Units=1/GPa)
#
#
# Indices 1 2 3 4 5 6 
#
# 1 0.040787 -0.019258 -0.004702 0.000000 -0.012823 0.000000
# 2 -0.019258 0.039574 -0.005084 0.000000 -0.008904 0.000000
# 3 -0.004702 -0.005084 0.014125 0.000000 -0.007369 0.000000
# 4 0.000000 0.000000 0.000000 0.085882 0.000002 -0.028731
# 5 -0.012823 -0.008904 -0.007369 0.000002 0.076111 -0.000001
# 6 0.000000 0.000000 0.000000 -0.028731 -0.000001 0.048325
#
#
# Mechanical properties :
#
#
# Convention : Reuss Voigt Hill
#
# Bulk Modulus (GPa) = 27.47343 45.16368 36.31856
# Shear Modulus (GPa) = 13.33249 18.63360 15.98304
#
# Velocity S-wave (km/s) = 2.57280 3.04158 2.81696
# Velocity P-wave (km/s) = 4.73980 5.89557 5.34900
#
# Compressibility (1/GPa) = 0.03639880
#
# Stress axis : x y z
#
# Youngs Moduli (GPa) = 24.51786 25.26907 70.79539
#
# Poissons Ratio (x) = 0.48664 0.33285
# Poissons Ratio (y) = 0.47217 0.35991
# Poissons Ratio (z) = 0.11527 0.12846
#
# Static dielectric constant tensor:
#      x y z
#    x 3.718760 0.000000 -0.017300 
#    y 0.000000 3.716330 0.000000 
#    z -0.017300 0.000000 3.655860 
# 
# 
# High freq. dielectric constant tensor:
#      x y z
#    x 1.781380 0.000000 0.000720 
#    y 0.000000 1.781630 0.000000 
#    z 0.000720 0.000000 1.769390 
# 
# From -- ./inp_files/291204.got.cif
#   From: 2010.06.25/outbox.cif.g09.slc.cpg/sg15_146_cif.got.tgz:291204.got - 2010.06.28 07:06:18.
