data_PCOD8141814
_publ_section_title
;
Structure prediction by ZEFSAII (Michael W. Deem and Ramdas Pophale) SiO2 
 PCOD8141814
Probable space group: C 2/C
;
_chemical_formula_sum "Si O2"
_cell_formula_units_Z 60
_cell_length_a 23.554038
_cell_length_b 11.170337
_cell_length_c 17.643923
_cell_angle_alpha 90.000000
_cell_angle_beta 144.622187
_cell_angle_gamma 90.000000
_cell_volume 2687.691839
_symmetry_space_group_name_H-M "C 2/C"
_symmetry_group_IT_number 15
_symmetry_cell_setting 'monoclinic'
loop_
_space_group_symop_operation_xyz
x,y,z
-x,y,1/2-z
-x,-y,-z
x,-y,1/2+z
1/2+x,1/2+y,z
1/2-x,1/2+y,1/2-z
1/2-x,1/2-y,-z
1/2+x,1/2-y,1/2+z
loop_
_atom_site_type_symbol
_atom_site_label
_atom_site_fract_x
_atom_site_fract_y
_atom_site_fract_z
Si Si1 0.177660 0.932859 0.072949
Si Si2 0.450893 0.349927 0.113327
Si Si3 0.715134 0.046366 0.661464
Si Si4 0.253347 0.232743 0.915822
Si Si5 0.000000 0.550757 0.750000
Si Si6 0.091819 0.677967 0.990935
Si Si7 0.867050 0.455844 0.722218
Si Si8 0.485008 0.169422 0.028524
O O1 0.198353 0.961703 0.183139
O O2 0.280733 0.947873 0.139343
O O3 0.144694 0.798551 0.022774
O O4 0.088643 0.017369 0.947959
O O5 0.500000 0.351476 0.250000
O O6 0.514147 0.284073 0.115731
O O7 0.363412 0.257707 0.013850
O O8 0.766190 0.101223 0.640709
O O9 0.629772 0.134343 0.600002
O O10 0.677874 0.913796 0.605071
O O11 0.178012 0.328747 0.801337
O O12 0.250000 0.250000 0.000000
O O13 0.970964 0.633078 0.648382
O O14 0.909829 0.467581 0.682587
O O15 0.019471 0.704407 0.982060
O O16 0.960366 0.454109 0.881744
#
# Coordination Sequence:
#
# PCOD8141814 Si02
#       8
#     8   8   8   8   4   8   8   8
#     4  11  26  43  68  99 146 177 226 283 344 419
#     4  10  24  42  68 101 138 176 223 288 349 403
#     4  11  22  42  68 104 131 181 231 286 340 401
#     4  10  21  37  66 101 133 167 226 290 334 386
#     4  12  26  42  70 106 136 190 232 268 350 418
#     4  12  25  43  70  98 141 185 228 278 338 422
#     4  11  22  43  68 100 133 175 230 284 335 399
#     4  11  22  42  74  99 132 177 235 290 330 403
#
# _framework density 22.323988
#
# number of rings (size 3 to 8) (size 9 to 14) (size 15 to 20)
#    0.000    1.067    2.667    3.600    7.467    1.067 
#    0.000    0.000    0.000    0.000    0.000    0.000 
#    0.000    0.000    0.000    0.000    0.000    0.000 
#
# Total GULP energy -371704.564296 kJ/mol
# GULP energy per Si atom -12390.152143 kJ/mol
# Density = 2.227318 g / cm^3
# Si number density = 22.323988 Si / 1000 Ang^3
#
#
#
# Elastic Constant Matrix: (Units=GPa)
#
#
# Indices 1 2 3 4 5 6 
#
# 1 130.9696 44.4051 31.3539 0.0000 -14.1516 0.0000
# 2 44.4051 109.6528 38.2570 0.0000 -2.1693 0.0000
# 3 31.3539 38.2570 103.3705 0.0000 -16.9438 0.0000
# 4 0.0000 0.0000 0.0000 -127.3851 0.0000 -30.8456
# 5 -14.1516 -2.1693 -16.9438 0.0000 35.6459 0.0000
# 6 0.0000 0.0000 0.0000 -30.8456 0.0000 29.5071
#
#
#
# Elastic Compliance Matrix: (Units=1/GPa)
#
#
# Indices 1 2 3 4 5 6 
#
# 1 0.009357 -0.003342 -0.001112 0.000000 0.002983 0.000000
# 2 -0.003342 0.011722 -0.003715 0.000000 -0.002379 0.000000
# 3 -0.001112 -0.003715 0.012229 0.000000 0.005145 0.000000
# 4 0.000000 0.000000 0.000000 -0.006264 0.000000 -0.006549
# 5 0.002983 -0.002379 0.005145 0.000000 0.031539 0.000000
# 6 0.000000 0.000000 0.000000 -0.006549 0.000000 0.027044
#
#
# Mechanical properties :
#
#
# Convention : Reuss Voigt Hill
#
# Bulk Modulus (GPa) = 58.92557 63.55833 61.24195
# Shear Modulus (GPa) = 46.45875 2.88538 24.67207
#
# Velocity S-wave (km/s) = 4.56687 1.13812 3.32803
# Velocity P-wave (km/s) = 7.36623 5.50089 6.50081
#
# Compressibility (1/GPa) = 0.01697056
#
# Stress axis : x y z
#
# Youngs Moduli (GPa) = 106.87082 85.30933 81.76971
#
# Poissons Ratio (x) = 0.28512 0.09096
# Poissons Ratio (y) = 0.35718 0.30374
# Poissons Ratio (z) = 0.11888 0.31688
#
# Static dielectric constant tensor:
#      x y z
#    x 4.223580 0.000000 0.287500 
#    y 0.000000 3.492470 0.000000 
#    z 0.287500 0.000000 3.781900 
# 
# 
# High freq. dielectric constant tensor:
#      x y z
#    x 1.882630 0.000000 -0.002410 
#    y 0.000000 1.866240 0.000000 
#    z -0.002410 0.000000 1.887880 
# 
# From -- ./inp_files/219318.got.cif
#   From: 2010.06.25/outbox.cif.g09.slc.cpg/sg15_110_cif.got.tgz:219318.got - 2010.06.28 07:06:18.
