data_PCOD8141636
_publ_section_title
;
Structure prediction by ZEFSAII (Michael W. Deem and Ramdas Pophale) SiO2 
 PCOD8141636
Probable space group: C 2/C
;
_chemical_formula_sum "Si O2"
_cell_formula_units_Z 56
_cell_length_a 13.219471
_cell_length_b 23.210207
_cell_length_c 9.574948
_cell_angle_alpha 90.000000
_cell_angle_beta 109.005587
_cell_angle_gamma 90.000000
_cell_volume 2777.697804
_symmetry_space_group_name_H-M "C 2/C"
_symmetry_group_IT_number 15
_symmetry_cell_setting 'monoclinic'
loop_
_space_group_symop_operation_xyz
x,y,z
-x,y,1/2-z
-x,-y,-z
x,-y,1/2+z
1/2+x,1/2+y,z
1/2-x,1/2+y,1/2-z
1/2-x,1/2-y,-z
1/2+x,1/2-y,1/2+z
loop_
_atom_site_type_symbol
_atom_site_label
_atom_site_fract_x
_atom_site_fract_y
_atom_site_fract_z
Si Si1 0.379765 0.643527 0.735896
Si Si2 0.590776 0.827647 0.094780
Si Si3 0.382373 0.961878 0.741732
Si Si4 0.864313 0.343946 0.891995
Si Si5 0.876036 0.734226 0.158529
Si Si6 0.254284 0.809556 0.087368
Si Si7 0.196155 0.558418 0.590173
O O1 0.500000 0.625894 0.750000
O O2 0.348276 0.698458 0.626853
O O3 0.353943 0.667912 0.882537
O O4 0.310724 0.587229 0.673242
O O5 0.644407 0.806632 0.261778
O O6 0.603445 0.896315 0.083363
O O7 0.464998 0.816235 0.022658
O O8 0.655824 0.795499 0.000558
O O9 0.500000 0.984499 0.750000
O O10 0.396172 0.899843 0.819016
O O11 0.306655 0.959302 0.572776
O O12 0.323214 0.003253 0.822973
O O13 0.815855 0.295770 0.763072
O O14 0.778110 0.356725 0.975405
O O15 0.000000 0.723961 0.250000
O O16 0.250000 0.750000 0.000000
#
# Coordination Sequence:
#
# PCOD8141636 Si02
#       7
#     8   8   8   8   8   8   8
#     4  10  23  44  66  87 128 171 221 261 317 377
#     4  10  21  37  60  95 129 171 204 245 327 400
#     4  12  24  42  64  97 134 161 210 265 332 393
#     4  11  20  38  61  93 137 158 200 262 325 390
#     4   9  17  36  65  89 122 166 202 251 312 389
#     4  11  23  36  60  98 130 166 209 263 314 373
#     4  11  25  39  65  94 121 174 216 258 322 389
#
# _framework density 20.160581000000001
#
# number of rings (size 3 to 8) (size 9 to 14) (size 15 to 20)
#    0.000    1.429    4.286    1.286    4.000    3.429 
#    0.000    0.714    0.000    0.000    0.000    0.000 
#    0.000    0.000    0.000    0.000    0.000    0.000 
#
# Total GULP energy -346901.877445 kJ/mol
# GULP energy per Si atom -12389.352766 kJ/mol
# Density = 2.011469 g / cm^3
# Si number density = 20.160581 Si / 1000 Ang^3
#
#
#
# Elastic Constant Matrix: (Units=GPa)
#
#
# Indices 1 2 3 4 5 6 
#
# 1 105.6525 32.7867 48.0250 0.0000 -17.6717 0.0000
# 2 32.7867 69.4656 46.3434 0.0000 7.5302 0.0000
# 3 48.0250 46.3434 139.9723 0.0000 -21.0229 0.0000
# 4 0.0000 0.0000 0.0000 35.2525 0.0000 -2.2599
# 5 -17.6717 7.5302 -21.0229 0.0000 28.5161 0.0000
# 6 0.0000 0.0000 0.0000 -2.2599 0.0000 42.7040
#
#
#
# Elastic Compliance Matrix: (Units=1/GPa)
#
#
# Indices 1 2 3 4 5 6 
#
# 1 0.013613 -0.006789 -0.000997 0.000000 0.009494 0.000000
# 2 -0.006789 0.025200 -0.008598 0.000000 -0.017200 0.000000
# 3 -0.000997 -0.008598 0.011899 0.000000 0.010425 0.000000
# 4 0.000000 0.000000 0.000000 0.028463 0.000000 0.001506
# 5 0.009494 -0.017200 0.010425 0.000000 0.053179 0.000000
# 6 0.000000 0.000000 0.000000 0.001506 0.000000 0.023497
#
#
# Mechanical properties :
#
#
# Convention : Reuss Voigt Hill
#
# Bulk Modulus (GPa) = 55.72711 63.26673 59.49692
# Shear Modulus (GPa) = 25.69379 33.82354 29.75867
#
# Velocity S-wave (km/s) = 3.57383 4.10043 3.84615
# Velocity P-wave (km/s) = 6.68814 7.33945 7.02135
#
# Compressibility (1/GPa) = 0.01794459
#
# Stress axis : x y z
#
# Youngs Moduli (GPa) = 73.45928 39.68196 84.04372
#
# Poissons Ratio (x) = 0.26941 0.08378
# Poissons Ratio (y) = 0.49873 0.72257
# Poissons Ratio (z) = 0.07323 0.34117
#
# Static dielectric constant tensor:
#      x y z
#    x 3.698800 0.000000 -0.293840 
#    y 0.000000 3.571640 0.000000 
#    z -0.293840 0.000000 3.866930 
# 
# 
# High freq. dielectric constant tensor:
#      x y z
#    x 1.772890 0.000000 -0.019440 
#    y 0.000000 1.775520 0.000000 
#    z -0.019440 0.000000 1.797560 
# 
# From -- ./inp_files/42282.got.cif
#   From: 2010.06.25/outbox.cif.g09.slc.cpg/sg15_22_cif.got.tgz:42282.got - 2010.06.28 07:06:18.
