data_PCOD8141670
_publ_section_title
;
Structure prediction by ZEFSAII (Michael W. Deem and Ramdas Pophale) SiO2 
 PCOD8141670
Probable space group: C 2/C
;
_chemical_formula_sum "Si O2"
_cell_formula_units_Z 56
_cell_length_a 14.205870
_cell_length_b 19.631912
_cell_length_c 13.816789
_cell_angle_alpha 90.000000
_cell_angle_beta 36.586668
_cell_angle_gamma 90.000000
_cell_volume 2296.738486
_symmetry_space_group_name_H-M "C 2/C"
_symmetry_group_IT_number 15
_symmetry_cell_setting 'monoclinic'
loop_
_space_group_symop_operation_xyz
x,y,z
-x,y,1/2-z
-x,-y,-z
x,-y,1/2+z
1/2+x,1/2+y,z
1/2-x,1/2+y,1/2-z
1/2-x,1/2-y,-z
1/2+x,1/2-y,1/2+z
loop_
_atom_site_type_symbol
_atom_site_label
_atom_site_fract_x
_atom_site_fract_y
_atom_site_fract_z
Si Si1 0.110294 0.077583 0.249737
Si Si2 0.499995 0.215648 0.500015
Si Si3 0.670362 0.922334 0.592574
Si Si4 0.829637 0.577655 0.907424
Si Si5 0.389712 0.577604 0.750257
Si Si6 0.287978 0.663268 0.157996
Si Si7 0.787992 0.836729 0.157970
O O1 0.106400 0.130088 0.342385
O O2 0.000000 0.097126 0.250000
O O3 0.077092 0.999990 0.312107
O O4 0.285457 0.083697 0.057198
O O5 0.364506 0.264354 0.564297
O O6 0.601462 0.170507 0.340631
O O7 0.398526 0.170505 0.659397
O O8 0.635482 0.264354 0.435741
O O9 0.500000 0.888851 0.750000
O O10 0.714547 0.916286 0.442796
O O11 0.798452 0.885209 0.555936
O O12 0.671072 0.999995 0.627503
O O13 0.701539 0.614781 0.944073
O O14 0.000000 0.611140 0.750000
O O15 0.500000 0.597148 0.750000
O O16 0.393621 0.630107 0.657593
#
# Coordination Sequence:
#
# PCOD8141670 Si02
#       7
#     8   8   8   8   8   8   8
#     4  10  21  37  61  90 113 142 187 234 289 345
#     4  10  24  38  58  82 112 156 204 220 264 346
#     4  10  21  37  61  90 113 142 187 234 289 345
#     4  10  21  37  61  90 113 142 187 234 289 345
#     4  10  21  37  61  90 113 142 187 234 289 345
#     4  11  21  42  58  80 119 153 184 240 278 319
#     4  11  21  42  58  80 119 153 184 240 278 319
#
# _framework density 24.382400000000001
#
# number of rings (size 3 to 8) (size 9 to 14) (size 15 to 20)
#    0.000    1.714    0.000    4.286    0.000    0.000 
#    0.000   40.000    0.000    0.000    0.000    0.000 
#    0.000    0.000    0.000    0.000    0.000    0.000 
#
# Total GULP energy -347029.569303 kJ/mol
# GULP energy per Si atom -12393.913189 kJ/mol
# Density = 2.432691 g / cm^3
# Si number density = 24.382400 Si / 1000 Ang^3
#
#
#
# Elastic Constant Matrix: (Units=GPa)
#
#
# Indices 1 2 3 4 5 6 
#
# 1 82.4501 30.0016 3.3025 0.0019 16.4583 0.0033
# 2 30.0016 66.3253 -0.9856 0.0027 23.7605 0.0068
# 3 3.3025 -0.9856 54.5128 0.0067 4.4179 0.0112
# 4 0.0019 0.0027 0.0067 31.1000 0.0054 -12.7899
# 5 16.4583 23.7605 4.4179 0.0054 34.6596 -0.0083
# 6 0.0033 0.0068 0.0112 -12.7899 -0.0083 19.8437
#
#
#
# Elastic Compliance Matrix: (Units=1/GPa)
#
#
# Indices 1 2 3 4 5 6 
#
# 1 0.014816 -0.005603 -0.000748 0.000000 -0.003099 -0.000002
# 2 -0.005603 0.022224 0.001779 -0.000007 -0.012802 -0.000018
# 3 -0.000748 0.001779 0.018685 -0.000012 -0.003246 -0.000020
# 4 0.000000 -0.000007 -0.000012 0.043751 0.000006 0.028199
# 5 -0.003099 -0.012802 -0.003246 0.000006 0.039514 0.000028
# 6 -0.000002 -0.000018 -0.000020 0.028199 0.000028 0.068569
#
#
# Mechanical properties :
#
#
# Convention : Reuss Voigt Hill
#
# Bulk Modulus (GPa) = 21.46773 29.76947 25.61860
# Shear Modulus (GPa) = 21.53050 28.51863 25.02456
#
# Velocity S-wave (km/s) = 2.97481 3.42371 3.20713
# Velocity P-wave (km/s) = 4.54126 5.27873 4.92382
#
# Compressibility (1/GPa) = 0.04658155
#
# Stress axis : x y z
#
# Youngs Moduli (GPa) = 67.49546 44.99634 53.51929
#
# Poissons Ratio (x) = 0.25210 0.04002
# Poissons Ratio (y) = 0.37815 -0.09520
# Poissons Ratio (z) = 0.05047 -0.08004
#
# Static dielectric constant tensor:
#      x y z
#    x 3.903490 -0.000020 -0.249620 
#    y -0.000020 4.172070 0.000040 
#    z -0.249620 0.000040 5.100950 
# 
# 
# High freq. dielectric constant tensor:
#      x y z
#    x 1.935490 0.000000 -0.021950 
#    y 0.000000 1.955620 0.000000 
#    z -0.021950 0.000000 2.011340 
# 
# From -- ./inp_files/156168.got.cif
#   From: 2010.06.25/outbox.cif.g09.slc.cpg/sg15_79_cif.got.tgz:156168.got - 2010.06.28 07:06:18.
