data_PCOD8141399
_publ_section_title
;
Structure prediction by ZEFSAII (Michael W. Deem and Ramdas Pophale) SiO2 
 PCOD8141399
Probable space group: C 2/C
;
_chemical_formula_sum "Si O2"
_cell_formula_units_Z 64
_cell_length_a 25.696363
_cell_length_b 20.370886
_cell_length_c 19.417311
_cell_angle_alpha 90.000000
_cell_angle_beta 18.618415
_cell_angle_gamma 90.000000
_cell_volume 3245.043246
_symmetry_space_group_name_H-M "C 2/C"
_symmetry_group_IT_number 15
_symmetry_cell_setting 'monoclinic'
loop_
_space_group_symop_operation_xyz
x,y,z
-x,y,1/2-z
-x,-y,-z
x,-y,1/2+z
1/2+x,1/2+y,z
1/2-x,1/2+y,1/2-z
1/2-x,1/2-y,-z
1/2+x,1/2-y,1/2+z
loop_
_atom_site_type_symbol
_atom_site_label
_atom_site_fract_x
_atom_site_fract_y
_atom_site_fract_z
Si Si1 0.761862 0.243593 0.176886
Si Si2 0.641821 0.398786 0.980025
Si Si3 0.806605 0.193169 0.479670
Si Si4 0.283372 0.567642 0.959655
Si Si5 0.947330 0.562307 0.024961
Si Si6 0.819527 0.299569 0.967644
Si Si7 0.391351 0.068599 0.821124
Si Si8 0.415970 0.803689 0.115529
O O1 0.857175 0.179973 0.027596
O O2 0.585150 0.227740 0.430643
O O3 0.873395 0.277400 0.093863
O O4 0.730113 0.293287 0.153495
O O5 0.753253 0.427309 0.778571
O O6 0.715643 0.421962 0.959938
O O7 0.460973 0.427725 0.201546
O O8 0.750000 0.250000 0.500000
O O9 0.740770 0.124261 0.532268
O O10 0.728046 0.211860 0.651221
O O11 0.000000 0.189332 0.250000
O O12 0.176578 0.625266 0.061152
O O13 0.205740 0.497626 0.038820
O O14 0.984141 0.556986 0.897887
O O15 0.053691 0.618984 0.927532
O O16 0.000000 0.500000 0.000000
O O17 0.000000 0.274123 0.750000
O O18 0.750000 0.250000 0.000000
O O19 0.500000 0.090867 0.750000
#
# Coordination Sequence:
#
# PCOD8141399 Si02
#       8
#     8   8   8   8   8   8   8   8
#     4  11  21  38  58  88 130 163 212 249 308 366
#     4  10  21  36  62  90 124 165 208 258 308 374
#     4  11  24  44  71  96 122 158 208 270 331 381
#     4  11  22  37  60  91 127 166 214 255 308 368
#     4  10  21  40  64  87 124 165 212 259 323 376
#     4  12  23  35  56  88 127 173 211 253 298 361
#     4  11  25  43  66  96 128 166 214 268 317 380
#     4  10  23  38  62  91 118 164 202 259 314 376
#
# _framework density 19.722387999999999
#
# number of rings (size 3 to 8) (size 9 to 14) (size 15 to 20)
#    0.000    1.250    2.500    3.750    3.500    3.000 
#    0.000    1.875    0.000    0.000    0.000    0.000 
#    0.000    0.000    0.000    0.000    0.000    0.000 
#
# Total GULP energy -396806.132907 kJ/mol
# GULP energy per Si atom -12400.191653 kJ/mol
# Density = 1.967750 g / cm^3
# Si number density = 19.722388 Si / 1000 Ang^3
#
#
#
# Elastic Constant Matrix: (Units=GPa)
#
#
# Indices 1 2 3 4 5 6 
#
# 1 111.0455 44.1101 49.5916 -0.0128 -8.3354 0.0192
# 2 44.1101 106.1747 38.3674 0.0230 -5.0256 0.0002
# 3 49.5916 38.3674 147.6180 -0.0009 3.5592 -0.0019
# 4 -0.0128 0.0230 -0.0009 23.2249 -0.0172 -0.4416
# 5 -8.3354 -5.0256 3.5592 -0.0172 30.4659 0.0033
# 6 0.0192 0.0002 -0.0019 -0.4416 0.0033 34.0443
#
#
#
# Elastic Compliance Matrix: (Units=1/GPa)
#
#
# Indices 1 2 3 4 5 6 
#
# 1 0.012146 -0.003752 -0.003180 0.000012 0.003076 -0.000007
# 2 -0.003752 0.011681 -0.001802 -0.000013 0.001111 0.000002
# 3 -0.003180 -0.001802 0.008363 -0.000001 -0.002144 0.000002
# 4 0.000012 -0.000013 -0.000001 0.043068 0.000026 0.000559
# 5 0.003076 0.001111 -0.002144 0.000026 0.034099 -0.000005
# 6 -0.000007 0.000002 0.000002 0.000559 -0.000005 0.029381
#
#
# Mechanical properties :
#
#
# Convention : Reuss Voigt Hill
#
# Bulk Modulus (GPa) = 67.92274 69.88625 68.90449
# Shear Modulus (GPa) = 31.03422 33.06496 32.04959
#
# Velocity S-wave (km/s) = 3.97111 4.09897 4.03555
# Velocity P-wave (km/s) = 7.45254 7.61013 7.53175
#
# Compressibility (1/GPa) = 0.01472261
#
# Stress axis : x y z
#
# Youngs Moduli (GPa) = 82.32874 85.60932 119.58020
#
# Poissons Ratio (x) = 0.32118 0.38022
# Poissons Ratio (y) = 0.30887 0.21554
# Poissons Ratio (z) = 0.26177 0.15431
#
# Static dielectric constant tensor:
#      x y z
#    x 3.613490 -0.000190 -0.120000 
#    y -0.000190 3.675280 0.000410 
#    z -0.120000 0.000410 4.339620 
# 
# 
# High freq. dielectric constant tensor:
#      x y z
#    x 1.762620 -0.000010 0.004140 
#    y -0.000010 1.772160 0.000010 
#    z 0.004140 0.000010 1.783070 
# 
# From -- ./inp_files/220259.got.cif
#   From: 2010.06.25/outbox.cif.g09.slc.cpg/sg15_111_cif.got.tgz:220259.got - 2010.06.28 07:06:18.
