data_PCOD8141330
_publ_section_title
;
Structure prediction by ZEFSAII (Michael W. Deem and Ramdas Pophale) SiO2 
 PCOD8141330
Probable space group: C 2/C
;
_chemical_formula_sum "Si O2"
_cell_formula_units_Z 64
_cell_length_a 24.314579
_cell_length_b 18.583699
_cell_length_c 18.911495
_cell_angle_alpha 90.000000
_cell_angle_beta 20.731828
_cell_angle_gamma 90.000000
_cell_volume 3024.970959
_symmetry_space_group_name_H-M "C 2/C"
_symmetry_group_IT_number 15
_symmetry_cell_setting 'monoclinic'
loop_
_space_group_symop_operation_xyz
x,y,z
-x,y,1/2-z
-x,-y,-z
x,-y,1/2+z
1/2+x,1/2+y,z
1/2-x,1/2+y,1/2-z
1/2-x,1/2-y,-z
1/2+x,1/2-y,1/2+z
loop_
_atom_site_type_symbol
_atom_site_label
_atom_site_fract_x
_atom_site_fract_y
_atom_site_fract_z
Si Si1 0.037309 0.152370 0.626855
Si Si2 0.400889 0.434265 0.585461
Si Si3 0.037378 0.553425 0.544122
Si Si4 0.852084 0.734644 0.259827
Si Si5 0.386486 0.666086 0.596309
Si Si6 0.377443 0.152573 0.840837
Si Si7 0.440303 0.104195 0.515224
Si Si8 0.436059 0.695380 0.249429
O O1 0.077792 0.084863 0.524908
O O2 0.178744 0.205542 0.476452
O O3 0.000000 0.120039 0.750000
O O4 0.897052 0.200349 0.760170
O O5 0.500000 0.500000 0.500000
O O6 0.222634 0.443421 0.819856
O O7 0.456339 0.363391 0.558357
O O8 0.990453 0.469826 0.598642
O O9 0.950715 0.582387 0.717140
O O10 0.968107 0.602204 0.565330
O O11 0.855509 0.759384 0.173713
O O12 0.973439 0.670137 0.125782
O O13 0.243372 0.611107 0.778132
O O14 0.419750 0.675525 0.473830
O O15 0.500000 0.178277 0.750000
O O16 0.367800 0.226490 0.805973
O O17 0.208324 0.138047 0.079276
O O18 0.500000 0.689675 0.250000
#
# Coordination Sequence:
#
# PCOD8141330 Si02
#       8
#     8   8   8   8   8   8   8   8
#     4  11  24  43  68  98 134 169 214 288 345 396
#     4  11  23  42  65  93 127 173 225 268 326 404
#     4  11  22  39  65  85 131 170 217 269 320 406
#     4  11  22  41  67 100 126 168 225 275 339 406
#     4  11  22  38  66  93 125 167 222 272 323 399
#     4  10  21  38  57  87 125 166 206 258 329 378
#     4  11  22  38  63  94 120 164 222 265 327 387
#     4  10  21  36  59  93 129 162 211 267 323 386
#
# _framework density 21.157228
#
# number of rings (size 3 to 8) (size 9 to 14) (size 15 to 20)
#    0.000    1.250    3.750    2.625    0.000    2.000 
#    0.000    3.750    0.000    0.000    0.000    0.000 
#    0.000    0.000    0.000    0.000    0.000    0.000 
#
# Total GULP energy -396436.117301 kJ/mol
# GULP energy per Si atom -12388.628666 kJ/mol
# Density = 2.110907 g / cm^3
# Si number density = 21.157228 Si / 1000 Ang^3
#
#
#
# Elastic Constant Matrix: (Units=GPa)
#
#
# Indices 1 2 3 4 5 6 
#
# 1 92.9234 19.3342 38.4859 -0.0039 7.7486 0.0038
# 2 19.3342 64.0484 24.9741 -0.0038 8.9542 0.0073
# 3 38.4859 24.9741 93.7085 -0.0047 -0.6721 0.0089
# 4 -0.0039 -0.0038 -0.0047 23.6233 0.0078 6.2822
# 5 7.7486 8.9542 -0.6721 0.0078 40.8798 -0.0062
# 6 0.0038 0.0073 0.0089 6.2822 -0.0062 42.9771
#
#
#
# Elastic Compliance Matrix: (Units=1/GPa)
#
#
# Indices 1 2 3 4 5 6 
#
# 1 0.013408 -0.001764 -0.005052 0.000002 -0.002238 0.000000
# 2 -0.001764 0.018298 -0.004179 0.000004 -0.003742 -0.000003
# 3 -0.005052 -0.004179 0.013875 0.000001 0.002101 -0.000002
# 4 0.000002 0.000004 0.000001 0.044043 -0.000011 -0.006438
# 5 -0.002238 -0.003742 0.002101 -0.000011 0.025740 0.000006
# 6 0.000000 -0.000003 -0.000002 -0.006438 0.000006 0.024209
#
#
# Mechanical properties :
#
#
# Convention : Reuss Voigt Hill
#
# Bulk Modulus (GPa) = 42.39079 46.25207 44.32143
# Shear Modulus (GPa) = 29.51086 32.68843 31.09965
#
# Velocity S-wave (km/s) = 3.73880 3.93494 3.83813
# Velocity P-wave (km/s) = 6.22236 6.52331 6.37461
#
# Compressibility (1/GPa) = 0.02359003
#
# Stress axis : x y z
#
# Youngs Moduli (GPa) = 74.58328 54.64937 72.07123
#
# Poissons Ratio (x) = 0.09643 0.36413
# Poissons Ratio (y) = 0.13160 0.30118
# Poissons Ratio (z) = 0.37682 0.22837
#
# Static dielectric constant tensor:
#      x y z
#    x 3.856790 -0.000040 -0.178280 
#    y -0.000040 3.763240 0.000000 
#    z -0.178280 0.000000 3.880110 
# 
# 
# High freq. dielectric constant tensor:
#      x y z
#    x 1.827550 0.000000 -0.018850 
#    y 0.000000 1.818680 0.000000 
#    z -0.018850 0.000000 1.831420 
# 
# From -- ./inp_files/258061.got.cif
#   From: 2010.06.25/outbox.cif.g09.slc.cpg/sg15_130_cif.got.tgz:258061.got - 2010.06.28 07:06:18.
