data_PCOD8141291
_publ_section_title
;
Structure prediction by ZEFSAII (Michael W. Deem and Ramdas Pophale) SiO2 
 PCOD8141291
Probable space group: C 2/C
;
_chemical_formula_sum "Si O2"
_cell_formula_units_Z 56
_cell_length_a 19.269466
_cell_length_b 23.242340
_cell_length_c 8.261770
_cell_angle_alpha 90.000000
_cell_angle_beta 56.449521
_cell_angle_gamma 90.000000
_cell_volume 3083.725585
_symmetry_space_group_name_H-M "C 2/C"
_symmetry_group_IT_number 15
_symmetry_cell_setting 'monoclinic'
loop_
_space_group_symop_operation_xyz
x,y,z
-x,y,1/2-z
-x,-y,-z
x,-y,1/2+z
1/2+x,1/2+y,z
1/2-x,1/2+y,1/2-z
1/2-x,1/2-y,-z
1/2+x,1/2-y,1/2+z
loop_
_atom_site_type_symbol
_atom_site_label
_atom_site_fract_x
_atom_site_fract_y
_atom_site_fract_z
Si Si1 0.633965 0.067287 0.397027
Si Si2 0.500000 0.875233 0.250000
Si Si3 0.673970 0.704658 0.584925
Si Si4 0.248259 0.169168 0.169315
Si Si5 0.500000 0.236633 0.250000
Si Si6 0.719851 0.296529 0.362153
Si Si7 0.598573 0.165097 0.890422
Si Si8 0.097087 0.551309 0.088895
O O1 0.539016 0.086179 0.556963
O O2 0.697577 0.111397 0.399343
O O3 0.645440 0.068041 0.190240
O O4 0.644723 0.003818 0.455558
O O5 0.425892 0.838145 0.266818
O O6 0.750000 0.750000 0.500000
O O7 0.689299 0.665498 0.405726
O O8 0.580668 0.727536 0.693090
O O9 0.676052 0.673631 0.761038
O O10 0.303154 0.228286 0.100592
O O11 0.198215 0.170850 0.059817
O O12 0.479540 0.195317 0.425185
O O13 0.819435 0.296589 0.201131
O O14 0.613745 0.101973 0.941806
O O15 0.000000 0.538920 0.250000
#
# Coordination Sequence:
#
# PCOD8141291 Si02
#       8
#     8   4   8   8   4   8   8   8
#     4  12  23  36  50  74 113 155 202 243 278 334
#     4  12  22  31  52  78 110 152 207 232 270 354
#     4  10  21  37  56  81 116 152 191 239 287 344
#     4  10  21  37  54  76 105 151 194 238 288 330
#     4  12  22  37  58  86 118 160 197 228 292 356
#     4  10  21  36  58  78 110 151 193 238 292 336
#     4  12  22  35  55  82 113 158 196 236 292 346
#     4  12  23  34  50  73 113 157 200 241 278 333
#
# _framework density 18.159852999999998
#
# number of rings (size 3 to 8) (size 9 to 14) (size 15 to 20)
#    0.000    0.857    7.143    2.143    6.000    0.000 
#    0.000    0.000    0.000    0.000    0.000    0.000 
#    0.000    4.571    0.000    0.143    0.000    0.000 
#
# Total GULP energy -346920.841637 kJ/mol
# GULP energy per Si atom -12390.030058 kJ/mol
# Density = 1.811852 g / cm^3
# Si number density = 18.159853 Si / 1000 Ang^3
#
#
#
# Elastic Constant Matrix: (Units=GPa)
#
#
# Indices 1 2 3 4 5 6 
#
# 1 107.6769 32.8243 49.1146 0.0000 22.9535 0.0000
# 2 32.8243 74.0862 29.2323 0.0000 0.0336 0.0000
# 3 49.1146 29.2323 97.2989 0.0000 24.7550 0.0000
# 4 0.0000 0.0000 0.0000 19.1291 0.0000 -1.2090
# 5 22.9535 0.0336 24.7550 0.0000 44.0938 0.0000
# 6 0.0000 0.0000 0.0000 -1.2090 0.0000 16.6063
#
#
#
# Elastic Compliance Matrix: (Units=1/GPa)
#
#
# Indices 1 2 3 4 5 6 
#
# 1 0.013577 -0.004277 -0.004399 0.000000 -0.004595 0.000000
# 2 -0.004277 0.017008 -0.004100 0.000000 0.004515 0.000000
# 3 -0.004399 -0.004100 0.015337 0.000000 -0.006317 0.000000
# 4 0.000000 0.000000 0.000000 0.052518 0.000000 0.003823
# 5 -0.004595 0.004515 -0.006317 0.000000 0.028614 0.000000
# 6 0.000000 0.000000 0.000000 0.003823 0.000000 0.060497
#
#
# Mechanical properties :
#
#
# Convention : Reuss Voigt Hill
#
# Bulk Modulus (GPa) = 49.09194 55.71161 52.40178
# Shear Modulus (GPa) = 22.73821 27.15856 24.94839
#
# Velocity S-wave (km/s) = 3.54236 3.87140 3.71053
# Velocity P-wave (km/s) = 6.61990 7.12241 6.87574
#
# Compressibility (1/GPa) = 0.02036994
#
# Stress axis : x y z
#
# Youngs Moduli (GPa) = 73.65351 58.79420 65.20058
#
# Poissons Ratio (x) = 0.25149 0.28684
# Poissons Ratio (y) = 0.31505 0.26730
# Poissons Ratio (z) = 0.32403 0.24103
#
# Static dielectric constant tensor:
#      x y z
#    x 3.731330 0.000000 0.366910 
#    y 0.000000 3.107100 0.000000 
#    z 0.366910 0.000000 3.796870 
# 
# 
# High freq. dielectric constant tensor:
#      x y z
#    x 1.688890 0.000000 0.042430 
#    y 0.000000 1.667700 0.000000 
#    z 0.042430 0.000000 1.714160 
# 
# From -- ./inp_files/43629.got.cif
#   From: 2010.06.25/outbox.cif.g09.slc.cpg/sg15_22_cif.got.tgz:43629.got - 2010.06.28 07:06:18.
