data_PCOD8141611
_publ_section_title
;
Structure prediction by ZEFSAII (Michael W. Deem and Ramdas Pophale) SiO2 
 PCOD8141611
Probable space group: C 2/C
;
_chemical_formula_sum "Si O2"
_cell_formula_units_Z 32
_cell_length_a 9.676811
_cell_length_b 9.873169
_cell_length_c 22.989841
_cell_angle_alpha 90.000000
_cell_angle_beta 128.874298
_cell_angle_gamma 90.000000
_cell_volume 1710.004406
_symmetry_space_group_name_H-M "C 2/C"
_symmetry_group_IT_number 15
_symmetry_cell_setting 'monoclinic'
loop_
_space_group_symop_operation_xyz
x,y,z
-x,y,1/2-z
-x,-y,-z
x,-y,1/2+z
1/2+x,1/2+y,z
1/2-x,1/2+y,1/2-z
1/2-x,1/2-y,-z
1/2+x,1/2-y,1/2+z
loop_
_atom_site_type_symbol
_atom_site_label
_atom_site_fract_x
_atom_site_fract_y
_atom_site_fract_z
Si Si1 0.232669 0.417485 0.921599
Si Si2 0.604800 0.648166 0.835815
Si Si3 0.586327 0.942958 0.580870
Si Si4 0.061796 0.864095 0.088370
O O1 0.223703 0.277010 0.884530
O O2 0.286895 0.532676 0.890798
O O3 0.046105 0.462452 0.899836
O O4 0.372503 0.400737 0.010455
O O5 0.500000 0.682473 0.750000
O O6 0.730051 0.519031 0.857797
O O7 0.461549 0.620862 0.848684
O O8 0.500000 0.000000 0.500000
O O9 0.626155 0.783593 0.584840
#
# Coordination Sequence:
#
# PCOD8141611 Si02
#       4
#     8   8   8   8
#     4  10  21  38  61  86 114 148 194 241 283 340
#     4  11  23  39  57  83 122 154 185 240 294 334
#     4  11  19  37  61  87 113 149 196 236 278 344
#     4  10  21  37  60  89 112 146 197 238 283 341
#
# _framework density 18.713403
#
# number of rings (size 3 to 8) (size 9 to 14) (size 15 to 20)
#    0.000    1.500    5.000    1.500    0.000    7.000 
#    0.000    1.250    0.000    0.000    0.000    0.000 
#    0.000    0.000    0.000    0.000    0.000    0.000 
#
# Total GULP energy -198463.356701 kJ/mol
# GULP energy per Si atom -12403.959794 kJ/mol
# Density = 1.867081 g / cm^3
# Si number density = 18.713403 Si / 1000 Ang^3
#
#
#
# Elastic Constant Matrix: (Units=GPa)
#
#
# Indices 1 2 3 4 5 6 
#
# 1 90.5378 74.2853 16.5321 0.0000 -15.3892 0.0000
# 2 74.2853 124.0964 0.2896 0.0000 -9.0095 0.0000
# 3 16.5321 0.2896 55.1693 0.0000 -23.2691 0.0000
# 4 0.0000 0.0000 0.0000 12.5370 0.0000 1.9665
# 5 -15.3892 -9.0095 -23.2691 0.0000 25.9682 0.0000
# 6 0.0000 0.0000 0.0000 1.9665 0.0000 45.5591
#
#
#
# Elastic Compliance Matrix: (Units=1/GPa)
#
#
# Indices 1 2 3 4 5 6 
#
# 1 0.024631 -0.014375 -0.005228 0.000000 0.004925 0.000000
# 2 -0.014375 0.016778 0.004954 0.000000 0.001741 0.000000
# 3 -0.005228 0.004954 0.030680 0.000000 0.026111 0.000000
# 4 0.000000 0.000000 0.000000 0.080307 0.000000 -0.003466
# 5 0.004925 0.001741 0.026111 0.000000 0.065428 0.000000
# 6 0.000000 0.000000 0.000000 -0.003466 0.000000 0.022099
#
#
# Mechanical properties :
#
#
# Convention : Reuss Voigt Hill
#
# Bulk Modulus (GPa) = 23.36968 50.22415 36.79692
# Shear Modulus (GPa) = 17.63755 28.72597 23.18176
#
# Velocity S-wave (km/s) = 3.07336 3.92222 3.52345
# Velocity P-wave (km/s) = 5.01093 6.88539 6.02154
#
# Compressibility (1/GPa) = 0.04279048
#
# Stress axis : x y z
#
# Youngs Moduli (GPa) = 40.59888 59.60198 32.59466
#
# Poissons Ratio (x) = 0.85676 0.17042
# Poissons Ratio (y) = 0.58360 -0.16147
# Poissons Ratio (z) = 0.21227 -0.29526
#
# Static dielectric constant tensor:
#      x y z
#    x 3.522420 0.000000 -0.086160 
#    y 0.000000 3.643570 0.000000 
#    z -0.086160 0.000000 3.209760 
# 
# 
# High freq. dielectric constant tensor:
#      x y z
#    x 1.732060 0.000000 -0.010540 
#    y 0.000000 1.738580 0.000000 
#    z -0.010540 0.000000 1.707370 
# 
# From -- ./inp_files/132054.got.cif
#   From: 2010.06.25/outbox.cif.g09.slc.cpg/sg15_67_cif.got.tgz:132054.got - 2010.06.28 07:06:18.
