data_PCOD8141059
_publ_section_title
;
Structure prediction by ZEFSAII (Michael W. Deem and Ramdas Pophale) SiO2 
 PCOD8141059
Probable space group: C 2/C
;
_chemical_formula_sum "Si O2"
_cell_formula_units_Z 56
_cell_length_a 14.487375
_cell_length_b 26.782107
_cell_length_c 13.894893
_cell_angle_alpha 90.000000
_cell_angle_beta 149.136119
_cell_angle_gamma 90.000000
_cell_volume 2765.713624
_symmetry_space_group_name_H-M "C 2/C"
_symmetry_group_IT_number 15
_symmetry_cell_setting 'monoclinic'
loop_
_space_group_symop_operation_xyz
x,y,z
-x,y,1/2-z
-x,-y,-z
x,-y,1/2+z
1/2+x,1/2+y,z
1/2-x,1/2+y,1/2-z
1/2-x,1/2-y,-z
1/2+x,1/2-y,1/2+z
loop_
_atom_site_type_symbol
_atom_site_label
_atom_site_fract_x
_atom_site_fract_y
_atom_site_fract_z
Si Si1 0.522808 0.037543 0.883605
Si Si2 0.722714 0.194513 0.054962
Si Si3 0.567764 0.927921 0.702575
Si Si4 0.693960 0.200663 0.815540
Si Si5 0.026781 0.056955 0.991546
Si Si6 0.122178 0.092517 0.268474
Si Si7 0.689123 0.110088 0.678034
O O1 0.500000 0.039564 0.750000
O O2 0.379226 0.076639 0.794723
O O3 0.491527 0.981443 0.892963
O O4 0.724087 0.050542 0.095626
O O5 0.778337 0.240009 0.176247
O O6 0.792367 0.146163 0.169224
O O7 0.801741 0.194026 0.014985
O O8 0.512642 0.189470 0.854492
O O9 0.500000 0.918155 0.750000
O O10 0.785792 0.928785 0.893479
O O11 0.470789 0.886884 0.546024
O O12 0.750371 0.164673 0.776506
O O13 0.000713 0.086910 0.066947
O O14 0.860368 0.081093 0.782221
O O15 0.000000 0.000000 0.000000
O O16 0.000000 0.084027 0.250000
#
# Coordination Sequence:
#
# PCOD8141059 Si02
#       7
#     8   8   8   8   8   8   8
#     4  11  20  37  57  85 126 166 203 253 305 369
#     4  10  21  35  53  85 128 162 207 243 302 377
#     4  11  25  43  62  87 124 165 218 271 312 357
#     4  10  21  35  56  84 123 168 197 252 305 374
#     4  12  24  39  61  92 124 164 212 260 312 380
#     4  12  24  35  58  91 129 171 211 247 307 393
#     4  12  22  41  61  85 125 167 209 255 316 374
#
# _framework density 20.247938999999999
#
# number of rings (size 3 to 8) (size 9 to 14) (size 15 to 20)
#    0.000    0.857    4.286    3.857    8.000    0.571 
#    0.000    0.000    0.000    0.000    0.000    4.000 
#    0.000    0.000    0.000    0.000    0.000    0.000 
#
# Total GULP energy -346916.112382 kJ/mol
# GULP energy per Si atom -12389.861156 kJ/mol
# Density = 2.020185 g / cm^3
# Si number density = 20.247939 Si / 1000 Ang^3
#
#
#
# Elastic Constant Matrix: (Units=GPa)
#
#
# Indices 1 2 3 4 5 6 
#
# 1 81.8950 23.9603 25.6577 0.0000 11.5861 0.0000
# 2 23.9603 96.7042 27.2291 0.0000 -2.1436 0.0000
# 3 25.6577 27.2291 74.5654 0.0000 14.8467 0.0000
# 4 0.0000 0.0000 0.0000 44.9938 0.0000 -8.3952
# 5 11.5861 -2.1436 14.8467 0.0000 35.0634 0.0000
# 6 0.0000 0.0000 0.0000 -8.3952 0.0000 27.5464
#
#
#
# Elastic Compliance Matrix: (Units=1/GPa)
#
#
# Indices 1 2 3 4 5 6 
#
# 1 0.014555 -0.002761 -0.003286 0.000000 -0.003587 0.000000
# 2 -0.002761 0.012291 -0.004226 0.000000 0.003453 0.000000
# 3 -0.003286 -0.004226 0.017386 0.000000 -0.006534 0.000000
# 4 0.000000 0.000000 0.000000 0.023565 0.000000 0.007182
# 5 -0.003587 0.003453 -0.006534 0.000000 0.032683 0.000000
# 6 0.000000 0.000000 0.000000 0.007182 0.000000 0.038491
#
#
# Mechanical properties :
#
#
# Convention : Reuss Voigt Hill
#
# Bulk Modulus (GPa) = 42.21705 45.20653 43.71179
# Shear Modulus (GPa) = 29.86618 33.27522 31.57070
#
# Velocity S-wave (km/s) = 3.84477 4.05827 3.95296
# Velocity P-wave (km/s) = 6.37220 6.65841 6.51688
#
# Compressibility (1/GPa) = 0.02368711
#
# Stress axis : x y z
#
# Youngs Moduli (GPa) = 68.70275 81.35859 57.51743
#
# Poissons Ratio (x) = 0.22460 0.18901
# Poissons Ratio (y) = 0.18966 0.24307
# Poissons Ratio (z) = 0.22577 0.34382
#
# Static dielectric constant tensor:
#      x y z
#    x 3.722670 0.000000 0.004960 
#    y 0.000000 3.693470 0.000000 
#    z 0.004960 0.000000 4.171030 
# 
# 
# High freq. dielectric constant tensor:
#      x y z
#    x 1.758990 0.000000 0.015630 
#    y 0.000000 1.779060 0.000000 
#    z 0.015630 0.000000 1.809790 
# 
# From -- ./inp_files/157253.got.cif
#   From: 2010.06.25/outbox.cif.g09.slc.cpg/sg15_79_cif.got.tgz:157253.got - 2010.06.28 07:06:18.
