data_PCOD8141539
_publ_section_title
;
Structure prediction by ZEFSAII (Michael W. Deem and Ramdas Pophale) SiO2 
 PCOD8141539
Probable space group: C 2/C
;
_chemical_formula_sum "Si O2"
_cell_formula_units_Z 36
_cell_length_a 7.635221
_cell_length_b 27.076069
_cell_length_c 8.709630
_cell_angle_alpha 90.000000
_cell_angle_beta 70.875025
_cell_angle_gamma 90.000000
_cell_volume 1701.177617
_symmetry_space_group_name_H-M "C 2/C"
_symmetry_group_IT_number 15
_symmetry_cell_setting 'monoclinic'
loop_
_space_group_symop_operation_xyz
x,y,z
-x,y,1/2-z
-x,-y,-z
x,-y,1/2+z
1/2+x,1/2+y,z
1/2-x,1/2+y,1/2-z
1/2-x,1/2-y,-z
1/2+x,1/2-y,1/2+z
loop_
_atom_site_type_symbol
_atom_site_label
_atom_site_fract_x
_atom_site_fract_y
_atom_site_fract_z
Si Si1 0.500000 0.987872 0.250000
Si Si2 0.500000 0.383721 0.250000
Si Si3 0.329709 0.064154 0.513201
Si Si4 0.702046 0.815399 0.170935
Si Si5 0.207342 0.205385 0.197584
Si Si6 0.000000 0.639476 0.250000
O O1 0.602985 0.953353 0.340598
O O2 0.342960 0.020415 0.382929
O O3 0.381552 0.417162 0.403302
O O4 0.362097 0.350802 0.187142
O O5 0.465674 0.107242 0.412969
O O6 0.500000 0.840314 0.250000
O O7 0.715610 0.762294 0.252893
O O8 0.705827 0.802966 0.991974
O O9 0.318224 0.173000 0.288271
O O10 0.000000 0.185156 0.250000
#
# Coordination Sequence:
#
# PCOD8141539 Si02
#       6
#     4   4   8   8   8   4
#     4   9  22  48  63  88 122 158 189 262 322 385
#     4  12  23  36  65 100 114 162 211 252 291 374
#     4  10  23  40  68  89 122 155 203 250 323 360
#     4  10  22  38  57  89 131 169 201 251 295 343
#     4  10  21  37  58  86 130 172 205 242 296 348
#     4  11  21  38  62  96 120 168 204 256 289 367
#
# _framework density 21.161809999999999
#
# number of rings (size 3 to 8) (size 9 to 14) (size 15 to 20)
#    0.000    1.778    0.000    3.333    4.667    0.889 
#    0.000    8.889    4.889    0.000    0.000    0.000 
#    0.000    0.000    0.000    0.000    0.000    0.000 
#
# Total GULP energy -223168.613238 kJ/mol
# GULP energy per Si atom -12398.256291 kJ/mol
# Density = 2.111364 g / cm^3
# Si number density = 21.161810 Si / 1000 Ang^3
#
#
#
# Elastic Constant Matrix: (Units=GPa)
#
#
# Indices 1 2 3 4 5 6 
#
# 1 157.1531 81.0249 53.2704 0.0000 -14.2618 0.0000
# 2 81.0249 114.4178 48.7831 0.0000 3.3654 0.0000
# 3 53.2704 48.7831 102.9285 0.0000 -8.0185 0.0000
# 4 0.0000 0.0000 0.0000 27.1168 0.0000 13.2273
# 5 -14.2618 3.3654 -8.0185 0.0000 40.7732 0.0000
# 6 0.0000 0.0000 0.0000 13.2273 0.0000 48.1322
#
#
#
# Elastic Compliance Matrix: (Units=1/GPa)
#
#
# Indices 1 2 3 4 5 6 
#
# 1 0.011086 -0.007091 -0.002060 0.000000 0.004058 0.000000
# 2 -0.007091 0.015645 -0.004102 0.000000 -0.004578 0.000000
# 3 -0.002060 -0.004102 0.012894 0.000000 0.002153 0.000000
# 4 0.000000 0.000000 0.000000 0.042586 0.000000 -0.011703
# 5 0.004058 -0.004578 0.002153 0.000000 0.026747 0.000000
# 6 0.000000 0.000000 0.000000 -0.011703 0.000000 0.023992
#
#
# Mechanical properties :
#
#
# Convention : Reuss Voigt Hill
#
# Bulk Modulus (GPa) = 76.23191 82.29514 79.26352
# Shear Modulus (GPa) = 30.51952 35.96583 33.24267
#
# Velocity S-wave (km/s) = 3.80175 4.12705 3.96773
# Velocity P-wave (km/s) = 7.44128 7.85385 7.65035
#
# Compressibility (1/GPa) = 0.01311787
#
# Stress axis : x y z
#
# Youngs Moduli (GPa) = 90.20273 63.91768 77.55808
#
# Poissons Ratio (x) = 0.45327 0.15981
# Poissons Ratio (y) = 0.63967 0.31811
# Poissons Ratio (z) = 0.18586 0.26216
#
# Static dielectric constant tensor:
#      x y z
#    x 3.626830 0.000000 -0.180230 
#    y 0.000000 4.128500 0.000000 
#    z -0.180230 0.000000 3.643400 
# 
# 
# High freq. dielectric constant tensor:
#      x y z
#    x 1.816010 0.000000 -0.012190 
#    y 0.000000 1.837510 0.000000 
#    z -0.012190 0.000000 1.839000 
# 
# From -- ./inp_files/23370.got.cif
#   From: 2010.06.25/outbox.cif.g09.slc.cpg/sg15_12_cif.got.tgz:23370.got - 2010.06.28 07:06:18.
