data_PCOD8141032
_publ_section_title
;
Structure prediction by ZEFSAII (Michael W. Deem and Ramdas Pophale) SiO2 
 PCOD8141032
Probable space group: C 2/C
;
_chemical_formula_sum "Si O2"
_cell_formula_units_Z 64
_cell_length_a 8.794370
_cell_length_b 21.382584
_cell_length_c 19.610362
_cell_angle_alpha 90.000000
_cell_angle_beta 118.455850
_cell_angle_gamma 90.000000
_cell_volume 3242.131083
_symmetry_space_group_name_H-M "C 2/C"
_symmetry_group_IT_number 15
_symmetry_cell_setting 'monoclinic'
loop_
_space_group_symop_operation_xyz
x,y,z
-x,y,1/2-z
-x,-y,-z
x,-y,1/2+z
1/2+x,1/2+y,z
1/2-x,1/2+y,1/2-z
1/2-x,1/2-y,-z
1/2+x,1/2-y,1/2+z
loop_
_atom_site_type_symbol
_atom_site_label
_atom_site_fract_x
_atom_site_fract_y
_atom_site_fract_z
Si Si1 0.587571 0.338592 0.964771
Si Si2 0.435156 0.794479 0.982679
Si Si3 0.282890 0.312159 0.814900
Si Si4 0.081847 0.325066 0.150984
Si Si5 0.732039 0.092444 0.882664
Si Si6 0.515468 0.018643 0.174860
Si Si7 0.677938 0.428502 0.250896
Si Si8 0.020997 0.343530 0.652565
O O1 0.739502 0.318711 0.946228
O O2 0.424952 0.357517 0.881843
O O3 0.544062 0.279425 0.002870
O O4 0.635339 0.394574 0.027014
O O5 0.501857 0.807334 0.922122
O O6 0.547526 0.831054 0.062939
O O7 0.377572 0.246278 0.820903
O O8 0.212749 0.337626 0.727495
O O9 0.119590 0.309668 0.830250
O O10 0.250784 0.364537 0.202864
O O11 0.911213 0.351358 0.154881
O O12 0.834112 0.082496 0.833446
O O13 0.633120 0.028806 0.880636
O O14 0.500000 0.037889 0.250000
O O15 0.491994 0.083213 0.129325
O O16 0.700619 0.986552 0.203221
O O17 0.500000 0.443690 0.250000
#
# Coordination Sequence:
#
# PCOD8141032 Si02
#       8
#     8   8   8   8   8   8   8   8
#     4   9  19  39  54  87 116 146 198 241 283 348
#     4   9  20  36  57  80 123 152 182 241 295 341
#     4  10  22  35  57  86 121 151 189 237 285 356
#     4   9  19  37  54  86 118 148 190 234 294 349
#     4   9  19  37  65  79 112 160 187 242 298 335
#     4   9  18  41  58  77 115 160 192 233 290 349
#     4  10  21  34  61  89 112 146 201 251 282 339
#     4  11  22  38  58  82 117 164 189 226 300 349
#
# _framework density 19.740103000000001
#
# number of rings (size 3 to 8) (size 9 to 14) (size 15 to 20)
#    0.000    2.500    1.250    1.875    3.500    3.500 
#    6.750    6.250    0.000    0.000    0.000    0.000 
#    0.000    0.000    0.000    0.000    0.000    0.000 
#
# Total GULP energy -396649.063686 kJ/mol
# GULP energy per Si atom -12395.283240 kJ/mol
# Density = 1.969517 g / cm^3
# Si number density = 19.740103 Si / 1000 Ang^3
#
#
#
# Elastic Constant Matrix: (Units=GPa)
#
#
# Indices 1 2 3 4 5 6 
#
# 1 76.1222 19.2910 20.5961 0.0000 -1.5686 0.0000
# 2 19.2910 70.2630 9.4462 0.0000 -4.5744 0.0000
# 3 20.5961 9.4462 75.9469 0.0000 6.4427 0.0000
# 4 0.0000 0.0000 0.0000 11.3296 0.0000 -1.3614
# 5 -1.5686 -4.5744 6.4427 0.0000 30.9130 0.0000
# 6 0.0000 0.0000 0.0000 -1.3614 0.0000 13.2889
#
#
#
# Elastic Compliance Matrix: (Units=1/GPa)
#
#
# Indices 1 2 3 4 5 6 
#
# 1 0.015072 -0.003571 -0.003729 0.000000 0.001014 0.000000
# 2 -0.003571 0.015522 -0.001162 0.000000 0.002358 0.000000
# 3 -0.003729 -0.001162 0.014612 0.000000 -0.003407 0.000000
# 4 0.000000 0.000000 0.000000 0.089365 0.000000 0.009155
# 5 0.001014 0.002358 -0.003407 0.000000 0.033459 0.000000
# 6 0.000000 0.000000 0.000000 0.009155 0.000000 0.076189
#
#
# Mechanical properties :
#
#
# Convention : Reuss Voigt Hill
#
# Bulk Modulus (GPa) = 35.35870 35.66653 35.51261
# Shear Modulus (GPa) = 18.47954 22.63956 20.55955
#
# Velocity S-wave (km/s) = 3.06296 3.39024 3.23075
# Velocity P-wave (km/s) = 5.51906 5.78206 5.65209
#
# Compressibility (1/GPa) = 0.02828159
#
# Stress axis : x y z
#
# Youngs Moduli (GPa) = 66.35031 64.42319 68.43710
#
# Poissons Ratio (x) = 0.23003 0.25521
# Poissons Ratio (y) = 0.23691 0.07955
# Poissons Ratio (z) = 0.24743 0.07488
#
# Static dielectric constant tensor:
#      x y z
#    x 3.426640 0.000000 0.161170 
#    y 0.000000 3.500840 0.000000 
#    z 0.161170 0.000000 3.693230 
# 
# 
# High freq. dielectric constant tensor:
#      x y z
#    x 1.753850 0.000000 0.007310 
#    y 0.000000 1.757960 0.000000 
#    z 0.007310 0.000000 1.769620 
# 
# From -- ./inp_files/233886.got.cif
#   From: 2010.06.25/outbox.cif.g09.slc.cpg/sg15_117_cif.got.tgz:233886.got - 2010.06.28 07:06:18.
