data_PCOD8141927
_publ_section_title
;
Structure prediction by ZEFSAII (Michael W. Deem and Ramdas Pophale) SiO2 
 PCOD8141927
Probable space group: C 2/C
;
_chemical_formula_sum "Si O2"
_cell_formula_units_Z 44
_cell_length_a 24.063107
_cell_length_b 10.896968
_cell_length_c 20.848867
_cell_angle_alpha 90.000000
_cell_angle_beta 25.872791
_cell_angle_gamma 90.000000
_cell_volume 2385.608930
_symmetry_space_group_name_H-M "C 2/C"
_symmetry_group_IT_number 15
_symmetry_cell_setting 'monoclinic'
loop_
_space_group_symop_operation_xyz
x,y,z
-x,y,1/2-z
-x,-y,-z
x,-y,1/2+z
1/2+x,1/2+y,z
1/2-x,1/2+y,1/2-z
1/2-x,1/2-y,-z
1/2+x,1/2-y,1/2+z
loop_
_atom_site_type_symbol
_atom_site_label
_atom_site_fract_x
_atom_site_fract_y
_atom_site_fract_z
Si Si1 0.895234 0.384523 0.183499
Si Si2 0.070596 0.603080 0.040710
Si Si3 0.960954 0.191052 0.020031
Si Si4 0.875794 0.688265 0.843822
Si Si5 0.500000 0.956508 0.750000
Si Si6 0.794612 0.970102 0.223309
O O1 0.985208 0.298339 0.046694
O O2 0.873310 0.302207 0.269505
O O3 0.766428 0.413115 0.277871
O O4 0.959822 0.514777 0.129715
O O5 0.053884 0.621767 0.134571
O O6 0.063112 0.741139 0.022407
O O7 0.201597 0.538249 0.881588
O O8 0.836312 0.110707 0.167766
O O9 0.082676 0.107465 0.885658
O O10 0.879848 0.542845 0.855280
O O11 0.000000 0.750355 0.750000
O O12 0.750000 0.750000 0.000000
#
# Coordination Sequence:
#
# PCOD8141927 Si02
#       6
#     8   8   8   8   4   8
#     4  10  22  34  61  79 116 146 189 230 299 334
#     4  10  21  38  59  79 113 152 184 234 287 339
#     4  10  22  35  57  87 113 145 190 237 281 341
#     4   9  20  35  56  83 111 150 191 240 281 344
#     4   8  20  38  56  82 108 150 202 220 290 352
#     4  10  22  35  57  87 113 144 190 237 281 339
#
# _framework density 18.443929000000001
#
# number of rings (size 3 to 8) (size 9 to 14) (size 15 to 20)
#    0.545    1.818    0.000    2.182   15.273    0.000 
#    0.000    0.909    0.000    0.000    0.000    0.000 
#    0.000    0.000    0.000    0.000    0.000    0.000 
#
# Total GULP energy -272587.682715 kJ/mol
# GULP energy per Si atom -12390.349214 kJ/mol
# Density = 1.840195 g / cm^3
# Si number density = 18.443929 Si / 1000 Ang^3
#
#
#
# Elastic Constant Matrix: (Units=GPa)
#
#
# Indices 1 2 3 4 5 6 
#
# 1 100.3738 28.7819 64.3465 0.0000 28.2850 0.0000
# 2 28.7819 81.9016 43.2604 -0.0001 10.2151 0.0000
# 3 64.3465 43.2604 125.4261 -0.0001 12.3447 0.0000
# 4 0.0000 -0.0001 -0.0001 23.1195 0.0000 0.8355
# 5 28.2850 10.2151 12.3447 0.0000 37.4911 0.0000
# 6 0.0000 0.0000 0.0000 0.8355 0.0000 16.9170
#
#
#
# Elastic Compliance Matrix: (Units=1/GPa)
#
#
# Indices 1 2 3 4 5 6 
#
# 1 0.018538 -0.000838 -0.008131 0.000000 -0.011080 0.000000
# 2 -0.000838 0.015189 -0.004613 0.000000 -0.001987 0.000000
# 3 -0.008131 -0.004613 0.013443 0.000000 0.002965 0.000000
# 4 0.000000 0.000000 0.000000 0.043331 0.000000 -0.002140
# 5 -0.011080 -0.001987 0.002965 0.000000 0.034598 0.000000
# 6 0.000000 0.000000 0.000000 -0.002140 0.000000 0.059218
#
#
# Mechanical properties :
#
#
# Convention : Reuss Voigt Hill
#
# Bulk Modulus (GPa) = 49.98462 64.49769 57.24115
# Shear Modulus (GPa) = 22.92007 26.92635 24.92321
#
# Velocity S-wave (km/s) = 3.52900 3.82501 3.67999
# Velocity P-wave (km/s) = 6.61550 7.38601 7.01135
#
# Compressibility (1/GPa) = 0.02000615
#
# Stress axis : x y z
#
# Youngs Moduli (GPa) = 53.94383 65.83787 74.38555
#
# Poissons Ratio (x) = 0.05517 0.60481
# Poissons Ratio (y) = 0.04520 0.34316
# Poissons Ratio (z) = 0.43861 0.30373
#
# Static dielectric constant tensor:
#      x y z
#    x 3.600090 0.000000 0.184660 
#    y 0.000000 3.354100 0.000000 
#    z 0.184660 0.000000 3.376620 
# 
# 
# High freq. dielectric constant tensor:
#      x y z
#    x 1.710640 0.000000 0.006910 
#    y 0.000000 1.704760 0.000000 
#    z 0.006910 0.000000 1.712340 
# 
# From -- ./inp_files/116940.got.cif
#   From: 2010.06.25/outbox.cif.g09.slc.cpg/sg15_59_cif.got.tgz:116940.got - 2010.06.28 07:06:18.
