data_PCOD8141880
_publ_section_title
;
Structure prediction by ZEFSAII (Michael W. Deem and Ramdas Pophale) SiO2 
 PCOD8141880
Probable space group: C 2/C
;
_chemical_formula_sum "Si O2"
_cell_formula_units_Z 44
_cell_length_a 10.833789
_cell_length_b 7.568921
_cell_length_c 22.873083
_cell_angle_alpha 90.000000
_cell_angle_beta 75.660820
_cell_angle_gamma 90.000000
_cell_volume 1817.163779
_symmetry_space_group_name_H-M "C 2/C"
_symmetry_group_IT_number 15
_symmetry_cell_setting 'monoclinic'
loop_
_space_group_symop_operation_xyz
x,y,z
-x,y,1/2-z
-x,-y,-z
x,-y,1/2+z
1/2+x,1/2+y,z
1/2-x,1/2+y,1/2-z
1/2-x,1/2-y,-z
1/2+x,1/2-y,1/2+z
loop_
_atom_site_type_symbol
_atom_site_label
_atom_site_fract_x
_atom_site_fract_y
_atom_site_fract_z
Si Si1 0.111670 0.374612 0.347515
Si Si2 0.636320 0.718918 0.646615
Si Si3 0.448659 0.494078 0.601830
Si Si4 0.500000 0.037271 0.250000
Si Si5 0.898688 0.445471 0.951527
Si Si6 0.094757 0.782687 0.493616
O O1 0.257505 0.425844 0.346672
O O2 0.079954 0.412627 0.284147
O O3 0.014136 0.471811 0.400620
O O4 0.121981 0.162687 0.356723
O O5 0.506956 0.619347 0.644554
O O6 0.603489 0.845864 0.704240
O O7 0.686685 0.831890 0.583498
O O8 0.564202 0.422521 0.547846
O O9 0.356310 0.616114 0.570779
O O10 0.819660 0.614767 0.990586
O O11 0.959845 0.318669 0.993574
#
# Coordination Sequence:
#
# PCOD8141880 Si02
#       6
#     8   8   8   4   8   8
#     4  10  21  38  57  80 107 140 181 226 270 318
#     4  10  21  38  57  80 107 140 181 226 270 318
#     4   9  18  33  56  82 110 143 180 217 258 316
#     4  10  24  40  56  76 104 140 180 230 284 318
#     4   8  16  34  56  80 116 146 172 214 262 316
#     4   8  14  32  54  78 118 148 166 214 262 306
#
# _framework density 24.213559
#
# number of rings (size 3 to 8) (size 9 to 14) (size 15 to 20)
#    0.000    2.909    0.000    0.000    0.000    3.636 
#    0.000   49.091    0.000    0.000    0.000    0.000 
#    0.000    0.000    0.000    0.000    0.000    0.000 
#
# Total GULP energy -272613.666787 kJ/mol
# GULP energy per Si atom -12391.530309 kJ/mol
# Density = 2.415845 g / cm^3
# Si number density = 24.213559 Si / 1000 Ang^3
#
#
#
# Elastic Constant Matrix: (Units=GPa)
#
#
# Indices 1 2 3 4 5 6 
#
# 1 46.1490 2.9211 26.4196 0.0000 23.5258 0.0000
# 2 2.9211 92.9007 28.7165 0.0000 12.7948 0.0000
# 3 26.4196 28.7165 106.3777 0.0000 33.5810 0.0000
# 4 0.0000 0.0000 0.0000 42.1770 0.0000 8.2668
# 5 23.5258 12.7948 33.5810 0.0000 32.4553 0.0000
# 6 0.0000 0.0000 0.0000 8.2668 0.0000 27.0258
#
#
#
# Elastic Compliance Matrix: (Units=1/GPa)
#
#
# Indices 1 2 3 4 5 6 
#
# 1 0.035102 0.002825 -0.001629 0.000000 -0.024873 0.000000
# 2 0.002825 0.012060 -0.002688 0.000000 -0.004021 0.000000
# 3 -0.001629 -0.002688 0.014588 0.000000 -0.012854 0.000000
# 4 0.000000 0.000000 0.000000 0.025222 0.000000 -0.007715
# 5 -0.024873 -0.004021 -0.012854 0.000000 0.063726 0.000000
# 6 0.000000 0.000000 0.000000 -0.007715 0.000000 0.039362
#
#
# Mechanical properties :
#
#
# Convention : Reuss Voigt Hill
#
# Bulk Modulus (GPa) = 17.01598 40.17131 28.59364
# Shear Modulus (GPa) = 23.51479 32.82298 28.16888
#
# Velocity S-wave (km/s) = 3.11969 3.68579 3.41449
# Velocity P-wave (km/s) = 4.47430 5.89405 5.23255
#
# Compressibility (1/GPa) = 0.05876828
#
# Stress axis : x y z
#
# Youngs Moduli (GPa) = 28.48813 82.91859 68.54828
#
# Poissons Ratio (x) = -0.23428 0.11165
# Poissons Ratio (y) = -0.08049 0.18425
# Poissons Ratio (z) = 0.04640 0.22287
#
# Static dielectric constant tensor:
#      x y z
#    x 3.831880 0.000000 0.485460 
#    y 0.000000 4.831440 0.000000 
#    z 0.485460 0.000000 4.396210 
# 
# 
# High freq. dielectric constant tensor:
#      x y z
#    x 1.939950 0.000000 0.036380 
#    y 0.000000 1.977080 0.000000 
#    z 0.036380 0.000000 1.953070 
# 
# From -- ./inp_files/267370.got.cif
#   From: 2010.06.25/outbox.cif.g09.slc.cpg/sg15_134_cif.got.tgz:267370.got - 2010.06.28 07:06:18.
