data_PCOD8141355
_publ_section_title
;
Structure prediction by ZEFSAII (Michael W. Deem and Ramdas Pophale) SiO2 
 PCOD8141355
Probable space group: C 2/C
;
_chemical_formula_sum "Si O2"
_cell_formula_units_Z 40
_cell_length_a 14.642713
_cell_length_b 12.794970
_cell_length_c 24.959258
_cell_angle_alpha 90.000000
_cell_angle_beta 156.332544
_cell_angle_gamma 90.000000
_cell_volume 1877.153287
_symmetry_space_group_name_H-M "C 2/C"
_symmetry_group_IT_number 15
_symmetry_cell_setting 'monoclinic'
loop_
_space_group_symop_operation_xyz
x,y,z
-x,y,1/2-z
-x,-y,-z
x,-y,1/2+z
1/2+x,1/2+y,z
1/2-x,1/2+y,1/2-z
1/2-x,1/2-y,-z
1/2+x,1/2-y,1/2+z
loop_
_atom_site_type_symbol
_atom_site_label
_atom_site_fract_x
_atom_site_fract_y
_atom_site_fract_z
Si Si1 0.870265 0.887547 0.562597
Si Si2 0.789251 0.707830 0.105864
Si Si3 0.107290 0.886517 0.050447
Si Si4 0.054708 0.120130 0.882130
Si Si5 0.108399 0.679793 0.701703
O O1 0.838251 0.871062 0.481876
O O2 0.611010 0.874851 0.444084
O O3 0.044380 0.800910 0.678450
O O4 0.974182 0.996102 0.639153
O O5 0.000000 0.655143 0.250000
O O6 0.857563 0.826624 0.125647
O O7 0.569381 0.704348 0.025941
O O8 0.747330 0.638760 0.030547
O O9 0.327374 0.874710 0.207065
O O10 0.000000 0.000000 0.000000
O O11 0.816715 0.172126 0.771883
#
# Coordination Sequence:
#
# PCOD8141355 Si02
#       5
#     8   8   8   8   8
#     4  11  22  40  64  88 132 173 206 274 330 377
#     4  10  21  36  60  93 124 159 214 269 307 380
#     4  11  21  38  62  96 122 169 214 275 318 377
#     4  10  22  39  61  92 126 171 216 263 321 385
#     4  10  23  38  58  95 127 165 219 268 324 391
#
# _framework density 21.308859999999999
#
# number of rings (size 3 to 8) (size 9 to 14) (size 15 to 20)
#    0.000    1.600    4.000    1.800    2.800    4.800 
#    0.000    4.000    0.000   12.000    0.000    0.000 
#    0.000    0.000    0.000    0.000    0.000    0.000 
#
# Total GULP energy -247939.017336 kJ/mol
# GULP energy per Si atom -12396.950867 kJ/mol
# Density = 2.126036 g / cm^3
# Si number density = 21.308860 Si / 1000 Ang^3
#
#
#
# Elastic Constant Matrix: (Units=GPa)
#
#
# Indices 1 2 3 4 5 6 
#
# 1 61.4022 31.3271 16.3810 -0.0012 15.0979 0.0001
# 2 31.3271 146.0949 54.4977 0.0025 10.1359 -0.0014
# 3 16.3810 54.4977 122.9900 0.0042 12.7475 0.0046
# 4 -0.0012 0.0025 0.0042 32.7361 0.0011 -0.3589
# 5 15.0979 10.1359 12.7475 0.0011 26.7338 -0.0003
# 6 0.0001 -0.0014 0.0046 -0.3589 -0.0003 31.6681
#
#
#
# Elastic Compliance Matrix: (Units=1/GPa)
#
#
# Indices 1 2 3 4 5 6 
#
# 1 0.020718 -0.003711 -0.000051 0.000001 -0.010269 0.000000
# 2 -0.003711 0.008919 -0.003497 0.000000 0.000382 0.000001
# 3 -0.000051 -0.003497 0.010043 -0.000001 -0.003434 -0.000002
# 4 0.000001 0.000000 -0.000001 0.030551 -0.000002 0.000346
# 5 -0.010269 0.000382 -0.003434 -0.000002 0.044698 0.000001
# 6 0.000000 0.000001 -0.000002 0.000346 0.000001 0.031581
#
#
# Mechanical properties :
#
#
# Convention : Reuss Voigt Hill
#
# Bulk Modulus (GPa) = 39.74282 59.43321 49.58801
# Shear Modulus (GPa) = 29.51313 33.44634 31.47974
#
# Velocity S-wave (km/s) = 3.72562 3.96611 3.84775
# Velocity P-wave (km/s) = 6.09904 6.99466 6.56215
#
# Compressibility (1/GPa) = 0.02516178
#
# Stress axis : x y z
#
# Youngs Moduli (GPa) = 48.26699 112.12346 99.57082
#
# Poissons Ratio (x) = 0.41612 0.00504
# Poissons Ratio (y) = 0.17913 0.34822
# Poissons Ratio (z) = 0.00244 0.39212
#
# Static dielectric constant tensor:
#      x y z
#    x 3.972810 0.000000 0.053920 
#    y 0.000000 3.841280 -0.000010 
#    z 0.053920 -0.000010 3.925610 
# 
# 
# High freq. dielectric constant tensor:
#      x y z
#    x 1.821150 0.000000 0.010670 
#    y 0.000000 1.824420 0.000000 
#    z 0.010670 0.000000 1.843700 
# 
# From -- ./inp_files/316016.got.cif
#   From: 2010.06.25/outbox.cif.g09.slc.cpg/sg15_159_cif.got.tgz:316016.got - 2010.06.28 07:06:18.
