data_PCOD8141732
_publ_section_title
;
Structure prediction by ZEFSAII (Michael W. Deem and Ramdas Pophale) SiO2 
 PCOD8141732
Probable space group: C 2/C
;
_chemical_formula_sum "Si O2"
_cell_formula_units_Z 44
_cell_length_a 6.914999
_cell_length_b 20.699520
_cell_length_c 15.153293
_cell_angle_alpha 90.000000
_cell_angle_beta 112.226340
_cell_angle_gamma 90.000000
_cell_volume 2007.835705
_symmetry_space_group_name_H-M "C 2/C"
_symmetry_group_IT_number 15
_symmetry_cell_setting 'monoclinic'
loop_
_space_group_symop_operation_xyz
x,y,z
-x,y,1/2-z
-x,-y,-z
x,-y,1/2+z
1/2+x,1/2+y,z
1/2-x,1/2+y,1/2-z
1/2-x,1/2-y,-z
1/2+x,1/2-y,1/2+z
loop_
_atom_site_type_symbol
_atom_site_label
_atom_site_fract_x
_atom_site_fract_y
_atom_site_fract_z
Si Si1 0.000000 0.108841 0.250000
Si Si2 0.134098 0.398301 0.036347
Si Si3 0.169283 0.603906 0.855071
Si Si4 0.443240 0.155795 0.338004
Si Si5 0.488723 0.515037 0.649966
Si Si6 0.509862 0.302267 0.354985
O O1 0.192924 0.156096 0.297160
O O2 0.986135 0.062386 0.334887
O O3 0.264091 0.464969 0.070073
O O4 0.283641 0.336554 0.073250
O O5 0.940565 0.394564 0.069592
O O6 0.039348 0.396435 0.921619
O O7 0.325212 0.542409 0.878299
O O8 0.303194 0.669196 0.865826
O O9 0.000000 0.596612 0.750000
O O10 0.500000 0.133464 0.250000
O O11 0.525276 0.226481 0.378147
O O12 0.500000 0.547917 0.750000
O O13 0.500000 0.314872 0.250000
#
# Coordination Sequence:
#
# PCOD8141732 Si02
#       6
#     4   8   8   8   8   8
#     4  10  24  44  62  90 130 174 214 252 312 382
#     4  11  21  39  66  95 118 165 213 261 318 365
#     4  11  17  33  67  95 120 154 200 271 315 354
#     4  11  27  43  59  84 135 175 207 255 315 377
#     4   9  20  39  62  93 122 148 214 264 300 371
#     4  10  21  37  62  96 127 158 206 261 313 383
#
# _framework density 21.914141999999998
#
# number of rings (size 3 to 8) (size 9 to 14) (size 15 to 20)
#    0.545    1.091    3.636    1.636    1.273    6.545 
#    0.000    1.818    0.000    0.000    0.000    0.000 
#    0.000    0.000    0.000    0.000    0.000    0.000 
#
# Total GULP energy -272778.044089 kJ/mol
# GULP energy per Si atom -12399.002004 kJ/mol
# Density = 2.186426 g / cm^3
# Si number density = 21.914142 Si / 1000 Ang^3
#
#
#
# Elastic Constant Matrix: (Units=GPa)
#
#
# Indices 1 2 3 4 5 6 
#
# 1 140.8114 12.7287 39.3724 0.0000 -7.0626 0.0000
# 2 12.7287 47.2960 2.2361 0.0000 -14.3503 0.0000
# 3 39.3724 2.2361 88.2292 0.0000 -5.7113 0.0000
# 4 0.0000 0.0000 0.0000 5.5341 0.0000 2.1474
# 5 -7.0626 -14.3503 -5.7113 0.0000 26.4521 0.0000
# 6 0.0000 0.0000 0.0000 2.1474 0.0000 36.1976
#
#
#
# Elastic Compliance Matrix: (Units=1/GPa)
#
#
# Indices 1 2 3 4 5 6 
#
# 1 0.008314 -0.001951 -0.003636 0.000000 0.000376 0.000000
# 2 -0.001951 0.025773 0.001104 0.000000 0.013699 0.000000
# 3 -0.003636 0.001104 0.013088 0.000000 0.002454 0.000000
# 4 0.000000 0.000000 0.000000 0.184954 0.000000 -0.010972
# 5 0.000376 0.013699 0.002454 0.000000 0.045866 0.000000
# 6 0.000000 0.000000 0.000000 -0.010972 0.000000 0.028277
#
#
# Mechanical properties :
#
#
# Convention : Reuss Voigt Hill
#
# Bulk Modulus (GPa) = 26.17260 42.77899 34.47580
# Shear Modulus (GPa) = 15.24510 28.43673 21.84091
#
# Velocity S-wave (km/s) = 2.64042 3.60619 3.16041
# Velocity P-wave (km/s) = 4.61139 6.07479 5.39296
#
# Compressibility (1/GPa) = 0.03820790
#
# Stress axis : x y z
#
# Youngs Moduli (GPa) = 120.28370 38.80027 76.40796
#
# Poissons Ratio (x) = 0.07572 0.27783
# Poissons Ratio (y) = 0.23473 -0.08439
# Poissons Ratio (z) = 0.43737 -0.04285
#
# Static dielectric constant tensor:
#      x y z
#    x 4.044120 0.000000 0.018110 
#    y 0.000000 3.696630 0.000000 
#    z 0.018110 0.000000 3.805310 
# 
# 
# High freq. dielectric constant tensor:
#      x y z
#    x 1.871400 0.000000 0.007620 
#    y 0.000000 1.849040 0.000000 
#    z 0.007620 0.000000 1.854240 
# 
# From -- ./inp_files/129477.got.cif
#   From: 2010.06.25/outbox.cif.g09.slc.cpg/sg15_65_cif.got.tgz:129477.got - 2010.06.28 07:06:18.
