data_PCOD8141540
_publ_section_title
;
Structure prediction by ZEFSAII (Michael W. Deem and Ramdas Pophale) SiO2 
 PCOD8141540
Probable space group: C 2/C
;
_chemical_formula_sum "Si O2"
_cell_formula_units_Z 36
_cell_length_a 9.974854
_cell_length_b 10.094188
_cell_length_c 28.438712
_cell_angle_alpha 90.000000
_cell_angle_beta 45.990253
_cell_angle_gamma 90.000000
_cell_volume 2059.446867
_symmetry_space_group_name_H-M "C 2/C"
_symmetry_group_IT_number 15
_symmetry_cell_setting 'monoclinic'
loop_
_space_group_symop_operation_xyz
x,y,z
-x,y,1/2-z
-x,-y,-z
x,-y,1/2+z
1/2+x,1/2+y,z
1/2-x,1/2+y,1/2-z
1/2-x,1/2-y,-z
1/2+x,1/2-y,1/2+z
loop_
_atom_site_type_symbol
_atom_site_label
_atom_site_fract_x
_atom_site_fract_y
_atom_site_fract_z
Si Si1 0.986110 0.594978 0.073189
Si Si2 0.690492 0.914632 0.618171
Si Si3 0.867306 0.876486 0.132947
Si Si4 0.500000 0.014416 0.750000
Si Si5 0.261053 0.123719 0.578876
O O1 0.873446 0.727938 0.112010
O O2 0.838130 0.481528 0.097200
O O3 0.108101 0.547895 0.087604
O O4 0.125216 0.622905 0.996911
O O5 0.524290 0.922505 0.697677
O O6 0.778695 0.768596 0.597431
O O7 0.851187 0.021024 0.592788
O O8 0.047488 0.911582 0.119844
O O9 0.684061 0.892944 0.210588
#
# Coordination Sequence:
#
# PCOD8141540 Si02
#       5
#     8   8   8   4   8
#     4  10  21  37  58  87 111 138 187 232 279 325
#     4   9  19  39  55  79 113 149 177 229 270 326
#     4   9  19  39  55  79 113 149 177 229 270 326
#     4   8  20  40  54  76 116 144 200 210 264 348
#     4  10  21  37  58  87 111 138 187 232 279 325
#
# _framework density 17.480422999999998
#
# number of rings (size 3 to 8) (size 9 to 14) (size 15 to 20)
#    1.333    1.333    0.000    2.667    0.000    5.333 
#   16.000    4.444    0.000    0.000    0.000    0.000 
#    0.000    0.000    0.000    0.000    0.000    0.000 
#
# Total GULP energy -223080.913876 kJ/mol
# GULP energy per Si atom -12393.384104 kJ/mol
# Density = 1.744064 g / cm^3
# Si number density = 17.480423 Si / 1000 Ang^3
#
#
#
# Elastic Constant Matrix: (Units=GPa)
#
#
# Indices 1 2 3 4 5 6 
#
# 1 65.7801 54.9087 -11.8512 0.0000 -9.4002 0.0000
# 2 54.9087 96.1352 0.1176 0.0000 0.3614 0.0000
# 3 -11.8512 0.1176 40.1446 0.0000 -6.4398 0.0001
# 4 0.0000 0.0000 0.0000 25.6073 0.0000 -9.5220
# 5 -9.4002 0.3614 -6.4398 0.0000 27.7430 0.0000
# 6 0.0000 0.0000 0.0001 -9.5220 0.0000 22.9223
#
#
#
# Elastic Compliance Matrix: (Units=1/GPa)
#
#
# Indices 1 2 3 4 5 6 
#
# 1 0.038592 -0.022122 0.014127 0.000000 0.016644 0.000000
# 2 -0.022122 0.023084 -0.008153 0.000000 -0.009689 0.000000
# 3 0.014127 -0.008153 0.031045 0.000000 0.012099 0.000000
# 4 0.000000 0.000000 0.000000 0.046185 0.000000 0.019186
# 5 0.016644 -0.009689 0.012099 0.000000 0.044619 0.000000
# 6 0.000000 0.000000 0.000000 0.019186 0.000000 0.051595
#
#
# Mechanical properties :
#
#
# Convention : Reuss Voigt Hill
#
# Bulk Modulus (GPa) = 16.54897 32.04555 24.29726
# Shear Modulus (GPa) = 17.38785 25.84685 21.61735
#
# Velocity S-wave (km/s) = 3.15731 3.84945 3.52043
# Velocity P-wave (km/s) = 4.77276 6.17493 5.51856
#
# Compressibility (1/GPa) = 0.06042672
#
# Stress axis : x y z
#
# Youngs Moduli (GPa) = 25.91228 43.32076 32.21091
#
# Poissons Ratio (x) = 0.95834 -0.45506
# Poissons Ratio (y) = 0.57323 0.26260
# Poissons Ratio (z) = -0.36607 0.35317
#
# Static dielectric constant tensor:
#      x y z
#    x 3.189640 0.000000 -0.001730 
#    y 0.000000 3.225620 0.000000 
#    z -0.001730 0.000000 3.145470 
# 
# 
# High freq. dielectric constant tensor:
#      x y z
#    x 1.674020 0.000000 -0.000840 
#    y 0.000000 1.677370 0.000000 
#    z -0.000840 0.000000 1.671170 
# 
# From -- ./inp_files/235501.got.cif
#   From: 2010.06.25/outbox.cif.g09.slc.cpg/sg15_118_cif.got.tgz:235501.got - 2010.06.28 07:06:18.
