data_PCOD8141377
_publ_section_title
;
Structure prediction by ZEFSAII (Michael W. Deem and Ramdas Pophale) SiO2 
 PCOD8141377
Probable space group: C 2/C
;
_chemical_formula_sum "Si O2"
_cell_formula_units_Z 40
_cell_length_a 19.124874
_cell_length_b 17.004357
_cell_length_c 8.145728
_cell_angle_alpha 90.000000
_cell_angle_beta 49.415994
_cell_angle_gamma 90.000000
_cell_volume 2011.822073
_symmetry_space_group_name_H-M "C 2/C"
_symmetry_group_IT_number 15
_symmetry_cell_setting 'monoclinic'
loop_
_space_group_symop_operation_xyz
x,y,z
-x,y,1/2-z
-x,-y,-z
x,-y,1/2+z
1/2+x,1/2+y,z
1/2-x,1/2+y,1/2-z
1/2-x,1/2-y,-z
1/2+x,1/2-y,1/2+z
loop_
_atom_site_type_symbol
_atom_site_label
_atom_site_fract_x
_atom_site_fract_y
_atom_site_fract_z
Si Si1 0.000000 0.362889 0.750000
Si Si2 0.954387 0.721131 0.647999
Si Si3 0.000000 0.016696 0.750000
Si Si4 0.901422 0.508017 0.559560
Si Si5 0.312205 0.101742 0.955047
Si Si6 0.400785 0.396224 0.678306
O O1 0.990393 0.310251 0.598266
O O2 0.087807 0.421558 0.592647
O O3 0.853570 0.681338 0.812893
O O4 0.948859 0.814447 0.646967
O O5 0.000000 0.696757 0.750000
O O6 0.072517 0.962112 0.731971
O O7 0.063038 0.074615 0.550109
O O8 0.820443 0.532823 0.807344
O O9 0.871481 0.426268 0.522815
O O10 0.000000 0.500000 0.500000
O O11 0.207904 0.116236 0.163679
#
# Coordination Sequence:
#
# PCOD8141377 Si02
#       6
#     4   8   4   8   8   8
#     4  10  21  36  61  92 124 166 202 234 301 388
#     4  11  23  39  63  88 128 168 198 250 318 372
#     4  10  23  42  67  78 114 162 208 262 315 362
#     4  11  19  36  59  91 128 159 194 241 306 373
#     4  11  22  34  62  91 123 155 203 253 300 366
#     4  11  22  43  61  88 114 158 212 259 309 364
#
# _framework density 19.882473000000001
#
# number of rings (size 3 to 8) (size 9 to 14) (size 15 to 20)
#    0.000    1.200    3.000    4.800    0.000    0.000 
#    0.000    0.000    0.000    6.000    0.000    0.000 
#    0.000    0.000    0.000    0.000    0.000    0.000 
#
# Total GULP energy -247845.503723 kJ/mol
# GULP energy per Si atom -12392.275186 kJ/mol
# Density = 1.983722 g / cm^3
# Si number density = 19.882473 Si / 1000 Ang^3
#
#
#
# Elastic Constant Matrix: (Units=GPa)
#
#
# Indices 1 2 3 4 5 6 
#
# 1 62.7971 9.9470 60.6668 0.0000 8.2430 0.0000
# 2 9.9470 86.6757 46.6692 0.0000 7.9221 0.0000
# 3 60.6668 46.6692 112.5477 0.0000 9.5210 0.0000
# 4 0.0000 0.0000 0.0000 41.5888 0.0000 17.3211
# 5 8.2430 7.9221 9.5210 0.0000 33.2007 0.0000
# 6 0.0000 0.0000 0.0000 17.3211 0.0000 40.5291
#
#
#
# Elastic Compliance Matrix: (Units=1/GPa)
#
#
# Indices 1 2 3 4 5 6 
#
# 1 0.038226 0.008917 -0.023900 0.000000 -0.004765 0.000000
# 2 0.008917 0.017042 -0.011624 0.000000 -0.002947 0.000000
# 3 -0.023900 -0.011624 0.026494 0.000000 0.001110 0.000000
# 4 0.000000 0.000000 0.000000 0.029252 0.000000 -0.012501
# 5 -0.004765 -0.002947 0.001110 0.000000 0.031688 0.000000
# 6 0.000000 0.000000 0.000000 -0.012501 0.000000 0.030016
#
#
# Mechanical properties :
#
#
# Convention : Reuss Voigt Hill
#
# Bulk Modulus (GPa) = 35.02746 55.17627 45.10186
# Shear Modulus (GPa) = 21.23622 32.71288 26.97455
#
# Velocity S-wave (km/s) = 3.27171 4.06065 3.68734
# Velocity P-wave (km/s) = 5.65045 7.05667 6.39235
#
# Compressibility (1/GPa) = 0.02854903
#
# Stress axis : x y z
#
# Youngs Moduli (GPa) = 26.16015 58.67855 37.74465
#
# Poissons Ratio (x) = -0.52324 0.90208
# Poissons Ratio (y) = -0.23327 0.43874
# Poissons Ratio (z) = 0.62521 0.68207
#
# Static dielectric constant tensor:
#      x y z
#    x 3.385280 0.000000 0.361390 
#    y 0.000000 3.748230 0.000000 
#    z 0.361390 0.000000 3.805760 
# 
# 
# High freq. dielectric constant tensor:
#      x y z
#    x 1.751820 0.000000 0.023410 
#    y 0.000000 1.784450 0.000000 
#    z 0.023410 0.000000 1.784930 
# 
# From -- ./inp_files/29284.got.cif
#   From: 2010.06.25/outbox.cif.g09.slc.cpg/sg15_15_cif.got.tgz:29284.got - 2010.06.28 07:06:18.
