data_PCOD8141631
_publ_section_title
;
Structure prediction by ZEFSAII (Michael W. Deem and Ramdas Pophale) SiO2 
 PCOD8141631
Probable space group: C 2/C
;
_chemical_formula_sum "Si O2"
_cell_formula_units_Z 56
_cell_length_a 25.862669
_cell_length_b 9.571960
_cell_length_c 13.951201
_cell_angle_alpha 90.000000
_cell_angle_beta 57.090169
_cell_angle_gamma 90.000000
_cell_volume 2899.481224
_symmetry_space_group_name_H-M "C 2/C"
_symmetry_group_IT_number 15
_symmetry_cell_setting 'monoclinic'
loop_
_space_group_symop_operation_xyz
x,y,z
-x,y,1/2-z
-x,-y,-z
x,-y,1/2+z
1/2+x,1/2+y,z
1/2-x,1/2+y,1/2-z
1/2-x,1/2-y,-z
1/2+x,1/2-y,1/2+z
loop_
_atom_site_type_symbol
_atom_site_label
_atom_site_fract_x
_atom_site_fract_y
_atom_site_fract_z
Si Si1 0.319864 0.277051 0.168167
Si Si2 0.678576 0.279474 0.815189
Si Si3 0.501333 0.617568 0.636102
Si Si4 0.998328 0.433686 0.638034
Si Si5 0.132601 0.009726 0.507267
Si Si6 0.130060 0.987137 0.235745
Si Si7 0.102965 0.500363 0.398563
O O1 0.247983 0.260551 0.222129
O O2 0.330393 0.364609 0.254879
O O3 0.349371 0.126093 0.147548
O O4 0.348588 0.356542 0.047619
O O5 0.651172 0.362385 0.751846
O O6 0.640165 0.141210 0.871121
O O7 0.675711 0.374315 0.913749
O O8 0.500000 0.634407 0.750000
O O9 0.501115 0.774707 0.595301
O O10 0.562378 0.535077 0.543031
O O11 0.441468 0.532316 0.662331
O O12 0.934864 0.499936 0.663146
O O13 0.000000 0.448746 0.750000
O O14 0.056358 0.515648 0.535186
O O15 0.141180 0.022579 0.611666
#
# Coordination Sequence:
#
# PCOD8141631 Si02
#       7
#     8   8   8   8   8   8   8
#     4  11  24  41  60  88 124 160 205 244 286 357
#     4  11  24  41  60  88 124 160 205 244 286 357
#     4   9  17  36  64  90 113 147 199 245 295 360
#     4  10  21  37  60  92 124 154 194 246 306 366
#     4  10  22  41  65  89 117 158 201 247 298 352
#     4  10  22  41  65  89 117 158 201 247 298 352
#     4  11  22  38  62  92 124 159 190 248 314 343
#
# _framework density 19.313801000000002
#
# number of rings (size 3 to 8) (size 9 to 14) (size 15 to 20)
#    0.000    1.714    2.857    1.714    0.000    6.857 
#    0.000    4.286    0.000    0.000    0.000    0.000 
#    0.000    0.000    0.000    0.000    0.000    0.000 
#
# Total GULP energy -347258.954163 kJ/mol
# GULP energy per Si atom -12402.105506 kJ/mol
# Density = 1.926984 g / cm^3
# Si number density = 19.313801 Si / 1000 Ang^3
#
#
#
# Elastic Constant Matrix: (Units=GPa)
#
#
# Indices 1 2 3 4 5 6 
#
# 1 94.4283 21.7747 36.3550 0.0000 -3.2501 0.0000
# 2 21.7747 80.1997 14.9155 0.0000 6.4451 0.0000
# 3 36.3550 14.9155 82.1983 0.0000 11.4561 0.0000
# 4 0.0000 0.0000 0.0000 30.1104 0.0000 0.0481
# 5 -3.2501 6.4451 11.4561 0.0000 39.6643 0.0000
# 6 0.0000 0.0000 0.0000 0.0481 0.0000 27.2083
#
#
#
# Elastic Compliance Matrix: (Units=1/GPa)
#
#
# Indices 1 2 3 4 5 6 
#
# 1 0.013670 -0.002864 -0.005988 0.000000 0.003315 0.000000
# 2 -0.002864 0.013588 -0.000894 0.000000 -0.002184 0.000000
# 3 -0.005988 -0.000894 0.015655 0.000000 -0.004867 0.000000
# 4 0.000000 0.000000 0.000000 0.033211 0.000000 -0.000059
# 5 0.003315 -0.002184 -0.004867 0.000000 0.027244 0.000000
# 6 0.000000 0.000000 0.000000 -0.000059 0.000000 0.036754
#
#
# Mechanical properties :
#
#
# Convention : Reuss Voigt Hill
#
# Bulk Modulus (GPa) = 42.69990 44.76852 43.73421
# Shear Modulus (GPa) = 29.86450 31.64867 30.75659
#
# Velocity S-wave (km/s) = 3.93654 4.05242 3.99490
# Velocity P-wave (km/s) = 6.54357 6.71759 6.63115
#
# Compressibility (1/GPa) = 0.02341926
#
# Stress axis : x y z
#
# Youngs Moduli (GPa) = 73.15198 73.59204 63.87783
#
# Poissons Ratio (x) = 0.21078 0.38253
# Poissons Ratio (y) = 0.20952 0.05714
# Poissons Ratio (z) = 0.43806 0.06583
#
# Static dielectric constant tensor:
#      x y z
#    x 3.635920 0.000000 -0.115420 
#    y 0.000000 3.601250 0.000000 
#    z -0.115420 0.000000 3.491690 
# 
# 
# High freq. dielectric constant tensor:
#      x y z
#    x 1.756400 0.000000 -0.005690 
#    y 0.000000 1.756570 0.000000 
#    z -0.005690 0.000000 1.750970 
# 
# From -- ./inp_files/172284.got.cif
#   From: 2010.06.25/outbox.cif.g09.slc.cpg/sg15_87_cif.got.tgz:172284.got - 2010.06.28 07:06:18.
