data_PCOD8141408
_publ_section_title
;
Structure prediction by ZEFSAII (Michael W. Deem and Ramdas Pophale) SiO2 
 PCOD8141408
Probable space group: C 2/C
;
_chemical_formula_sum "Si O2"
_cell_formula_units_Z 56
_cell_length_a 13.072948
_cell_length_b 24.506459
_cell_length_c 10.069092
_cell_angle_alpha 90.000000
_cell_angle_beta 116.481874
_cell_angle_gamma 90.000000
_cell_volume 2887.380798
_symmetry_space_group_name_H-M "C 2/C"
_symmetry_group_IT_number 15
_symmetry_cell_setting 'monoclinic'
loop_
_space_group_symop_operation_xyz
x,y,z
-x,y,1/2-z
-x,-y,-z
x,-y,1/2+z
1/2+x,1/2+y,z
1/2-x,1/2+y,1/2-z
1/2-x,1/2-y,-z
1/2+x,1/2-y,1/2+z
loop_
_atom_site_type_symbol
_atom_site_label
_atom_site_fract_x
_atom_site_fract_y
_atom_site_fract_z
Si Si1 0.419599 0.379307 0.926367
Si Si2 0.937246 0.776657 0.476823
Si Si3 0.000000 0.301372 0.250000
Si Si4 0.772978 0.685855 0.028109
Si Si5 0.000000 0.281117 0.750000
Si Si6 0.629306 0.464473 0.800181
Si Si7 0.361936 0.444965 0.401433
Si Si8 0.274090 0.162287 0.730805
O O1 0.327500 0.352913 0.973140
O O2 0.355946 0.404574 0.760621
O O3 0.505301 0.331579 0.933400
O O4 0.500971 0.429341 0.029336
O O5 0.953230 0.733076 0.600163
O O6 0.803590 0.786740 0.365136
O O7 0.001200 0.757887 0.379689
O O8 0.105011 0.339442 0.271910
O O9 0.887207 0.680507 0.184686
O O10 0.750000 0.750000 0.000000
O O11 0.801723 0.664697 0.900686
O O12 0.500000 0.479313 0.750000
O O13 0.677747 0.510465 0.729372
O O14 0.682551 0.464559 0.978651
O O15 0.291533 0.392286 0.330043
#
# Coordination Sequence:
#
# PCOD8141408 Si02
#       8
#     8   8   4   8   4   8   8   8
#     4  10  21  36  62  92 131 159 202 252 312 370
#     4  11  22  36  59  88 126 167 201 252 307 365
#     4  12  24  40  58  87 127 168 208 254 296 378
#     4  12  22  39  59  92 124 173 213 250 296 378
#     4  12  22  40  56  87 125 164 220 246 282 370
#     4  10  21  40  61  98 126 156 198 259 321 380
#     4  10  24  39  65  96 127 157 201 260 324 373
#     4  11  24  39  61  86 126 168 209 252 317 361
#
# _framework density 19.394742000000001
#
# number of rings (size 3 to 8) (size 9 to 14) (size 15 to 20)
#    0.000    1.143    4.286    2.143    9.000    2.286 
#    0.000    0.000    0.000    1.714    0.000    0.000 
#    0.000    0.000    0.000    0.000    0.000    0.000 
#
# Total GULP energy -346963.595257 kJ/mol
# GULP energy per Si atom -12391.556973 kJ/mol
# Density = 1.935060 g / cm^3
# Si number density = 19.394742 Si / 1000 Ang^3
#
#
#
# Elastic Constant Matrix: (Units=GPa)
#
#
# Indices 1 2 3 4 5 6 
#
# 1 94.4387 22.4892 22.6512 0.0000 -1.7832 0.0000
# 2 22.4892 60.6093 39.6694 0.0000 -11.3385 0.0000
# 3 22.6512 39.6694 97.3150 0.0000 -15.5004 0.0000
# 4 0.0000 0.0000 0.0000 103.8202 0.0000 28.1238
# 5 -1.7832 -11.3385 -15.5004 0.0000 34.5201 0.0000
# 6 0.0000 0.0000 0.0000 28.1238 0.0000 42.1789
#
#
#
# Elastic Compliance Matrix: (Units=1/GPa)
#
#
# Indices 1 2 3 4 5 6 
#
# 1 0.011784 -0.003656 -0.001451 0.000000 -0.001243 0.000000
# 2 -0.003656 0.024042 -0.008317 0.000000 0.003974 0.000000
# 3 -0.001451 -0.008317 0.014601 0.000000 0.003750 0.000000
# 4 0.000000 0.000000 0.000000 0.011755 0.000000 -0.007838
# 5 -0.001243 0.003974 0.003750 0.000000 0.031893 0.000000
# 6 0.000000 0.000000 0.000000 -0.007838 0.000000 0.028935
#
#
# Mechanical properties :
#
#
# Convention : Reuss Voigt Hill
#
# Bulk Modulus (GPa) = 42.40677 46.88695 44.64686
# Shear Modulus (GPa) = 31.70233 47.27404 39.48818
#
# Velocity S-wave (km/s) = 4.04738 4.94243 4.51713
# Velocity P-wave (km/s) = 6.61470 7.53642 7.09056
#
# Compressibility (1/GPa) = 0.02358114
#
# Stress axis : x y z
#
# Youngs Moduli (GPa) = 84.86169 41.59337 68.48812
#
# Poissons Ratio (x) = 0.15204 0.09936
# Poissons Ratio (y) = 0.31021 0.56960
# Poissons Ratio (z) = 0.12311 0.34592
#
# Static dielectric constant tensor:
#      x y z
#    x 3.718240 0.000000 -0.102230 
#    y 0.000000 3.731330 0.000000 
#    z -0.102230 0.000000 3.399530 
# 
# 
# High freq. dielectric constant tensor:
#      x y z
#    x 1.734800 0.000000 -0.013350 
#    y 0.000000 1.741020 0.000000 
#    z -0.013350 0.000000 1.764820 
# 
# From -- ./inp_files/34390.got.cif
#   From: 2010.06.25/outbox.cif.g09.slc.cpg/sg15_18_cif.got.tgz:34390.got - 2010.06.28 07:06:18.
