data_PCOD8141275
_publ_section_title
;
Structure prediction by ZEFSAII (Michael W. Deem and Ramdas Pophale) SiO2 
 PCOD8141275
Probable space group: C 2/C
;
_chemical_formula_sum "Si O2"
_cell_formula_units_Z 48
_cell_length_a 13.819146
_cell_length_b 18.923615
_cell_length_c 14.386105
_cell_angle_alpha 90.000000
_cell_angle_beta 39.222713
_cell_angle_gamma 90.000000
_cell_volume 2378.903110
_symmetry_space_group_name_H-M "C 2/C"
_symmetry_group_IT_number 15
_symmetry_cell_setting 'monoclinic'
loop_
_space_group_symop_operation_xyz
x,y,z
-x,y,1/2-z
-x,-y,-z
x,-y,1/2+z
1/2+x,1/2+y,z
1/2-x,1/2+y,1/2-z
1/2-x,1/2-y,-z
1/2+x,1/2-y,1/2+z
loop_
_atom_site_type_symbol
_atom_site_label
_atom_site_fract_x
_atom_site_fract_y
_atom_site_fract_z
Si Si1 0.484301 0.932239 0.576937
Si Si2 0.606118 0.712311 0.254187
Si Si3 0.960026 0.019328 0.885374
Si Si4 0.140579 0.530894 0.581166
Si Si5 0.139399 0.910678 0.865629
Si Si6 0.570549 0.168405 0.527543
O O1 0.318929 0.923089 0.747716
O O2 0.519786 0.857704 0.498317
O O3 0.500000 0.000000 0.500000
O O4 0.607754 0.951827 0.564413
O O5 0.500000 0.681185 0.250000
O O6 0.594082 0.664847 0.355843
O O7 0.548684 0.791977 0.317940
O O8 0.784477 0.720313 0.094675
O O9 0.000000 0.044479 0.750000
O O10 0.943854 0.083715 0.971626
O O11 0.093667 0.969815 0.824004
O O12 0.804140 0.973658 0.008570
O O13 0.149000 0.595539 0.502717
O O14 0.000000 0.553676 0.750000
#
# Coordination Sequence:
#
# PCOD8141275 Si02
#       6
#     8   8   8   8   8   8
#     4   9  18  36  56  82 113 151 196 243 284 343
#     4  11  21  38  55  83 120 156 188 231 291 361
#     4  11  21  36  57  88 116 152 193 248 297 344
#     4  11  20  36  60  85 112 149 199 243 292 343
#     4  10  21  36  57  83 123 154 187 243 298 346
#     4  10  22  35  56  82 118 151 190 232 293 351
#
# _framework density 20.177368000000001
#
# number of rings (size 3 to 8) (size 9 to 14) (size 15 to 20)
#    0.000    1.667    1.667    5.500    0.000    1.333 
#    6.000    0.000    0.000    2.000    0.000    0.000 
#    0.000    0.000    0.000    0.000    0.000    0.000 
#
# Total GULP energy -297334.482411 kJ/mol
# GULP energy per Si atom -12388.936767 kJ/mol
# Density = 2.013144 g / cm^3
# Si number density = 20.177368 Si / 1000 Ang^3
#
#
#
# Elastic Constant Matrix: (Units=GPa)
#
#
# Indices 1 2 3 4 5 6 
#
# 1 62.6451 29.9387 22.5338 -0.0007 5.5360 0.0002
# 2 29.9387 68.2807 24.5133 -0.0002 -3.9903 0.0000
# 3 22.5338 24.5133 87.4213 -0.0012 7.1221 0.0002
# 4 -0.0007 -0.0002 -0.0012 25.9781 0.0009 4.3482
# 5 5.5360 -3.9903 7.1221 0.0009 35.0344 -0.0002
# 6 0.0002 0.0000 0.0002 4.3482 -0.0002 15.6934
#
#
#
# Elastic Compliance Matrix: (Units=1/GPa)
#
#
# Indices 1 2 3 4 5 6 
#
# 1 0.021419 -0.008609 -0.002798 0.000001 -0.003796 0.000000
# 2 -0.008609 0.020026 -0.003755 0.000000 0.004405 0.000000
# 3 -0.002798 -0.003755 0.013434 0.000001 -0.002717 0.000000
# 4 0.000001 0.000000 0.000001 0.040366 -0.000001 -0.011184
# 5 -0.003796 0.004405 -0.002717 -0.000001 0.030197 0.000001
# 6 0.000000 0.000000 0.000000 -0.011184 0.000001 0.066820
#
#
# Mechanical properties :
#
#
# Convention : Reuss Voigt Hill
#
# Bulk Modulus (GPa) = 40.72409 41.36875 41.04642
# Shear Modulus (GPa) = 21.66654 24.76528 23.21591
#
# Velocity S-wave (km/s) = 3.28045 3.50720 3.39572
# Velocity P-wave (km/s) = 5.88008 6.07846 5.98009
#
# Compressibility (1/GPa) = 0.02455549
#
# Stress axis : x y z
#
# Youngs Moduli (GPa) = 46.68734 49.93595 74.43651
#
# Poissons Ratio (x) = 0.42990 0.20825
# Poissons Ratio (y) = 0.40193 0.27951
# Poissons Ratio (z) = 0.13062 0.18751
#
# Static dielectric constant tensor:
#      x y z
#    x 4.054520 0.000000 0.118040 
#    y 0.000000 3.417250 0.000000 
#    z 0.118040 0.000000 3.692750 
# 
# 
# High freq. dielectric constant tensor:
#      x y z
#    x 1.784650 0.000000 -0.000630 
#    y 0.000000 1.750080 0.000000 
#    z -0.000630 0.000000 1.798530 
# 
# From -- ./inp_files/155085.got.cif
#   From: 2010.06.25/outbox.cif.g09.slc.cpg/sg15_78_cif.got.tgz:155085.got - 2010.06.28 07:06:18.
