data_PCOD8141114
_publ_section_title
;
Structure prediction by ZEFSAII (Michael W. Deem and Ramdas Pophale) SiO2 
 PCOD8141114
Probable space group: C 2/C
;
_chemical_formula_sum "Si O2"
_cell_formula_units_Z 56
_cell_length_a 11.574657
_cell_length_b 14.316636
_cell_length_c 28.467103
_cell_angle_alpha 90.000000
_cell_angle_beta 138.943741
_cell_angle_gamma 90.000000
_cell_volume 3098.313613
_symmetry_space_group_name_H-M "C 2/C"
_symmetry_group_IT_number 15
_symmetry_cell_setting 'monoclinic'
loop_
_space_group_symop_operation_xyz
x,y,z
-x,y,1/2-z
-x,-y,-z
x,-y,1/2+z
1/2+x,1/2+y,z
1/2-x,1/2+y,1/2-z
1/2-x,1/2-y,-z
1/2+x,1/2-y,1/2+z
loop_
_atom_site_type_symbol
_atom_site_label
_atom_site_fract_x
_atom_site_fract_y
_atom_site_fract_z
Si Si1 0.990408 0.515240 0.052412
Si Si2 0.788571 0.653689 0.844150
Si Si3 0.590808 0.658689 0.000803
Si Si4 0.062955 0.198120 0.447011
Si Si5 0.534069 0.808070 0.904770
Si Si6 0.473633 0.651179 0.818458
Si Si7 0.917484 0.010805 0.570872
O O1 0.076510 0.607556 0.103807
O O2 0.076701 0.428814 0.104562
O O3 0.786742 0.528851 0.999202
O O4 0.000000 0.500000 0.000000
O O5 0.652416 0.669436 0.844585
O O6 0.689914 0.631912 0.765493
O O7 0.907972 0.744791 0.874767
O O8 0.474417 0.683142 0.009818
O O9 0.800644 0.650074 0.074638
O O10 0.587582 0.744701 0.964581
O O11 0.504186 0.565035 0.950795
O O12 0.250000 0.250000 0.500000
O O13 0.050939 0.099193 0.417008
O O14 0.426104 0.742688 0.835125
O O15 0.504109 0.557619 0.858212
#
# Coordination Sequence:
#
# PCOD8141114 Si02
#       7
#     8   8   8   8   8   8   8
#     4  11  19  33  57  90 113 142 189 245 283 331
#     4  11  22  36  57  82 119 145 199 238 277 349
#     4   9  18  34  54  86 108 141 191 229 277 336
#     4  12  22  34  56  88 118 145 179 243 290 335
#     4   9  18  33  60  78 111 146 189 236 275 335
#     4  10  21  39  57  81 109 160 192 236 283 337
#     4  10  21  35  58  81 115 150 185 233 288 339
#
# _framework density 18.074349999999999
#
# number of rings (size 3 to 8) (size 9 to 14) (size 15 to 20)
#    0.000    1.714    4.286    2.143    0.000    1.143 
#    0.000    0.000    0.000    3.429    0.000    0.000 
#    0.000    0.000    0.000    0.000    0.000    0.000 
#
# Total GULP energy -346867.686593 kJ/mol
# GULP energy per Si atom -12388.131664 kJ/mol
# Density = 1.803321 g / cm^3
# Si number density = 18.074350 Si / 1000 Ang^3
#
#
#
# Elastic Constant Matrix: (Units=GPa)
#
#
# Indices 1 2 3 4 5 6 
#
# 1 84.5114 36.1733 39.7538 0.0000 -14.6449 0.0000
# 2 36.1733 147.2335 54.3154 0.0000 -14.7932 0.0000
# 3 39.7538 54.3154 108.6607 0.0000 -15.2686 0.0000
# 4 0.0000 0.0000 0.0000 25.8127 0.0000 -1.3266
# 5 -14.6449 -14.7932 -15.2686 0.0000 19.7634 0.0000
# 6 0.0000 0.0000 0.0000 -1.3266 0.0000 26.7438
#
#
#
# Elastic Compliance Matrix: (Units=1/GPa)
#
#
# Indices 1 2 3 4 5 6 
#
# 1 0.015637 -0.001684 -0.003845 0.000000 0.007356 0.000000
# 2 -0.001684 0.008716 -0.003364 0.000000 0.002677 0.000000
# 3 -0.003845 -0.003364 0.012942 0.000000 0.004631 0.000000
# 4 0.000000 0.000000 0.000000 0.038840 0.000000 0.001927
# 5 0.007356 0.002677 0.004631 0.000000 0.061631 0.000000
# 6 0.000000 0.000000 0.000000 0.001927 0.000000 0.037487
#
#
# Mechanical properties :
#
#
# Convention : Reuss Voigt Hill
#
# Bulk Modulus (GPa) = 51.26302 66.76560 59.01431
# Shear Modulus (GPa) = 25.05719 28.47485 26.76602
#
# Velocity S-wave (km/s) = 3.72740 3.97347 3.85240
# Velocity P-wave (km/s) = 6.85190 7.62043 7.24636
#
# Compressibility (1/GPa) = 0.01950724
#
# Stress axis : x y z
#
# Youngs Moduli (GPa) = 63.95025 114.73411 77.26598
#
# Poissons Ratio (x) = 0.19323 0.29712
# Poissons Ratio (y) = 0.10770 0.25996
# Poissons Ratio (z) = 0.24592 0.38601
#
# Static dielectric constant tensor:
#      x y z
#    x 3.333250 0.000000 -0.092110 
#    y 0.000000 3.632620 0.000000 
#    z -0.092110 0.000000 3.202560 
# 
# 
# High freq. dielectric constant tensor:
#      x y z
#    x 1.690830 0.000000 -0.015220 
#    y 0.000000 1.717100 0.000000 
#    z -0.015220 0.000000 1.676250 
# 
# From -- ./inp_files/292911.got.cif
#   From: 2010.06.25/outbox.cif.g09.slc.cpg/sg15_147_cif.got.tgz:292911.got - 2010.06.28 07:06:18.
