data_PCOD8141192
_publ_section_title
;
Structure prediction by ZEFSAII (Michael W. Deem and Ramdas Pophale) SiO2 
 PCOD8141192
Probable space group: C 2/C
;
_chemical_formula_sum "Si O2"
_cell_formula_units_Z 64
_cell_length_a 23.266783
_cell_length_b 22.010588
_cell_length_c 17.025903
_cell_angle_alpha 90.000000
_cell_angle_beta 160.604284
_cell_angle_gamma 90.000000
_cell_volume 2895.574410
_symmetry_space_group_name_H-M "C 2/C"
_symmetry_group_IT_number 15
_symmetry_cell_setting 'monoclinic'
loop_
_space_group_symop_operation_xyz
x,y,z
-x,y,1/2-z
-x,-y,-z
x,-y,1/2+z
1/2+x,1/2+y,z
1/2-x,1/2+y,1/2-z
1/2-x,1/2-y,-z
1/2+x,1/2-y,1/2+z
loop_
_atom_site_type_symbol
_atom_site_label
_atom_site_fract_x
_atom_site_fract_y
_atom_site_fract_z
Si Si1 0.072838 0.183477 0.584234
Si Si2 0.633492 0.098735 0.487823
Si Si3 0.153873 0.541665 0.767617
Si Si4 0.472852 0.603724 0.124421
Si Si5 0.335289 0.478081 0.735713
Si Si6 0.114529 0.413913 0.692877
Si Si7 0.552671 0.883550 0.400731
Si Si8 0.733078 0.808607 0.749321
O O1 0.189828 0.136454 0.783083
O O2 0.014932 0.158154 0.423526
O O3 0.186995 0.243612 0.724466
O O4 0.908781 0.196635 0.427143
O O5 0.537724 0.108787 0.446882
O O6 0.691045 0.030131 0.541671
O O7 0.500000 0.122007 0.250000
O O8 0.211539 0.471613 0.858602
O O9 0.962681 0.552335 0.483489
O O10 0.121109 0.575755 0.808058
O O11 0.281928 0.575975 0.874218
O O12 0.500000 0.625323 0.250000
O O13 0.595778 0.546682 0.259775
O O14 0.234719 0.420373 0.643018
O O15 0.500000 0.500000 0.000000
O O16 0.241394 0.358651 0.831280
O O17 0.500000 0.854579 0.250000
O O18 0.572586 0.827574 0.486479
#
# Coordination Sequence:
#
# PCOD8141192 Si02
#       8
#     8   8   8   8   8   8   8   8
#     4  12  26  50  67  99 133 186 242 290 348 405
#     4  12  25  44  72 104 140 180 228 289 350 420
#     4  10  21  35  64  95 139 174 213 272 344 412
#     4  12  26  40  66 104 146 181 226 287 343 417
#     4  12  22  42  67 102 145 182 223 280 349 418
#     4  10  21  41  64  99 129 178 224 275 346 411
#     4  11  22  40  66 104 137 178 227 279 344 423
#     4  11  26  45  74  92 133 186 237 291 347 414
#
# _framework density 22.102696000000002
#
# number of rings (size 3 to 8) (size 9 to 14) (size 15 to 20)
#    0.000    0.750    5.000    1.875    8.750    0.500 
#    0.000    4.375    0.000    0.000    0.000    0.000 
#    0.000    0.000    0.000    0.000    0.000    0.000 
#
# Total GULP energy -396476.451448 kJ/mol
# GULP energy per Si atom -12389.889108 kJ/mol
# Density = 2.205239 g / cm^3
# Si number density = 22.102696 Si / 1000 Ang^3
#
#
#
# Elastic Constant Matrix: (Units=GPa)
#
#
# Indices 1 2 3 4 5 6 
#
# 1 106.5340 24.3258 29.1764 0.0000 25.7356 0.0000
# 2 24.3258 83.7597 10.7531 0.0000 11.4257 0.0000
# 3 29.1764 10.7531 67.2676 -0.0001 5.6608 -0.0001
# 4 0.0000 0.0000 -0.0001 23.4669 0.0000 13.3893
# 5 25.7356 11.4257 5.6608 0.0000 47.5378 0.0000
# 6 0.0000 0.0000 -0.0001 13.3893 0.0000 34.0244
#
#
#
# Elastic Compliance Matrix: (Units=1/GPa)
#
#
# Indices 1 2 3 4 5 6 
#
# 1 0.012541 -0.002275 -0.004596 0.000000 -0.005695 0.000000
# 2 -0.002275 0.012962 -0.000936 0.000000 -0.001772 0.000000
# 3 -0.004596 -0.000936 0.016951 0.000000 0.000695 0.000000
# 4 0.000000 0.000000 0.000000 0.054951 0.000000 -0.021624
# 5 -0.005695 -0.001772 0.000695 0.000000 0.024462 0.000000
# 6 0.000000 0.000000 0.000000 -0.021624 0.000000 0.037900
#
#
# Mechanical properties :
#
#
# Convention : Reuss Voigt Hill
#
# Bulk Modulus (GPa) = 37.26078 42.89689 40.07884
# Shear Modulus (GPa) = 27.12556 33.89289 30.50923
#
# Velocity S-wave (km/s) = 3.50702 3.92015 3.71932
# Velocity P-wave (km/s) = 5.77005 6.31983 6.05119
#
# Compressibility (1/GPa) = 0.02683787
#
# Stress axis : x y z
#
# Youngs Moduli (GPa) = 79.73990 77.15106 58.99425
#
# Poissons Ratio (x) = 0.17553 0.27116
# Poissons Ratio (y) = 0.18142 0.05522
# Poissons Ratio (z) = 0.36652 0.07222
#
# Static dielectric constant tensor:
#      x y z
#    x 4.341650 0.000000 0.234740 
#    y 0.000000 3.892990 0.000000 
#    z 0.234740 0.000000 3.838860 
# 
# 
# High freq. dielectric constant tensor:
#      x y z
#    x 1.884760 0.000000 0.018280 
#    y 0.000000 1.851630 0.000000 
#    z 0.018280 0.000000 1.858060 
# 
# From -- ./inp_files/220288.got.cif
#   From: 2010.06.25/outbox.cif.g09.slc.cpg/sg15_111_cif.got.tgz:220288.got - 2010.06.28 07:06:18.
