data_PCOD8141843
_publ_section_title
;
Structure prediction by ZEFSAII (Michael W. Deem and Ramdas Pophale) SiO2 
 PCOD8141843
Probable space group: C 2/C
;
_chemical_formula_sum "Si O2"
_cell_formula_units_Z 56
_cell_length_a 6.243470
_cell_length_b 16.253309
_cell_length_c 28.364602
_cell_angle_alpha 90.000000
_cell_angle_beta 64.873255
_cell_angle_gamma 90.000000
_cell_volume 2605.979204
_symmetry_space_group_name_H-M "C 2/C"
_symmetry_group_IT_number 15
_symmetry_cell_setting 'monoclinic'
loop_
_space_group_symop_operation_xyz
x,y,z
-x,y,1/2-z
-x,-y,-z
x,-y,1/2+z
1/2+x,1/2+y,z
1/2-x,1/2+y,1/2-z
1/2-x,1/2-y,-z
1/2+x,1/2-y,1/2+z
loop_
_atom_site_type_symbol
_atom_site_label
_atom_site_fract_x
_atom_site_fract_y
_atom_site_fract_z
Si Si1 0.424726 0.807763 0.119985
Si Si2 0.850529 0.167279 0.343979
Si Si3 0.510285 0.056733 0.067036
Si Si4 0.216760 0.398272 0.453804
Si Si5 0.006623 0.725481 0.305880
Si Si6 0.292424 0.932867 0.805299
Si Si7 0.230686 0.943817 0.389441
O O1 0.557667 0.723639 0.121184
O O2 0.414999 0.827625 0.064836
O O3 0.544545 0.883749 0.135546
O O4 0.150850 0.801584 0.161715
O O5 0.640262 0.113153 0.384335
O O6 0.759619 0.225650 0.309106
O O7 0.059663 0.109407 0.303263
O O8 0.338617 0.989720 0.059555
O O9 0.723048 0.012612 0.075095
O O10 0.628981 0.113191 0.015472
O O11 0.500910 0.390195 0.424329
O O12 0.000000 0.729190 0.250000
O O13 0.897970 0.636511 0.330523
O O14 0.500000 0.959445 0.750000
O O15 0.205053 0.012923 0.841242
#
# Coordination Sequence:
#
# PCOD8141843 Si02
#       7
#     8   8   8   8   8   8   8
#     4  10  24  39  61  92 131 164 204 264 315 376
#     4  11  21  43  66  90 126 162 209 266 306 377
#     4  10  21  37  68  91 122 173 213 259 313 373
#     4  10  21  40  61  96 128 166 212 257 321 372
#     4  10  22  43  64  92 120 169 213 254 314 375
#     4  10  22  38  65  96 118 160 209 259 315 371
#     4  11  20  42  60  94 130 163 209 267 311 376
#
# _framework density 21.489045000000001
#
# number of rings (size 3 to 8) (size 9 to 14) (size 15 to 20)
#    0.000    1.714    2.857    1.286    0.000    5.714 
#    5.143    2.857    0.000    0.000    0.000    0.000 
#    0.000    0.000    0.000    0.000    0.000    0.000 
#
# Total GULP energy -346996.707448 kJ/mol
# GULP energy per Si atom -12392.739552 kJ/mol
# Density = 2.144013 g / cm^3
# Si number density = 21.489045 Si / 1000 Ang^3
#
#
#
# Elastic Constant Matrix: (Units=GPa)
#
#
# Indices 1 2 3 4 5 6 
#
# 1 124.5258 18.3968 47.9443 0.0000 -3.0916 0.0001
# 2 18.3968 34.9746 17.8991 0.0000 -0.2483 0.0000
# 3 47.9443 17.8991 104.1663 0.0000 -6.9151 0.0000
# 4 0.0000 0.0000 0.0000 26.2376 0.0000 -1.9497
# 5 -3.0916 -0.2483 -6.9151 0.0000 29.5518 0.0000
# 6 0.0001 0.0000 0.0000 -1.9497 0.0000 38.5953
#
#
#
# Elastic Compliance Matrix: (Units=1/GPa)
#
#
# Indices 1 2 3 4 5 6 
#
# 1 0.010078 -0.003212 -0.004082 0.000000 0.000072 0.000000
# 2 -0.003212 0.032402 -0.004158 0.000000 -0.001037 0.000000
# 3 -0.004082 -0.004158 0.012355 0.000000 0.002429 0.000000
# 4 0.000000 0.000000 0.000000 0.038257 0.000000 0.001933
# 5 0.000072 -0.001037 0.002429 0.000000 0.034406 0.000000
# 6 0.000000 0.000000 0.000000 0.001933 0.000000 0.026007
#
#
# Mechanical properties :
#
#
# Convention : Reuss Voigt Hill
#
# Bulk Modulus (GPa) = 31.31739 48.01635 39.66687
# Shear Modulus (GPa) = 26.73027 30.83870 28.78449
#
# Velocity S-wave (km/s) = 3.53073 3.79237 3.66388
# Velocity P-wave (km/s) = 5.58808 6.44741 6.03307
#
# Compressibility (1/GPa) = 0.03193114
#
# Stress axis : x y z
#
# Youngs Moduli (GPa) = 99.22206 30.86203 80.94101
#
# Poissons Ratio (x) = 0.09912 0.33041
# Poissons Ratio (y) = 0.31867 0.33658
# Poissons Ratio (z) = 0.40503 0.12833
#
# Static dielectric constant tensor:
#      x y z
#    x 4.115220 0.000000 -0.043280 
#    y 0.000000 3.729660 0.000000 
#    z -0.043280 0.000000 3.685480 
# 
# 
# High freq. dielectric constant tensor:
#      x y z
#    x 1.860120 0.000000 -0.000850 
#    y 0.000000 1.823500 0.000000 
#    z -0.000850 0.000000 1.826140 
# 
# From -- ./inp_files/305755.got.cif
#   From: 2010.06.25/outbox.cif.g09.slc.cpg/sg15_153_cif.got.tgz:305755.got - 2010.06.28 07:06:18.
