data_PCOD8141460
_publ_section_title
;
Structure prediction by ZEFSAII (Michael W. Deem and Ramdas Pophale) SiO2 
 PCOD8141460
Probable space group: C 2/C
;
_chemical_formula_sum "Si O2"
_cell_formula_units_Z 48
_cell_length_a 11.677511
_cell_length_b 26.450351
_cell_length_c 10.946124
_cell_angle_alpha 90.000000
_cell_angle_beta 134.094634
_cell_angle_gamma 90.000000
_cell_volume 2428.188125
_symmetry_space_group_name_H-M "C 2/C"
_symmetry_group_IT_number 15
_symmetry_cell_setting 'monoclinic'
loop_
_space_group_symop_operation_xyz
x,y,z
-x,y,1/2-z
-x,-y,-z
x,-y,1/2+z
1/2+x,1/2+y,z
1/2-x,1/2+y,1/2-z
1/2-x,1/2-y,-z
1/2+x,1/2-y,1/2+z
loop_
_atom_site_type_symbol
_atom_site_label
_atom_site_fract_x
_atom_site_fract_y
_atom_site_fract_z
Si Si1 0.077330 0.292783 0.994593
Si Si2 0.174891 0.916193 0.529183
Si Si3 0.853343 0.537181 0.370476
Si Si4 0.254295 0.305977 0.882078
Si Si5 0.545961 0.884389 0.145753
Si Si6 0.821685 0.943740 0.238119
O O1 0.212160 0.305300 0.994555
O O2 0.901476 0.295804 0.811889
O O3 0.112748 0.234899 0.060061
O O4 0.090185 0.330960 0.117346
O O5 0.312156 0.948926 0.698844
O O6 0.172976 0.860912 0.588685
O O7 0.213747 0.913998 0.414237
O O8 0.999836 0.938816 0.419969
O O9 0.703658 0.503880 0.306732
O O10 0.000000 0.500000 0.500000
O O11 0.890183 0.589138 0.469022
O O12 0.500000 0.873569 0.250000
O O13 0.698886 0.921538 0.247414
#
# Coordination Sequence:
#
# PCOD8141460 Si02
#       6
#     8   8   8   8   8   8
#     4  10  21  38  61  96 119 157 205 263 315 368
#     4  11  21  41  65  94 125 159 210 269 316 361
#     4  10  23  38  62  90 125 172 210 254 306 371
#     4  10  21  36  68  91 123 150 206 268 319 360
#     4  11  23  41  61  89 128 169 210 246 310 382
#     4  10  24  37  64  93 128 162 209 261 313 368
#
# _framework density 19.767825999999999
#
# number of rings (size 3 to 8) (size 9 to 14) (size 15 to 20)
#    0.000    1.667    3.333    0.500    7.000    3.333 
#    0.000    0.833    0.000    0.000    0.000    0.000 
#    0.000    0.000    0.000    0.000    0.000    0.000 
#
# Total GULP energy -297440.296593 kJ/mol
# GULP energy per Si atom -12393.345691 kJ/mol
# Density = 1.972283 g / cm^3
# Si number density = 19.767826 Si / 1000 Ang^3
#
#
#
# Elastic Constant Matrix: (Units=GPa)
#
#
# Indices 1 2 3 4 5 6 
#
# 1 85.3245 36.3212 39.5921 0.0000 -2.2468 0.0000
# 2 36.3212 130.9686 49.5271 0.0000 9.7293 0.0000
# 3 39.5921 49.5271 115.1985 0.0000 1.7944 0.0000
# 4 0.0000 0.0000 0.0000 34.8092 0.0000 3.6345
# 5 -2.2468 9.7293 1.7944 0.0000 27.8802 0.0000
# 6 0.0000 0.0000 0.0000 3.6345 0.0000 32.5237
#
#
#
# Elastic Compliance Matrix: (Units=1/GPa)
#
#
# Indices 1 2 3 4 5 6 
#
# 1 0.014794 -0.002801 -0.003918 0.000000 0.002422 0.000000
# 2 -0.002801 0.009894 -0.003237 0.000000 -0.003470 0.000000
# 3 -0.003918 -0.003237 0.011418 0.000000 0.000079 0.000000
# 4 0.000000 0.000000 0.000000 0.029067 0.000000 -0.003248
# 5 0.002422 -0.003470 0.000079 0.000000 0.037269 0.000000
# 6 0.000000 0.000000 0.000000 -0.003248 0.000000 0.031110
#
#
# Mechanical properties :
#
#
# Convention : Reuss Voigt Hill
#
# Bulk Modulus (GPa) = 61.75228 64.70804 63.23016
# Shear Modulus (GPa) = 31.47386 32.77935 32.12661
#
# Velocity S-wave (km/s) = 3.99454 4.07654 4.03575
# Velocity P-wave (km/s) = 7.25132 7.41368 7.33295
#
# Compressibility (1/GPa) = 0.01619373
#
# Stress axis : x y z
#
# Youngs Moduli (GPa) = 67.59436 101.06993 87.58341
#
# Poissons Ratio (x) = 0.28311 0.34315
# Poissons Ratio (y) = 0.18934 0.28351
# Poissons Ratio (z) = 0.26483 0.32717
#
# Static dielectric constant tensor:
#      x y z
#    x 3.315950 0.000000 0.177730 
#    y 0.000000 3.996240 0.000000 
#    z 0.177730 0.000000 3.661170 
# 
# 
# High freq. dielectric constant tensor:
#      x y z
#    x 1.729460 0.000000 0.016240 
#    y 0.000000 1.784190 0.000000 
#    z 0.016240 0.000000 1.775560 
# 
# From -- ./inp_files/90964.got.cif
#   From: 2010.06.25/outbox.cif.g09.slc.cpg/sg15_46_cif.got.tgz:90964.got - 2010.06.28 07:06:18.
