data_PCOD8141815
_publ_section_title
;
Structure prediction by ZEFSAII (Michael W. Deem and Ramdas Pophale) SiO2 
 PCOD8141815
Probable space group: C 2/C
;
_chemical_formula_sum "Si O2"
_cell_formula_units_Z 44
_cell_length_a 24.070863
_cell_length_b 8.815778
_cell_length_c 11.971520
_cell_angle_alpha 90.000000
_cell_angle_beta 132.287049
_cell_angle_gamma 90.000000
_cell_volume 1879.343073
_symmetry_space_group_name_H-M "C 2/C"
_symmetry_group_IT_number 15
_symmetry_cell_setting 'monoclinic'
loop_
_space_group_symop_operation_xyz
x,y,z
-x,y,1/2-z
-x,-y,-z
x,-y,1/2+z
1/2+x,1/2+y,z
1/2-x,1/2+y,1/2-z
1/2-x,1/2-y,-z
1/2+x,1/2-y,1/2+z
loop_
_atom_site_type_symbol
_atom_site_label
_atom_site_fract_x
_atom_site_fract_y
_atom_site_fract_z
Si Si1 0.912217 0.670776 0.744332
Si Si2 0.372715 0.398585 0.520238
Si Si3 0.765977 0.487715 0.536551
Si Si4 0.237881 0.221973 0.807514
Si Si5 0.098283 0.207268 0.032201
Si Si6 0.500000 0.918966 0.750000
O O1 0.927428 0.784374 0.660828
O O2 0.824250 0.625105 0.626511
O O3 0.934737 0.752280 0.890747
O O4 0.962218 0.521155 0.795058
O O5 0.316304 0.464571 0.536050
O O6 0.328802 0.303725 0.368294
O O7 0.420884 0.533345 0.527526
O O8 0.793837 0.346745 0.649643
O O9 0.758552 0.434831 0.398243
O O10 0.311674 0.277902 0.842471
O O11 0.063989 0.317099 0.892463
#
# Coordination Sequence:
#
# PCOD8141815 Si02
#       6
#     8   8   8   8   8   4
#     4  12  25  45  71 102 134 184 233 276 335 411
#     4  11  24  40  73 102 138 168 221 286 359 399
#     4  10  21  37  66 103 139 165 219 278 350 401
#     4  10  21  38  67 105 135 172 210 285 353 401
#     4  11  25  46  66  99 141 177 225 284 332 409
#     4  12  28  48  70  94 136 190 240 274 330 398
#
# _framework density 23.412434999999999
#
# number of rings (size 3 to 8) (size 9 to 14) (size 15 to 20)
#    0.000    1.091    3.636    2.182    7.636    0.727 
#    0.000    1.818    0.000    0.000    0.000    0.000 
#    0.000    0.000    0.000    0.000    0.000    0.000 
#
# Total GULP energy -272927.390178 kJ/mol
# GULP energy per Si atom -12405.790463 kJ/mol
# Density = 2.335915 g / cm^3
# Si number density = 23.412435 Si / 1000 Ang^3
#
#
#
# Elastic Constant Matrix: (Units=GPa)
#
#
# Indices 1 2 3 4 5 6 
#
# 1 41.4072 16.1871 32.9148 0.0000 -5.4664 0.0000
# 2 16.1871 120.9038 54.1428 0.0000 -5.7830 0.0000
# 3 32.9148 54.1428 87.8932 0.0000 -25.4438 0.0000
# 4 0.0000 0.0000 0.0000 30.0715 0.0000 -10.2368
# 5 -5.4664 -5.7830 -25.4438 0.0000 32.1013 0.0000
# 6 0.0000 0.0000 0.0000 -10.2368 0.0000 37.6462
#
#
#
# Elastic Compliance Matrix: (Units=1/GPa)
#
#
# Indices 1 2 3 4 5 6 
#
# 1 0.035684 0.002439 -0.016844 0.000000 -0.006835 0.000000
# 2 0.002439 0.012129 -0.009904 0.000000 -0.005250 0.000000
# 3 -0.016844 -0.009904 0.029122 0.000000 0.018429 0.000000
# 4 0.000000 0.000000 0.000000 0.036646 0.000000 0.009965
# 5 -0.006835 -0.005250 0.018429 0.000000 0.043649 0.000000
# 6 0.000000 0.000000 0.000000 0.009965 0.000000 0.029273
#
#
# Mechanical properties :
#
#
# Convention : Reuss Voigt Hill
#
# Bulk Modulus (GPa) = 35.31731 50.74372 43.03051
# Shear Modulus (GPa) = 20.44483 29.76111 25.10297
#
# Velocity S-wave (km/s) = 2.95828 3.56921 3.27801
# Velocity P-wave (km/s) = 5.17554 6.22146 5.72244
#
# Compressibility (1/GPa) = 0.02831473
#
# Stress axis : x y z
#
# Youngs Moduli (GPa) = 28.02363 82.44820 34.33882
#
# Poissons Ratio (x) = -0.20106 0.57840
# Poissons Ratio (y) = -0.06834 0.34011
# Poissons Ratio (z) = 0.47203 0.81661
#
# Static dielectric constant tensor:
#      x y z
#    x 3.963980 0.000000 -0.233220 
#    y 0.000000 4.501350 0.000000 
#    z -0.233220 0.000000 3.992010 
# 
# 
# High freq. dielectric constant tensor:
#      x y z
#    x 1.911570 0.000000 -0.015550 
#    y 0.000000 1.939950 0.000000 
#    z -0.015550 0.000000 1.919290 
# 
# From -- ./inp_files/109949.got.cif
#   From: 2010.06.25/outbox.cif.g09.slc.cpg/sg15_55_cif.got.tgz:109949.got - 2010.06.28 07:06:18.
