data_PCOD8141646
_publ_section_title
;
Structure prediction by ZEFSAII (Michael W. Deem and Ramdas Pophale) SiO2 
 PCOD8141646
Probable space group: C 2/C
;
_chemical_formula_sum "Si O2"
_cell_formula_units_Z 44
_cell_length_a 12.103573
_cell_length_b 14.094114
_cell_length_c 13.207006
_cell_angle_alpha 90.000000
_cell_angle_beta 95.560753
_cell_angle_gamma 90.000000
_cell_volume 2242.369302
_symmetry_space_group_name_H-M "C 2/C"
_symmetry_group_IT_number 15
_symmetry_cell_setting 'monoclinic'
loop_
_space_group_symop_operation_xyz
x,y,z
-x,y,1/2-z
-x,-y,-z
x,-y,1/2+z
1/2+x,1/2+y,z
1/2-x,1/2+y,1/2-z
1/2-x,1/2-y,-z
1/2+x,1/2-y,1/2+z
loop_
_atom_site_type_symbol
_atom_site_label
_atom_site_fract_x
_atom_site_fract_y
_atom_site_fract_z
Si Si1 0.101446 0.239141 0.901940
Si Si2 0.243163 0.406699 0.997649
Si Si3 0.000000 0.484346 0.250000
Si Si4 0.361443 0.065369 0.402283
Si Si5 0.347206 0.743774 0.823695
Si Si6 0.690291 0.916747 0.385895
O O1 0.145081 0.333705 0.960590
O O2 0.154635 0.226722 0.795746
O O3 0.969441 0.240692 0.884063
O O4 0.142024 0.148133 0.970957
O O5 0.256865 0.482927 0.906605
O O6 0.209193 0.467422 0.095940
O O7 0.974014 0.549206 0.346515
O O8 0.892508 0.421080 0.216764
O O9 0.296104 0.151364 0.340623
O O10 0.385197 0.100737 0.519780
O O11 0.276009 0.666695 0.876172
#
# Coordination Sequence:
#
# PCOD8141646 Si02
#       6
#     8   8   4   8   8   8
#     4  10  21  37  61  85 116 160 198 239 288 363
#     4   9  21  39  57  89 116 151 205 241 292 344
#     4  12  20  38  64  84 120 154 206 242 298 344
#     4  10  22  37  59  88 115 154 193 248 290 351
#     4  11  21  37  59  86 120 157 195 238 302 346
#     4  10  23  36  60  89 118 154 193 252 289 350
#
# _framework density 19.622101000000001
#
# number of rings (size 3 to 8) (size 9 to 14) (size 15 to 20)
#    1.091    0.727    0.000    5.455    2.545    0.727 
#    0.000    0.000    0.000    2.182    0.000    0.000 
#    0.000    0.000    0.000    0.000    0.000    0.000 
#
# Total GULP energy -272549.898647 kJ/mol
# GULP energy per Si atom -12388.631757 kJ/mol
# Density = 1.957744 g / cm^3
# Si number density = 19.622101 Si / 1000 Ang^3
#
#
#
# Elastic Constant Matrix: (Units=GPa)
#
#
# Indices 1 2 3 4 5 6 
#
# 1 76.6261 59.2764 45.4154 0.0000 -0.8032 0.0000
# 2 59.2764 142.6189 35.1394 0.0000 2.4254 0.0000
# 3 45.4154 35.1394 80.7221 0.0000 -2.3079 0.0000
# 4 0.0000 0.0000 0.0000 14.5852 0.0000 -7.4283
# 5 -0.8032 2.4254 -2.3079 0.0000 35.2754 0.0000
# 6 0.0000 0.0000 0.0000 -7.4283 0.0000 26.4791
#
#
#
# Elastic Compliance Matrix: (Units=1/GPa)
#
#
# Indices 1 2 3 4 5 6 
#
# 1 0.025768 -0.008007 -0.011000 0.000000 0.000418 0.000000
# 2 -0.008007 0.010363 -0.000032 0.000000 -0.000897 0.000000
# 3 -0.011000 -0.000032 0.018619 0.000000 0.000970 0.000000
# 4 0.000000 0.000000 0.000000 0.079991 0.000000 0.022440
# 5 0.000418 -0.000897 0.000970 0.000000 0.028483 0.000000
# 6 0.000000 0.000000 0.000000 0.022440 0.000000 0.044061
#
#
# Mechanical properties :
#
#
# Convention : Reuss Voigt Hill
#
# Bulk Modulus (GPa) = 59.98153 64.40328 62.19241
# Shear Modulus (GPa) = 19.92665 25.94367 22.93516
#
# Velocity S-wave (km/s) = 3.19018 3.64010 3.42254
# Velocity P-wave (km/s) = 6.64864 7.11057 6.88348
#
# Compressibility (1/GPa) = 0.01667180
#
# Stress axis : x y z
#
# Youngs Moduli (GPa) = 38.80715 96.50015 53.70948
#
# Poissons Ratio (x) = 0.77266 0.59082
# Poissons Ratio (y) = 0.31072 0.00171
# Poissons Ratio (z) = 0.42689 0.00308
#
# Static dielectric constant tensor:
#      x y z
#    x 3.116790 0.000000 -0.024650 
#    y 0.000000 3.720960 0.000000 
#    z -0.024650 0.000000 3.649480 
# 
# 
# High freq. dielectric constant tensor:
#      x y z
#    x 1.724160 0.000000 -0.002010 
#    y 0.000000 1.774290 0.000000 
#    z -0.002010 0.000000 1.771640 
# 
# From -- ./inp_files/143050.got.cif
#   From: 2010.06.25/outbox.cif.g09.slc.cpg/sg15_72_cif.got.tgz:143050.got - 2010.06.28 07:06:18.
