data_PCOD8141892
_publ_section_title
;
Structure prediction by ZEFSAII (Michael W. Deem and Ramdas Pophale) SiO2 
 PCOD8141892
Probable space group: C 2/C
;
_chemical_formula_sum "Si O2"
_cell_formula_units_Z 28
_cell_length_a 17.422585
_cell_length_b 15.066856
_cell_length_c 5.189672
_cell_angle_alpha 90.000000
_cell_angle_beta 62.612182
_cell_angle_gamma 90.000000
_cell_volume 1209.610805
_symmetry_space_group_name_H-M "C 2/C"
_symmetry_group_IT_number 15
_symmetry_cell_setting 'monoclinic'
loop_
_space_group_symop_operation_xyz
x,y,z
-x,y,1/2-z
-x,-y,-z
x,-y,1/2+z
1/2+x,1/2+y,z
1/2-x,1/2+y,1/2-z
1/2-x,1/2-y,-z
1/2+x,1/2-y,1/2+z
loop_
_atom_site_type_symbol
_atom_site_label
_atom_site_fract_x
_atom_site_fract_y
_atom_site_fract_z
Si Si1 0.462447 0.097849 0.555700
Si Si2 0.222301 0.358707 0.276751
Si Si3 0.500000 0.438585 0.250000
Si Si4 0.821035 0.153177 0.122227
O O1 0.500000 0.148909 0.750000
O O2 0.359837 0.086550 0.695860
O O3 0.500000 0.000000 0.500000
O O4 0.500000 0.150378 0.250000
O O5 0.189238 0.258463 0.354700
O O6 0.258307 0.389214 0.499347
O O7 0.295526 0.378744 0.948600
O O8 0.500000 0.500000 0.500000
O O9 0.417549 0.374229 0.398715
#
# Coordination Sequence:
#
# PCOD8141892 Si02
#       4
#     8   8   4   8
#     4  10  21  38  57  96 133 160 201 251 329 404
#     4  10  21  43  68  98 126 165 217 268 333 384
#     4  12  26  48  64  98 134 178 232 268 328 384
#     4  10  23  43  68  93 126 171 221 273 316 385
#
# _framework density 23.147943000000001
#
# number of rings (size 3 to 8) (size 9 to 14) (size 15 to 20)
#    0.000    1.714    0.000    3.429    2.000    0.000 
#   33.429    0.000    0.000    0.000    0.000    0.000 
#    0.000    0.000    0.000    0.000    0.000    0.000 
#
# Total GULP energy -173494.479246 kJ/mol
# GULP energy per Si atom -12392.462803 kJ/mol
# Density = 2.309526 g / cm^3
# Si number density = 23.147943 Si / 1000 Ang^3
#
#
#
# Elastic Constant Matrix: (Units=GPa)
#
#
# Indices 1 2 3 4 5 6 
#
# 1 180.9447 34.0021 83.8465 0.0000 2.1115 0.0000
# 2 34.0021 31.5270 34.0156 0.0000 -6.6791 0.0000
# 3 83.8465 34.0156 192.0799 0.0000 12.9383 0.0000
# 4 0.0000 0.0000 0.0000 25.6208 0.0000 -9.8549
# 5 2.1115 -6.6791 12.9383 0.0000 65.4790 0.0000
# 6 0.0000 0.0000 0.0000 -9.8549 0.0000 30.3887
#
#
#
# Elastic Compliance Matrix: (Units=1/GPa)
#
#
# Indices 1 2 3 4 5 6 
#
# 1 0.007705 -0.005928 -0.002286 0.000000 -0.000401 0.000000
# 2 -0.005928 0.045785 -0.005927 0.000000 0.006032 0.000000
# 3 -0.002286 -0.005927 0.007388 0.000000 -0.001991 0.000000
# 4 0.000000 0.000000 0.000000 0.044593 0.000000 0.014461
# 5 -0.000401 0.006032 -0.001991 0.000000 0.016294 0.000000
# 6 0.000000 0.000000 0.000000 0.014461 0.000000 0.037597
#
#
# Mechanical properties :
#
#
# Convention : Reuss Voigt Hill
#
# Bulk Modulus (GPa) = 30.67927 78.69778 54.68853
# Shear Modulus (GPa) = 25.18797 41.14355 33.16576
#
# Velocity S-wave (km/s) = 3.30226 4.22052 3.78931
# Velocity P-wave (km/s) = 5.27468 7.60407 6.54386
#
# Compressibility (1/GPa) = 0.03259530
#
# Stress axis : x y z
#
# Youngs Moduli (GPa) = 129.79240 21.84144 135.35592
#
# Poissons Ratio (x) = 0.12947 0.30949
# Poissons Ratio (y) = 0.76935 0.80224
# Poissons Ratio (z) = 0.29677 0.12945
#
# Static dielectric constant tensor:
#      x y z
#    x 3.971800 0.000000 -0.339560 
#    y 0.000000 3.761840 0.000000 
#    z -0.339560 0.000000 3.797150 
# 
# 
# High freq. dielectric constant tensor:
#      x y z
#    x 1.930330 0.000000 0.011520 
#    y 0.000000 1.880720 0.000000 
#    z 0.011520 0.000000 1.940530 
# 
# From -- ./inp_files/3567.got.cif
#   From: 2010.06.25/outbox.cif.g09.slc.cpg/sg15_2_cif.got.tgz:3567.got - 2010.06.28 07:06:18.
