data_PCOD8141049
_publ_section_title
;
Structure prediction by ZEFSAII (Michael W. Deem and Ramdas Pophale) SiO2 
 PCOD8141049
Probable space group: C 2/C
;
_chemical_formula_sum "Si O2"
_cell_formula_units_Z 40
_cell_length_a 17.785287
_cell_length_b 15.356023
_cell_length_c 9.540483
_cell_angle_alpha 90.000000
_cell_angle_beta 52.259768
_cell_angle_gamma 90.000000
_cell_volume 2060.503344
_symmetry_space_group_name_H-M "C 2/C"
_symmetry_group_IT_number 15
_symmetry_cell_setting 'monoclinic'
loop_
_space_group_symop_operation_xyz
x,y,z
-x,y,1/2-z
-x,-y,-z
x,-y,1/2+z
1/2+x,1/2+y,z
1/2-x,1/2+y,1/2-z
1/2-x,1/2-y,-z
1/2+x,1/2-y,1/2+z
loop_
_atom_site_type_symbol
_atom_site_label
_atom_site_fract_x
_atom_site_fract_y
_atom_site_fract_z
Si Si1 0.337414 0.827870 0.280261
Si Si2 0.639267 0.264253 0.474641
Si Si3 0.823954 0.057272 0.468807
Si Si4 0.087547 0.063549 0.425381
Si Si5 0.512820 0.755320 0.571980
O O1 0.391624 0.795338 0.358476
O O2 0.254496 0.758276 0.329685
O O3 0.287336 0.921579 0.367115
O O4 0.414892 0.829652 0.067633
O O5 0.610481 0.364722 0.541858
O O6 0.588459 0.233552 0.390197
O O7 0.838410 0.054266 0.286193
O O8 0.855822 0.966393 0.500010
O O9 0.055534 0.161469 0.488003
O O10 0.000000 0.000000 0.500000
O O11 0.500000 0.770762 0.750000
#
# Coordination Sequence:
#
# PCOD8141049 Si02
#       5
#     8   8   8   8   8
#     4   9  19  38  56  75 114 160 195 221 271 352
#     4   9  18  36  55  76 114 148 194 221 268 353
#     4  10  21  35  52  80 117 152 184 217 283 349
#     4  12  20  31  52  84 121 145 171 228 293 350
#     4  12  22  32  55  91 115 147 184 240 292 329
#
# _framework density 19.412731000000001
#
# number of rings (size 3 to 8) (size 9 to 14) (size 15 to 20)
#    1.200    0.400    4.000    2.400    0.000    0.800 
#    0.000    2.000    0.000    0.000    0.000   19.600 
#    0.000    0.000    0.000    0.000    0.000    0.000 
#
# Total GULP energy -247836.187326 kJ/mol
# GULP energy per Si atom -12391.809366 kJ/mol
# Density = 1.936855 g / cm^3
# Si number density = 19.412731 Si / 1000 Ang^3
#
#
#
# Elastic Constant Matrix: (Units=GPa)
#
#
# Indices 1 2 3 4 5 6 
#
# 1 111.0025 15.4713 49.6975 0.0000 20.5625 0.0000
# 2 15.4713 29.6663 4.2794 0.0000 -3.0362 0.0000
# 3 49.6975 4.2794 118.3234 0.0000 19.3778 0.0000
# 4 0.0000 0.0000 0.0000 25.0055 0.0000 2.6279
# 5 20.5625 -3.0362 19.3778 0.0000 30.1428 0.0000
# 6 0.0000 0.0000 0.0000 2.6279 0.0000 20.7200
#
#
#
# Elastic Compliance Matrix: (Units=1/GPa)
#
#
# Indices 1 2 3 4 5 6 
#
# 1 0.013118 -0.006966 -0.004110 0.000000 -0.007008 0.000000
# 2 -0.006966 0.038189 0.000152 0.000000 0.008500 0.000000
# 3 -0.004110 0.000152 0.010853 0.000000 -0.004158 0.000000
# 4 0.000000 0.000000 0.000000 0.040531 0.000000 -0.005141
# 5 -0.007008 0.008500 -0.004158 0.000000 0.041485 0.000000
# 6 0.000000 0.000000 0.000000 -0.005141 0.000000 0.048914
#
#
# Mechanical properties :
#
#
# Convention : Reuss Voigt Hill
#
# Bulk Modulus (GPa) = 24.80566 44.20986 34.50776
# Shear Modulus (GPa) = 21.89375 27.80993 24.85184
#
# Velocity S-wave (km/s) = 3.36192 3.78903 3.58185
# Velocity P-wave (km/s) = 5.27975 6.47807 5.90936
#
# Compressibility (1/GPa) = 0.04031338
#
# Stress axis : x y z
#
# Youngs Moduli (GPa) = 76.23110 26.18566 92.13899
#
# Poissons Ratio (x) = 0.18240 0.37870
# Poissons Ratio (y) = 0.53099 -0.01404
# Poissons Ratio (z) = 0.31332 -0.00399
#
# Static dielectric constant tensor:
#      x y z
#    x 3.422340 0.000000 0.053460 
#    y 0.000000 3.217360 0.000000 
#    z 0.053460 0.000000 3.452450 
# 
# 
# High freq. dielectric constant tensor:
#      x y z
#    x 1.748880 0.000000 0.005950 
#    y 0.000000 1.710630 0.000000 
#    z 0.005950 0.000000 1.750270 
# 
# From -- ./inp_files/47643.got.cif
#   From: 2010.06.25/outbox.cif.g09.slc.cpg/sg15_24_cif.got.tgz:47643.got - 2010.06.28 07:06:18.
