data_PCOD8141418
_publ_section_title
;
Structure prediction by ZEFSAII (Michael W. Deem and Ramdas Pophale) SiO2 
 PCOD8141418
Probable space group: C 2/C
;
_chemical_formula_sum "Si O2"
_cell_formula_units_Z 44
_cell_length_a 12.838005
_cell_length_b 24.212263
_cell_length_c 7.644087
_cell_angle_alpha 90.000000
_cell_angle_beta 56.132345
_cell_angle_gamma 90.000000
_cell_volume 1972.911991
_symmetry_space_group_name_H-M "C 2/C"
_symmetry_group_IT_number 15
_symmetry_cell_setting 'monoclinic'
loop_
_space_group_symop_operation_xyz
x,y,z
-x,y,1/2-z
-x,-y,-z
x,-y,1/2+z
1/2+x,1/2+y,z
1/2-x,1/2+y,1/2-z
1/2-x,1/2-y,-z
1/2+x,1/2-y,1/2+z
loop_
_atom_site_type_symbol
_atom_site_label
_atom_site_fract_x
_atom_site_fract_y
_atom_site_fract_z
Si Si1 0.410956 0.151228 0.167535
Si Si2 0.500000 0.917941 0.250000
Si Si3 0.878557 0.242422 0.486608
Si Si4 0.762515 0.037660 0.534189
Si Si5 0.819955 0.920548 0.599160
Si Si6 0.938778 0.877297 0.996903
O O1 0.500000 0.150379 0.250000
O O2 0.283114 0.124191 0.357442
O O3 0.466491 0.119629 0.947405
O O4 0.382376 0.213599 0.138535
O O5 0.386940 0.958314 0.298616
O O6 0.750000 0.250000 0.500000
O O7 0.877859 0.182846 0.582719
O O8 0.000000 0.249466 0.250000
O O9 0.799056 0.061490 0.315444
O O10 0.831365 0.075819 0.614766
O O11 0.808668 0.974782 0.491024
O O12 0.956411 0.891787 0.454983
O O13 0.000000 0.877988 0.750000
#
# Coordination Sequence:
#
# PCOD8141418 Si02
#       6
#     8   4   8   8   8   8
#     4  11  24  40  65  98 132 166 216 271 326 387
#     4  10  22  40  62  94 124 174 212 262 324 396
#     4  11  21  41  72  94 130 179 222 271 336 398
#     4  10  21  36  63  86 125 165 214 260 327 381
#     4  10  22  39  59  91 126 166 214 265 321 391
#     4   9  19  38  61  90 122 169 216 260 322 391
#
# _framework density 22.302059
#
# number of rings (size 3 to 8) (size 9 to 14) (size 15 to 20)
#    0.000    1.818    0.909    4.909    3.818    1.455 
#    0.000    5.455    0.000    0.000    0.000    0.000 
#    0.000    0.000    0.000    0.000    0.000    0.000 
#
# Total GULP energy -272764.382849 kJ/mol
# GULP energy per Si atom -12398.381039 kJ/mol
# Density = 2.225130 g / cm^3
# Si number density = 22.302059 Si / 1000 Ang^3
#
#
#
# Elastic Constant Matrix: (Units=GPa)
#
#
# Indices 1 2 3 4 5 6 
#
# 1 199.3415 84.8570 46.9769 0.0000 -35.5417 0.0000
# 2 84.8570 168.6235 27.4955 0.0000 -16.9599 0.0000
# 3 46.9769 27.4955 29.4887 0.0000 -12.1571 0.0000
# 4 0.0000 0.0000 0.0000 17.8649 0.0000 -12.0152
# 5 -35.5417 -16.9599 -12.1571 0.0000 31.4354 0.0000
# 6 0.0000 0.0000 0.0000 -12.0152 0.0000 42.8189
#
#
#
# Elastic Compliance Matrix: (Units=1/GPa)
#
#
# Indices 1 2 3 4 5 6 
#
# 1 0.009558 -0.002535 -0.010673 0.000000 0.005311 0.000000
# 2 -0.002535 0.007725 -0.003126 0.000000 0.000092 0.000000
# 3 -0.010673 -0.003126 0.057292 0.000000 0.008404 0.000000
# 4 0.000000 0.000000 0.000000 0.068997 0.000000 0.019361
# 5 0.005311 0.000092 0.008404 0.000000 0.041116 0.000000
# 6 0.000000 0.000000 0.000000 0.019361 0.000000 0.028787
#
#
# Mechanical properties :
#
#
# Convention : Reuss Voigt Hill
#
# Bulk Modulus (GPa) = 23.86200 79.56805 51.71503
# Shear Modulus (GPa) = 19.22247 34.29879 26.76063
#
# Velocity S-wave (km/s) = 2.93902 3.92589 3.46774
# Velocity P-wave (km/s) = 4.71591 7.50367 6.26677
#
# Compressibility (1/GPa) = 0.04190764
#
# Stress axis : x y z
#
# Youngs Moduli (GPa) = 104.62633 129.44508 17.45432
#
# Poissons Ratio (x) = 0.32819 0.18628
# Poissons Ratio (y) = 0.26527 0.05456
# Poissons Ratio (z) = 1.11662 0.40465
#
# Static dielectric constant tensor:
#      x y z
#    x 4.490020 0.000000 -0.374030 
#    y 0.000000 4.633810 0.000000 
#    z -0.374030 0.000000 3.829450 
# 
# 
# High freq. dielectric constant tensor:
#      x y z
#    x 1.894090 0.000000 -0.014940 
#    y 0.000000 1.888660 0.000000 
#    z -0.014940 0.000000 1.858620 
# 
# From -- ./inp_files/33982.got.cif
#   From: 2010.06.25/outbox.cif.g09.slc.cpg/sg15_17_cif.got.tgz:33982.got - 2010.06.28 07:06:18.
