data_PCOD8141091
_publ_section_title
;
Structure prediction by ZEFSAII (Michael W. Deem and Ramdas Pophale) SiO2 
 PCOD8141091
Probable space group: C 2/C
;
_chemical_formula_sum "Si O2"
_cell_formula_units_Z 60
_cell_length_a 29.443348
_cell_length_b 23.439376
_cell_length_c 5.211212
_cell_angle_alpha 90.000000
_cell_angle_beta 54.957208
_cell_angle_gamma 90.000000
_cell_volume 2944.484010
_symmetry_space_group_name_H-M "C 2/C"
_symmetry_group_IT_number 15
_symmetry_cell_setting 'monoclinic'
loop_
_space_group_symop_operation_xyz
x,y,z
-x,y,1/2-z
-x,-y,-z
x,-y,1/2+z
1/2+x,1/2+y,z
1/2-x,1/2+y,1/2-z
1/2-x,1/2-y,-z
1/2+x,1/2-y,1/2+z
loop_
_atom_site_type_symbol
_atom_site_label
_atom_site_fract_x
_atom_site_fract_y
_atom_site_fract_z
Si Si1 0.198550 0.318477 0.005904
Si Si2 0.183211 0.192889 0.207714
Si Si3 0.867237 0.649685 0.277005
Si Si4 0.564593 0.533900 0.015452
Si Si5 0.435870 0.036139 0.960967
Si Si6 0.580435 0.734248 0.861670
Si Si7 0.098863 0.140022 0.162386
Si Si8 0.500000 0.676258 0.750000
O O1 0.196956 0.249771 0.001863
O O2 0.162988 0.346816 0.349968
O O3 0.263166 0.334732 0.831191
O O4 0.177882 0.341722 0.800600
O O5 0.136975 0.209144 0.561932
O O6 0.159064 0.143884 0.097535
O O7 0.915106 0.697983 0.111978
O O8 0.896864 0.589775 0.140568
O O9 0.500000 0.548122 0.250000
O O10 0.582318 0.490378 0.183439
O O11 0.599228 0.592371 0.939820
O O12 0.500000 0.055563 0.750000
O O13 0.422560 0.009598 0.726419
O O14 0.525218 0.718714 0.883655
O O15 0.579083 0.703365 0.139583
O O16 0.047652 0.129588 0.523444
#
# Coordination Sequence:
#
# PCOD8141091 Si02
#       8
#     8   8   8   8   8   8   8   4
#     4  10  21  38  60  93 122 154 198 248 290 367
#     4   9  21  35  59  86 123 154 198 240 305 358
#     4  11  22  39  63  92 121 155 203 244 302 358
#     4  10  23  37  56  78 105 150 201 240 278 335
#     4  10  22  42  64  90 122 164 206 249 298 360
#     4  10  21  35  56  88 121 161 188 245 310 369
#     4  11  21  37  57  81 118 156 195 244 304 355
#     4  10  22  34  50  86 122 154 188 234 314 366
#
# _framework density 20.377085000000001
#
# number of rings (size 3 to 8) (size 9 to 14) (size 15 to 20)
#    0.000    1.867    1.333    2.000    8.400    2.667 
#    3.600    0.000    0.000    4.800    0.000    0.000 
#    0.000    0.000    0.000    0.000    0.000    0.000 
#
# Total GULP energy -371896.018908 kJ/mol
# GULP energy per Si atom -12396.533964 kJ/mol
# Density = 2.033071 g / cm^3
# Si number density = 20.377085 Si / 1000 Ang^3
#
#
#
# Elastic Constant Matrix: (Units=GPa)
#
#
# Indices 1 2 3 4 5 6 
#
# 1 129.5540 36.3392 15.2293 0.0000 -0.3421 0.0000
# 2 36.3392 79.7897 3.6550 0.0000 -6.9639 0.0000
# 3 15.2293 3.6550 30.8196 0.0000 3.6290 0.0000
# 4 0.0000 0.0000 0.0000 21.5129 0.0000 6.3455
# 5 -0.3421 -6.9639 3.6290 0.0000 33.0843 0.0000
# 6 0.0000 0.0000 0.0000 6.3455 0.0000 31.2526
#
#
#
# Elastic Compliance Matrix: (Units=1/GPa)
#
#
# Indices 1 2 3 4 5 6 
#
# 1 0.009349 -0.004098 -0.004096 0.000000 -0.000317 0.000000
# 2 -0.004098 0.014669 -0.000074 0.000000 0.003053 0.000000
# 3 -0.004096 -0.000074 0.034938 0.000000 -0.003890 0.000000
# 4 0.000000 0.000000 0.000000 0.049445 0.000000 -0.010039
# 5 -0.000317 0.003053 -0.003890 0.000000 0.031292 0.000000
# 6 0.000000 0.000000 0.000000 -0.010039 0.000000 0.034036
#
#
# Mechanical properties :
#
#
# Convention : Reuss Voigt Hill
#
# Bulk Modulus (GPa) = 23.57438 38.95670 31.26554
# Shear Modulus (GPa) = 24.46119 29.49929 26.98024
#
# Velocity S-wave (km/s) = 3.46848 3.80895 3.64269
# Velocity P-wave (km/s) = 5.25686 6.20512 5.75057
#
# Compressibility (1/GPa) = 0.04241894
#
# Stress axis : x y z
#
# Youngs Moduli (GPa) = 106.96423 68.17025 28.62209
#
# Poissons Ratio (x) = 0.27935 0.11725
# Poissons Ratio (y) = 0.43832 0.00213
# Poissons Ratio (z) = 0.43817 0.00507
#
# Static dielectric constant tensor:
#      x y z
#    x 3.873320 0.000000 0.051800 
#    y 0.000000 3.569470 0.000000 
#    z 0.051800 0.000000 3.757000 
# 
# 
# High freq. dielectric constant tensor:
#      x y z
#    x 1.804150 0.000000 0.013970 
#    y 0.000000 1.772240 0.000000 
#    z 0.013970 0.000000 1.794100 
# 
# From -- ./inp_files/17508.got.cif
#   From: 2010.06.25/outbox.cif.g09.slc.cpg/sg15_9_cif.got.tgz:17508.got - 2010.06.28 07:06:18.
