data_PCOD8141831
_publ_section_title
;
Structure prediction by ZEFSAII (Michael W. Deem and Ramdas Pophale) SiO2 
 PCOD8141831
Probable space group: C 2/C
;
_chemical_formula_sum "Si O2"
_cell_formula_units_Z 48
_cell_length_a 22.408392
_cell_length_b 9.154466
_cell_length_c 11.083956
_cell_angle_alpha 90.000000
_cell_angle_beta 95.751512
_cell_angle_gamma 90.000000
_cell_volume 2262.281727
_symmetry_space_group_name_H-M "C 2/C"
_symmetry_group_IT_number 15
_symmetry_cell_setting 'monoclinic'
loop_
_space_group_symop_operation_xyz
x,y,z
-x,y,1/2-z
-x,-y,-z
x,-y,1/2+z
1/2+x,1/2+y,z
1/2-x,1/2+y,1/2-z
1/2-x,1/2-y,-z
1/2+x,1/2-y,1/2+z
loop_
_atom_site_type_symbol
_atom_site_label
_atom_site_fract_x
_atom_site_fract_y
_atom_site_fract_z
Si Si1 0.433042 0.177242 0.734178
Si Si2 0.379292 0.389528 0.886297
Si Si3 0.658544 0.066880 0.204841
Si Si4 0.128075 0.195630 0.504440
Si Si5 0.208474 0.951405 0.834462
Si Si6 0.314620 0.748733 0.572242
O O1 0.500000 0.111761 0.750000
O O2 0.431812 0.328610 0.810782
O O3 0.416404 0.218397 0.593898
O O4 0.388397 0.064474 0.791960
O O5 0.316740 0.394238 0.797706
O O6 0.398797 0.543708 0.948819
O O7 0.366795 0.265646 0.983779
O O8 0.720308 0.021357 0.152627
O O9 0.672676 0.109612 0.345639
O O10 0.635012 0.200961 0.121009
O O11 0.189230 0.156066 0.441935
O O12 0.178180 0.107941 0.841868
O O13 0.250000 0.750000 0.500000
#
# Coordination Sequence:
#
# PCOD8141831 Si02
#       6
#     8   8   8   8   8   8
#     4  11  28  47  66  95 131 178 228 276 329 386
#     4  10  21  44  66  93 129 169 223 270 323 398
#     4  12  24  39  67  99 139 177 210 275 335 392
#     4  10  24  43  67  97 130 171 226 273 327 401
#     4  10  21  37  66  98 135 165 213 266 331 402
#     4  11  21  35  60  97 133 170 207 260 333 399
#
# _framework density 21.217517000000001
#
# number of rings (size 3 to 8) (size 9 to 14) (size 15 to 20)
#    0.000    1.333    3.333    1.500    7.000    1.333 
#    0.000    0.833    0.000    0.000    0.000    0.000 
#    0.000    0.000    0.000    0.000    0.000    0.000 
#
# Total GULP energy -297445.374745 kJ/mol
# GULP energy per Si atom -12393.557281 kJ/mol
# Density = 2.116923 g / cm^3
# Si number density = 21.217517 Si / 1000 Ang^3
#
#
#
# Elastic Constant Matrix: (Units=GPa)
#
#
# Indices 1 2 3 4 5 6 
#
# 1 104.1064 35.3781 26.6121 0.0000 0.0235 0.0000
# 2 35.3781 81.6110 39.1839 0.0000 -2.1841 0.0000
# 3 26.6121 39.1839 103.9825 0.0000 -2.6617 0.0000
# 4 0.0000 0.0000 0.0000 46.1552 0.0000 -6.3585
# 5 0.0235 -2.1841 -2.6617 0.0000 15.0855 0.0000
# 6 0.0000 0.0000 0.0000 -6.3585 0.0000 22.8592
#
#
#
# Elastic Compliance Matrix: (Units=1/GPa)
#
#
# Indices 1 2 3 4 5 6 
#
# 1 0.011416 -0.004345 -0.001307 0.000000 -0.000877 0.000000
# 2 -0.004345 0.016634 -0.005118 0.000000 0.001512 0.000000
# 3 -0.001307 -0.005118 0.011915 0.000000 0.001363 0.000000
# 4 0.000000 0.000000 0.000000 0.022529 0.000000 0.006267
# 5 -0.000877 0.001512 0.001363 0.000000 0.066750 0.000000
# 6 0.000000 0.000000 0.000000 0.006267 0.000000 0.045489
#
#
# Mechanical properties :
#
#
# Convention : Reuss Voigt Hill
#
# Bulk Modulus (GPa) = 54.26944 54.67200 54.47072
# Shear Modulus (GPa) = 24.70173 29.38837 27.04505
#
# Velocity S-wave (km/s) = 3.41576 3.72573 3.57411
# Velocity P-wave (km/s) = 6.41792 6.65818 6.53916
#
# Compressibility (1/GPa) = 0.01842658
#
# Stress axis : x y z
#
# Youngs Moduli (GPa) = 87.59358 60.11646 83.92868
#
# Poissons Ratio (x) = 0.26120 0.10969
# Poissons Ratio (y) = 0.38059 0.42952
# Poissons Ratio (z) = 0.11448 0.30766
#
# Static dielectric constant tensor:
#      x y z
#    x 3.363510 0.000000 -0.123340 
#    y 0.000000 3.970560 0.000000 
#    z -0.123340 0.000000 4.016740 
# 
# 
# High freq. dielectric constant tensor:
#      x y z
#    x 1.783390 0.000000 -0.010680 
#    y 0.000000 1.837400 0.000000 
#    z -0.010680 0.000000 1.855750 
# 
# From -- ./inp_files/116353.got.cif
#   From: 2010.06.25/outbox.cif.g09.slc.cpg/sg15_59_cif.got.tgz:116353.got - 2010.06.28 07:06:18.
