data_PCOD8141345
_publ_section_title
;
Structure prediction by ZEFSAII (Michael W. Deem and Ramdas Pophale) SiO2 
 PCOD8141345
Probable space group: C 2/C
;
_chemical_formula_sum "Si O2"
_cell_formula_units_Z 60
_cell_length_a 34.508861
_cell_length_b 16.403606
_cell_length_c 5.120542
_cell_angle_alpha 90.000000
_cell_angle_beta 85.047231
_cell_angle_gamma 90.000000
_cell_volume 2887.761260
_symmetry_space_group_name_H-M "C 2/C"
_symmetry_group_IT_number 15
_symmetry_cell_setting 'monoclinic'
loop_
_space_group_symop_operation_xyz
x,y,z
-x,y,1/2-z
-x,-y,-z
x,-y,1/2+z
1/2+x,1/2+y,z
1/2-x,1/2+y,1/2-z
1/2-x,1/2-y,-z
1/2+x,1/2-y,1/2+z
loop_
_atom_site_type_symbol
_atom_site_label
_atom_site_fract_x
_atom_site_fract_y
_atom_site_fract_z
Si Si1 0.517100 0.409100 0.992811
Si Si2 0.000000 0.558216 0.250000
Si Si3 0.626875 0.151646 0.578142
Si Si4 0.140342 0.161820 0.072193
Si Si5 0.298212 0.049967 0.966410
Si Si6 0.405481 0.654034 0.894486
Si Si7 0.287431 0.553892 0.557594
Si Si8 0.921484 0.657994 0.380470
O O1 0.500000 0.362418 0.750000
O O2 0.500000 0.360560 0.250000
O O3 0.500000 0.500000 0.000000
O O4 0.563356 0.408455 0.998327
O O5 0.036939 0.617591 0.197185
O O6 0.000000 0.500000 0.500000
O O7 0.640032 0.243101 0.517464
O O8 0.666522 0.107659 0.629883
O O9 0.607415 0.120544 0.321356
O O10 0.595489 0.136567 0.825082
O O11 0.129595 0.147787 0.379482
O O12 0.109832 0.123016 0.878875
O O13 0.183104 0.127896 0.999245
O O14 0.256079 0.091440 0.941077
O O15 0.301129 0.973138 0.769166
O O16 0.424480 0.743824 0.860167
O O17 0.294262 0.483905 0.338794
#
# Coordination Sequence:
#
# PCOD8141345 Si02
#       8
#     8   4   8   8   8   8   8   8
#     4  10  21  38  54  81 114 141 188 253 279 334
#     4  12  26  42  60  88 118 154 190 238 290 358
#     4  10  21  39  62  89 114 149 196 242 284 342
#     4  10  21  39  59  84 117 152 196 238 285 346
#     4  10  21  36  60  88 120 152 190 234 292 343
#     4  10  21  40  60  83 113 154 194 240 291 342
#     4  10  21  39  56  86 122 157 193 234 284 348
#     4  10  23  40  60  85 117 150 192 237 292 350
#
# _framework density 20.777339000000001
#
# number of rings (size 3 to 8) (size 9 to 14) (size 15 to 20)
#    0.000    1.867    0.000    3.200    0.933    3.733 
#   15.600    0.000    0.000    9.600    0.000    0.000 
#    0.000    0.000    0.000    0.000    0.000    0.000 
#
# Total GULP energy -371822.889855 kJ/mol
# GULP energy per Si atom -12394.096328 kJ/mol
# Density = 2.073005 g / cm^3
# Si number density = 20.777339 Si / 1000 Ang^3
#
#
#
# Elastic Constant Matrix: (Units=GPa)
#
#
# Indices 1 2 3 4 5 6 
#
# 1 159.5359 60.3232 36.9843 0.0000 -2.7302 0.0000
# 2 60.3232 45.7782 22.6730 0.0000 -3.7565 0.0000
# 3 36.9843 22.6730 133.3856 0.0000 7.4666 0.0000
# 4 0.0000 0.0000 0.0000 17.3686 0.0000 -6.3949
# 5 -2.7302 -3.7565 7.4666 0.0000 35.2821 0.0000
# 6 0.0000 0.0000 0.0000 -6.3949 0.0000 37.8859
#
#
#
# Elastic Compliance Matrix: (Units=1/GPa)
#
#
# Indices 1 2 3 4 5 6 
#
# 1 0.012571 -0.016276 -0.000684 0.000000 -0.000615 0.000000
# 2 -0.016276 0.045346 -0.003435 0.000000 0.004296 0.000000
# 3 -0.000684 -0.003435 0.008394 0.000000 -0.002195 0.000000
# 4 0.000000 0.000000 0.000000 0.061390 0.000000 0.010362
# 5 -0.000615 0.004296 -0.002195 0.000000 0.029217 0.000000
# 6 0.000000 0.000000 0.000000 0.010362 0.000000 0.028144
#
#
# Mechanical properties :
#
#
# Convention : Reuss Voigt Hill
#
# Bulk Modulus (GPa) = 39.18769 64.29563 51.74166
# Shear Modulus (GPa) = 21.33468 32.68861 27.01165
#
# Velocity S-wave (km/s) = 3.20789 3.97076 3.60954
# Velocity P-wave (km/s) = 5.71161 7.21352 6.50605
#
# Compressibility (1/GPa) = 0.02551822
#
# Stress axis : x y z
#
# Youngs Moduli (GPa) = 79.55058 22.05264 119.13742
#
# Poissons Ratio (x) = 0.35893 0.08154
# Poissons Ratio (y) = 1.29478 0.40929
# Poissons Ratio (z) = 0.05445 0.07576
#
# Static dielectric constant tensor:
#      x y z
#    x 3.827850 0.000000 0.017710 
#    y 0.000000 3.417460 0.000000 
#    z 0.017710 0.000000 3.932350 
# 
# 
# High freq. dielectric constant tensor:
#      x y z
#    x 1.822020 0.000000 0.001490 
#    y 0.000000 1.778660 0.000000 
#    z 0.001490 0.000000 1.843120 
# 
# From -- ./inp_files/17193.got.cif
#   From: 2010.06.25/outbox.cif.g09.slc.cpg/sg15_9_cif.got.tgz:17193.got - 2010.06.28 07:06:18.
