data_PCOD8141176
_publ_section_title
;
Structure prediction by ZEFSAII (Michael W. Deem and Ramdas Pophale) SiO2 
 PCOD8141176
Probable space group: C 2/C
;
_chemical_formula_sum "Si O2"
_cell_formula_units_Z 60
_cell_length_a 21.009693
_cell_length_b 26.880405
_cell_length_c 15.530042
_cell_angle_alpha 90.000000
_cell_angle_beta 160.290754
_cell_angle_gamma 90.000000
_cell_volume 2957.852234
_symmetry_space_group_name_H-M "C 2/C"
_symmetry_group_IT_number 15
_symmetry_cell_setting 'monoclinic'
loop_
_space_group_symop_operation_xyz
x,y,z
-x,y,1/2-z
-x,-y,-z
x,-y,1/2+z
1/2+x,1/2+y,z
1/2-x,1/2+y,1/2-z
1/2-x,1/2-y,-z
1/2+x,1/2-y,1/2+z
loop_
_atom_site_type_symbol
_atom_site_label
_atom_site_fract_x
_atom_site_fract_y
_atom_site_fract_z
Si Si1 0.223498 0.528924 0.699290
Si Si2 0.080308 0.817959 0.509433
Si Si3 0.131204 0.201371 0.494138
Si Si4 0.280701 0.968433 0.972995
Si Si5 0.219104 0.467523 0.862407
Si Si6 0.510634 0.614230 0.083685
Si Si7 0.040711 0.728929 0.033797
Si Si8 0.000000 0.119923 0.750000
O O1 0.284035 0.498415 0.692957
O O2 0.283130 0.496268 0.857837
O O3 0.003578 0.542671 0.421302
O O4 0.336704 0.579830 0.835164
O O5 0.290415 0.810658 0.736084
O O6 0.957540 0.844796 0.278518
O O7 0.087370 0.853650 0.601562
O O8 0.990874 0.764351 0.422410
O O9 0.062196 0.147047 0.430619
O O10 0.111787 0.238288 0.547135
O O11 0.355591 0.200245 0.762798
O O12 0.000000 0.221464 0.250000
O O13 0.181802 0.915419 0.844267
O O14 0.500000 0.957545 0.250000
O O15 0.218610 0.998518 0.978283
O O16 0.319754 0.414353 0.998530
#
# Coordination Sequence:
#
# PCOD8141176 Si02
#       8
#     8   8   8   8   8   8   8   4
#     4  10  21  38  58  81 124 166 200 243 311 340
#     4  10  23  40  64  87 116 159 194 253 307 359
#     4  10  21  35  62  88 113 153 192 241 300 365
#     4  10  21  37  55  81 123 163 200 245 297 354
#     4  10  22  37  59  87 123 166 197 251 297 360
#     4  11  22  35  59  89 115 153 200 248 290 353
#     4   9  21  44  59  82 126 151 190 244 319 363
#     4  12  22  36  64  92 116 152 220 242 290 362
#
# _framework density 20.284987999999998
#
# number of rings (size 3 to 8) (size 9 to 14) (size 15 to 20)
#    0.000    1.867    0.000    3.200    3.733    1.600 
#    0.000    1.333    0.000    0.000    0.000    0.000 
#    0.000    0.000    0.000    0.000    0.000    0.000 
#
# Total GULP energy -371995.746563 kJ/mol
# GULP energy per Si atom -12399.858219 kJ/mol
# Density = 2.023882 g / cm^3
# Si number density = 20.284988 Si / 1000 Ang^3
#
#
#
# Elastic Constant Matrix: (Units=GPa)
#
#
# Indices 1 2 3 4 5 6 
#
# 1 80.4534 29.8300 39.8333 0.0000 -7.0649 -0.0002
# 2 29.8300 85.2600 36.0984 0.0000 -4.0113 0.0000
# 3 39.8333 36.0984 78.7844 0.0002 -10.9619 -0.0004
# 4 0.0000 0.0000 0.0002 30.0627 0.0001 1.8159
# 5 -7.0649 -4.0113 -10.9619 0.0001 19.6988 -0.0002
# 6 -0.0002 0.0000 -0.0004 1.8159 -0.0002 8.9333
#
#
#
# Elastic Compliance Matrix: (Units=1/GPa)
#
#
# Indices 1 2 3 4 5 6 
#
# 1 0.017181 -0.002918 -0.007126 0.000000 0.001602 0.000000
# 2 -0.002918 0.015059 -0.005575 0.000000 -0.001083 0.000000
# 3 -0.007126 -0.005575 0.019876 0.000000 0.007369 0.000001
# 4 0.000000 0.000000 0.000000 0.033677 0.000000 -0.006846
# 5 0.001602 -0.001083 0.007369 0.000000 0.055219 0.000002
# 6 0.000000 0.000000 0.000001 -0.006846 0.000002 0.113332
#
#
# Mechanical properties :
#
#
# Convention : Reuss Voigt Hill
#
# Bulk Modulus (GPa) = 47.90224 50.66903 49.28564
# Shear Modulus (GPa) = 17.09150 20.98804 19.03977
#
# Velocity S-wave (km/s) = 2.90585 3.22010 3.06700
# Velocity P-wave (km/s) = 5.90970 6.23364 6.07383
#
# Compressibility (1/GPa) = 0.02087585
#
# Stress axis : x y z
#
# Youngs Moduli (GPa) = 58.20496 66.40350 50.31224
#
# Poissons Ratio (x) = 0.19379 0.35855
# Poissons Ratio (y) = 0.16986 0.28050
# Poissons Ratio (z) = 0.41480 0.37021
#
# Static dielectric constant tensor:
#      x y z
#    x 5.676300 -0.000010 0.250070 
#    y -0.000010 3.789460 0.000000 
#    z 0.250070 0.000000 3.831600 
# 
# 
# High freq. dielectric constant tensor:
#      x y z
#    x 1.800230 0.000000 0.004470 
#    y 0.000000 1.791450 0.000000 
#    z 0.004470 0.000000 1.798090 
# 
# From -- ./inp_files/59113.got.cif
#   From: 2010.06.25/outbox.cif.g09.slc.cpg/sg15_30_cif.got.tgz:59113.got - 2010.06.28 07:06:18.
