data_PCOD8141477
_publ_section_title
;
Structure prediction by ZEFSAII (Michael W. Deem and Ramdas Pophale) SiO2 
 PCOD8141477
Probable space group: C 2/C
;
_chemical_formula_sum "Si O2"
_cell_formula_units_Z 56
_cell_length_a 24.493469
_cell_length_b 11.737008
_cell_length_c 12.053610
_cell_angle_alpha 90.000000
_cell_angle_beta 122.805573
_cell_angle_gamma 90.000000
_cell_volume 2912.525519
_symmetry_space_group_name_H-M "C 2/C"
_symmetry_group_IT_number 15
_symmetry_cell_setting 'monoclinic'
loop_
_space_group_symop_operation_xyz
x,y,z
-x,y,1/2-z
-x,-y,-z
x,-y,1/2+z
1/2+x,1/2+y,z
1/2-x,1/2+y,1/2-z
1/2-x,1/2-y,-z
1/2+x,1/2-y,1/2+z
loop_
_atom_site_type_symbol
_atom_site_label
_atom_site_fract_x
_atom_site_fract_y
_atom_site_fract_z
Si Si1 0.623340 0.701747 0.158890
Si Si2 0.676224 0.875873 0.373873
Si Si3 0.821784 0.627085 0.073598
Si Si4 0.316758 0.676538 0.951974
Si Si5 0.930099 0.797393 0.141529
Si Si6 0.748901 0.256614 0.679890
Si Si7 0.926162 0.943323 0.692234
O O1 0.627963 0.825150 0.225754
O O2 0.697814 0.676471 0.203437
O O3 0.598546 0.605050 0.216678
O O4 0.577147 0.703496 0.000474
O O5 0.672096 0.794922 0.474373
O O6 0.750974 0.886449 0.417876
O O7 0.651474 0.999329 0.385531
O O8 0.880449 0.715065 0.148171
O O9 0.771007 0.650372 0.115802
O O10 0.786143 0.648332 0.916963
O O11 0.310033 0.706912 0.814886
O O12 0.379403 0.597898 0.041070
O O13 0.000000 0.748740 0.250000
O O14 0.921335 0.920981 0.186917
O O15 0.000000 0.902562 0.750000
#
# Coordination Sequence:
#
# PCOD8141477 Si02
#       7
#     8   8   8   8   8   8   8
#     4   9  20  41  57  83 120 153 194 249 294 339
#     4   9  19  37  58  80 115 147 195 246 296 342
#     4  10  21  37  54  87 115 152 202 237 287 361
#     4   9  19  35  55  83 111 153 186 245 296 335
#     4  10  23  40  58  86 125 159 193 244 287 344
#     4   9  20  35  54  88 115 150 194 244 300 340
#     4  10  22  38  60  87 118 158 201 234 287 360
#
# _framework density 19.2273
#
# number of rings (size 3 to 8) (size 9 to 14) (size 15 to 20)
#    0.000    2.571    0.000    0.857    6.000    8.000 
#    7.714    3.571    0.000    0.000    0.000    0.000 
#    0.000    0.000    0.000    0.000    0.000    0.000 
#
# Total GULP energy -347088.738549 kJ/mol
# GULP energy per Si atom -12396.026377 kJ/mol
# Density = 1.918354 g / cm^3
# Si number density = 19.227300 Si / 1000 Ang^3
#
#
#
# Elastic Constant Matrix: (Units=GPa)
#
#
# Indices 1 2 3 4 5 6 
#
# 1 86.4459 44.7258 46.6153 0.0000 -0.9345 0.0000
# 2 44.7258 107.0596 33.5965 0.0000 -1.4005 0.0000
# 3 46.6153 33.5965 122.4965 0.0000 8.8808 0.0000
# 4 0.0000 0.0000 0.0000 20.7692 0.0000 4.2207
# 5 -0.9345 -1.4005 8.8808 0.0000 32.5542 0.0000
# 6 0.0000 0.0000 0.0000 4.2207 0.0000 21.9627
#
#
#
# Elastic Compliance Matrix: (Units=1/GPa)
#
#
# Indices 1 2 3 4 5 6 
#
# 1 0.017246 -0.005565 -0.005157 0.000000 0.001663 0.000000
# 2 -0.005565 0.012064 -0.001242 0.000000 0.000698 0.000000
# 3 -0.005157 -0.001242 0.010693 0.000000 -0.003118 0.000000
# 4 0.000000 0.000000 0.000000 0.050105 0.000000 -0.009629
# 5 0.001663 0.000698 -0.003118 0.000000 0.031647 0.000000
# 6 0.000000 0.000000 0.000000 -0.009629 0.000000 0.047382
#
#
# Mechanical properties :
#
#
# Convention : Reuss Voigt Hill
#
# Bulk Modulus (GPa) = 62.20627 62.87525 62.54076
# Shear Modulus (GPa) = 25.19878 27.79482 26.49680
#
# Velocity S-wave (km/s) = 3.62411 3.80622 3.71628
# Velocity P-wave (km/s) = 7.06651 7.21723 7.14227
#
# Compressibility (1/GPa) = 0.01607555
#
# Stress axis : x y z
#
# Youngs Moduli (GPa) = 57.98474 82.89043 93.52171
#
# Poissons Ratio (x) = 0.46125 0.48231
# Poissons Ratio (y) = 0.32266 0.11613
# Poissons Ratio (z) = 0.29904 0.10293
#
# Static dielectric constant tensor:
#      x y z
#    x 3.424570 0.000000 0.021810 
#    y 0.000000 3.320070 0.000000 
#    z 0.021810 0.000000 3.763770 
# 
# 
# High freq. dielectric constant tensor:
#      x y z
#    x 1.729930 0.000000 -0.006040 
#    y 0.000000 1.734360 0.000000 
#    z -0.006040 0.000000 1.759760 
# 
# From -- ./inp_files/117669.got.cif
#   From: 2010.06.25/outbox.cif.g09.slc.cpg/sg15_59_cif.got.tgz:117669.got - 2010.06.28 07:06:18.
