data_PCOD8141923
_publ_section_title
;
Structure prediction by ZEFSAII (Michael W. Deem and Ramdas Pophale) SiO2 
 PCOD8141923
Probable space group: C 2/C
;
_chemical_formula_sum "Si O2"
_cell_formula_units_Z 56
_cell_length_a 9.449607
_cell_length_b 28.149915
_cell_length_c 10.562001
_cell_angle_alpha 90.000000
_cell_angle_beta 104.018648
_cell_angle_gamma 90.000000
_cell_volume 2725.874713
_symmetry_space_group_name_H-M "C 2/C"
_symmetry_group_IT_number 15
_symmetry_cell_setting 'monoclinic'
loop_
_space_group_symop_operation_xyz
x,y,z
-x,y,1/2-z
-x,-y,-z
x,-y,1/2+z
1/2+x,1/2+y,z
1/2-x,1/2+y,1/2-z
1/2-x,1/2-y,-z
1/2+x,1/2-y,1/2+z
loop_
_atom_site_type_symbol
_atom_site_label
_atom_site_fract_x
_atom_site_fract_y
_atom_site_fract_z
Si Si1 0.457899 0.908672 0.567825
Si Si2 0.694206 0.078653 0.728402
Si Si3 0.692193 0.824220 0.843550
Si Si4 0.000000 0.888238 0.250000
Si Si5 0.684662 0.140999 0.965297
Si Si6 0.500000 0.993970 0.750000
Si Si7 0.505078 0.327595 0.011037
Si Si8 0.049662 0.279928 0.567809
O O1 0.366582 0.905796 0.419565
O O2 0.376493 0.877291 0.657891
O O3 0.620109 0.889511 0.569231
O O4 0.468565 0.962229 0.619995
O O5 0.643892 0.116910 0.822734
O O6 0.868684 0.077155 0.759618
O O7 0.641032 0.026583 0.757257
O O8 0.650370 0.799605 0.703393
O O9 0.619935 0.793189 0.941945
O O10 0.867397 0.824824 0.887767
O O11 0.048289 0.854013 0.374508
O O12 0.859648 0.144250 0.022607
O O13 0.607516 0.193139 0.954134
O O14 0.567254 0.275887 0.058090
#
# Coordination Sequence:
#
# PCOD8141923 Si02
#       8
#     8   8   8   4   8   4   8   8
#     4  11  21  43  63  91 122 156 206 249 305 376
#     4  11  22  40  63  94 120 161 198 250 318 362
#     4  10  21  39  62  88 122 170 203 255 310 343
#     4  10  22  40  61  88 132 158 203 250 306 372
#     4  10  22  38  59  89 127 159 199 255 301 355
#     4  12  24  40  71  92 112 158 203 256 304 378
#     4  11  21  38  62  88 126 172 205 251 303 348
#     4  10  21  38  58  93 125 162 221 250 281 367
#
# _framework density 20.543865
#
# number of rings (size 3 to 8) (size 9 to 14) (size 15 to 20)
#    0.000    1.429    2.857    3.857    0.000    0.571 
#    5.143    2.143    0.000    0.000    0.000    0.000 
#    0.000    0.000    0.000    0.000    0.000    0.000 
#
# Total GULP energy -347146.064610 kJ/mol
# GULP energy per Si atom -12398.073736 kJ/mol
# Density = 2.049711 g / cm^3
# Si number density = 20.543865 Si / 1000 Ang^3
#
#
#
# Elastic Constant Matrix: (Units=GPa)
#
#
# Indices 1 2 3 4 5 6 
#
# 1 116.5209 66.1361 55.9965 0.0000 8.4858 0.0000
# 2 66.1361 137.4017 53.9014 0.0000 2.3549 0.0000
# 3 55.9965 53.9014 92.2753 0.0000 6.8419 0.0000
# 4 0.0000 0.0000 0.0000 34.5644 0.0000 -3.4831
# 5 8.4858 2.3549 6.8419 0.0000 30.4217 0.0000
# 6 0.0000 0.0000 0.0000 -3.4831 0.0000 18.6470
#
#
#
# Elastic Compliance Matrix: (Units=1/GPa)
#
#
# Indices 1 2 3 4 5 6 
#
# 1 0.014044 -0.004468 -0.005744 0.000000 -0.002280 0.000000
# 2 -0.004468 0.010871 -0.003731 0.000000 0.001244 0.000000
# 3 -0.005744 -0.003731 0.016639 0.000000 -0.001851 0.000000
# 4 0.000000 0.000000 0.000000 0.029487 0.000000 0.005508
# 5 -0.002280 0.001244 -0.001851 0.000000 0.033827 0.000000
# 6 0.000000 0.000000 0.000000 0.005508 0.000000 0.054657
#
#
# Mechanical properties :
#
#
# Convention : Reuss Voigt Hill
#
# Bulk Modulus (GPa) = 73.15675 77.58511 75.37093
# Shear Modulus (GPa) = 26.04616 28.07086 27.05851
#
# Velocity S-wave (km/s) = 3.56452 3.70048 3.63314
# Velocity P-wave (km/s) = 7.25455 7.49037 7.37340
#
# Compressibility (1/GPa) = 0.01366928
#
# Stress axis : x y z
#
# Youngs Moduli (GPa) = 71.20298 91.99040 60.09798
#
# Poissons Ratio (x) = 0.41098 0.34520
# Poissons Ratio (y) = 0.31811 0.22423
# Poissons Ratio (z) = 0.40899 0.34322
#
# Static dielectric constant tensor:
#      x y z
#    x 3.930270 0.000000 -0.143340 
#    y 0.000000 3.661200 0.000000 
#    z -0.143340 0.000000 3.573290 
# 
# 
# High freq. dielectric constant tensor:
#      x y z
#    x 1.812280 0.000000 -0.009080 
#    y 0.000000 1.794230 0.000000 
#    z -0.009080 0.000000 1.795950 
# 
# From -- ./inp_files/81459.got.cif
#   From: 2010.06.25/outbox.cif.g09.slc.cpg/sg15_41_cif.got.tgz:81459.got - 2010.06.28 07:06:18.
