data_PCOD8141094
_publ_section_title
;
Structure prediction by ZEFSAII (Michael W. Deem and Ramdas Pophale) SiO2 
 PCOD8141094
Probable space group: C 2/C
;
_chemical_formula_sum "Si O2"
_cell_formula_units_Z 60
_cell_length_a 5.193886
_cell_length_b 23.635970
_cell_length_c 24.105143
_cell_angle_alpha 90.000000
_cell_angle_beta 98.641659
_cell_angle_gamma 90.000000
_cell_volume 2925.613704
_symmetry_space_group_name_H-M "C 2/C"
_symmetry_group_IT_number 15
_symmetry_cell_setting 'monoclinic'
loop_
_space_group_symop_operation_xyz
x,y,z
-x,y,1/2-z
-x,-y,-z
x,-y,1/2+z
1/2+x,1/2+y,z
1/2-x,1/2+y,1/2-z
1/2-x,1/2-y,-z
1/2+x,1/2-y,1/2+z
loop_
_atom_site_type_symbol
_atom_site_label
_atom_site_fract_x
_atom_site_fract_y
_atom_site_fract_z
Si Si1 0.321858 0.313126 0.064872
Si Si2 0.192173 0.128885 0.648582
Si Si3 0.960255 0.311693 0.552484
Si Si4 0.069621 0.722862 0.670726
Si Si5 0.525616 0.976765 0.315094
Si Si6 0.500000 0.335754 0.250000
Si Si7 0.500954 0.338403 0.619654
Si Si8 0.024005 0.952677 0.815144
O O1 0.522906 0.363967 0.087071
O O2 0.468863 0.256473 0.049807
O O3 0.163102 0.298441 0.114143
O O4 0.133671 0.335563 0.010135
O O5 0.298040 0.190882 0.669291
O O6 0.028902 0.118827 0.700129
O O7 0.411435 0.080587 0.648210
O O8 0.768859 0.337059 0.593406
O O9 0.256802 0.330290 0.570858
O O10 0.261117 0.706388 0.727172
O O11 0.017524 0.789953 0.667492
O O12 0.500000 0.960167 0.250000
O O13 0.269753 0.005734 0.332393
O O14 0.766965 0.018517 0.330680
O O15 0.445216 0.396251 0.649037
O O16 0.000000 0.936583 0.750000
#
# Coordination Sequence:
#
# PCOD8141094 Si02
#       8
#     8   8   8   8   8   4   8   8
#     4   9  21  35  58  91 121 154 200 240 300 358
#     4  11  21  36  59  88 122 154 196 242 309 356
#     4  10  21  38  62  88 123 156 200 247 291 361
#     4  10  21  35  56  90 121 159 189 240 310 363
#     4  10  22  38  61  82 115 155 204 242 291 347
#     4  10  22  34  50  92 128 154 186 240 316 376
#     4  11  22  40  62  86 120 157 200 246 299 347
#     4  10  23  41  59  86 112 160 205 244 285 355
#
# _framework density 20.508517999999999
#
# number of rings (size 3 to 8) (size 9 to 14) (size 15 to 20)
#    0.000    1.867    1.333    2.000    8.400    2.667 
#    3.600    0.000    0.000    4.800    0.000    0.000 
#    0.000    0.000    0.000    0.000    0.000    0.000 
#
# Total GULP energy -371895.896605 kJ/mol
# GULP energy per Si atom -12396.529887 kJ/mol
# Density = 2.046184 g / cm^3
# Si number density = 20.508518 Si / 1000 Ang^3
#
#
#
# Elastic Constant Matrix: (Units=GPa)
#
#
# Indices 1 2 3 4 5 6 
#
# 1 57.2189 2.2947 11.7016 0.0000 26.2650 0.0000
# 2 2.2947 82.3869 35.8136 0.0000 17.5964 0.0000
# 3 11.7016 35.8136 81.2954 0.0000 23.2586 0.0000
# 4 0.0000 0.0000 0.0000 23.4555 0.0000 8.1485
# 5 26.2650 17.5964 23.2586 0.0000 31.1718 0.0000
# 6 0.0000 0.0000 0.0000 8.1485 0.0000 28.7176
#
#
#
# Elastic Compliance Matrix: (Units=1/GPa)
#
#
# Indices 1 2 3 4 5 6 
#
# 1 0.030634 0.004628 0.002141 0.000000 -0.030022 0.000000
# 2 0.004628 0.016226 -0.005185 0.000000 -0.009191 0.000000
# 3 0.002141 -0.005185 0.017743 0.000000 -0.012116 0.000000
# 4 0.000000 0.000000 0.000000 0.047296 0.000000 -0.013420
# 5 -0.030022 -0.009191 -0.012116 0.000000 0.071605 0.000000
# 6 0.000000 0.000000 0.000000 -0.013420 0.000000 0.038630
#
#
# Mechanical properties :
#
#
# Convention : Reuss Voigt Hill
#
# Bulk Modulus (GPa) = 14.75527 35.61343 25.18435
# Shear Modulus (GPa) = 20.69911 28.07506 24.38708
#
# Velocity S-wave (km/s) = 3.18038 3.70394 3.45210
# Velocity P-wave (km/s) = 4.54937 5.97454 5.30999
#
# Compressibility (1/GPa) = 0.06777239
#
# Stress axis : x y z
#
# Youngs Moduli (GPa) = 32.64301 61.63059 56.35977
#
# Poissons Ratio (x) = -0.28525 -0.12067
# Poissons Ratio (y) = -0.15108 0.29221
# Poissons Ratio (z) = -0.06989 0.31954
#
# Static dielectric constant tensor:
#      x y z
#    x 3.840860 0.000000 0.095210 
#    y 0.000000 3.617340 0.000000 
#    z 0.095210 0.000000 3.842680 
# 
# 
# High freq. dielectric constant tensor:
#      x y z
#    x 1.814060 0.000000 0.012210 
#    y 0.000000 1.778190 0.000000 
#    z 0.012210 0.000000 1.791980 
# 
# From -- ./inp_files/261742.got.cif
#   From: 2010.06.25/outbox.cif.g09.slc.cpg/sg15_131_cif.got.tgz:261742.got - 2010.06.28 07:06:18.
