data_PCOD8141072
_publ_section_title
;
Structure prediction by ZEFSAII (Michael W. Deem and Ramdas Pophale) SiO2 
 PCOD8141072
Probable space group: C 2/C
;
_chemical_formula_sum "Si O2"
_cell_formula_units_Z 64
_cell_length_a 12.086429
_cell_length_b 28.574061
_cell_length_c 15.500809
_cell_angle_alpha 90.000000
_cell_angle_beta 144.553925
_cell_angle_gamma 90.000000
_cell_volume 3104.593649
_symmetry_space_group_name_H-M "C 2/C"
_symmetry_group_IT_number 15
_symmetry_cell_setting 'monoclinic'
loop_
_space_group_symop_operation_xyz
x,y,z
-x,y,1/2-z
-x,-y,-z
x,-y,1/2+z
1/2+x,1/2+y,z
1/2-x,1/2+y,1/2-z
1/2-x,1/2-y,-z
1/2+x,1/2-y,1/2+z
loop_
_atom_site_type_symbol
_atom_site_label
_atom_site_fract_x
_atom_site_fract_y
_atom_site_fract_z
Si Si1 0.962727 0.570046 0.524429
Si Si2 0.349072 0.201363 0.076621
Si Si3 0.080250 0.331863 0.061315
Si Si4 0.006385 0.862604 0.155684
Si Si5 0.852031 0.299091 0.079588
Si Si6 0.651699 0.447862 0.155582
Si Si7 0.596000 0.469259 0.725779
Si Si8 0.201138 0.899603 0.008550
O O1 0.821908 0.537087 0.381290
O O2 0.875366 0.583633 0.561226
O O3 0.005092 0.616186 0.496444
O O4 0.164757 0.545335 0.666428
O O5 0.500000 0.202142 0.250000
O O6 0.250000 0.250000 0.000000
O O7 0.453246 0.192302 0.051973
O O8 0.183137 0.164510 0.993089
O O9 0.301653 0.331392 0.234066
O O10 0.956617 0.307397 0.055949
O O11 0.006592 0.908590 0.097056
O O12 0.000000 0.878903 0.250000
O O13 0.000000 0.292974 0.250000
O O14 0.750000 0.250000 0.000000
O O15 0.710708 0.342582 0.017867
O O16 0.555446 0.499449 0.112645
O O17 0.727180 0.429407 0.112536
O O18 0.500000 0.493104 0.750000
O O19 0.502855 0.417279 0.657224
#
# Coordination Sequence:
#
# PCOD8141072 Si02
#       8
#     8   8   8   8   8   8   8   8
#     4   9  19  36  58  82 115 155 197 242 292 351
#     4  11  23  39  60  86 116 153 197 243 301 369
#     4   9  20  39  60  85 120 160 195 242 306 360
#     4   9  19  36  56  80 113 151 192 242 295 357
#     4  11  24  41  63  92 119 154 205 256 309 370
#     4  11  19  34  60  85 115 155 197 243 297 350
#     4  10  21  35  55  86 119 157 201 244 292 354
#     4  10  21  38  56  82 120 157 196 246 302 359
#
# _framework density 20.614614
#
# number of rings (size 3 to 8) (size 9 to 14) (size 15 to 20)
#    0.000    2.000    0.000    4.875    0.000    6.500 
#    0.000    0.000    0.000    0.750    0.000    0.000 
#    0.000    0.000    0.000    0.000    0.000    0.000 
#
# Total GULP energy -396457.687165 kJ/mol
# GULP energy per Si atom -12389.302724 kJ/mol
# Density = 2.056769 g / cm^3
# Si number density = 20.614614 Si / 1000 Ang^3
#
#
#
# Elastic Constant Matrix: (Units=GPa)
#
#
# Indices 1 2 3 4 5 6 
#
# 1 97.3788 46.0143 37.9827 -0.0001 -9.6714 0.0000
# 2 46.0143 121.4392 38.9080 0.0000 -7.5686 0.0000
# 3 37.9827 38.9080 93.9296 -0.0002 -6.2937 0.0000
# 4 -0.0001 0.0000 -0.0002 8.0879 -0.0001 -6.2951
# 5 -9.6714 -7.5686 -6.2937 -0.0001 32.7940 0.0000
# 6 0.0000 0.0000 0.0000 -6.2951 0.0000 28.6636
#
#
#
# Elastic Compliance Matrix: (Units=1/GPa)
#
#
# Indices 1 2 3 4 5 6 
#
# 1 0.013831 -0.003861 -0.003829 0.000000 0.002453 0.000000
# 2 -0.003861 0.010641 -0.002794 0.000000 0.000781 0.000000
# 3 -0.003829 -0.002794 0.013406 0.000000 0.000799 0.000000
# 4 0.000000 0.000000 0.000000 0.149135 0.000001 0.032753
# 5 0.002453 0.000781 0.000799 0.000001 0.031550 0.000000
# 6 0.000000 0.000000 0.000000 0.032753 0.000000 0.042081
#
#
# Mechanical properties :
#
#
# Convention : Reuss Voigt Hill
#
# Bulk Modulus (GPa) = 59.13993 62.06196 60.60095
# Shear Modulus (GPa) = 17.40651 26.56526 21.98589
#
# Velocity S-wave (km/s) = 2.90897 3.59369 3.26930
# Velocity P-wave (km/s) = 6.32720 6.88408 6.61151
#
# Compressibility (1/GPa) = 0.01690905
#
# Stress axis : x y z
#
# Youngs Moduli (GPa) = 72.30274 93.97203 74.59509
#
# Poissons Ratio (x) = 0.36281 0.28564
# Poissons Ratio (y) = 0.27915 0.20845
# Poissons Ratio (z) = 0.27686 0.26260
#
# Static dielectric constant tensor:
#      x y z
#    x 3.829360 0.000000 -0.287730 
#    y 0.000000 3.852850 0.000000 
#    z -0.287730 0.000000 2.576170 
# 
# 
# High freq. dielectric constant tensor:
#      x y z
#    x 1.816290 0.000000 -0.000730 
#    y 0.000000 1.806050 0.000000 
#    z -0.000730 0.000000 1.800550 
# 
# From -- ./inp_files/149210.got.cif
#   From: 2010.06.25/outbox.cif.g09.slc.cpg/sg15_75_cif.got.tgz:149210.got - 2010.06.28 07:06:18.
