data_PCOD8141698
_publ_section_title
;
Structure prediction by ZEFSAII (Michael W. Deem and Ramdas Pophale) SiO2 
 PCOD8141698
Probable space group: C 2/C
;
_chemical_formula_sum "Si O2"
_cell_formula_units_Z 60
_cell_length_a 16.885142
_cell_length_b 13.166359
_cell_length_c 20.637550
_cell_angle_alpha 90.000000
_cell_angle_beta 140.382935
_cell_angle_gamma 90.000000
_cell_volume 2925.588654
_symmetry_space_group_name_H-M "C 2/C"
_symmetry_group_IT_number 15
_symmetry_cell_setting 'monoclinic'
loop_
_space_group_symop_operation_xyz
x,y,z
-x,y,1/2-z
-x,-y,-z
x,-y,1/2+z
1/2+x,1/2+y,z
1/2-x,1/2+y,1/2-z
1/2-x,1/2-y,-z
1/2+x,1/2-y,1/2+z
loop_
_atom_site_type_symbol
_atom_site_label
_atom_site_fract_x
_atom_site_fract_y
_atom_site_fract_z
Si Si1 0.000000 0.854535 0.750000
Si Si2 0.510948 0.987550 0.832120
Si Si3 0.586918 0.196431 0.704179
Si Si4 0.965152 0.000989 0.611233
Si Si5 0.645538 0.343828 0.174869
Si Si6 0.199715 0.349893 0.792257
Si Si7 0.978919 0.840352 0.948648
Si Si8 0.765791 0.358962 0.539384
O O1 0.092185 0.780139 0.766502
O O2 0.056487 0.932315 0.838332
O O3 0.500000 0.967394 0.750000
O O4 0.392310 0.936844 0.792987
O O5 0.636819 0.932805 0.936891
O O6 0.512446 0.108179 0.844128
O O7 0.722845 0.146358 0.779911
O O8 0.530793 0.242276 0.603057
O O9 0.867494 0.090180 0.547682
O O10 0.101103 0.055458 0.687087
O O11 0.940191 0.928648 0.533846
O O12 0.659875 0.255064 0.235242
O O13 0.540052 0.313574 0.055750
O O14 0.339861 0.384013 0.867013
O O15 0.182218 0.336919 0.857161
O O16 0.750000 0.250000 0.500000
#
# Coordination Sequence:
#
# PCOD8141698 Si02
#       8
#     4   8   8   8   8   8   8   8
#     4  10  24  42  62  98 132 164 214 270 320 374
#     4  10  21  37  62  86 122 165 199 252 320 373
#     4  10  22  41  63  93 129 162 212 265 318 378
#     4  11  23  39  66  92 126 166 215 260 318 387
#     4  11  22  38  67  86 127 168 211 262 314 385
#     4  10  22  40  60  90 122 162 210 257 312 378
#     4  10  22  39  63  91 118 167 209 258 310 382
#     4  11  24  39  62  90 125 161 210 261 318 375
#
# _framework density 20.508693000000001
#
# number of rings (size 3 to 8) (size 9 to 14) (size 15 to 20)
#    0.000    1.600    2.000    2.000    5.600    1.067 
#    0.000    3.333    0.000    0.000    0.000    0.000 
#    0.000    0.000    0.000    0.000    0.000    0.000 
#
# Total GULP energy -371695.250612 kJ/mol
# GULP energy per Si atom -12389.841687 kJ/mol
# Density = 2.046201 g / cm^3
# Si number density = 20.508693 Si / 1000 Ang^3
#
#
#
# Elastic Constant Matrix: (Units=GPa)
#
#
# Indices 1 2 3 4 5 6 
#
# 1 94.8987 58.1589 42.9829 0.0000 6.5484 0.0000
# 2 58.1589 125.0720 50.2852 0.0000 7.5216 0.0000
# 3 42.9829 50.2852 71.8232 0.0000 4.6630 0.0000
# 4 0.0000 0.0000 0.0000 26.4665 0.0000 2.6962
# 5 6.5484 7.5216 4.6630 0.0000 29.2047 0.0000
# 6 0.0000 0.0000 0.0000 2.6962 0.0000 37.8357
#
#
#
# Elastic Compliance Matrix: (Units=1/GPa)
#
#
# Indices 1 2 3 4 5 6 
#
# 1 0.016610 -0.005121 -0.006264 0.000000 -0.001405 0.000000
# 2 -0.005121 0.012785 -0.005807 0.000000 -0.001217 0.000000
# 3 -0.006264 -0.005807 0.021775 0.000000 -0.000577 0.000000
# 4 0.000000 0.000000 0.000000 0.038060 0.000000 -0.002712
# 5 -0.001405 -0.001217 -0.000577 0.000000 0.034962 0.000000
# 6 0.000000 0.000000 0.000000 -0.002712 0.000000 0.026623
#
#
# Mechanical properties :
#
#
# Convention : Reuss Voigt Hill
#
# Bulk Modulus (GPa) = 59.57445 66.07198 62.82321
# Shear Modulus (GPa) = 26.20638 28.05918 27.13278
#
# Velocity S-wave (km/s) = 3.57854 3.70288 3.64124
# Velocity P-wave (km/s) = 6.79603 7.11114 6.95537
#
# Compressibility (1/GPa) = 0.01678572
#
# Stress axis : x y z
#
# Youngs Moduli (GPa) = 60.20502 78.21926 45.92439
#
# Poissons Ratio (x) = 0.40054 0.28766
# Poissons Ratio (y) = 0.30830 0.26669
# Poissons Ratio (z) = 0.37711 0.45424
#
# Static dielectric constant tensor:
#      x y z
#    x 4.197040 0.000000 0.268540 
#    y 0.000000 3.837850 0.000000 
#    z 0.268540 0.000000 3.842260 
# 
# 
# High freq. dielectric constant tensor:
#      x y z
#    x 1.810640 0.000000 0.003150 
#    y 0.000000 1.815910 0.000000 
#    z 0.003150 0.000000 1.777180 
# 
# From -- ./inp_files/248773.got.cif
#   From: 2010.06.25/outbox.cif.g09.slc.cpg/sg15_125_cif.got.tgz:248773.got - 2010.06.28 07:06:18.
