data_PCOD8141836
_publ_section_title
;
Structure prediction by ZEFSAII (Michael W. Deem and Ramdas Pophale) SiO2 
 PCOD8141836
Probable space group: C 2/C
;
_chemical_formula_sum "Si O2"
_cell_formula_units_Z 56
_cell_length_a 13.207252
_cell_length_b 16.055296
_cell_length_c 12.580210
_cell_angle_alpha 90.000000
_cell_angle_beta 99.998637
_cell_angle_gamma 90.000000
_cell_volume 2627.071860
_symmetry_space_group_name_H-M "C 2/C"
_symmetry_group_IT_number 15
_symmetry_cell_setting 'monoclinic'
loop_
_space_group_symop_operation_xyz
x,y,z
-x,y,1/2-z
-x,-y,-z
x,-y,1/2+z
1/2+x,1/2+y,z
1/2-x,1/2+y,1/2-z
1/2-x,1/2-y,-z
1/2+x,1/2-y,1/2+z
loop_
_atom_site_type_symbol
_atom_site_label
_atom_site_fract_x
_atom_site_fract_y
_atom_site_fract_z
Si Si1 0.286235 0.109526 0.753415
Si Si2 0.907117 0.891510 0.647431
Si Si3 0.059110 0.381709 0.030747
Si Si4 0.579520 0.008383 0.860021
Si Si5 0.977231 0.789763 0.457651
Si Si6 0.089101 0.074153 0.838474
Si Si7 0.241108 0.735569 0.122508
O O1 0.350816 0.100296 0.871429
O O2 0.312916 0.036570 0.673324
O O3 0.169634 0.106691 0.767428
O O4 0.307357 0.196260 0.698451
O O5 0.936565 0.842001 0.548112
O O6 0.797129 0.851360 0.667212
O O7 0.000000 0.882506 0.750000
O O8 0.878705 0.985842 0.602234
O O9 0.955088 0.422104 0.059463
O O10 0.091341 0.421294 0.923270
O O11 0.048827 0.283824 0.012874
O O12 0.500000 0.998853 0.750000
O O13 0.881785 0.747142 0.373868
O O14 0.052346 0.850508 0.405627
O O15 0.000000 0.039743 0.750000
O O16 0.250000 0.750000 0.000000
#
# Coordination Sequence:
#
# PCOD8141836 Si02
#       7
#     8   8   8   8   8   8   8
#     4  11  22  42  65  95 135 168 228 274 333 407
#     4  10  22  41  65  95 126 174 231 274 335 405
#     4  10  22  39  68  99 131 169 223 281 349 393
#     4   9  20  40  65  98 133 173 211 278 337 415
#     4  11  22  41  65  92 133 171 224 281 341 405
#     4  11  24  43  61  92 133 183 217 273 343 403
#     4  10  21  37  67  93 121 174 223 273 331 396
#
# _framework density 21.316510000000001
#
# number of rings (size 3 to 8) (size 9 to 14) (size 15 to 20)
#    0.000    1.714    1.429    3.000    0.000    8.000 
#    7.714    0.000    0.000    0.000    0.000    0.000 
#    0.000    0.000    0.000    0.000    0.000    0.000 
#
# Total GULP energy -346895.055325 kJ/mol
# GULP energy per Si atom -12389.109119 kJ/mol
# Density = 2.126799 g / cm^3
# Si number density = 21.316510 Si / 1000 Ang^3
#
#
#
# Elastic Constant Matrix: (Units=GPa)
#
#
# Indices 1 2 3 4 5 6 
#
# 1 103.0620 41.2876 32.0812 0.0000 -20.6946 0.0000
# 2 41.2876 142.6801 50.2078 0.0000 -22.1635 0.0000
# 3 32.0812 50.2078 89.2885 0.0000 -15.9532 0.0000
# 4 0.0000 0.0000 0.0000 51.5166 0.0000 -14.6703
# 5 -20.6946 -22.1635 -15.9532 0.0000 25.6196 0.0000
# 6 0.0000 0.0000 0.0000 -14.6703 0.0000 45.4775
#
#
#
# Elastic Compliance Matrix: (Units=1/GPa)
#
#
# Indices 1 2 3 4 5 6 
#
# 1 0.012545 -0.001712 -0.002249 0.000000 0.007252 0.000000
# 2 -0.001712 0.009597 -0.003989 0.000000 0.004435 0.000000
# 3 -0.002249 -0.003989 0.014976 0.000000 0.004058 0.000000
# 4 0.000000 0.000000 0.000000 0.021375 0.000000 0.006895
# 5 0.007252 0.004435 0.004058 0.000000 0.051254 0.000000
# 6 0.000000 0.000000 0.000000 0.006895 0.000000 0.024213
#
#
# Mechanical properties :
#
#
# Convention : Reuss Voigt Hill
#
# Bulk Modulus (GPa) = 47.13069 64.68709 55.90889
# Shear Modulus (GPa) = 31.86098 38.61966 35.24032
#
# Velocity S-wave (km/s) = 3.87028 4.26105 4.07036
# Velocity P-wave (km/s) = 6.49077 7.39058 6.95524
#
# Compressibility (1/GPa) = 0.02121760
#
# Stress axis : x y z
#
# Youngs Moduli (GPa) = 79.71275 104.20229 66.77542
#
# Poissons Ratio (x) = 0.17843 0.15017
# Poissons Ratio (y) = 0.13650 0.26634
# Poissons Ratio (z) = 0.17926 0.41562
#
# Static dielectric constant tensor:
#      x y z
#    x 4.074600 0.000000 0.083340 
#    y 0.000000 4.002020 0.000000 
#    z 0.083340 0.000000 3.615230 
# 
# 
# High freq. dielectric constant tensor:
#      x y z
#    x 1.830000 0.000000 0.002570 
#    y 0.000000 1.842500 0.000000 
#    z 0.002570 0.000000 1.831750 
# 
# From -- ./inp_files/97061.got.cif
#   From: 2010.06.25/outbox.cif.g09.slc.cpg/sg15_49_cif.got.tgz:97061.got - 2010.06.28 07:06:18.
