data_PCOD8141507
_publ_section_title
;
Structure prediction by ZEFSAII (Michael W. Deem and Ramdas Pophale) SiO2 
 PCOD8141507
Probable space group: C 2/C
;
_chemical_formula_sum "Si O2"
_cell_formula_units_Z 64
_cell_length_a 22.553420
_cell_length_b 18.352146
_cell_length_c 20.277497
_cell_angle_alpha 90.000000
_cell_angle_beta 24.124629
_cell_angle_gamma 90.000000
_cell_volume 3430.382005
_symmetry_space_group_name_H-M "C 2/C"
_symmetry_group_IT_number 15
_symmetry_cell_setting 'monoclinic'
loop_
_space_group_symop_operation_xyz
x,y,z
-x,y,1/2-z
-x,-y,-z
x,-y,1/2+z
1/2+x,1/2+y,z
1/2-x,1/2+y,1/2-z
1/2-x,1/2-y,-z
1/2+x,1/2-y,1/2+z
loop_
_atom_site_type_symbol
_atom_site_label
_atom_site_fract_x
_atom_site_fract_y
_atom_site_fract_z
Si Si1 0.129616 0.122208 0.162168
Si Si2 0.559800 0.989025 0.040488
Si Si3 0.431193 0.601789 0.036605
Si Si4 0.898218 0.390754 0.629666
Si Si5 0.115262 0.610195 0.683722
Si Si6 0.072980 0.239953 0.951886
Si Si7 0.823264 0.747379 0.795984
Si Si8 0.889401 0.011899 0.211534
O O1 0.215081 0.185499 0.116325
O O2 0.055054 0.063187 0.286002
O O3 0.000000 0.156387 0.250000
O O4 0.248866 0.080468 0.996555
O O5 0.462841 0.954129 0.196737
O O6 0.481663 0.064272 0.100797
O O7 0.574886 0.931378 0.966483
O O8 0.722678 0.008917 0.896954
O O9 0.268765 0.621035 0.178777
O O10 0.408814 0.553597 0.123645
O O11 0.536382 0.669668 0.945393
O O12 0.510823 0.559731 0.895807
O O13 0.964636 0.310142 0.554670
O O14 0.187296 0.670773 0.657037
O O15 0.000000 0.645425 0.750000
O O16 0.236464 0.245397 0.814468
O O17 0.987388 0.238527 0.107595
#
# Coordination Sequence:
#
# PCOD8141507 Si02
#       8
#     8   8   8   8   8   8   8   8
#     4  12  24  39  54  83 119 161 203 232 275 340
#     4  10  21  37  57  82 108 151 195 245 283 336
#     4  10  22  36  59  79 114 148 189 242 297 337
#     4  10  21  37  57  82 112 145 196 238 293 343
#     4  12  23  37  58  80 116 160 199 235 277 333
#     4  12  21  37  59  85 117 152 191 240 290 345
#     4  12  23  37  54  81 122 160 198 228 272 344
#     4  10  21  39  54  81 111 150 196 241 284 340
#
# _framework density 18.656814000000001
#
# number of rings (size 3 to 8) (size 9 to 14) (size 15 to 20)
#    0.000    1.000    5.000    3.000    3.500    1.000 
#    0.000    0.000    0.000    0.000    0.000    1.750 
#    0.000    0.000    0.000    0.000    0.000    0.000 
#
# Total GULP energy -396669.186910 kJ/mol
# GULP energy per Si atom -12395.912091 kJ/mol
# Density = 1.861435 g / cm^3
# Si number density = 18.656814 Si / 1000 Ang^3
#
#
#
# Elastic Constant Matrix: (Units=GPa)
#
#
# Indices 1 2 3 4 5 6 
#
# 1 55.8262 41.6631 19.9277 0.0044 -9.2535 -0.0001
# 2 41.6631 79.0376 33.2816 -0.0336 -2.0415 0.0141
# 3 19.9277 33.2816 99.7176 -0.0212 6.5167 0.0136
# 4 0.0044 -0.0336 -0.0212 25.2798 0.0069 -1.2899
# 5 -9.2535 -2.0415 6.5167 0.0069 29.8083 -0.0028
# 6 -0.0001 0.0141 0.0136 -1.2899 -0.0028 23.7009
#
#
#
# Elastic Compliance Matrix: (Units=1/GPa)
#
#
# Indices 1 2 3 4 5 6 
#
# 1 0.031862 -0.015853 -0.001676 -0.000030 0.009172 0.000010
# 2 -0.015853 0.022741 -0.004263 0.000030 -0.002432 -0.000010
# 3 -0.001676 -0.004263 0.012011 0.000005 -0.003438 -0.000004
# 4 -0.000030 0.000030 0.000005 0.039668 -0.000018 0.002159
# 5 0.009172 -0.002432 -0.003438 -0.000018 0.036980 0.000007
# 6 0.000010 -0.000010 -0.000004 0.002159 0.000007 0.042310
#
#
# Mechanical properties :
#
#
# Convention : Reuss Voigt Hill
#
# Bulk Modulus (GPa) = 43.42057 47.14735 45.28396
# Shear Modulus (GPa) = 21.11200 25.07173 23.09187
#
# Velocity S-wave (km/s) = 3.36757 3.66982 3.52194
# Velocity P-wave (km/s) = 6.20037 6.57894 6.39246
#
# Compressibility (1/GPa) = 0.02303056
#
# Stress axis : x y z
#
# Youngs Moduli (GPa) = 31.38498 43.97319 83.25924
#
# Poissons Ratio (x) = 0.69711 0.13952
# Poissons Ratio (y) = 0.49755 0.35493
# Poissons Ratio (z) = 0.05259 0.18746
#
# Static dielectric constant tensor:
#      x y z
#    x 3.225620 -0.000010 -0.062530 
#    y -0.000010 3.314750 0.000040 
#    z -0.062530 0.000040 3.666660 
# 
# 
# High freq. dielectric constant tensor:
#      x y z
#    x 1.693530 0.000000 -0.013410 
#    y 0.000000 1.703040 0.000000 
#    z -0.013410 0.000000 1.741040 
# 
# From -- ./inp_files/255989.got.cif
#   From: 2010.06.25/outbox.cif.g09.slc.cpg/sg15_128_cif.got.tgz:255989.got - 2010.06.28 07:06:18.
