data_PCOD8141787
_publ_section_title
;
Structure prediction by ZEFSAII (Michael W. Deem and Ramdas Pophale) SiO2 
 PCOD8141787
Probable space group: C 2/C
;
_chemical_formula_sum "Si O2"
_cell_formula_units_Z 40
_cell_length_a 18.605045
_cell_length_b 5.168660
_cell_length_c 27.545419
_cell_angle_alpha 90.000000
_cell_angle_beta 139.944286
_cell_angle_gamma 90.000000
_cell_volume 1704.623047
_symmetry_space_group_name_H-M "C 2/C"
_symmetry_group_IT_number 15
_symmetry_cell_setting 'monoclinic'
loop_
_space_group_symop_operation_xyz
x,y,z
-x,y,1/2-z
-x,-y,-z
x,-y,1/2+z
1/2+x,1/2+y,z
1/2-x,1/2+y,1/2-z
1/2-x,1/2-y,-z
1/2+x,1/2-y,1/2+z
loop_
_atom_site_type_symbol
_atom_site_label
_atom_site_fract_x
_atom_site_fract_y
_atom_site_fract_z
Si Si1 0.913708 0.745072 0.003350
Si Si2 0.712145 0.271790 0.759246
Si Si3 0.027734 0.779547 0.820683
Si Si4 0.352188 0.255227 0.426805
Si Si5 0.626938 0.221719 0.414152
O O1 0.832844 0.504900 0.947665
O O2 0.837954 0.999049 0.954810
O O3 0.952854 0.729152 0.079481
O O4 0.022011 0.750225 0.026729
O O5 0.755271 0.545183 0.761125
O O6 0.579626 0.277030 0.699407
O O7 0.765444 0.218151 0.838807
O O8 0.000000 0.751258 0.750000
O O9 0.109746 0.545588 0.877012
O O10 0.094995 0.045214 0.862055
O O11 0.750000 0.250000 0.500000
#
# Coordination Sequence:
#
# PCOD8141787 Si02
#       5
#     8   8   8   8   8
#     4  10  21  38  63  95 131 168 232 278 343 403
#     4  12  25  43  72 101 143 187 238 287 368 422
#     4  12  28  48  73 108 148 187 242 299 359 434
#     4  10  21  37  64  94 129 175 219 290 339 415
#     4  12  27  46  74 100 144 193 241 289 354 429
#
# _framework density 23.465599000000001
#
# number of rings (size 3 to 8) (size 9 to 14) (size 15 to 20)
#    0.000    0.800    0.000    7.200    5.600    3.200 
#    0.000    0.000    0.000    0.000    0.000    0.000 
#    0.000    0.000    0.000    0.000    0.000    0.000 
#
# Total GULP energy -248053.476269 kJ/mol
# GULP energy per Si atom -12402.673813 kJ/mol
# Density = 2.341219 g / cm^3
# Si number density = 23.465599 Si / 1000 Ang^3
#
#
#
# Elastic Constant Matrix: (Units=GPa)
#
#
# Indices 1 2 3 4 5 6 
#
# 1 72.4031 12.7892 6.6366 0.0175 6.0640 0.0236
# 2 12.7892 151.3747 25.3195 0.0732 -0.4393 0.0175
# 3 6.6366 25.3195 106.8284 0.0323 -9.8376 0.0161
# 4 0.0175 0.0732 0.0323 53.6391 -0.0071 -10.8807
# 5 6.0640 -0.4393 -9.8376 -0.0071 50.1692 -0.0014
# 6 0.0236 0.0175 0.0161 -10.8807 -0.0014 7.8558
#
#
#
# Elastic Compliance Matrix: (Units=1/GPa)
#
#
# Indices 1 2 3 4 5 6 
#
# 1 0.014233 -0.001074 -0.000804 -0.000015 -0.001887 -0.000060
# 2 -0.001074 0.006963 -0.001595 -0.000014 -0.000122 -0.000028
# 3 -0.000804 -0.001595 0.009977 -0.000009 0.002039 -0.000026
# 4 -0.000015 -0.000014 -0.000009 0.025928 0.000005 0.035912
# 5 -0.001887 -0.000122 0.002039 0.000005 0.020559 0.000012
# 6 -0.000060 -0.000028 -0.000026 0.035912 0.000012 0.177036
#
#
# Mechanical properties :
#
#
# Convention : Reuss Voigt Hill
#
# Bulk Modulus (GPa) = 41.27331 46.67741 43.97536
# Shear Modulus (GPa) = 18.53802 41.39022 29.96412
#
# Velocity S-wave (km/s) = 2.81376 4.20440 3.57730
# Velocity P-wave (km/s) = 5.30880 6.59578 5.98697
#
# Compressibility (1/GPa) = 0.02422873
#
# Stress axis : x y z
#
# Youngs Moduli (GPa) = 70.25958 143.61112 100.23504
#
# Poissons Ratio (x) = 0.15417 0.08054
# Poissons Ratio (y) = 0.07543 0.15986
# Poissons Ratio (z) = 0.05646 0.22905
#
# Static dielectric constant tensor:
#      x y z
#    x 4.596510 -0.002260 -0.106350 
#    y -0.002260 4.998240 -0.000660 
#    z -0.106350 -0.000660 4.232910 
# 
# 
# High freq. dielectric constant tensor:
#      x y z
#    x 1.939160 0.000000 -0.005350 
#    y 0.000000 1.946970 0.000000 
#    z -0.005350 0.000000 1.933520 
# 
# From -- ./inp_files/300012.got.cif
#   From: 2010.06.25/outbox.cif.g09.slc.cpg/sg15_151_cif.got.tgz:300012.got - 2010.06.28 07:06:18.
