data_PCOD8141651
_publ_section_title
;
Structure prediction by ZEFSAII (Michael W. Deem and Ramdas Pophale) SiO2 
 PCOD8141651
Probable space group: C 2/C
;
_chemical_formula_sum "Si O2"
_cell_formula_units_Z 36
_cell_length_a 14.987550
_cell_length_b 12.661609
_cell_length_c 10.959833
_cell_angle_alpha 90.000000
_cell_angle_beta 126.063116
_cell_angle_gamma 90.000000
_cell_volume 1681.253245
_symmetry_space_group_name_H-M "C 2/C"
_symmetry_group_IT_number 15
_symmetry_cell_setting 'monoclinic'
loop_
_space_group_symop_operation_xyz
x,y,z
-x,y,1/2-z
-x,-y,-z
x,-y,1/2+z
1/2+x,1/2+y,z
1/2-x,1/2+y,1/2-z
1/2-x,1/2-y,-z
1/2+x,1/2-y,1/2+z
loop_
_atom_site_type_symbol
_atom_site_label
_atom_site_fract_x
_atom_site_fract_y
_atom_site_fract_z
Si Si1 0.000000 0.727108 0.250000
Si Si2 0.896581 0.803310 0.930986
Si Si3 0.818344 0.639810 0.702604
Si Si4 0.604114 0.248300 0.966564
Si Si5 0.330158 0.100794 0.261169
O O1 0.044052 0.802725 0.391342
O O2 0.105636 0.658327 0.296311
O O3 0.830762 0.695596 0.844798
O O4 0.803557 0.893606 0.853666
O O5 0.992000 0.812897 0.905079
O O6 0.696200 0.659887 0.551553
O O7 0.900250 0.694864 0.670337
O O8 0.854987 0.521712 0.761165
O O9 0.624689 0.149538 0.075941
#
# Coordination Sequence:
#
# PCOD8141651 Si02
#       5
#     4   8   8   8   8
#     4  10  22  36  58  86 116 152 192 242 294 336
#     4  10  21  39  58  83 122 151 191 245 288 345
#     4  10  21  37  61  86 118 151 200 239 288 349
#     4   9  21  39  57  87 117 155 191 243 293 339
#     4  10  22  36  60  87 113 156 195 238 291 347
#
# _framework density 21.412597999999999
#
# number of rings (size 3 to 8) (size 9 to 14) (size 15 to 20)
#    0.000    2.222    0.000    1.333    6.222    2.667 
#    0.000    0.000    4.889    0.000    0.000    0.000 
#    0.000    0.000    0.000    0.000    0.000    0.000 
#
# Total GULP energy -223003.303191 kJ/mol
# GULP energy per Si atom -12389.072399 kJ/mol
# Density = 2.136386 g / cm^3
# Si number density = 21.412598 Si / 1000 Ang^3
#
#
#
# Elastic Constant Matrix: (Units=GPa)
#
#
# Indices 1 2 3 4 5 6 
#
# 1 122.5440 2.5188 14.2845 0.0000 11.4222 0.0000
# 2 2.5188 23.7980 -1.8419 0.0000 -4.5686 0.0000
# 3 14.2845 -1.8419 76.8164 0.0000 -7.4013 0.0000
# 4 0.0000 0.0000 0.0000 9.9721 0.0000 -1.0700
# 5 11.4222 -4.5686 -7.4013 0.0000 40.2309 0.0000
# 6 0.0000 0.0000 0.0000 -1.0700 0.0000 15.9787
#
#
#
# Elastic Compliance Matrix: (Units=1/GPa)
#
#
# Indices 1 2 3 4 5 6 
#
# 1 0.008703 -0.001651 -0.001949 0.000000 -0.003017 0.000000
# 2 -0.001651 0.043447 0.001903 0.000000 0.005753 0.000000
# 3 -0.001949 0.001903 0.013744 0.000000 0.003298 0.000000
# 4 0.000000 0.000000 0.000000 0.101005 0.000000 0.006764
# 5 -0.003017 0.005753 0.003298 0.000000 0.026973 0.000000
# 6 0.000000 0.000000 0.000000 0.006764 0.000000 0.063036
#
#
# Mechanical properties :
#
#
# Convention : Reuss Voigt Hill
#
# Bulk Modulus (GPa) = 15.99997 28.12012 22.06004
# Shear Modulus (GPa) = 17.78511 27.11615 22.45063
#
# Velocity S-wave (km/s) = 2.88512 3.56246 3.24153
# Velocity P-wave (km/s) = 4.31127 5.48475 4.93303
#
# Compressibility (1/GPa) = 0.06250011
#
# Stress axis : x y z
#
# Youngs Moduli (GPa) = 114.90830 23.01665 72.76029
#
# Poissons Ratio (x) = 0.03800 0.14178
# Poissons Ratio (y) = 0.18972 -0.13847
# Poissons Ratio (z) = 0.22390 -0.04380
#
# Static dielectric constant tensor:
#      x y z
#    x 4.245770 0.000000 0.079570 
#    y 0.000000 3.337570 0.000000 
#    z 0.079570 0.000000 3.926240 
# 
# 
# High freq. dielectric constant tensor:
#      x y z
#    x 1.862120 0.000000 0.008910 
#    y 0.000000 1.793770 0.000000 
#    z 0.008910 0.000000 1.852460 
# 
# From -- ./inp_files/94340.got.cif
#   From: 2010.06.25/outbox.cif.g09.slc.cpg/sg15_48_cif.got.tgz:94340.got - 2010.06.28 07:06:18.
