data_PCOD8141278
_publ_section_title
;
Structure prediction by ZEFSAII (Michael W. Deem and Ramdas Pophale) SiO2 
 PCOD8141278
Probable space group: C 2/C
;
_chemical_formula_sum "Si O2"
_cell_formula_units_Z 36
_cell_length_a 15.158267
_cell_length_b 23.626704
_cell_length_c 9.888397
_cell_angle_alpha 90.000000
_cell_angle_beta 29.391268
_cell_angle_gamma 90.000000
_cell_volume 1738.030748
_symmetry_space_group_name_H-M "C 2/C"
_symmetry_group_IT_number 15
_symmetry_cell_setting 'monoclinic'
loop_
_space_group_symop_operation_xyz
x,y,z
-x,y,1/2-z
-x,-y,-z
x,-y,1/2+z
1/2+x,1/2+y,z
1/2-x,1/2+y,1/2-z
1/2-x,1/2-y,-z
1/2+x,1/2-y,1/2+z
loop_
_atom_site_type_symbol
_atom_site_label
_atom_site_fract_x
_atom_site_fract_y
_atom_site_fract_z
Si Si1 0.256110 0.542549 0.258208
Si Si2 0.705229 0.557092 0.987511
Si Si3 0.986076 0.357046 0.119107
Si Si4 0.000000 0.111399 0.750000
Si Si5 0.161613 0.689596 0.139107
O O1 0.265447 0.528858 0.404449
O O2 0.092677 0.584748 0.455451
O O3 0.217766 0.484836 0.229323
O O4 0.437601 0.571905 0.957862
O O5 0.500000 0.569659 0.250000
O O6 0.784939 0.620569 0.863200
O O7 0.000000 0.330577 0.250000
O O8 0.058458 0.309591 0.920697
O O9 0.169447 0.146587 0.583776
O O10 0.000000 0.674720 0.250000
O O11 0.250000 0.750000 0.000000
#
# Coordination Sequence:
#
# PCOD8141278 Si02
#       5
#     8   8   8   4   8
#     4  10  21  36  57  84 129 167 204 250 297 371
#     4  11  21  33  56  87 124 166 209 238 303 367
#     4   9  22  41  59  88 128 161 202 263 312 371
#     4  10  22  40  62  92 130 162 204 266 312 366
#     4  11  23  42  70  92 119 158 216 266 323 371
#
# _framework density 20.713097999999999
#
# number of rings (size 3 to 8) (size 9 to 14) (size 15 to 20)
#    0.000    1.778    2.222    1.333    3.111    1.778 
#    0.000    2.222    0.000    0.000    0.000    0.000 
#    0.000    0.000    0.000    0.000    0.000    0.000 
#
# Total GULP energy -223044.962953 kJ/mol
# GULP energy per Si atom -12391.386831 kJ/mol
# Density = 2.066595 g / cm^3
# Si number density = 20.713098 Si / 1000 Ang^3
#
#
#
# Elastic Constant Matrix: (Units=GPa)
#
#
# Indices 1 2 3 4 5 6 
#
# 1 114.0893 35.4133 51.2499 -0.0106 1.1316 0.0060
# 2 35.4133 64.9620 27.9531 0.0008 15.7730 -0.0007
# 3 51.2499 27.9531 94.7155 -0.0001 23.0388 0.0014
# 4 -0.0106 0.0008 -0.0001 46.8590 0.0081 4.9966
# 5 1.1316 15.7730 23.0388 0.0081 42.3649 -0.0056
# 6 0.0060 -0.0007 0.0014 4.9966 -0.0056 19.3639
#
#
#
# Elastic Compliance Matrix: (Units=1/GPa)
#
#
# Indices 1 2 3 4 5 6 
#
# 1 0.013677 -0.005783 -0.007063 0.000003 0.005629 -0.000003
# 2 -0.005783 0.020787 -0.001337 -0.000001 -0.006857 0.000001
# 3 -0.007063 -0.001337 0.016834 0.000000 -0.008468 -0.000002
# 4 0.000003 -0.000001 0.000000 0.021944 -0.000005 -0.005662
# 5 0.005629 -0.006857 -0.008468 -0.000005 0.030612 0.000009
# 6 -0.000003 0.000001 -0.000002 -0.005662 0.000009 0.053103
#
#
# Mechanical properties :
#
#
# Convention : Reuss Voigt Hill
#
# Bulk Modulus (GPa) = 43.60970 55.88881 49.74926
# Shear Modulus (GPa) = 25.91083 32.32760 29.11921
#
# Velocity S-wave (km/s) = 3.54070 3.95490 3.75352
# Velocity P-wave (km/s) = 6.14941 6.92068 6.54642
#
# Compressibility (1/GPa) = 0.02293068
#
# Stress axis : x y z
#
# Youngs Moduli (GPa) = 73.11457 48.10725 59.40308
#
# Poissons Ratio (x) = 0.27823 0.41956
# Poissons Ratio (y) = 0.42286 0.07944
# Poissons Ratio (z) = 0.51640 0.06434
#
# Static dielectric constant tensor:
#      x y z
#    x 1.009200 0.000060 -0.637210 
#    y 0.000060 3.432410 0.000040 
#    z -0.637210 0.000040 4.294300 
# 
# 
# High freq. dielectric constant tensor:
#      x y z
#    x 1.813730 0.000000 -0.003250 
#    y 0.000000 1.777500 0.000000 
#    z -0.003250 0.000000 1.838540 
# 
# From -- ./inp_files/24328.got.cif
#   From: 2010.06.25/outbox.cif.g09.slc.cpg/sg15_13_cif.got.tgz:24328.got - 2010.06.28 07:06:18.
