data_PCOD8141242
_publ_section_title
;
Structure prediction by ZEFSAII (Michael W. Deem and Ramdas Pophale) SiO2 
 PCOD8141242
Probable space group: C 2/C
;
_chemical_formula_sum "Si O2"
_cell_formula_units_Z 64
_cell_length_a 9.806753
_cell_length_b 13.936675
_cell_length_c 26.976506
_cell_angle_alpha 90.000000
_cell_angle_beta 79.684991
_cell_angle_gamma 90.000000
_cell_volume 3627.386018
_symmetry_space_group_name_H-M "C 2/C"
_symmetry_group_IT_number 15
_symmetry_cell_setting 'monoclinic'
loop_
_space_group_symop_operation_xyz
x,y,z
-x,y,1/2-z
-x,-y,-z
x,-y,1/2+z
1/2+x,1/2+y,z
1/2-x,1/2+y,1/2-z
1/2-x,1/2-y,-z
1/2+x,1/2-y,1/2+z
loop_
_atom_site_type_symbol
_atom_site_label
_atom_site_fract_x
_atom_site_fract_y
_atom_site_fract_z
Si Si1 0.602626 0.117607 0.881425
Si Si2 0.633168 0.736101 0.467275
Si Si3 0.089724 0.603057 0.388543
Si Si4 0.221747 0.398233 0.613605
Si Si5 0.366102 0.257992 0.193305
Si Si6 0.284708 0.115720 0.872869
Si Si7 0.179389 0.236391 0.690375
Si Si8 0.851133 0.757622 0.038266
O O1 0.617223 0.170016 0.933480
O O2 0.448602 0.132019 0.869648
O O3 0.712487 0.156179 0.834312
O O4 0.640866 0.006148 0.885996
O O5 0.750000 0.750000 0.500000
O O6 0.663389 0.643857 0.431051
O O7 0.498594 0.713517 0.507518
O O8 0.140330 0.655962 0.334943
O O9 0.150875 0.657029 0.432290
O O10 0.924549 0.606905 0.404904
O O11 0.257293 0.505118 0.627626
O O12 0.219157 0.337620 0.663985
O O13 0.265408 0.334979 0.174395
O O14 0.309047 0.245073 0.252087
O O15 0.524923 0.295822 0.183717
O O16 0.197459 0.156946 0.923766
O O17 0.750000 0.750000 0.000000
#
# Coordination Sequence:
#
# PCOD8141242 Si02
#       8
#     8   8   8   8   8   8   8   8
#     4  10  21  36  56  82 106 140 183 221 260 320
#     4  11  21  36  57  78 107 146 183 216 264 319
#     4   9  19  36  57  78 107 141 180 218 264 317
#     4   9  19  36  56  80 105 140 184 220 255 320
#     4   9  19  37  58  80 107 140 172 221 272 314
#     4  10  21  36  55  81 111 138 178 225 266 309
#     4   9  19  37  58  79 108 140 176 215 267 325
#     4  11  21  36  53  80 113 142 175 222 271 311
#
# _framework density 17.643559
#
# number of rings (size 3 to 8) (size 9 to 14) (size 15 to 20)
#    0.000    2.250    2.500    0.000    1.750    3.500 
#    2.250    2.500    0.000    0.000    0.000    0.000 
#    0.000    0.000    0.000    0.000    0.000    0.000 
#
# Total GULP energy -396802.497114 kJ/mol
# GULP energy per Si atom -12400.078035 kJ/mol
# Density = 1.760340 g / cm^3
# Si number density = 17.643559 Si / 1000 Ang^3
#
#
#
# Elastic Constant Matrix: (Units=GPa)
#
#
# Indices 1 2 3 4 5 6 
#
# 1 105.2580 59.4809 64.3227 0.0000 0.0424 0.0000
# 2 59.4809 147.4029 60.5035 0.0000 0.1509 0.0000
# 3 64.3227 60.5035 132.2031 0.0000 -0.4815 0.0000
# 4 0.0000 0.0000 0.0000 13.0356 0.0000 0.1117
# 5 0.0424 0.1509 -0.4815 0.0000 37.1946 0.0000
# 6 0.0000 0.0000 0.0000 0.1117 0.0000 28.3989
#
#
#
# Elastic Compliance Matrix: (Units=1/GPa)
#
#
# Indices 1 2 3 4 5 6 
#
# 1 0.015055 -0.003778 -0.005596 0.000000 -0.000074 0.000000
# 2 -0.003778 0.009302 -0.002419 0.000000 -0.000065 0.000000
# 3 -0.005596 -0.002419 0.011395 0.000000 0.000164 0.000000
# 4 0.000000 0.000000 0.000000 0.076716 0.000000 -0.000302
# 5 -0.000074 -0.000065 0.000164 0.000000 0.026888 0.000000
# 6 0.000000 0.000000 0.000000 -0.000302 0.000000 0.035214
#
#
# Mechanical properties :
#
#
# Convention : Reuss Voigt Hill
#
# Bulk Modulus (GPa) = 82.20380 83.71983 82.96182
# Shear Modulus (GPa) = 24.72665 29.09627 26.91146
#
# Velocity S-wave (km/s) = 3.74766 4.06534 3.90973
# Velocity P-wave (km/s) = 8.08821 8.34204 8.21610
#
# Compressibility (1/GPa) = 0.01216489
#
# Stress axis : x y z
#
# Youngs Moduli (GPa) = 66.42159 107.50785 87.76060
#
# Poissons Ratio (x) = 0.40617 0.49114
# Poissons Ratio (y) = 0.25094 0.21229
# Poissons Ratio (z) = 0.37172 0.26006
#
# Static dielectric constant tensor:
#      x y z
#    x 3.214570 0.000000 -0.100670 
#    y 0.000000 3.292690 0.000000 
#    z -0.100670 0.000000 3.293230 
# 
# 
# High freq. dielectric constant tensor:
#      x y z
#    x 1.684330 0.000000 0.000090 
#    y 0.000000 1.677680 0.000000 
#    z 0.000090 0.000000 1.691710 
# 
# From -- ./inp_files/288749.got.cif
#   From: 2010.06.25/outbox.cif.g09.slc.cpg/sg15_145_cif.got.tgz:288749.got - 2010.06.28 07:06:18.
