data_PCOD8141719
_publ_section_title
;
Structure prediction by ZEFSAII (Michael W. Deem and Ramdas Pophale) SiO2 
 PCOD8141719
Probable space group: C 2/C
;
_chemical_formula_sum "Si O2"
_cell_formula_units_Z 48
_cell_length_a 8.935523
_cell_length_b 24.158940
_cell_length_c 20.759161
_cell_angle_alpha 90.000000
_cell_angle_beta 149.981525
_cell_angle_gamma 90.000000
_cell_volume 2241.920027
_symmetry_space_group_name_H-M "C 2/C"
_symmetry_group_IT_number 15
_symmetry_cell_setting 'monoclinic'
loop_
_space_group_symop_operation_xyz
x,y,z
-x,y,1/2-z
-x,-y,-z
x,-y,1/2+z
1/2+x,1/2+y,z
1/2-x,1/2+y,1/2-z
1/2-x,1/2-y,-z
1/2+x,1/2-y,1/2+z
loop_
_atom_site_type_symbol
_atom_site_label
_atom_site_fract_x
_atom_site_fract_y
_atom_site_fract_z
Si Si1 0.286700 0.809937 0.985929
Si Si2 0.376273 0.322679 0.137391
Si Si3 0.771490 0.885530 0.979375
Si Si4 0.648307 0.990641 0.871910
Si Si5 0.380779 0.797093 0.776825
Si Si6 0.863939 0.612708 0.631934
O O1 0.951584 0.822724 0.837261
O O2 0.250000 0.750000 0.000000
O O3 0.521700 0.808866 0.014379
O O4 0.425443 0.849202 0.093313
O O5 0.500000 0.346264 0.250000
O O6 0.570024 0.268155 0.189300
O O7 0.425940 0.373921 0.106290
O O8 0.587033 0.943725 0.904481
O O9 0.569266 0.831409 0.898099
O O10 0.007010 0.888376 0.008983
O O11 0.500000 0.969234 0.750000
O O12 0.506815 0.050927 0.835389
O O13 0.000000 0.000000 0.000000
O O14 0.500000 0.809302 0.750000
O O15 0.000000 0.635823 0.750000
#
# Coordination Sequence:
#
# PCOD8141719 Si02
#       6
#     8   8   8   8   8   8
#     4  12  22  39  59  88 125 162 204 253 306 370
#     4  11  23  39  58  89 126 162 206 251 312 370
#     4  11  21  38  61  87 119 161 202 257 309 365
#     4   9  20  37  64  94 119 155 208 262 309 364
#     4  11  21  37  61  86 122 162 206 254 305 368
#     4  10  21  37  62  92 118 155 209 254 301 367
#
# _framework density 21.410219000000001
#
# number of rings (size 3 to 8) (size 9 to 14) (size 15 to 20)
#    0.000    1.333    5.000    2.000    2.333    0.667 
#    0.000    0.833    0.000    0.000    0.000    0.000 
#    0.000    0.000    0.000    0.000    0.000    0.000 
#
# Total GULP energy -297348.235630 kJ/mol
# GULP energy per Si atom -12389.509818 kJ/mol
# Density = 2.136149 g / cm^3
# Si number density = 21.410219 Si / 1000 Ang^3
#
#
#
# Elastic Constant Matrix: (Units=GPa)
#
#
# Indices 1 2 3 4 5 6 
#
# 1 58.4908 42.2620 12.3701 0.0007 2.1413 0.0005
# 2 42.2620 132.9895 38.6667 -0.0011 -35.3133 -0.0001
# 3 12.3701 38.6667 98.5552 0.0041 -12.5893 0.0001
# 4 0.0007 -0.0011 0.0041 33.0548 -0.0009 -13.6787
# 5 2.1413 -35.3133 -12.5893 -0.0009 38.3628 -0.0001
# 6 0.0005 -0.0001 0.0001 -13.6787 -0.0001 28.0959
#
#
#
# Elastic Compliance Matrix: (Units=1/GPa)
#
#
# Indices 1 2 3 4 5 6 
#
# 1 0.025717 -0.011229 -0.000340 -0.000002 -0.011884 -0.000001
# 2 -0.011229 0.015688 -0.002944 0.000002 0.014102 0.000001
# 3 -0.000340 -0.002944 0.011482 -0.000002 0.001077 -0.000001
# 4 -0.000002 0.000002 -0.000002 0.037886 0.000002 0.018445
# 5 -0.011884 0.014102 0.001077 0.000002 0.040064 0.000002
# 6 -0.000001 0.000001 -0.000001 0.018445 0.000002 0.044572
#
#
# Mechanical properties :
#
#
# Convention : Reuss Voigt Hill
#
# Bulk Modulus (GPa) = 41.91092 52.95925 47.43508
# Shear Modulus (GPa) = 23.54150 33.01847 28.27999
#
# Velocity S-wave (km/s) = 3.31954 3.93132 3.63831
# Velocity P-wave (km/s) = 5.85748 6.73768 6.31294
#
# Compressibility (1/GPa) = 0.02386013
#
# Stress axis : x y z
#
# Youngs Moduli (GPa) = 38.88451 63.74127 87.09261
#
# Poissons Ratio (x) = 0.71576 0.02964
# Poissons Ratio (y) = 0.43664 0.25643
# Poissons Ratio (z) = 0.01323 0.18768
#
# Static dielectric constant tensor:
#      x y z
#    x 3.266690 0.000010 -0.252260 
#    y 0.000010 4.208580 0.000000 
#    z -0.252260 0.000000 3.851180 
# 
# 
# High freq. dielectric constant tensor:
#      x y z
#    x 1.795800 0.000000 0.002190 
#    y 0.000000 1.834960 0.000000 
#    z 0.002190 0.000000 1.864550 
# 
# From -- ./inp_files/234818.got.cif
#   From: 2010.06.25/outbox.cif.g09.slc.cpg/sg15_118_cif.got.tgz:234818.got - 2010.06.28 07:06:18.
