data_PCOD8141276
_publ_section_title
;
Structure prediction by ZEFSAII (Michael W. Deem and Ramdas Pophale) SiO2 
 PCOD8141276
Probable space group: C 2/C
;
_chemical_formula_sum "Si O2"
_cell_formula_units_Z 44
_cell_length_a 13.311896
_cell_length_b 30.882582
_cell_length_c 5.216259
_cell_angle_alpha 90.000000
_cell_angle_beta 90.146815
_cell_angle_gamma 90.000000
_cell_volume 2144.426871
_symmetry_space_group_name_H-M "C 2/C"
_symmetry_group_IT_number 15
_symmetry_cell_setting 'monoclinic'
loop_
_space_group_symop_operation_xyz
x,y,z
-x,y,1/2-z
-x,-y,-z
x,-y,1/2+z
1/2+x,1/2+y,z
1/2-x,1/2+y,1/2-z
1/2-x,1/2-y,-z
1/2+x,1/2-y,1/2+z
loop_
_atom_site_type_symbol
_atom_site_label
_atom_site_fract_x
_atom_site_fract_y
_atom_site_fract_z
Si Si1 0.887899 0.480434 0.200563
Si Si2 0.148927 0.733410 0.377766
Si Si3 0.612222 0.326331 0.242100
Si Si4 0.590266 0.892584 0.564851
Si Si5 0.500000 0.183584 0.750000
Si Si6 0.235769 0.155484 0.255145
O O1 0.833248 0.492893 0.468811
O O2 0.000000 0.499002 0.250000
O O3 0.889745 0.429095 0.148749
O O4 0.250000 0.750000 0.500000
O O5 0.103113 0.773942 0.223094
O O6 0.185626 0.694944 0.194395
O O7 0.068673 0.715047 0.579813
O O8 0.500000 0.345462 0.250000
O O9 0.677931 0.342139 0.484697
O O10 0.657212 0.345617 0.983996
O O11 0.500000 0.907161 0.750000
O O12 0.568005 0.847284 0.425274
O O13 0.692536 0.886833 0.732418
#
# Coordination Sequence:
#
# PCOD8141276 Si02
#       6
#     8   8   8   8   4   8
#     4  10  21  36  57  84 119 161 196 223 273 347
#     4  10  23  38  57  79 111 152 204 259 295 345
#     4  11  25  41  63  79 111 153 204 260 310 347
#     4  12  23  37  59  86 127 159 194 236 290 353
#     4  12  24  38  56  88 116 164 208 240 308 342
#     4  11  24  42  57  87 114 150 200 253 302 350
#
# _framework density 20.518304000000001
#
# number of rings (size 3 to 8) (size 9 to 14) (size 15 to 20)
#    0.000    1.091    2.727    4.909    7.636    0.000 
#    0.000    0.000    0.000    0.000    0.000    0.000 
#    0.000   14.545    0.000    0.000    0.000    0.000 
#
# Total GULP energy -272629.268819 kJ/mol
# GULP energy per Si atom -12392.239492 kJ/mol
# Density = 2.047160 g / cm^3
# Si number density = 20.518304 Si / 1000 Ang^3
#
#
#
# Elastic Constant Matrix: (Units=GPa)
#
#
# Indices 1 2 3 4 5 6 
#
# 1 91.7610 26.3028 27.3024 0.0000 -12.3327 0.0000
# 2 26.3028 65.4327 17.9868 0.0000 0.8307 0.0000
# 3 27.3024 17.9868 104.3090 0.0000 -1.7577 0.0000
# 4 0.0000 0.0000 0.0000 34.0867 0.0000 9.5467
# 5 -12.3327 0.8307 -1.7577 0.0000 36.7402 0.0000
# 6 0.0000 0.0000 0.0000 9.5467 0.0000 13.5587
#
#
#
# Elastic Compliance Matrix: (Units=1/GPa)
#
#
# Indices 1 2 3 4 5 6 
#
# 1 0.013692 -0.004827 -0.002674 0.000000 0.004577 0.000000
# 2 -0.004827 0.017754 -0.001834 0.000000 -0.002109 0.000000
# 3 -0.002674 -0.001834 0.010597 0.000000 -0.000349 0.000000
# 4 0.000000 0.000000 0.000000 0.036543 0.000000 -0.025730
# 5 0.004577 -0.002109 -0.000349 0.000000 0.028786 0.000000
# 6 0.000000 0.000000 0.000000 -0.025730 0.000000 0.091870
#
#
# Mechanical properties :
#
#
# Convention : Reuss Voigt Hill
#
# Bulk Modulus (GPa) = 42.78324 44.96519 43.87421
# Shear Modulus (GPa) = 22.15288 29.53783 25.84536
#
# Velocity S-wave (km/s) = 3.28939 3.79830 3.55297
# Velocity P-wave (km/s) = 5.94334 6.41860 6.18553
#
# Compressibility (1/GPa) = 0.02337364
#
# Stress axis : x y z
#
# Youngs Moduli (GPa) = 73.03274 56.32510 94.36441
#
# Poissons Ratio (x) = 0.27188 0.25237
# Poissons Ratio (y) = 0.35253 0.17302
# Poissons Ratio (z) = 0.19532 0.10328
#
# Static dielectric constant tensor:
#      x y z
#    x 3.656090 0.000000 0.130760 
#    y 0.000000 3.561260 0.000000 
#    z 0.130760 0.000000 3.954450 
# 
# 
# High freq. dielectric constant tensor:
#      x y z
#    x 1.778620 0.000000 0.010920 
#    y 0.000000 1.777240 0.000000 
#    z 0.010920 0.000000 1.816760 
# 
# From -- ./inp_files/8502.got.cif
#   From: 2010.06.25/outbox.cif.g09.slc.cpg/sg15_5_cif.got.tgz:8502.got - 2010.06.28 07:06:18.
