data_PCOD8141221
_publ_section_title
;
Structure prediction by ZEFSAII (Michael W. Deem and Ramdas Pophale) SiO2 
 PCOD8141221
Probable space group: C 2/C
;
_chemical_formula_sum "Si O2"
_cell_formula_units_Z 56
_cell_length_a 8.978330
_cell_length_b 31.750891
_cell_length_c 13.977487
_cell_angle_alpha 90.000000
_cell_angle_beta 48.444773
_cell_angle_gamma 90.000000
_cell_volume 2981.714125
_symmetry_space_group_name_H-M "C 2/C"
_symmetry_group_IT_number 15
_symmetry_cell_setting 'monoclinic'
loop_
_space_group_symop_operation_xyz
x,y,z
-x,y,1/2-z
-x,-y,-z
x,-y,1/2+z
1/2+x,1/2+y,z
1/2-x,1/2+y,1/2-z
1/2-x,1/2-y,-z
1/2+x,1/2-y,1/2+z
loop_
_atom_site_type_symbol
_atom_site_label
_atom_site_fract_x
_atom_site_fract_y
_atom_site_fract_z
Si Si1 0.181888 0.871611 0.373874
Si Si2 0.390007 0.054390 0.014846
Si Si3 0.011321 0.212852 0.898721
Si Si4 0.522860 0.859755 0.088564
Si Si5 0.330259 0.777053 0.109022
Si Si6 0.835335 0.964076 0.079799
Si Si7 0.217797 0.984879 0.190224
O O1 0.017733 0.836790 0.419118
O O2 0.324655 0.879487 0.221481
O O3 0.311564 0.850554 0.402603
O O4 0.078957 0.916036 0.446206
O O5 0.388493 0.105011 0.021260
O O6 0.318514 0.036536 0.941778
O O7 0.614104 0.038912 0.943302
O O8 0.240224 0.035061 0.158034
O O9 0.216903 0.229245 0.759668
O O10 0.830761 0.216633 0.903770
O O11 0.969253 0.238118 0.015650
O O12 0.475149 0.817277 0.052098
O O13 0.726650 0.975838 0.224165
O O14 0.000000 0.000000 0.000000
O O15 0.000000 0.968941 0.250000
#
# Coordination Sequence:
#
# PCOD8141221 Si02
#       7
#     8   8   8   8   8   8   8
#     4   9  18  32  53  76 103 133 179 217 253 313
#     4  10  21  36  54  76 109 143 183 233 271 318
#     4   9  18  34  53  81 103 133 170 213 265 316
#     4   9  17  33  53  75 101 138 171 216 262 307
#     4   9  18  33  56  77 106 134 166 215 265 321
#     4  11  20  36  54  76 111 146 179 230 277 313
#     4  11  21  34  53  79 103 143 186 228 269 327
#
# _framework density 18.781144000000001
#
# number of rings (size 3 to 8) (size 9 to 14) (size 15 to 20)
#    0.000    2.286    2.857    0.429    0.000    1.714 
#    0.000    1.429    0.000    0.000    0.000    0.000 
#    0.000    0.000    0.000    0.000    0.000    0.000 
#
# Total GULP energy -346924.575852 kJ/mol
# GULP energy per Si atom -12390.163423 kJ/mol
# Density = 1.873840 g / cm^3
# Si number density = 18.781144 Si / 1000 Ang^3
#
#
#
# Elastic Constant Matrix: (Units=GPa)
#
#
# Indices 1 2 3 4 5 6 
#
# 1 40.7521 32.6092 24.6405 0.0000 -6.4677 0.0000
# 2 32.6092 127.3574 51.5036 0.0000 3.4519 0.0000
# 3 24.6405 51.5036 59.2343 0.0000 1.8978 0.0000
# 4 0.0000 0.0000 0.0000 36.5526 0.0000 1.0903
# 5 -6.4677 3.4519 1.8978 0.0000 22.2247 0.0000
# 6 0.0000 0.0000 0.0000 1.0903 0.0000 31.9265
#
#
#
# Elastic Compliance Matrix: (Units=1/GPa)
#
#
# Indices 1 2 3 4 5 6 
#
# 1 0.037816 -0.005402 -0.011445 0.000000 0.012821 0.000000
# 2 -0.005402 0.012903 -0.008882 0.000000 -0.002818 0.000000
# 3 -0.011445 -0.008882 0.029509 0.000000 -0.004471 0.000000
# 4 0.000000 0.000000 0.000000 0.027386 0.000000 -0.000935
# 5 0.012821 -0.002818 -0.004471 0.000000 0.049546 0.000000
# 6 0.000000 0.000000 0.000000 -0.000935 0.000000 0.031354
#
#
# Mechanical properties :
#
#
# Convention : Reuss Voigt Hill
#
# Bulk Modulus (GPa) = 34.75707 49.42783 42.09245
# Shear Modulus (GPa) = 20.03521 26.04680 23.04101
#
# Velocity S-wave (km/s) = 3.26969 3.72810 3.50639
# Velocity P-wave (km/s) = 5.72722 6.70123 6.23328
#
# Compressibility (1/GPa) = 0.02877113
#
# Stress axis : x y z
#
# Youngs Moduli (GPa) = 26.44391 77.49984 33.88806
#
# Poissons Ratio (x) = 0.41864 0.38784
# Poissons Ratio (y) = 0.14284 0.30099
# Poissons Ratio (z) = 0.30264 0.68835
#
# Static dielectric constant tensor:
#      x y z
#    x 3.348680 0.000000 0.097130 
#    y 0.000000 3.513400 0.000000 
#    z 0.097130 0.000000 3.588940 
# 
# 
# High freq. dielectric constant tensor:
#      x y z
#    x 1.725120 0.000000 0.000120 
#    y 0.000000 1.726390 0.000000 
#    z 0.000120 0.000000 1.703240 
# 
# From -- ./inp_files/139452.got.cif
#   From: 2010.06.25/outbox.cif.g09.slc.cpg/sg15_70_cif.got.tgz:139452.got - 2010.06.28 07:06:18.
