data_PCOD8141364
_publ_section_title
;
Structure prediction by ZEFSAII (Michael W. Deem and Ramdas Pophale) SiO2 
 PCOD8141364
Probable space group: C 2/C
;
_chemical_formula_sum "Si O2"
_cell_formula_units_Z 36
_cell_length_a 5.172573
_cell_length_b 17.842999
_cell_length_c 19.214098
_cell_angle_alpha 90.000000
_cell_angle_beta 98.999022
_cell_angle_gamma 90.000000
_cell_volume 1751.521942
_symmetry_space_group_name_H-M "C 2/C"
_symmetry_group_IT_number 15
_symmetry_cell_setting 'monoclinic'
loop_
_space_group_symop_operation_xyz
x,y,z
-x,y,1/2-z
-x,-y,-z
x,-y,1/2+z
1/2+x,1/2+y,z
1/2-x,1/2+y,1/2-z
1/2-x,1/2-y,-z
1/2+x,1/2-y,1/2+z
loop_
_atom_site_type_symbol
_atom_site_label
_atom_site_fract_x
_atom_site_fract_y
_atom_site_fract_z
Si Si1 0.725417 0.047742 0.712051
Si Si2 0.266265 0.165869 0.475876
Si Si3 0.270431 0.119374 0.103778
Si Si4 0.000000 0.404525 0.750000
Si Si5 0.079907 0.463048 0.431309
O O1 0.500000 0.086685 0.750000
O O2 0.665851 0.062597 0.627459
O O3 0.000000 0.081749 0.750000
O O4 0.722106 0.957681 0.724071
O O5 0.250000 0.250000 0.500000
O O6 0.538761 0.152139 0.447312
O O7 0.250689 0.110688 0.542633
O O8 0.020679 0.150007 0.416241
O O9 0.371864 0.146319 0.183958
O O10 0.257654 0.027448 0.103190
O O11 0.000000 0.500000 0.500000
#
# Coordination Sequence:
#
# PCOD8141364 Si02
#       5
#     8   8   8   4   8
#     4   9  19  31  52  83 117 139 178 238 290 323
#     4  11  23  38  57  83 119 150 189 230 285 331
#     4  10  21  36  61  84 110 148 190 238 277 335
#     4   8  20  30  60  80 116 132 198 226 294 312
#     4   9  20  35  60  89 109 148 194 237 276 333
#
# _framework density 20.553554999999999
#
# number of rings (size 3 to 8) (size 9 to 14) (size 15 to 20)
#    0.667    1.778    0.000    1.333    9.333    3.556 
#    0.000    0.000    7.333    0.000    0.000    0.000 
#    0.000    0.000    0.000    0.000    0.000    0.000 
#
# Total GULP energy -223023.169282 kJ/mol
# GULP energy per Si atom -12390.176071 kJ/mol
# Density = 2.050677 g / cm^3
# Si number density = 20.553555 Si / 1000 Ang^3
#
#
#
# Elastic Constant Matrix: (Units=GPa)
#
#
# Indices 1 2 3 4 5 6 
#
# 1 88.1095 13.8509 34.8093 0.0000 25.8497 0.0000
# 2 13.8509 105.1809 36.1300 0.0000 13.6057 0.0000
# 3 34.8093 36.1300 174.7227 0.0000 29.3066 0.0000
# 4 0.0000 0.0000 0.0000 8.7051 0.0000 2.2332
# 5 25.8497 13.6057 29.3066 0.0000 32.3997 0.0000
# 6 0.0000 0.0000 0.0000 2.2332 0.0000 16.8549
#
#
#
# Elastic Compliance Matrix: (Units=1/GPa)
#
#
# Indices 1 2 3 4 5 6 
#
# 1 0.015017 -0.000182 -0.001129 0.000000 -0.010884 0.000000
# 2 -0.000182 0.010458 -0.001667 0.000000 -0.002739 0.000000
# 3 -0.001129 -0.001667 0.007102 0.000000 -0.004824 0.000000
# 4 0.000000 0.000000 0.000000 0.118917 0.000000 -0.015756
# 5 -0.010884 -0.002739 -0.004824 0.000000 0.045061 0.000000
# 6 0.000000 0.000000 0.000000 -0.015756 0.000000 0.061418
#
#
# Mechanical properties :
#
#
# Convention : Reuss Voigt Hill
#
# Bulk Modulus (GPa) = 37.56250 59.73261 48.64756
# Shear Modulus (GPa) = 18.32828 30.47347 24.40088
#
# Velocity S-wave (km/s) = 2.98943 3.85468 3.44929
# Velocity P-wave (km/s) = 5.49824 6.99546 6.29155
#
# Compressibility (1/GPa) = 0.02662230
#
# Stress axis : x y z
#
# Youngs Moduli (GPa) = 66.59049 95.61803 140.80614
#
# Poissons Ratio (x) = 0.01740 0.15891
# Poissons Ratio (y) = 0.01212 0.23472
# Poissons Ratio (z) = 0.07515 0.15939
#
# Static dielectric constant tensor:
#      x y z
#    x 3.461210 0.000000 0.113420 
#    y 0.000000 3.536220 0.000000 
#    z 0.113420 0.000000 4.198130 
# 
# 
# High freq. dielectric constant tensor:
#      x y z
#    x 1.786140 0.000000 0.013770 
#    y 0.000000 1.743830 0.000000 
#    z 0.013770 0.000000 1.826670 
# 
# From -- ./inp_files/226678.got.cif
#   From: 2010.06.25/outbox.cif.g09.slc.cpg/sg15_114_cif.got.tgz:226678.got - 2010.06.28 07:06:18.
