data_PCOD8141184
_publ_section_title
;
Structure prediction by ZEFSAII (Michael W. Deem and Ramdas Pophale) SiO2 
 PCOD8141184
Probable space group: C 2/C
;
_chemical_formula_sum "Si O2"
_cell_formula_units_Z 44
_cell_length_a 20.021237
_cell_length_b 23.261213
_cell_length_c 5.460013
_cell_angle_alpha 90.000000
_cell_angle_beta 127.482870
_cell_angle_gamma 90.000000
_cell_volume 2017.823601
_symmetry_space_group_name_H-M "C 2/C"
_symmetry_group_IT_number 15
_symmetry_cell_setting 'monoclinic'
loop_
_space_group_symop_operation_xyz
x,y,z
-x,y,1/2-z
-x,-y,-z
x,-y,1/2+z
1/2+x,1/2+y,z
1/2-x,1/2+y,1/2-z
1/2-x,1/2-y,-z
1/2+x,1/2-y,1/2+z
loop_
_atom_site_type_symbol
_atom_site_label
_atom_site_fract_x
_atom_site_fract_y
_atom_site_fract_z
Si Si1 0.404993 0.034595 0.519905
Si Si2 0.148849 0.192887 0.862328
Si Si3 0.230655 0.391998 0.580126
Si Si4 0.225835 0.296172 0.249612
Si Si5 0.500000 0.369406 0.250000
Si Si6 0.118092 0.035037 0.180294
O O1 0.500000 0.057921 0.750000
O O2 0.340461 0.087655 0.388843
O O3 0.387885 0.004220 0.222729
O O4 0.185224 0.183808 0.672632
O O5 0.053156 0.171938 0.685222
O O6 0.206696 0.153361 0.161345
O O7 0.159175 0.262177 0.929381
O O8 0.185117 0.355386 0.261948
O O9 0.283876 0.446380 0.598004
O O10 0.250000 0.250000 0.500000
O O11 0.558759 0.409013 0.551950
O O12 0.098795 0.998959 0.382590
#
# Coordination Sequence:
#
# PCOD8141184 Si02
#       6
#     8   8   8   8   4   8
#     4  10  22  39  59  88 123 158 199 253 309 366
#     4   9  20  39  61  87 121 156 207 254 311 370
#     4  10  21  35  63  87 117 164 205 251 310 367
#     4   9  19  39  59  85 113 151 205 255 305 361
#     4  10  22  40  62  92 126 176 198 260 314 362
#     4  11  24  40  59  94 131 169 210 250 301 378
#
# _framework density 21.805672000000001
#
# number of rings (size 3 to 8) (size 9 to 14) (size 15 to 20)
#    0.000    2.182    0.000    1.636    7.636    0.000 
#    6.545    5.455    0.000    0.000    0.000    0.000 
#    0.000    0.000    0.000    0.000    0.000    0.000 
#
# Total GULP energy -272539.607960 kJ/mol
# GULP energy per Si atom -12388.163998 kJ/mol
# Density = 2.175604 g / cm^3
# Si number density = 21.805672 Si / 1000 Ang^3
#
#
#
# Elastic Constant Matrix: (Units=GPa)
#
#
# Indices 1 2 3 4 5 6 
#
# 1 157.3488 74.3775 25.3900 0.0000 -1.0776 0.0000
# 2 74.3775 87.0939 22.7292 0.0000 1.1575 0.0000
# 3 25.3900 22.7292 42.0030 0.0000 -12.3831 0.0000
# 4 0.0000 0.0000 0.0000 21.9778 0.0000 -2.1761
# 5 -1.0776 1.1575 -12.3831 0.0000 40.7816 0.0000
# 6 0.0000 0.0000 0.0000 -2.1761 0.0000 44.5524
#
#
#
# Elastic Compliance Matrix: (Units=1/GPa)
#
#
# Indices 1 2 3 4 5 6 
#
# 1 0.010771 -0.008731 -0.001789 0.000000 -0.000011 0.000000
# 2 -0.008731 0.020752 -0.006802 0.000000 -0.002885 0.000000
# 3 -0.001789 -0.006802 0.031427 0.000000 0.009688 0.000000
# 4 0.000000 0.000000 0.000000 0.045722 0.000000 0.002233
# 5 -0.000011 -0.002885 0.009688 0.000000 0.027544 0.000000
# 6 0.000000 0.000000 0.000000 0.002233 0.000000 0.022555
#
#
# Mechanical properties :
#
#
# Convention : Reuss Voigt Hill
#
# Bulk Modulus (GPa) = 35.33084 59.04877 47.18981
# Shear Modulus (GPa) = 24.64865 32.39229 28.52047
#
# Velocity S-wave (km/s) = 3.36576 3.85840 3.62047
# Velocity P-wave (km/s) = 5.59841 6.85478 6.25820
#
# Compressibility (1/GPa) = 0.02830388
#
# Stress axis : x y z
#
# Youngs Moduli (GPa) = 92.83974 48.18818 31.82019
#
# Poissons Ratio (x) = 0.42075 0.05694
# Poissons Ratio (y) = 0.81063 0.21645
# Poissons Ratio (z) = 0.16612 0.32778
#
# Static dielectric constant tensor:
#      x y z
#    x 4.945920 0.000000 -0.261790 
#    y 0.000000 4.623210 0.000000 
#    z -0.261790 0.000000 4.034910 
# 
# 
# High freq. dielectric constant tensor:
#      x y z
#    x 1.866070 0.000000 -0.015550 
#    y 0.000000 1.859120 0.000000 
#    z -0.015550 0.000000 1.830670 
# 
# From -- ./inp_files/7623.got.cif
#   From: 2010.06.25/outbox.cif.g09.slc.cpg/sg15_4_cif.got.tgz:7623.got - 2010.06.28 07:06:18.
