data_PCOD8141311
_publ_section_title
;
Structure prediction by ZEFSAII (Michael W. Deem and Ramdas Pophale) SiO2 
 PCOD8141311
Probable space group: C 2/C
;
_chemical_formula_sum "Si O2"
_cell_formula_units_Z 56
_cell_length_a 18.925157
_cell_length_b 11.576021
_cell_length_c 25.909258
_cell_angle_alpha 90.000000
_cell_angle_beta 149.200263
_cell_angle_gamma 90.000000
_cell_volume 2906.409118
_symmetry_space_group_name_H-M "C 2/C"
_symmetry_group_IT_number 15
_symmetry_cell_setting 'monoclinic'
loop_
_space_group_symop_operation_xyz
x,y,z
-x,y,1/2-z
-x,-y,-z
x,-y,1/2+z
1/2+x,1/2+y,z
1/2-x,1/2+y,1/2-z
1/2-x,1/2-y,-z
1/2+x,1/2-y,1/2+z
loop_
_atom_site_type_symbol
_atom_site_label
_atom_site_fract_x
_atom_site_fract_y
_atom_site_fract_z
Si Si1 0.324836 0.829988 0.772628
Si Si2 0.634852 0.654663 0.614751
Si Si3 0.482385 0.699882 0.415362
Si Si4 0.069443 0.428400 0.179180
Si Si5 0.979580 0.208507 0.677494
Si Si6 0.382892 0.057343 0.134406
Si Si7 0.924516 0.027393 0.557321
O O1 0.346604 0.768356 0.840287
O O2 0.165624 0.845386 0.659311
O O3 0.377906 0.754223 0.757667
O O4 0.402144 0.950593 0.831282
O O5 0.582930 0.696019 0.527046
O O6 0.787013 0.600143 0.701633
O O7 0.525080 0.571819 0.574897
O O8 0.476291 0.828868 0.388928
O O9 0.536972 0.606616 0.407405
O O10 0.938940 0.451342 0.134748
O O11 0.872011 0.314995 0.601202
O O12 0.930906 0.096197 0.615100
O O13 0.000000 0.171008 0.750000
O O14 0.500000 0.079235 0.250000
O O15 0.232714 0.028459 0.062528
#
# Coordination Sequence:
#
# PCOD8141311 Si02
#       7
#     8   8   8   8   8   8   8
#     4   9  20  38  57  85 115 148 189 241 276 333
#     4  10  21  36  61  84 112 149 193 235 282 334
#     4  11  22  35  60  84 115 152 190 231 286 339
#     4  10  21  40  54  84 119 147 188 238 283 342
#     4   9  20  37  58  83 115 147 187 236 288 325
#     4  10  21  36  59  82 114 149 189 235 284 332
#     4  11  21  36  58  87 111 147 192 233 277 345
#
# _framework density 19.267761
#
# number of rings (size 3 to 8) (size 9 to 14) (size 15 to 20)
#    0.000    2.000    1.429    1.714    6.000    1.143 
#    0.000    3.571    0.000    0.000    0.000    0.000 
#    0.000    0.000    0.000    0.000    0.000    0.000 
#
# Total GULP energy -346945.658142 kJ/mol
# GULP energy per Si atom -12390.916362 kJ/mol
# Density = 1.922391 g / cm^3
# Si number density = 19.267761 Si / 1000 Ang^3
#
#
#
# Elastic Constant Matrix: (Units=GPa)
#
#
# Indices 1 2 3 4 5 6 
#
# 1 67.1737 38.0691 43.5060 0.0000 -6.2123 -0.0001
# 2 38.0691 101.1070 46.1353 0.0002 -10.3030 -0.0001
# 3 43.5060 46.1353 101.0109 0.0001 4.7909 -0.0002
# 4 0.0000 0.0002 0.0001 20.2376 0.0000 1.2385
# 5 -6.2123 -10.3030 4.7909 0.0000 32.9185 -0.0001
# 6 -0.0001 -0.0001 -0.0002 1.2385 -0.0001 23.6653
#
#
#
# Elastic Compliance Matrix: (Units=1/GPa)
#
#
# Indices 1 2 3 4 5 6 
#
# 1 0.023075 -0.004610 -0.008027 0.000000 0.004080 0.000000
# 2 -0.004610 0.014208 -0.004706 0.000000 0.004262 0.000000
# 3 -0.008027 -0.004706 0.015757 0.000000 -0.005281 0.000000
# 4 0.000000 0.000000 0.000000 0.049572 0.000000 -0.002594
# 5 0.004080 0.004262 -0.005281 0.000000 0.033250 0.000000
# 6 0.000000 0.000000 0.000000 -0.002594 0.000000 0.042392
#
#
# Mechanical properties :
#
#
# Convention : Reuss Voigt Hill
#
# Bulk Modulus (GPa) = 54.48097 58.30138 56.39117
# Shear Modulus (GPa) = 22.82512 24.80304 23.81408
#
# Velocity S-wave (km/s) = 3.44558 3.59176 3.51943
# Velocity P-wave (km/s) = 6.64578 6.89385 6.77095
#
# Compressibility (1/GPa) = 0.01835503
#
# Stress axis : x y z
#
# Youngs Moduli (GPa) = 43.33643 70.38372 63.46464
#
# Poissons Ratio (x) = 0.32447 0.50941
# Poissons Ratio (y) = 0.19978 0.29865
# Poissons Ratio (z) = 0.34784 0.33121
#
# Static dielectric constant tensor:
#      x y z
#    x 3.579040 0.000000 0.236680 
#    y 0.000000 3.712410 0.000000 
#    z 0.236680 0.000000 3.384580 
# 
# 
# High freq. dielectric constant tensor:
#      x y z
#    x 1.743340 0.000000 0.016990 
#    y 0.000000 1.756440 0.000000 
#    z 0.016990 0.000000 1.741960 
# 
# From -- ./inp_files/300742.got.cif
#   From: 2010.06.25/outbox.cif.g09.slc.cpg/sg15_151_cif.got.tgz:300742.got - 2010.06.28 07:06:18.
