data_PCOD8141777
_publ_section_title
;
Structure prediction by ZEFSAII (Michael W. Deem and Ramdas Pophale) SiO2 
 PCOD8141777
Probable space group: C 2/C
;
_chemical_formula_sum "Si O2"
_cell_formula_units_Z 48
_cell_length_a 25.891664
_cell_length_b 8.870069
_cell_length_c 14.513001
_cell_angle_alpha 90.000000
_cell_angle_beta 45.720444
_cell_angle_gamma 90.000000
_cell_volume 2386.283079
_symmetry_space_group_name_H-M "C 2/C"
_symmetry_group_IT_number 15
_symmetry_cell_setting 'monoclinic'
loop_
_space_group_symop_operation_xyz
x,y,z
-x,y,1/2-z
-x,-y,-z
x,-y,1/2+z
1/2+x,1/2+y,z
1/2-x,1/2+y,1/2-z
1/2-x,1/2-y,-z
1/2+x,1/2-y,1/2+z
loop_
_atom_site_type_symbol
_atom_site_label
_atom_site_fract_x
_atom_site_fract_y
_atom_site_fract_z
Si Si1 0.700599 0.159252 0.868040
Si Si2 0.425655 0.624655 0.020195
Si Si3 0.824981 0.389886 0.729111
Si Si4 0.952929 0.205415 0.499574
Si Si5 0.500000 0.813884 0.250000
Si Si6 0.114908 0.439389 0.651007
Si Si7 0.000000 0.203697 0.750000
O O1 0.648365 0.285167 0.890327
O O2 0.775684 0.241263 0.794900
O O3 0.712618 0.024751 0.780318
O O4 0.669818 0.087019 0.999197
O O5 0.477027 0.720383 0.023348
O O6 0.413718 0.454277 0.070682
O O7 0.460585 0.604362 0.875544
O O8 0.900175 0.344477 0.587048
O O9 0.838418 0.451725 0.814731
O O10 0.977961 0.209924 0.362806
O O11 0.430053 0.909540 0.308887
O O12 0.058757 0.303221 0.730805
#
# Coordination Sequence:
#
# PCOD8141777 Si02
#       7
#     8   8   8   8   4   8   4
#     4  11  24  41  63  88 128 165 211 254 309 372
#     4  10  21  38  60  94 120 163 201 257 309 365
#     4  12  23  42  63  89 123 170 208 258 312 371
#     4  11  22  37  64  92 127 157 208 259 313 365
#     4  11  21  38  64 100 126 156 208 264 310 362
#     4  10  21  37  64  92 121 159 207 252 307 369
#     4   9  17  34  60  90 118 152 200 248 300 364
#
# _framework density 20.114964000000001
#
# number of rings (size 3 to 8) (size 9 to 14) (size 15 to 20)
#    0.000    1.333    3.333    3.000    0.000    1.333 
#    0.000    0.833    0.000    0.000    0.000    0.000 
#    0.000    0.000    0.000    0.000    0.000    0.000 
#
# Total GULP energy -297675.254682 kJ/mol
# GULP energy per Si atom -12403.135612 kJ/mol
# Density = 2.006918 g / cm^3
# Si number density = 20.114964 Si / 1000 Ang^3
#
#
#
# Elastic Constant Matrix: (Units=GPa)
#
#
# Indices 1 2 3 4 5 6 
#
# 1 109.5608 32.6456 43.5800 -0.0002 11.3539 -0.0001
# 2 32.6456 70.6255 22.2246 -0.0031 2.3978 0.0012
# 3 43.5800 22.2246 67.4528 -0.0011 3.4871 0.0006
# 4 -0.0002 -0.0031 -0.0011 41.3210 0.0002 -6.7151
# 5 11.3539 2.3978 3.4871 0.0002 24.7983 0.0000
# 6 -0.0001 0.0012 0.0006 -6.7151 0.0000 28.6381
#
#
#
# Elastic Compliance Matrix: (Units=1/GPa)
#
#
# Indices 1 2 3 4 5 6 
#
# 1 0.013696 -0.003860 -0.007325 0.000000 -0.004867 0.000000
# 2 -0.003860 0.016901 -0.003104 0.000001 0.000570 0.000000
# 3 -0.007325 -0.003104 0.020541 0.000000 0.000765 0.000000
# 4 0.000000 0.000001 0.000000 0.025159 0.000000 0.005899
# 5 -0.004867 0.000570 0.000765 0.000000 0.042391 0.000000
# 6 0.000000 0.000000 0.000000 0.005899 0.000000 0.036302
#
#
# Mechanical properties :
#
#
# Convention : Reuss Voigt Hill
#
# Bulk Modulus (GPa) = 44.32829 49.39327 46.86078
# Shear Modulus (GPa) = 26.16594 28.89741 27.53167
#
# Velocity S-wave (km/s) = 3.61060 3.79438 3.70363
# Velocity P-wave (km/s) = 6.28229 6.61855 6.45261
#
# Compressibility (1/GPa) = 0.02255896
#
# Stress axis : x y z
#
# Youngs Moduli (GPa) = 73.01588 59.16807 48.68348
#
# Poissons Ratio (x) = 0.22841 0.35660
# Poissons Ratio (y) = 0.28186 0.15111
# Poissons Ratio (z) = 0.53484 0.18366
#
# Static dielectric constant tensor:
#      x y z
#    x 3.617050 0.000000 0.048830 
#    y 0.000000 3.456280 0.000000 
#    z 0.048830 0.000000 3.506090 
# 
# 
# High freq. dielectric constant tensor:
#      x y z
#    x 1.790080 0.000000 0.008180 
#    y 0.000000 1.784680 0.000000 
#    z 0.008180 0.000000 1.779830 
# 
# From -- ./inp_files/166190.got.cif
#   From: 2010.06.25/outbox.cif.g09.slc.cpg/sg15_84_cif.got.tgz:166190.got - 2010.06.28 07:06:18.
