data_PCOD8141169
_publ_section_title
;
Structure prediction by ZEFSAII (Michael W. Deem and Ramdas Pophale) SiO2 
 PCOD8141169
Probable space group: C 2/C
;
_chemical_formula_sum "Si O2"
_cell_formula_units_Z 56
_cell_length_a 13.311688
_cell_length_b 19.457925
_cell_length_c 12.243692
_cell_angle_alpha 90.000000
_cell_angle_beta 66.590354
_cell_angle_gamma 90.000000
_cell_volume 2910.294819
_symmetry_space_group_name_H-M "C 2/C"
_symmetry_group_IT_number 15
_symmetry_cell_setting 'monoclinic'
loop_
_space_group_symop_operation_xyz
x,y,z
-x,y,1/2-z
-x,-y,-z
x,-y,1/2+z
1/2+x,1/2+y,z
1/2-x,1/2+y,1/2-z
1/2-x,1/2-y,-z
1/2+x,1/2-y,1/2+z
loop_
_atom_site_type_symbol
_atom_site_label
_atom_site_fract_x
_atom_site_fract_y
_atom_site_fract_z
Si Si1 0.430647 0.942788 0.387487
Si Si2 0.613406 0.441697 0.662173
Si Si3 0.792972 0.939551 0.104111
Si Si4 0.275220 0.170882 0.474070
Si Si5 0.984994 0.592017 0.424222
Si Si6 0.774544 0.413352 0.769968
Si Si7 0.878940 0.099977 0.786269
O O1 0.500000 0.935841 0.250000
O O2 0.313627 0.909504 0.410526
O O3 0.486074 0.900128 0.460827
O O4 0.417027 0.021972 0.432374
O O5 0.500000 0.406959 0.750000
O O6 0.615361 0.440307 0.529901
O O7 0.713730 0.402769 0.680010
O O8 0.614800 0.519691 0.698451
O O9 0.836378 0.889129 0.180381
O O10 0.760459 0.014200 0.163510
O O11 0.250000 0.250000 0.500000
O O12 0.405091 0.155321 0.430331
O O13 0.238360 0.146480 0.369284
O O14 0.208199 0.131336 0.594786
O O15 0.094318 0.590342 0.303125
O O16 0.000000 0.133228 0.750000
#
# Coordination Sequence:
#
# PCOD8141169 Si02
#       7
#     8   8   8   8   8   8   8
#     4  11  18  30  58  93 126 150 179 257 325 373
#     4  10  21  35  61  93 123 157 189 253 320 374
#     4  11  19  35  60  94 126 145 191 258 326 369
#     4  12  25  41  58  82 125 168 210 247 291 379
#     4  11  21  34  57  91 120 155 203 244 316 365
#     4  11  21  36  60  89 124 153 203 249 312 368
#     4  10  23  37  57  89 121 160 202 243 309 373
#
# _framework density 19.242037
#
# number of rings (size 3 to 8) (size 9 to 14) (size 15 to 20)
#    0.000    1.143    5.714    1.286    6.000    2.857 
#    0.000    0.000    0.000    3.429    0.000    0.000 
#    0.000    0.000    0.000    0.000    0.000    0.000 
#
# Total GULP energy -347124.989638 kJ/mol
# GULP energy per Si atom -12397.321059 kJ/mol
# Density = 1.919824 g / cm^3
# Si number density = 19.242037 Si / 1000 Ang^3
#
#
#
# Elastic Constant Matrix: (Units=GPa)
#
#
# Indices 1 2 3 4 5 6 
#
# 1 132.2972 32.6241 56.8876 0.0000 -0.0218 0.0000
# 2 32.6241 47.8523 17.3402 0.0000 1.5461 0.0000
# 3 56.8876 17.3402 145.1657 0.0000 6.4092 0.0000
# 4 0.0000 0.0000 0.0000 3.5459 0.0000 -2.4097
# 5 -0.0218 1.5461 6.4092 0.0000 39.6959 0.0000
# 6 0.0000 0.0000 0.0000 -2.4097 0.0000 14.3384
#
#
#
# Elastic Compliance Matrix: (Units=1/GPa)
#
#
# Indices 1 2 3 4 5 6 
#
# 1 0.010503 -0.005939 -0.003442 0.000000 0.000793 0.000000
# 2 -0.005939 0.025209 -0.000645 0.000000 -0.000881 0.000000
# 3 -0.003442 -0.000645 0.008373 0.000000 -0.001329 0.000000
# 4 0.000000 0.000000 0.000000 0.318379 0.000000 0.053505
# 5 0.000793 -0.000881 -0.001329 0.000000 0.025441 0.000000
# 6 0.000000 0.000000 0.000000 0.053505 0.000000 0.078734
#
#
# Mechanical properties :
#
#
# Convention : Reuss Voigt Hill
#
# Bulk Modulus (GPa) = 41.60790 59.89099 50.74944
# Shear Modulus (GPa) = 10.10708 26.08026 18.09367
#
# Velocity S-wave (km/s) = 2.29434 3.68554 3.06979
# Velocity P-wave (km/s) = 5.35622 7.02165 6.24470
#
# Compressibility (1/GPa) = 0.02403390
#
# Stress axis : x y z
#
# Youngs Moduli (GPa) = 95.20748 39.66840 119.43045
#
# Poissons Ratio (x) = 0.23560 0.41103
# Poissons Ratio (y) = 0.56547 0.07701
# Poissons Ratio (z) = 0.32767 0.02558
#
# Static dielectric constant tensor:
#      x y z
#    x 3.774360 0.000000 0.620530 
#    y 0.000000 2.698960 0.000000 
#    z 0.620530 0.000000 3.168570 
# 
# 
# High freq. dielectric constant tensor:
#      x y z
#    x 1.767880 0.000000 0.004860 
#    y 0.000000 1.664340 0.000000 
#    z 0.004860 0.000000 1.777080 
# 
# From -- ./inp_files/89542.got.cif
#   From: 2010.06.25/outbox.cif.g09.slc.cpg/sg15_45_cif.got.tgz:89542.got - 2010.06.28 07:06:18.
