data_PCOD8141968
_publ_section_title
;
Structure prediction by ZEFSAII (Michael W. Deem and Ramdas Pophale) SiO2 
 PCOD8141968
Probable space group: C 2/C
;
_chemical_formula_sum "Si O2"
_cell_formula_units_Z 32
_cell_length_a 8.921718
_cell_length_b 5.284840
_cell_length_c 26.238586
_cell_angle_alpha 90.000000
_cell_angle_beta 76.918118
_cell_angle_gamma 90.000000
_cell_volume 1205.038545
_symmetry_space_group_name_H-M "C 2/C"
_symmetry_group_IT_number 15
_symmetry_cell_setting 'monoclinic'
loop_
_space_group_symop_operation_xyz
x,y,z
-x,y,1/2-z
-x,-y,-z
x,-y,1/2+z
1/2+x,1/2+y,z
1/2-x,1/2+y,1/2-z
1/2-x,1/2-y,-z
1/2+x,1/2-y,1/2+z
loop_
_atom_site_type_symbol
_atom_site_label
_atom_site_fract_x
_atom_site_fract_y
_atom_site_fract_z
Si Si1 0.909165 0.187694 0.542351
Si Si2 0.872535 0.818988 0.652357
Si Si3 0.586015 0.105512 0.561614
Si Si4 0.513745 0.188813 0.188917
O O1 0.746631 0.107648 0.580955
O O2 0.866278 0.398436 0.501801
O O3 0.005993 0.332368 0.578987
O O4 0.000000 0.000000 0.500000
O O5 0.691889 0.770997 0.659998
O O6 0.964810 0.830473 0.589603
O O7 0.952864 0.575187 0.671314
O O8 0.908584 0.073725 0.680203
O O9 0.500000 0.168820 0.250000
#
# Coordination Sequence:
#
# PCOD8141968 Si02
#       4
#     8   8   8   8
#     4  10  21  38  60  83 132 164 216 265 323 383
#     4  12  26  44  74 100 138 175 231 279 332 416
#     4  10  23  37  58  94 118 175 216 266 324 383
#     4  12  26  47  71 102 136 177 221 285 350 403
#
# _framework density 26.555168999999999
#
# number of rings (size 3 to 8) (size 9 to 14) (size 15 to 20)
#    0.000    1.000    0.000    6.000    7.000    0.000 
#    0.000    0.000    0.000    0.000    0.000    0.000 
#    0.000    0.000    0.000    0.000    0.000    0.000 
#
# Total GULP energy -198307.463226 kJ/mol
# GULP energy per Si atom -12394.216452 kJ/mol
# Density = 2.649473 g / cm^3
# Si number density = 26.555169 Si / 1000 Ang^3
#
#
#
# Elastic Constant Matrix: (Units=GPa)
#
#
# Indices 1 2 3 4 5 6 
#
# 1 182.8131 52.4962 -13.8477 0.0000 -43.4839 0.0001
# 2 52.4962 117.1510 4.0452 0.0000 -3.8489 0.0001
# 3 -13.8477 4.0452 88.2608 0.0000 -14.5376 0.0000
# 4 0.0000 0.0000 0.0000 20.1225 0.0000 16.7364
# 5 -43.4839 -3.8489 -14.5376 0.0000 37.4927 0.0000
# 6 0.0001 0.0001 0.0000 16.7364 0.0000 59.3711
#
#
#
# Elastic Compliance Matrix: (Units=1/GPa)
#
#
# Indices 1 2 3 4 5 6 
#
# 1 0.009960 -0.004181 0.003831 0.000000 0.012607 0.000000
# 2 -0.004181 0.010326 -0.001873 0.000000 -0.004515 0.000000
# 3 0.003831 -0.001873 0.013585 0.000000 0.009518 0.000000
# 4 0.000000 0.000000 0.000000 0.064915 0.000000 -0.018299
# 5 0.012607 -0.004515 0.009518 0.000000 0.044521 0.000000
# 6 0.000000 0.000000 0.000000 -0.018299 0.000000 0.022002
#
#
# Mechanical properties :
#
#
# Convention : Reuss Voigt Hill
#
# Bulk Modulus (GPa) = 33.98615 52.62360 43.30488
# Shear Modulus (GPa) = 27.84547 46.43269 37.13908
#
# Velocity S-wave (km/s) = 3.24171 4.18609 3.74379
# Velocity P-wave (km/s) = 5.18051 6.57451 5.91869
#
# Compressibility (1/GPa) = 0.02942375
#
# Stress axis : x y z
#
# Youngs Moduli (GPa) = 100.40511 96.84395 73.61232
#
# Poissons Ratio (x) = 0.40491 -0.28200
# Poissons Ratio (y) = 0.41980 0.13788
# Poissons Ratio (z) = -0.38464 0.18139
#
# Static dielectric constant tensor:
#      x y z
#    x 6.021280 0.000000 0.319700 
#    y 0.000000 5.590800 0.000000 
#    z 0.319700 0.000000 13.090790 
# 
# 
# High freq. dielectric constant tensor:
#      x y z
#    x 2.088420 0.000000 0.000130 
#    y 0.000000 2.089490 0.000000 
#    z 0.000130 0.000000 2.080140 
# 
# From -- ./inp_files/306151.got.cif
#   From: 2010.06.25/outbox.cif.g09.slc.cpg/sg15_154_cif.got.tgz:306151.got - 2010.06.28 07:06:18.
