data_PCOD8141067
_publ_section_title
;
Structure prediction by ZEFSAII (Michael W. Deem and Ramdas Pophale) SiO2 
 PCOD8141067
Probable space group: C 2/C
;
_chemical_formula_sum "Si O2"
_cell_formula_units_Z 56
_cell_length_a 16.602348
_cell_length_b 29.909462
_cell_length_c 9.404842
_cell_angle_alpha 90.000000
_cell_angle_beta 140.927094
_cell_angle_gamma 90.000000
_cell_volume 2943.628243
_symmetry_space_group_name_H-M "C 2/C"
_symmetry_group_IT_number 15
_symmetry_cell_setting 'monoclinic'
loop_
_space_group_symop_operation_xyz
x,y,z
-x,y,1/2-z
-x,-y,-z
x,-y,1/2+z
1/2+x,1/2+y,z
1/2-x,1/2+y,1/2-z
1/2-x,1/2-y,-z
1/2+x,1/2-y,1/2+z
loop_
_atom_site_type_symbol
_atom_site_label
_atom_site_fract_x
_atom_site_fract_y
_atom_site_fract_z
Si Si1 0.196536 0.747568 0.768651
Si Si2 0.510617 0.955908 0.104357
Si Si3 0.324527 0.875100 0.853840
Si Si4 0.190883 0.618603 0.840797
Si Si5 0.424095 0.334644 0.004741
Si Si6 0.603905 0.324031 0.998640
Si Si7 0.493251 0.820345 0.571294
O O1 0.179423 0.796234 0.677854
O O2 0.294217 0.714575 0.818059
O O3 0.054138 0.726329 0.563435
O O4 0.250000 0.750000 0.000000
O O5 0.500000 0.972202 0.250000
O O6 0.651799 0.933610 0.274153
O O7 0.396336 0.921030 0.909946
O O8 0.500000 0.000000 0.000000
O O9 0.170581 0.877912 0.613369
O O10 0.374767 0.834501 0.823066
O O11 0.348200 0.864922 0.054105
O O12 0.335644 0.632761 0.001753
O O13 0.109525 0.642309 0.607705
O O14 0.500000 0.323066 0.250000
O O15 0.533781 0.343003 0.040248
O O16 0.500000 0.302152 0.750000
O O17 0.500000 0.815742 0.750000
#
# Coordination Sequence:
#
# PCOD8141067 Si02
#       7
#     8   8   8   8   8   8   8
#     4  11  23  38  55  78 109 156 205 248 280 337
#     4   9  19  37  63  95 117 143 184 234 291 346
#     4  10  21  39  61  82 116 158 191 228 291 357
#     4   9  19  38  61  83 116 157 190 228 282 363
#     4  12  26  38  56  84 117 155 195 255 289 336
#     4  11  21  40  59  82 109 159 209 232 290 344
#     4  10  21  35  55  84 110 144 196 247 294 327
#
# _framework density 19.024141
#
# number of rings (size 3 to 8) (size 9 to 14) (size 15 to 20)
#    0.000    1.714    2.857    2.571    6.000    2.857 
#    2.571    0.000    0.000    1.714    0.000    0.000 
#    0.000    0.000    0.000    0.000    0.000    0.000 
#
# Total GULP energy -346884.745945 kJ/mol
# GULP energy per Si atom -12388.740927 kJ/mol
# Density = 1.898084 g / cm^3
# Si number density = 19.024141 Si / 1000 Ang^3
#
#
#
# Elastic Constant Matrix: (Units=GPa)
#
#
# Indices 1 2 3 4 5 6 
#
# 1 130.5938 48.6901 42.5669 0.0000 4.5033 0.0000
# 2 48.6901 86.5515 38.4254 0.0000 2.0411 0.0000
# 3 42.5669 38.4254 111.5473 0.0000 -14.6197 0.0000
# 4 0.0000 0.0000 0.0000 25.2566 0.0000 -5.5458
# 5 4.5033 2.0411 -14.6197 0.0000 34.6111 0.0000
# 6 0.0000 0.0000 0.0000 -5.5458 0.0000 18.6632
#
#
#
# Elastic Compliance Matrix: (Units=1/GPa)
#
#
# Indices 1 2 3 4 5 6 
#
# 1 0.010297 -0.004568 -0.002642 0.000000 -0.002187 0.000000
# 2 -0.004568 0.015957 -0.004022 0.000000 -0.002046 0.000000
# 3 -0.002642 -0.004022 0.012105 0.000000 0.005694 0.000000
# 4 0.000000 0.000000 0.000000 0.042357 0.000000 0.012587
# 5 -0.002187 -0.002046 0.005694 0.000000 0.031703 0.000000
# 6 0.000000 0.000000 0.000000 0.012587 0.000000 0.057322
#
#
# Mechanical properties :
#
#
# Convention : Reuss Voigt Hill
#
# Bulk Modulus (GPa) = 62.91372 65.33971 64.12671
# Shear Modulus (GPa) = 25.31594 28.97351 27.14473
#
# Velocity S-wave (km/s) = 3.65187 3.90678 3.78147
# Velocity P-wave (km/s) = 7.13609 7.40073 7.26962
#
# Compressibility (1/GPa) = 0.01589479
#
# Stress axis : x y z
#
# Youngs Moduli (GPa) = 97.11420 62.66698 82.61130
#
# Poissons Ratio (x) = 0.28626 0.21830
# Poissons Ratio (y) = 0.44362 0.33225
# Poissons Ratio (z) = 0.25662 0.25204
#
# Static dielectric constant tensor:
#      x y z
#    x 4.383140 0.000000 0.324870 
#    y 0.000000 3.289490 0.000000 
#    z 0.324870 0.000000 3.635840 
# 
# 
# High freq. dielectric constant tensor:
#      x y z
#    x 1.746760 0.000000 0.003440 
#    y 0.000000 1.698900 0.000000 
#    z 0.003440 0.000000 1.742330 
# 
# From -- ./inp_files/52665.got.cif
#   From: 2010.06.25/outbox.cif.g09.slc.cpg/sg15_27_cif.got.tgz:52665.got - 2010.06.28 07:06:18.
