data_PCOD8141458
_publ_section_title
;
Structure prediction by ZEFSAII (Michael W. Deem and Ramdas Pophale) SiO2 
 PCOD8141458
Probable space group: C 2/C
;
_chemical_formula_sum "Si O2"
_cell_formula_units_Z 48
_cell_length_a 8.018034
_cell_length_b 13.170004
_cell_length_c 19.412469
_cell_angle_alpha 90.000000
_cell_angle_beta 92.225619
_cell_angle_gamma 90.000000
_cell_volume 2048.362624
_symmetry_space_group_name_H-M "C 2/C"
_symmetry_group_IT_number 15
_symmetry_cell_setting 'monoclinic'
loop_
_space_group_symop_operation_xyz
x,y,z
-x,y,1/2-z
-x,-y,-z
x,-y,1/2+z
1/2+x,1/2+y,z
1/2-x,1/2+y,1/2-z
1/2-x,1/2-y,-z
1/2+x,1/2-y,1/2+z
loop_
_atom_site_type_symbol
_atom_site_label
_atom_site_fract_x
_atom_site_fract_y
_atom_site_fract_z
Si Si1 0.377056 0.362413 0.466915
Si Si2 0.109238 0.612204 0.185267
Si Si3 0.295140 0.191221 0.673810
Si Si4 0.940070 0.371634 0.966490
Si Si5 0.765466 0.141501 0.536424
Si Si6 0.673595 0.119271 0.683128
O O1 0.308404 0.366530 0.387248
O O2 0.241843 0.418309 0.514929
O O3 0.414287 0.245575 0.488191
O O4 0.559996 0.414946 0.480139
O O5 0.264288 0.687542 0.172397
O O6 0.005045 0.613712 0.111924
O O7 0.176567 0.500323 0.196056
O O8 0.000000 0.644902 0.250000
O O9 0.489123 0.165112 0.670441
O O10 0.230921 0.159182 0.748189
O O11 0.095119 0.420039 0.013325
O O12 0.750000 0.250000 0.500000
O O13 0.777610 0.154274 0.618861
#
# Coordination Sequence:
#
# PCOD8141458 Si02
#       6
#     8   8   8   8   8   8
#     4   9  18  37  63  96 127 181 230 279 356 420
#     4  11  24  42  70 102 133 194 241 284 375 433
#     4  10  22  41  69  93 140 185 230 300 351 421
#     4   9  19  37  63  91 136 173 225 291 346 418
#     4  10  21  36  67  97 135 184 233 290 359 425
#     4  11  23  45  67 101 140 186 240 296 360 428
#
# _framework density 23.433350999999998
#
# number of rings (size 3 to 8) (size 9 to 14) (size 15 to 20)
#    0.000    2.000    3.333    0.000    9.333    0.667 
#    0.000    4.167    0.000    0.000    0.000    0.000 
#    0.000    0.000    0.000    0.000    0.000    0.000 
#
# Total GULP energy -297334.818473 kJ/mol
# GULP energy per Si atom -12388.950770 kJ/mol
# Density = 2.338002 g / cm^3
# Si number density = 23.433351 Si / 1000 Ang^3
#
#
#
# Elastic Constant Matrix: (Units=GPa)
#
#
# Indices 1 2 3 4 5 6 
#
# 1 172.2153 17.6797 71.2259 0.0000 2.3064 0.0000
# 2 17.6797 53.8308 -3.2611 0.0000 -1.4970 0.0000
# 3 71.2259 -3.2611 154.8952 0.0000 -11.9206 0.0000
# 4 0.0000 0.0000 0.0000 15.2532 0.0000 -0.5698
# 5 2.3064 -1.4970 -11.9206 0.0000 38.5405 0.0000
# 6 0.0000 0.0000 0.0000 -0.5698 0.0000 28.5190
#
#
#
# Elastic Compliance Matrix: (Units=1/GPa)
#
#
# Indices 1 2 3 4 5 6 
#
# 1 0.007649 -0.002784 -0.003708 0.000000 -0.001713 0.000000
# 2 -0.002784 0.019642 0.001808 0.000000 0.001489 0.000000
# 3 -0.003708 0.001808 0.008422 0.000000 0.002897 0.000000
# 4 0.000000 0.000000 0.000000 0.065609 0.000000 0.001311
# 5 -0.001713 0.001489 0.002897 0.000000 0.027003 0.000000
# 6 0.000000 0.000000 0.000000 0.001311 0.000000 0.035091
#
#
# Mechanical properties :
#
#
# Convention : Reuss Voigt Hill
#
# Bulk Modulus (GPa) = 37.95663 61.35894 49.65779
# Shear Modulus (GPa) = 27.53842 36.14899 31.84370
#
# Velocity S-wave (km/s) = 3.43181 3.93189 3.69033
# Velocity P-wave (km/s) = 5.65119 6.84502 6.27656
#
# Compressibility (1/GPa) = 0.02634586
#
# Stress axis : x y z
#
# Youngs Moduli (GPa) = 130.73783 50.91094 118.73801
#
# Poissons Ratio (x) = 0.14175 0.44024
# Poissons Ratio (y) = 0.36402 -0.21473
# Poissons Ratio (z) = 0.48473 -0.09207
#
# Static dielectric constant tensor:
#      x y z
#    x 5.863740 0.000000 0.369210 
#    y 0.000000 4.016340 0.000000 
#    z 0.369210 0.000000 4.790430 
# 
# 
# High freq. dielectric constant tensor:
#      x y z
#    x 1.926810 0.000000 -0.003160 
#    y 0.000000 1.920870 0.000000 
#    z -0.003160 0.000000 1.938760 
# 
# From -- ./inp_files/230740.got.cif
#   From: 2010.06.25/outbox.cif.g09.slc.cpg/sg15_116_cif.got.tgz:230740.got - 2010.06.28 07:06:18.
