data_PCOD8141164
_publ_section_title
;
Structure prediction by ZEFSAII (Michael W. Deem and Ramdas Pophale) SiO2 
 PCOD8141164
Probable space group: C 2/C
;
_chemical_formula_sum "Si O2"
_cell_formula_units_Z 64
_cell_length_a 13.357485
_cell_length_b 17.228585
_cell_length_c 14.446008
_cell_angle_alpha 90.000000
_cell_angle_beta 124.518160
_cell_angle_gamma 90.000000
_cell_volume 2739.184179
_symmetry_space_group_name_H-M "C 2/C"
_symmetry_group_IT_number 15
_symmetry_cell_setting 'monoclinic'
loop_
_space_group_symop_operation_xyz
x,y,z
-x,y,1/2-z
-x,-y,-z
x,-y,1/2+z
1/2+x,1/2+y,z
1/2-x,1/2+y,1/2-z
1/2-x,1/2-y,-z
1/2+x,1/2-y,1/2+z
loop_
_atom_site_type_symbol
_atom_site_label
_atom_site_fract_x
_atom_site_fract_y
_atom_site_fract_z
Si Si1 0.917217 0.754694 0.329587
Si Si2 0.063913 0.405191 0.189789
Si Si3 0.739070 0.004859 0.173616
Si Si4 0.344622 0.838998 0.960004
Si Si5 0.834238 0.302459 0.604859
Si Si6 0.051188 0.076784 0.613380
Si Si7 0.236216 0.875289 0.079409
Si Si8 0.278799 0.539492 0.494176
O O1 0.861566 0.737541 0.404015
O O2 0.821100 0.731295 0.201276
O O3 0.953925 0.844116 0.329076
O O4 0.032825 0.699780 0.371488
O O5 0.116301 0.477241 0.159408
O O6 0.178969 0.351940 0.286828
O O7 0.000000 0.434349 0.250000
O O8 0.974657 0.358929 0.074416
O O9 0.856081 0.989667 0.300877
O O10 0.767801 0.952955 0.098808
O O11 0.715755 0.094533 0.135944
O O12 0.252013 0.820155 0.997333
O O13 0.750000 0.250000 0.500000
O O14 0.791545 0.390626 0.589987
O O15 0.097685 0.111340 0.538709
O O16 0.919697 0.038964 0.535330
O O17 0.285519 0.960116 0.070631
#
# Coordination Sequence:
#
# PCOD8141164 Si02
#       8
#     8   8   8   8   8   8   8   8
#     4  11  25  39  65  94 128 167 207 267 325 387
#     4   9  18  35  60  86 125 155 204 258 317 375
#     4  10  21  35  61  88 123 162 209 260 320 378
#     4  10  21  40  58  93 126 164 214 267 318 380
#     4  11  23  41  62  94 131 161 208 256 329 391
#     4  11  22  40  63  88 123 170 210 261 321 384
#     4   9  22  39  62  93 120 168 214 260 315 378
#     4  11  21  39  64  87 125 163 212 265 312 384
#
# _framework density 23.364619999999999
#
# number of rings (size 3 to 8) (size 9 to 14) (size 15 to 20)
#    0.000    1.750    1.250    2.625    5.250    3.500 
#    4.500    0.000    0.000    0.000    0.000    0.000 
#    0.000    0.000    0.000    0.000    0.000    0.000 
#
# Total GULP energy -396539.813268 kJ/mol
# GULP energy per Si atom -12391.869165 kJ/mol
# Density = 2.331144 g / cm^3
# Si number density = 23.364620 Si / 1000 Ang^3
#
#
#
# Elastic Constant Matrix: (Units=GPa)
#
#
# Indices 1 2 3 4 5 6 
#
# 1 99.9069 -18.2853 27.7506 0.0000 -15.3481 0.0000
# 2 -18.2853 77.2779 25.3317 0.0000 10.4135 0.0000
# 3 27.7506 25.3317 109.8535 0.0000 -1.9067 0.0000
# 4 0.0000 0.0000 0.0000 26.6287 0.0000 -1.2819
# 5 -15.3481 10.4135 -1.9067 0.0000 35.9595 0.0000
# 6 0.0000 0.0000 0.0000 -1.2819 0.0000 20.8092
#
#
#
# Elastic Compliance Matrix: (Units=1/GPa)
#
#
# Indices 1 2 3 4 5 6 
#
# 1 0.012382 0.003668 -0.003904 0.000000 0.004015 0.000000
# 2 0.003668 0.015759 -0.004617 0.000000 -0.003243 0.000000
# 3 -0.003904 -0.004617 0.011158 0.000000 0.000262 0.000000
# 4 0.000000 0.000000 0.000000 0.037665 0.000000 0.002320
# 5 0.004015 -0.003243 0.000262 0.000000 0.030476 0.000000
# 6 0.000000 0.000000 0.000000 0.002320 0.000000 0.048199
#
#
# Mechanical properties :
#
#
# Convention : Reuss Voigt Hill
#
# Bulk Modulus (GPa) = 33.79044 39.62580 36.70812
# Shear Modulus (GPa) = 28.53742 33.49557 31.01649
#
# Velocity S-wave (km/s) = 3.49864 3.79040 3.64744
# Velocity P-wave (km/s) = 5.55106 6.01272 5.78649
#
# Compressibility (1/GPa) = 0.02959417
#
# Stress axis : x y z
#
# Youngs Moduli (GPa) = 80.76215 63.45697 89.61809
#
# Poissons Ratio (x) = -0.23279 0.34988
# Poissons Ratio (y) = -0.29627 0.41376
# Poissons Ratio (z) = 0.31531 0.29297
#
# Static dielectric constant tensor:
#      x y z
#    x 4.509150 0.000000 -0.200040 
#    y 0.000000 4.037620 0.000000 
#    z -0.200040 0.000000 3.937810 
# 
# 
# High freq. dielectric constant tensor:
#      x y z
#    x 1.940550 0.000000 -0.012830 
#    y 0.000000 1.910000 0.000000 
#    z -0.012830 0.000000 1.923790 
# 
# From -- ./inp_files/155528.got.cif
#   From: 2010.06.25/outbox.cif.g09.slc.cpg/sg15_78_cif.got.tgz:155528.got - 2010.06.28 07:06:18.
