data_PCOD8141121
_publ_section_title
;
Structure prediction by ZEFSAII (Michael W. Deem and Ramdas Pophale) SiO2 
 PCOD8141121
Probable space group: C 2/C
;
_chemical_formula_sum "Si O2"
_cell_formula_units_Z 52
_cell_length_a 28.317878
_cell_length_b 19.586843
_cell_length_c 9.739029
_cell_angle_alpha 90.000000
_cell_angle_beta 26.994883
_cell_angle_gamma 90.000000
_cell_volume 2451.949052
_symmetry_space_group_name_H-M "C 2/C"
_symmetry_group_IT_number 15
_symmetry_cell_setting 'monoclinic'
loop_
_space_group_symop_operation_xyz
x,y,z
-x,y,1/2-z
-x,-y,-z
x,-y,1/2+z
1/2+x,1/2+y,z
1/2-x,1/2+y,1/2-z
1/2-x,1/2-y,-z
1/2+x,1/2-y,1/2+z
loop_
_atom_site_type_symbol
_atom_site_label
_atom_site_fract_x
_atom_site_fract_y
_atom_site_fract_z
Si Si1 0.000000 0.713036 0.250000
Si Si2 0.974430 0.797975 0.055513
Si Si3 0.727265 0.661630 0.587845
Si Si4 0.153724 0.277769 0.942760
Si Si5 0.111150 0.960726 0.486958
Si Si6 0.795808 0.324331 0.405695
Si Si7 0.122113 0.079159 0.252561
O O1 0.047987 0.759817 0.244656
O O2 0.908886 0.665850 0.545595
O O3 0.039798 0.749812 0.780670
O O4 0.033107 0.867304 0.945589
O O5 0.865006 0.813255 0.271914
O O6 0.835952 0.675703 0.224090
O O7 0.722695 0.708467 0.737462
O O8 0.708026 0.582755 0.675181
O O9 0.197472 0.328220 0.946755
O O10 0.133894 0.970759 0.589913
O O11 0.000000 0.921227 0.750000
O O12 0.096763 0.033174 0.450062
O O13 0.750000 0.250000 0.500000
O O14 0.727926 0.382876 0.514691
#
# Coordination Sequence:
#
# PCOD8141121 Si02
#       7
#     4   8   8   8   8   8   8
#     4  10  22  34  66  92 120 158 196 262 318 360
#     4  11  21  36  57  92 123 157 197 253 303 373
#     4  11  21  37  59  85 129 157 200 248 317 358
#     4  10  21  35  58  88 117 157 197 256 302 366
#     4  12  25  41  57  90 125 173 207 246 305 377
#     4  11  20  40  61  92 121 153 211 253 316 363
#     4  12  26  39  60  87 130 163 208 251 300 376
#
# _framework density 21.207619000000001
#
# number of rings (size 3 to 8) (size 9 to 14) (size 15 to 20)
#    0.000    0.923    6.154    1.846    3.231    0.000 
#    0.000    0.000    0.000    0.923    8.000    0.000 
#    0.000    0.000    0.000    0.000    0.000    0.000 
#
# Total GULP energy -322158.789417 kJ/mol
# GULP energy per Si atom -12390.722670 kJ/mol
# Density = 2.115935 g / cm^3
# Si number density = 21.207619 Si / 1000 Ang^3
#
#
#
# Elastic Constant Matrix: (Units=GPa)
#
#
# Indices 1 2 3 4 5 6 
#
# 1 97.3978 31.4811 30.3015 0.0000 17.8103 0.0000
# 2 31.4811 75.2414 32.1126 0.0000 2.9359 0.0000
# 3 30.3015 32.1126 100.5432 0.0000 21.2826 0.0000
# 4 0.0000 0.0000 0.0000 21.7764 0.0000 9.8867
# 5 17.8103 2.9359 21.2826 0.0000 31.0474 0.0000
# 6 0.0000 0.0000 0.0000 9.8867 0.0000 34.1763
#
#
#
# Elastic Compliance Matrix: (Units=1/GPa)
#
#
# Indices 1 2 3 4 5 6 
#
# 1 0.013364 -0.004867 -0.001109 0.000000 -0.006446 0.000000
# 2 -0.004867 0.017295 -0.005032 0.000000 0.004606 0.000000
# 3 -0.001109 -0.005032 0.013630 0.000000 -0.008231 0.000000
# 4 0.000000 0.000000 0.000000 0.052864 0.000000 -0.015293
# 5 -0.006446 0.004606 -0.008231 0.000000 0.041113 0.000000
# 6 0.000000 0.000000 0.000000 -0.015293 0.000000 0.033684
#
#
# Mechanical properties :
#
#
# Convention : Reuss Voigt Hill
#
# Bulk Modulus (GPa) = 44.89681 51.21919 48.05800
# Shear Modulus (GPa) = 24.82754 29.35250 27.09002
#
# Velocity S-wave (km/s) = 3.42525 3.72432 3.57791
# Velocity P-wave (km/s) = 6.07118 6.53436 6.30702
#
# Compressibility (1/GPa) = 0.02227330
#
# Stress axis : x y z
#
# Youngs Moduli (GPa) = 74.82873 57.82113 73.36959
#
# Poissons Ratio (x) = 0.28140 0.08135
# Poissons Ratio (y) = 0.36417 0.36920
# Poissons Ratio (z) = 0.08296 0.29096
#
# Static dielectric constant tensor:
#      x y z
#    x 3.745600 0.000000 0.589820 
#    y 0.000000 2.074820 0.000000 
#    z 0.589820 0.000000 3.932610 
# 
# 
# High freq. dielectric constant tensor:
#      x y z
#    x 1.836510 0.000000 0.028090 
#    y 0.000000 1.789560 0.000000 
#    z 0.028090 0.000000 1.839710 
# 
# From -- ./inp_files/70799.got.cif
#   From: 2010.06.25/outbox.cif.g09.slc.cpg/sg15_36_cif.got.tgz:70799.got - 2010.06.28 07:06:18.
