data_PCOD8141451
_publ_section_title
;
Structure prediction by ZEFSAII (Michael W. Deem and Ramdas Pophale) SiO2 
 PCOD8141451
Probable space group: C 2/C
;
_chemical_formula_sum "Si O2"
_cell_formula_units_Z 40
_cell_length_a 10.935498
_cell_length_b 15.826465
_cell_length_c 13.586755
_cell_angle_alpha 90.000000
_cell_angle_beta 113.396593
_cell_angle_gamma 90.000000
_cell_volume 2158.121979
_symmetry_space_group_name_H-M "C 2/C"
_symmetry_group_IT_number 15
_symmetry_cell_setting 'monoclinic'
loop_
_space_group_symop_operation_xyz
x,y,z
-x,y,1/2-z
-x,-y,-z
x,-y,1/2+z
1/2+x,1/2+y,z
1/2-x,1/2+y,1/2-z
1/2-x,1/2-y,-z
1/2+x,1/2-y,1/2+z
loop_
_atom_site_type_symbol
_atom_site_label
_atom_site_fract_x
_atom_site_fract_y
_atom_site_fract_z
Si Si1 0.849266 0.189947 0.588580
Si Si2 0.678471 0.040768 0.494424
Si Si3 0.092803 0.618334 0.060121
Si Si4 0.350262 0.278956 0.318127
Si Si5 0.131952 0.610517 0.856330
O O1 0.750000 0.250000 0.500000
O O2 0.813716 0.092071 0.555388
O O3 0.832465 0.212070 0.697089
O O4 0.000025 0.199298 0.599711
O O5 0.559022 0.109231 0.451375
O O6 0.657836 0.976105 0.580579
O O7 0.681466 0.985947 0.394243
O O8 0.174207 0.681325 0.157509
O O9 0.096548 0.655201 0.949398
O O10 0.248486 0.340007 0.339727
O O11 0.000000 0.608764 0.750000
#
# Coordination Sequence:
#
# PCOD8141451 Si02
#       5
#     8   8   8   8   8
#     4  11  23  41  59  89 127 163 207 255 305 369
#     4   9  20  38  63  85 125 154 201 249 298 370
#     4   9  19  39  61  90 122 150 206 247 306 369
#     4  11  23  38  65  89 120 167 204 253 314 364
#     4  10  21  36  66  91 123 156 207 254 310 360
#
# _framework density 18.534634
#
# number of rings (size 3 to 8) (size 9 to 14) (size 15 to 20)
#    1.200    0.800    2.000    1.800    0.000    2.400 
#    0.000    0.000    4.400    0.000    0.000    0.000 
#    0.000    0.000    0.000    0.000    0.000    0.000 
#
# Total GULP energy -247857.969544 kJ/mol
# GULP energy per Si atom -12392.898477 kJ/mol
# Density = 1.849245 g / cm^3
# Si number density = 18.534634 Si / 1000 Ang^3
#
#
#
# Elastic Constant Matrix: (Units=GPa)
#
#
# Indices 1 2 3 4 5 6 
#
# 1 90.2989 56.8563 46.1036 0.0000 10.5019 0.0000
# 2 56.8563 105.8996 65.3150 0.0000 10.5507 0.0000
# 3 46.1036 65.3150 89.1641 0.0000 11.9904 0.0000
# 4 0.0000 0.0000 0.0000 31.4715 0.0000 -0.5343
# 5 10.5019 10.5507 11.9904 0.0000 26.1552 0.0000
# 6 0.0000 0.0000 0.0000 -0.5343 0.0000 26.5603
#
#
#
# Elastic Compliance Matrix: (Units=1/GPa)
#
#
# Indices 1 2 3 4 5 6 
#
# 1 0.017620 -0.006928 -0.003688 0.000000 -0.002590 0.000000
# 2 -0.006928 0.019987 -0.011028 0.000000 -0.000225 0.000000
# 3 -0.003688 -0.011028 0.021744 0.000000 -0.004039 0.000000
# 4 0.000000 0.000000 0.000000 0.031786 0.000000 0.000639
# 5 -0.002590 -0.000225 -0.004039 0.000000 0.041215 0.000000
# 6 0.000000 0.000000 0.000000 0.000639 0.000000 0.037663
#
#
# Mechanical properties :
#
#
# Convention : Reuss Voigt Hill
#
# Bulk Modulus (GPa) = 62.25526 69.10137 65.67831
# Shear Modulus (GPa) = 22.86684 24.64325 23.75505
#
# Velocity S-wave (km/s) = 3.51627 3.65029 3.58391
# Velocity P-wave (km/s) = 7.08146 7.42492 7.25522
#
# Compressibility (1/GPa) = 0.01606290
#
# Stress axis : x y z
#
# Youngs Moduli (GPa) = 56.75240 50.03359 45.98979
#
# Poissons Ratio (x) = 0.34661 0.16961
# Poissons Ratio (y) = 0.39315 0.50720
# Poissons Ratio (z) = 0.20930 0.55179
#
# Static dielectric constant tensor:
#      x y z
#    x 3.721070 0.000000 0.270380 
#    y 0.000000 3.417300 0.000000 
#    z 0.270380 0.000000 3.514510 
# 
# 
# High freq. dielectric constant tensor:
#      x y z
#    x 1.712210 0.000000 -0.006100 
#    y 0.000000 1.721170 0.000000 
#    z -0.006100 0.000000 1.707640 
# 
# From -- ./inp_files/144805.got.cif
#   From: 2010.06.25/outbox.cif.g09.slc.cpg/sg15_73_cif.got.tgz:144805.got - 2010.06.28 07:06:18.
