data_PCOD8141804
_publ_section_title
;
Structure prediction by ZEFSAII (Michael W. Deem and Ramdas Pophale) SiO2 
 PCOD8141804
Probable space group: C 2/C
;
_chemical_formula_sum "Si O2"
_cell_formula_units_Z 48
_cell_length_a 20.444261
_cell_length_b 16.251227
_cell_length_c 9.704422
_cell_angle_alpha 90.000000
_cell_angle_beta 135.489320
_cell_angle_gamma 90.000000
_cell_volume 2260.327716
_symmetry_space_group_name_H-M "C 2/C"
_symmetry_group_IT_number 15
_symmetry_cell_setting 'monoclinic'
loop_
_space_group_symop_operation_xyz
x,y,z
-x,y,1/2-z
-x,-y,-z
x,-y,1/2+z
1/2+x,1/2+y,z
1/2-x,1/2+y,1/2-z
1/2-x,1/2-y,-z
1/2+x,1/2-y,1/2+z
loop_
_atom_site_type_symbol
_atom_site_label
_atom_site_fract_x
_atom_site_fract_y
_atom_site_fract_z
Si Si1 0.909151 0.199259 0.520495
Si Si2 0.439069 0.034978 0.533692
Si Si3 0.836620 0.630958 0.937693
Si Si4 0.689395 0.538018 0.579557
Si Si5 0.087757 0.054803 0.160422
Si Si6 0.279558 0.118170 0.149061
O O1 0.901292 0.296230 0.473620
O O2 0.927911 0.148892 0.409048
O O3 0.809713 0.169752 0.432998
O O4 0.000000 0.181329 0.750000
O O5 0.500000 0.072276 0.750000
O O6 0.386777 0.956276 0.518440
O O7 0.500000 0.000000 0.500000
O O8 0.369115 0.110061 0.386240
O O9 0.744059 0.621193 0.703477
O O10 0.810686 0.659205 0.052990
O O11 0.604728 0.559741 0.350230
O O12 0.666691 0.487959 0.685042
O O13 0.752480 0.477183 0.581570
O O14 0.000000 0.000000 0.000000
#
# Coordination Sequence:
#
# PCOD8141804 Si02
#       6
#     8   8   8   8   8   8
#     4  11  25  40  64  95 133 174 218 269 333 391
#     4  11  22  39  67  98 127 166 220 269 325 395
#     4  11  22  40  65  94 131 169 213 272 330 389
#     4  10  21  37  65  92 123 165 219 260 323 381
#     4  11  21  40  63  95 125 169 220 267 313 394
#     4  10  21  40  65  95 128 169 220 265 327 393
#
# _framework density 21.235859999999999
#
# number of rings (size 3 to 8) (size 9 to 14) (size 15 to 20)
#    0.000    1.333    3.333    3.500    0.000    0.667 
#    0.000    0.000    0.000    0.000    0.000    0.000 
#    0.000    0.000    0.000    0.000    0.000    0.000 
#
# Total GULP energy -297375.574589 kJ/mol
# GULP energy per Si atom -12390.648941 kJ/mol
# Density = 2.118753 g / cm^3
# Si number density = 21.235860 Si / 1000 Ang^3
#
#
#
# Elastic Constant Matrix: (Units=GPa)
#
#
# Indices 1 2 3 4 5 6 
#
# 1 59.7065 5.0236 26.1496 0.0000 9.9884 0.0000
# 2 5.0236 81.8621 35.2758 0.0000 3.4562 0.0000
# 3 26.1496 35.2758 177.3623 0.0000 10.1692 0.0000
# 4 0.0000 0.0000 0.0000 29.5058 0.0000 7.5827
# 5 9.9884 3.4562 10.1692 0.0000 33.4605 0.0000
# 6 0.0000 0.0000 0.0000 7.5827 0.0000 30.0188
#
#
#
# Elastic Compliance Matrix: (Units=1/GPa)
#
#
# Indices 1 2 3 4 5 6 
#
# 1 0.018638 0.000136 -0.002499 0.000000 -0.004818 0.000000
# 2 0.000136 0.013373 -0.002644 0.000000 -0.000618 0.000000
# 3 -0.002499 -0.002644 0.006589 0.000000 -0.000983 0.000000
# 4 0.000000 0.000000 0.000000 0.036244 0.000000 -0.009155
# 5 -0.004818 -0.000618 -0.000983 0.000000 0.031687 0.000000
# 6 0.000000 0.000000 0.000000 -0.009155 0.000000 0.035625
#
#
# Mechanical properties :
#
#
# Convention : Reuss Voigt Hill
#
# Bulk Modulus (GPa) = 34.98221 50.20321 42.59271
# Shear Modulus (GPa) = 30.92183 35.42914 33.17548
#
# Velocity S-wave (km/s) = 3.82005 4.08899 3.95680
# Velocity P-wave (km/s) = 5.99716 6.78124 6.40122
#
# Compressibility (1/GPa) = 0.02858596
#
# Stress axis : x y z
#
# Youngs Moduli (GPa) = 53.65521 74.77800 151.77005
#
# Poissons Ratio (x) = -0.01020 0.37923
# Poissons Ratio (y) = -0.00732 0.40134
# Poissons Ratio (z) = 0.13407 0.19774
#
# Static dielectric constant tensor:
#      x y z
#    x -7.399510 0.000000 2.990150 
#    y 0.000000 3.680440 0.000000 
#    z 2.990150 0.000000 3.385110 
# 
# 
# High freq. dielectric constant tensor:
#      x y z
#    x 1.830810 0.000000 0.010880 
#    y 0.000000 1.808400 0.000000 
#    z 0.010880 0.000000 1.842190 
# 
# From -- ./inp_files/56773.got.cif
#   From: 2010.06.25/outbox.cif.g09.slc.cpg/sg15_29_cif.got.tgz:56773.got - 2010.06.28 07:06:18.
