data_PCOD8141643
_publ_section_title
;
Structure prediction by ZEFSAII (Michael W. Deem and Ramdas Pophale) SiO2 
 PCOD8141643
Probable space group: C 2/C
;
_chemical_formula_sum "Si O2"
_cell_formula_units_Z 32
_cell_length_a 14.285184
_cell_length_b 15.636843
_cell_length_c 19.363108
_cell_angle_alpha 90.000000
_cell_angle_beta 23.247103
_cell_angle_gamma 90.000000
_cell_volume 1707.160083
_symmetry_space_group_name_H-M "C 2/C"
_symmetry_group_IT_number 15
_symmetry_cell_setting 'monoclinic'
loop_
_space_group_symop_operation_xyz
x,y,z
-x,y,1/2-z
-x,-y,-z
x,-y,1/2+z
1/2+x,1/2+y,z
1/2-x,1/2+y,1/2-z
1/2-x,1/2-y,-z
1/2+x,1/2-y,1/2+z
loop_
_atom_site_type_symbol
_atom_site_label
_atom_site_fract_x
_atom_site_fract_y
_atom_site_fract_z
Si Si1 0.500000 0.500794 0.750000
Si Si2 0.874648 0.638565 0.472928
Si Si3 0.748454 0.711453 0.925606
Si Si4 0.697007 0.363797 0.719468
Si Si5 0.500000 0.779445 0.750000
O O1 0.698780 0.559443 0.579616
O O2 0.621592 0.444743 0.726188
O O3 0.735235 0.721746 0.594560
O O4 0.002184 0.659673 0.314806
O O5 0.068094 0.612055 0.398303
O O6 0.745319 0.783940 0.869123
O O7 0.000000 0.659471 0.750000
O O8 0.750000 0.750000 0.000000
O O9 0.512136 0.654052 0.082301
#
# Coordination Sequence:
#
# PCOD8141643 Si02
#       5
#     4   8   8   8   4
#     4  11  22  36  52  83 124 142 174 233 272 336
#     4  10  21  37  61  80 107 150 183 229 280 318
#     4   9  17  32  54  80 108 140 177 229 263 309
#     4  11  19  36  58  84 111 148 185 220 280 329
#     4   9  20  42  58  81 108 136 200 237 254 330
#
# _framework density 18.744581
#
# number of rings (size 3 to 8) (size 9 to 14) (size 15 to 20)
#    0.000    2.000    3.750    2.250    0.000    0.000 
#    2.250    1.250    0.000    0.000    0.000    0.000 
#    0.000    0.000    0.000    0.000    0.000    0.000 
#
# Total GULP energy -198315.568399 kJ/mol
# GULP energy per Si atom -12394.723025 kJ/mol
# Density = 1.870192 g / cm^3
# Si number density = 18.744581 Si / 1000 Ang^3
#
#
#
# Elastic Constant Matrix: (Units=GPa)
#
#
# Indices 1 2 3 4 5 6 
#
# 1 119.3318 46.1839 53.5025 0.0631 -11.2139 0.0842
# 2 46.1839 85.7667 32.8572 0.1394 3.2766 0.0971
# 3 53.5025 32.8572 105.1537 -0.0708 6.0215 0.1489
# 4 0.0631 0.1394 -0.0708 18.7511 0.0377 -6.4018
# 5 -11.2139 3.2766 6.0215 0.0377 36.6956 -0.0431
# 6 0.0842 0.0971 0.1489 -6.4018 -0.0431 8.9779
#
#
#
# Elastic Compliance Matrix: (Units=1/GPa)
#
#
# Indices 1 2 3 4 5 6 
#
# 1 0.013412 -0.005335 -0.005470 -0.000027 0.005473 0.000030
# 2 -0.005335 0.015378 -0.001936 -0.000174 -0.002686 -0.000221
# 3 -0.005470 -0.001936 0.013107 0.000045 -0.003650 -0.000130
# 4 -0.000027 -0.000174 0.000045 0.070494 -0.000013 0.050268
# 5 0.005473 -0.002686 -0.003650 -0.000013 0.029763 0.000172
# 6 0.000030 -0.000221 -0.000130 0.050268 0.000172 0.147233
#
#
# Mechanical properties :
#
#
# Convention : Reuss Voigt Hill
#
# Bulk Modulus (GPa) = 60.92824 63.92662 62.42743
# Shear Modulus (GPa) = 15.60837 24.73215 20.17026
#
# Velocity S-wave (km/s) = 2.88876 3.63634 3.28389
# Velocity P-wave (km/s) = 6.61072 7.19782 6.91051
#
# Compressibility (1/GPa) = 0.01641275
#
# Stress axis : x y z
#
# Youngs Moduli (GPa) = 74.56132 65.02997 76.29268
#
# Poissons Ratio (x) = 0.34696 0.41734
# Poissons Ratio (y) = 0.39782 0.14773
# Poissons Ratio (z) = 0.40787 0.12592
#
# Static dielectric constant tensor:
#      x y z
#    x 3.342830 -0.000100 0.044510 
#    y -0.000100 3.202760 0.001240 
#    z 0.044510 0.001240 4.388670 
# 
# 
# High freq. dielectric constant tensor:
#      x y z
#    x 1.724140 0.000000 -0.003770 
#    y 0.000000 1.700860 0.000020 
#    z -0.003770 0.000020 1.751420 
# 
# From -- ./inp_files/27941.got.cif
#   From: 2010.06.25/outbox.cif.g09.slc.cpg/sg15_14_cif.got.tgz:27941.got - 2010.06.28 07:06:18.
