data_PCOD8141734
_publ_section_title
;
Structure prediction by ZEFSAII (Michael W. Deem and Ramdas Pophale) SiO2 
 PCOD8141734
Probable space group: C 2/C
;
_chemical_formula_sum "Si O2"
_cell_formula_units_Z 56
_cell_length_a 19.477903
_cell_length_b 12.063703
_cell_length_c 11.577748
_cell_angle_alpha 90.000000
_cell_angle_beta 86.843834
_cell_angle_gamma 90.000000
_cell_volume 2716.362213
_symmetry_space_group_name_H-M "C 2/C"
_symmetry_group_IT_number 15
_symmetry_cell_setting 'monoclinic'
loop_
_space_group_symop_operation_xyz
x,y,z
-x,y,1/2-z
-x,-y,-z
x,-y,1/2+z
1/2+x,1/2+y,z
1/2-x,1/2+y,1/2-z
1/2-x,1/2-y,-z
1/2+x,1/2-y,1/2+z
loop_
_atom_site_type_symbol
_atom_site_label
_atom_site_fract_x
_atom_site_fract_y
_atom_site_fract_z
Si Si1 0.500000 0.161516 0.750000
Si Si2 0.111277 0.910338 0.090319
Si Si3 0.500000 0.489469 0.250000
Si Si4 0.420739 0.211205 0.276361
Si Si5 0.433615 0.001718 0.924555
Si Si6 0.658477 0.838206 0.943677
Si Si7 0.317140 0.355373 0.884330
Si Si8 0.097592 0.834384 0.837317
O O1 0.445709 0.085471 0.818844
O O2 0.541753 0.235885 0.838424
O O3 0.129458 0.812804 0.180447
O O4 0.157728 0.019587 0.093061
O O5 0.121274 0.855156 0.964622
O O6 0.030702 0.929020 0.132709
O O7 0.435460 0.554618 0.207937
O O8 0.500000 0.248877 0.250000
O O9 0.392568 0.169428 0.158393
O O10 0.417282 0.118572 0.376030
O O11 0.365281 0.048669 0.991879
O O12 0.500000 0.000000 0.000000
O O13 0.735580 0.854873 0.894832
O O14 0.650871 0.728518 0.023994
O O15 0.338621 0.311734 0.755014
#
# Coordination Sequence:
#
# PCOD8141734 Si02
#       8
#     4   8   4   8   8   8   8   8
#     4  11  20  35  60  98 130 173 219 272 328 390
#     4  11  23  39  66 101 135 169 218 274 342 408
#     4   9  20  33  58  98 134 173 199 264 342 390
#     4  12  25  41  68 106 135 171 219 290 343 395
#     4  12  22  42  66  96 132 178 226 273 336 392
#     4  11  25  48  69  93 138 180 236 274 337 411
#     4  10  25  46  68  95 130 192 219 277 342 407
#     4  10  21  37  62  98 133 169 224 270 333 402
#
# _framework density 20.615805999999999
#
# number of rings (size 3 to 8) (size 9 to 14) (size 15 to 20)
#    0.000    1.143    4.286    1.286    4.000    1.143 
#    2.571    1.429    0.000    0.000    0.000    0.000 
#    0.000    0.000    0.000    0.000    0.000    0.000 
#
# Total GULP energy -346999.943655 kJ/mol
# GULP energy per Si atom -12392.855131 kJ/mol
# Density = 2.056888 g / cm^3
# Si number density = 20.615806 Si / 1000 Ang^3
#
#
#
# Elastic Constant Matrix: (Units=GPa)
#
#
# Indices 1 2 3 4 5 6 
#
# 1 83.3581 26.0676 35.4938 0.0000 -14.1126 0.0000
# 2 26.0676 117.9696 30.3995 0.0000 -10.3454 0.0000
# 3 35.4938 30.3995 112.2578 0.0000 -13.9271 0.0000
# 4 0.0000 0.0000 0.0000 -8.9499 0.0000 -28.4242
# 5 -14.1126 -10.3454 -13.9271 0.0000 33.9281 0.0000
# 6 0.0000 0.0000 0.0000 -28.4242 0.0000 18.2787
#
#
#
# Elastic Compliance Matrix: (Units=1/GPa)
#
#
# Indices 1 2 3 4 5 6 
#
# 1 0.014864 -0.001985 -0.003657 0.000000 0.004077 0.000000
# 2 -0.001985 0.009491 -0.001776 0.000000 0.001339 0.000000
# 3 -0.003657 -0.001776 0.010841 0.000000 0.002388 0.000000
# 4 0.000000 0.000000 0.000000 -0.018814 0.000000 -0.029257
# 5 0.004077 0.001339 0.002388 0.000000 0.032558 0.000000
# 6 0.000000 0.000000 0.000000 -0.029257 0.000000 0.009212
#
#
# Mechanical properties :
#
#
# Convention : Reuss Voigt Hill
#
# Bulk Modulus (GPa) = 49.11381 55.27857 52.19619
# Shear Modulus (GPa) = 62.67661 23.42635 43.05148
#
# Velocity S-wave (km/s) = 5.51980 3.37461 4.57472
# Velocity P-wave (km/s) = 8.03115 6.48505 7.29915
#
# Compressibility (1/GPa) = 0.02036087
#
# Stress axis : x y z
#
# Youngs Moduli (GPa) = 67.27554 105.36835 92.23847
#
# Poissons Ratio (x) = 0.20913 0.33727
# Poissons Ratio (y) = 0.13353 0.16385
# Poissons Ratio (z) = 0.24600 0.18717
#
# Static dielectric constant tensor:
#      x y z
#    x 3.516840 0.000000 -0.319140 
#    y 0.000000 3.976540 0.000000 
#    z -0.319140 0.000000 4.025350 
# 
# 
# High freq. dielectric constant tensor:
#      x y z
#    x 1.776930 0.000000 -0.018480 
#    y 0.000000 1.823410 0.000000 
#    z -0.018480 0.000000 1.820510 
# 
# From -- ./inp_files/111032.got.cif
#   From: 2010.06.25/outbox.cif.g09.slc.cpg/sg15_56_cif.got.tgz:111032.got - 2010.06.28 07:06:18.
