data_PCOD8141123
_publ_section_title
;
Structure prediction by ZEFSAII (Michael W. Deem and Ramdas Pophale) SiO2 
 PCOD8141123
Probable space group: C 2/C
;
_chemical_formula_sum "Si O2"
_cell_formula_units_Z 28
_cell_length_a 7.381333
_cell_length_b 34.408750
_cell_length_c 5.131271
_cell_angle_alpha 90.000000
_cell_angle_beta 70.004184
_cell_angle_gamma 90.000000
_cell_volume 1224.689528
_symmetry_space_group_name_H-M "C 2/C"
_symmetry_group_IT_number 15
_symmetry_cell_setting 'monoclinic'
loop_
_space_group_symop_operation_xyz
x,y,z
-x,y,1/2-z
-x,-y,-z
x,-y,1/2+z
1/2+x,1/2+y,z
1/2-x,1/2+y,1/2-z
1/2-x,1/2-y,-z
1/2+x,1/2-y,1/2+z
loop_
_atom_site_type_symbol
_atom_site_label
_atom_site_fract_x
_atom_site_fract_y
_atom_site_fract_z
Si Si1 0.500000 0.473310 0.750000
Si Si2 0.229857 0.164366 0.112043
Si Si3 0.625053 0.920947 0.948981
Si Si4 0.778041 0.206466 0.888482
O O1 0.500000 0.500000 0.500000
O O2 0.312177 0.446930 0.824024
O O3 0.309485 0.122209 0.006711
O O4 0.315842 0.178966 0.344862
O O5 0.000000 0.163571 0.250000
O O6 0.308074 0.194763 0.851772
O O7 0.500000 0.922154 0.750000
O O8 0.500000 0.937615 0.250000
O O9 0.000000 0.196733 0.750000
O O10 0.750000 0.250000 0.000000
#
# Coordination Sequence:
#
# PCOD8141123 Si02
#       4
#     4   8   8   8
#     4  12  28  50  76 106 150 186 220 296 358 412
#     4  10  21  41  62  88 131 179 226 283 343 406
#     4  12  26  45  74 108 138 184 242 282 346 427
#     4  10  21  35  58  88 127 177 226 281 346 405
#
# _framework density 22.862936000000001
#
# number of rings (size 3 to 8) (size 9 to 14) (size 15 to 20)
#    0.000    1.143    1.429    4.286    0.000    6.857 
#    0.000    0.000    0.000    0.000    0.000    0.000 
#    0.000    0.000    0.000    0.000    0.000    0.000 
#
# Total GULP energy -173570.212835 kJ/mol
# GULP energy per Si atom -12397.872345 kJ/mol
# Density = 2.281090 g / cm^3
# Si number density = 22.862936 Si / 1000 Ang^3
#
#
#
# Elastic Constant Matrix: (Units=GPa)
#
#
# Indices 1 2 3 4 5 6 
#
# 1 89.7428 50.1282 70.1663 0.0000 -5.1255 0.0000
# 2 50.1282 144.2737 73.1503 0.0000 -7.6943 0.0000
# 3 70.1663 73.1503 197.6946 0.0000 26.2008 0.0000
# 4 0.0000 0.0000 0.0000 24.8953 0.0000 0.5603
# 5 -5.1255 -7.6943 26.2008 0.0000 33.4657 0.0000
# 6 0.0000 0.0000 0.0000 0.5603 0.0000 8.5186
#
#
#
# Elastic Compliance Matrix: (Units=1/GPa)
#
#
# Indices 1 2 3 4 5 6 
#
# 1 0.017995 -0.002655 -0.006348 0.000000 0.007115 0.000000
# 2 -0.002655 0.009726 -0.003235 0.000000 0.004362 0.000000
# 3 -0.006348 -0.003235 0.009747 0.000000 -0.009347 0.000000
# 4 0.000000 0.000000 0.000000 0.040228 0.000000 -0.002646
# 5 0.007115 0.004362 -0.009347 0.000000 0.039292 0.000000
# 6 0.000000 0.000000 0.000000 -0.002646 0.000000 0.117564
#
#
# Mechanical properties :
#
#
# Convention : Reuss Voigt Hill
#
# Bulk Modulus (GPa) = 76.95718 90.95564 83.95641
# Shear Modulus (GPa) = 18.98559 29.26036 24.12297
#
# Velocity S-wave (km/s) = 2.88481 3.58133 3.25177
# Velocity P-wave (km/s) = 6.69548 7.54789 7.13443
#
# Compressibility (1/GPa) = 0.01299424
#
# Stress axis : x y z
#
# Youngs Moduli (GPa) = 55.57073 102.81245 102.59550
#
# Poissons Ratio (x) = 0.27292 0.65124
# Poissons Ratio (y) = 0.14751 0.33189
# Poissons Ratio (z) = 0.35274 0.33259
#
# Static dielectric constant tensor:
#      x y z
#    x 4.267750 0.000000 0.081360 
#    y 0.000000 4.045970 0.000000 
#    z 0.081360 0.000000 4.816810 
# 
# 
# High freq. dielectric constant tensor:
#      x y z
#    x 1.914760 0.000000 -0.005400 
#    y 0.000000 1.897240 0.000000 
#    z -0.005400 0.000000 1.933040 
# 
# From -- ./inp_files/2519.got.cif
#   From: 2010.06.25/outbox.cif.g09.slc.cpg/sg15_2_cif.got.tgz:2519.got - 2010.06.28 07:06:18.
