data_PCOD8141998
_publ_section_title
;
Structure prediction by ZEFSAII (Michael W. Deem and Ramdas Pophale) SiO2 
 PCOD8141998
Probable space group: C 2/C
;
_chemical_formula_sum "Si O2"
_cell_formula_units_Z 60
_cell_length_a 20.972027
_cell_length_b 6.631613
_cell_length_c 23.798617
_cell_angle_alpha 90.000000
_cell_angle_beta 71.245962
_cell_angle_gamma 90.000000
_cell_volume 3134.143277
_symmetry_space_group_name_H-M "C 2/C"
_symmetry_group_IT_number 15
_symmetry_cell_setting 'monoclinic'
loop_
_space_group_symop_operation_xyz
x,y,z
-x,y,1/2-z
-x,-y,-z
x,-y,1/2+z
1/2+x,1/2+y,z
1/2-x,1/2+y,1/2-z
1/2-x,1/2-y,-z
1/2+x,1/2-y,1/2+z
loop_
_atom_site_type_symbol
_atom_site_label
_atom_site_fract_x
_atom_site_fract_y
_atom_site_fract_z
Si Si1 0.939453 0.131862 0.946933
Si Si2 0.819059 0.991645 0.191114
Si Si3 0.594580 0.355390 0.640445
Si Si4 0.095605 0.365775 0.791974
Si Si5 0.000000 0.084721 0.750000
Si Si6 0.181313 0.308995 0.208610
Si Si7 0.510006 0.955414 0.097863
Si Si8 0.932126 0.895008 0.573857
O O1 0.941078 0.373068 0.940908
O O2 0.893712 0.023336 0.911935
O O3 0.908864 0.069266 0.016170
O O4 0.017895 0.069194 0.918562
O O5 0.844359 0.771466 0.201821
O O6 0.747782 0.945251 0.182008
O O7 0.809161 0.135087 0.247553
O O8 0.867525 0.105250 0.132798
O O9 0.545842 0.441569 0.700824
O O10 0.663421 0.292300 0.653166
O O11 0.559209 0.159298 0.626038
O O12 0.121754 0.540516 0.743461
O O13 0.056846 0.465923 0.853862
O O14 0.044256 0.223182 0.775813
O O15 0.478230 0.807338 0.060135
#
# Coordination Sequence:
#
# PCOD8141998 Si02
#       8
#     8   8   8   8   4   8   8   8
#     4  10  21  38  60  90 121 155 194 259 304 348
#     4  12  23  41  59  85 119 163 202 244 292 356
#     4  11  23  36  56  89 124 153 199 244 304 361
#     4  12  21  35  59  87 119 152 192 242 309 354
#     4  12  20  36  58  86 126 152 178 260 310 360
#     4  12  25  39  58  86 122 161 204 242 293 367
#     4  11  19  36  61  90 117 154 192 248 310 353
#     4  10  21  38  61  88 121 153 206 247 298 362
#
# _framework density 19.143986999999999
#
# number of rings (size 3 to 8) (size 9 to 14) (size 15 to 20)
#    0.000    0.800    6.667    2.800    0.000    0.000 
#    0.000    0.667    0.000    0.800    0.000    0.000 
#    0.000    0.000    0.000    0.000    0.000    0.000 
#
# Total GULP energy -371939.741063 kJ/mol
# GULP energy per Si atom -12397.991369 kJ/mol
# Density = 1.910041 g / cm^3
# Si number density = 19.143987 Si / 1000 Ang^3
#
#
#
# Elastic Constant Matrix: (Units=GPa)
#
#
# Indices 1 2 3 4 5 6 
#
# 1 92.1354 32.6382 39.8179 0.0010 18.7105 0.0023
# 2 32.6382 101.4729 28.7252 0.0037 14.9376 0.0063
# 3 39.8179 28.7252 95.5965 0.0007 21.9640 0.0006
# 4 0.0010 0.0037 0.0007 26.2645 0.0005 3.5109
# 5 18.7105 14.9376 21.9640 0.0005 26.4196 0.0021
# 6 0.0023 0.0063 0.0006 3.5109 0.0021 37.3427
#
#
#
# Elastic Compliance Matrix: (Units=1/GPa)
#
#
# Indices 1 2 3 4 5 6 
#
# 1 0.014691 -0.002778 -0.004023 0.000000 -0.005489 0.000000
# 2 -0.002778 0.011688 -0.001593 -0.000001 -0.003316 -0.000001
# 3 -0.004023 -0.001593 0.014529 0.000000 -0.008329 0.000001
# 4 0.000000 -0.000001 0.000000 0.038559 0.000000 -0.003625
# 5 -0.005489 -0.003316 -0.008329 0.000000 0.050537 -0.000002
# 6 0.000000 -0.000001 0.000001 -0.003625 -0.000002 0.027120
#
#
# Mechanical properties :
#
#
# Convention : Reuss Voigt Hill
#
# Bulk Modulus (GPa) = 41.46193 54.61860 48.04027
# Shear Modulus (GPa) = 27.47995 30.54028 29.01011
#
# Velocity S-wave (km/s) = 3.79282 3.99845 3.89699
# Velocity P-wave (km/s) = 6.39419 7.06464 6.73776
#
# Compressibility (1/GPa) = 0.02411851
#
# Stress axis : x y z
#
# Youngs Moduli (GPa) = 68.06816 85.56099 68.83019
#
# Poissons Ratio (x) = 0.23773 0.27692
# Poissons Ratio (y) = 0.18912 0.10962
# Poissons Ratio (z) = 0.27385 0.13627
#
# Static dielectric constant tensor:
#      x y z
#    x 3.337490 -0.000010 0.160620 
#    y -0.000010 3.764510 -0.000010 
#    z 0.160620 -0.000010 3.324350 
# 
# 
# High freq. dielectric constant tensor:
#      x y z
#    x 1.719500 0.000000 0.016440 
#    y 0.000000 1.766670 0.000000 
#    z 0.016440 0.000000 1.735720 
# 
# From -- ./inp_files/299898.got.cif
#   From: 2010.06.25/outbox.cif.g09.slc.cpg/sg15_150_cif.got.tgz:299898.got - 2010.06.28 07:06:18.
