data_PCOD8141630
_publ_section_title
;
Structure prediction by ZEFSAII (Michael W. Deem and Ramdas Pophale) SiO2 
 PCOD8141630
Probable space group: C 2/C
;
_chemical_formula_sum "Si O2"
_cell_formula_units_Z 56
_cell_length_a 16.272297
_cell_length_b 13.152845
_cell_length_c 16.540527
_cell_angle_alpha 90.000000
_cell_angle_beta 52.234187
_cell_angle_gamma 90.000000
_cell_volume 2798.537217
_symmetry_space_group_name_H-M "C 2/C"
_symmetry_group_IT_number 15
_symmetry_cell_setting 'monoclinic'
loop_
_space_group_symop_operation_xyz
x,y,z
-x,y,1/2-z
-x,-y,-z
x,-y,1/2+z
1/2+x,1/2+y,z
1/2-x,1/2+y,1/2-z
1/2-x,1/2-y,-z
1/2+x,1/2-y,1/2+z
loop_
_atom_site_type_symbol
_atom_site_label
_atom_site_fract_x
_atom_site_fract_y
_atom_site_fract_z
Si Si1 0.904231 0.271274 0.441294
Si Si2 0.719974 0.938216 0.700742
Si Si3 0.888313 0.452681 0.567375
Si Si4 0.193013 0.648486 0.939378
Si Si5 0.137021 0.226015 0.320934
Si Si6 0.776667 0.341617 0.377213
Si Si7 0.884930 0.721704 0.350555
O O1 0.893646 0.343135 0.524786
O O2 0.877334 0.333542 0.375415
O O3 0.823497 0.180248 0.506627
O O4 0.017677 0.221421 0.364749
O O5 0.642232 0.945243 0.821431
O O6 0.826538 0.883789 0.666658
O O7 0.664530 0.872510 0.665995
O O8 0.741290 0.048075 0.650391
O O9 0.810458 0.525977 0.563354
O O10 0.000000 0.500000 0.500000
O O11 0.148970 0.688662 0.881577
O O12 0.313016 0.679047 0.881188
O O13 0.115978 0.692542 0.054561
O O14 0.209212 0.258207 0.202039
O O15 0.000000 0.747570 0.250000
#
# Coordination Sequence:
#
# PCOD8141630 Si02
#       7
#     8   8   8   8   8   8   8
#     4  11  24  39  67  89 128 168 212 258 325 382
#     4  11  23  39  63  92 127 161 213 265 311 380
#     4  12  20  36  65  93 116 163 208 257 308 372
#     4  10  21  37  60  92 123 154 204 256 311 373
#     4  11  22  40  64  93 124 164 212 265 318 377
#     4  11  23  42  62  93 128 167 208 269 316 380
#     4  10  22  38  61  89 124 161 199 258 318 371
#
# _framework density 20.010453999999999
#
# number of rings (size 3 to 8) (size 9 to 14) (size 15 to 20)
#    0.000    1.143    4.286    2.143    0.000    1.714 
#    0.000    0.000    9.429    0.000    0.000    0.000 
#    0.000    0.000    0.000    0.000    0.000    0.000 
#
# Total GULP energy -347226.348988 kJ/mol
# GULP energy per Si atom -12400.941035 kJ/mol
# Density = 1.996491 g / cm^3
# Si number density = 20.010454 Si / 1000 Ang^3
#
#
#
# Elastic Constant Matrix: (Units=GPa)
#
#
# Indices 1 2 3 4 5 6 
#
# 1 90.7010 30.6390 33.7291 0.0000 -7.1138 0.0000
# 2 30.6390 82.3626 23.6435 0.0000 -4.8745 0.0000
# 3 33.7291 23.6435 100.4476 0.0000 -6.2464 0.0000
# 4 0.0000 0.0000 0.0000 30.3478 0.0000 3.4552
# 5 -7.1138 -4.8745 -6.2464 0.0000 37.5675 0.0000
# 6 0.0000 0.0000 0.0000 3.4552 0.0000 29.6734
#
#
#
# Elastic Compliance Matrix: (Units=1/GPa)
#
#
# Indices 1 2 3 4 5 6 
#
# 1 0.013844 -0.004026 -0.003608 0.000000 0.001499 0.000000
# 2 -0.004026 0.014245 -0.001954 0.000000 0.000761 0.000000
# 3 -0.003608 -0.001954 0.011689 0.000000 0.001007 0.000000
# 4 0.000000 0.000000 0.000000 0.033394 0.000000 -0.003888
# 5 0.001499 0.000761 0.001007 0.000000 0.027169 0.000000
# 6 0.000000 0.000000 0.000000 -0.003888 0.000000 0.034153
#
#
# Mechanical properties :
#
#
# Convention : Reuss Voigt Hill
#
# Bulk Modulus (GPa) = 48.53489 49.94827 49.24158
# Shear Modulus (GPa) = 31.14534 31.88439 31.51487
#
# Velocity S-wave (km/s) = 3.94947 3.99606 3.97283
# Velocity P-wave (km/s) = 6.71604 6.80489 6.76061
#
# Compressibility (1/GPa) = 0.02060373
#
# Stress axis : x y z
#
# Youngs Moduli (GPa) = 72.23130 70.20045 85.54697
#
# Poissons Ratio (x) = 0.28260 0.30865
# Poissons Ratio (y) = 0.29078 0.16715
# Poissons Ratio (z) = 0.26061 0.13716
#
# Static dielectric constant tensor:
#      x y z
#    x 4.484630 0.000000 0.052270 
#    y 0.000000 3.734070 0.000000 
#    z 0.052270 0.000000 3.741970 
# 
# 
# High freq. dielectric constant tensor:
#      x y z
#    x 1.784480 0.000000 0.014090 
#    y 0.000000 1.770710 0.000000 
#    z 0.014090 0.000000 1.793220 
# 
# From -- ./inp_files/205341.got.cif
#   From: 2010.06.25/outbox.cif.g09.slc.cpg/sg15_103_cif.got.tgz:205341.got - 2010.06.28 07:06:18.
