data_PCOD8141283
_publ_section_title
;
Structure prediction by ZEFSAII (Michael W. Deem and Ramdas Pophale) SiO2 
 PCOD8141283
Probable space group: C 2/C
;
_chemical_formula_sum "Si O2"
_cell_formula_units_Z 56
_cell_length_a 14.799695
_cell_length_b 18.774392
_cell_length_c 12.606473
_cell_angle_alpha 90.000000
_cell_angle_beta 56.041708
_cell_angle_gamma 90.000000
_cell_volume 2905.357176
_symmetry_space_group_name_H-M "C 2/C"
_symmetry_group_IT_number 15
_symmetry_cell_setting 'monoclinic'
loop_
_space_group_symop_operation_xyz
x,y,z
-x,y,1/2-z
-x,-y,-z
x,-y,1/2+z
1/2+x,1/2+y,z
1/2-x,1/2+y,1/2-z
1/2-x,1/2-y,-z
1/2+x,1/2-y,1/2+z
loop_
_atom_site_type_symbol
_atom_site_label
_atom_site_fract_x
_atom_site_fract_y
_atom_site_fract_z
Si Si1 0.307229 0.852546 0.671596
Si Si2 0.601468 0.292654 0.889127
Si Si3 0.613161 0.006197 0.865835
Si Si4 0.943369 0.769346 0.173598
Si Si5 0.775491 0.347991 0.229221
Si Si6 0.500000 0.053438 0.750000
Si Si7 0.500000 0.280301 0.750000
Si Si8 0.337473 0.836589 0.418809
O O1 0.214061 0.835627 0.818639
O O2 0.316672 0.936825 0.660454
O O3 0.412091 0.807682 0.643664
O O4 0.274468 0.828403 0.572612
O O5 0.627874 0.208379 0.857690
O O6 0.535772 0.324381 0.830454
O O7 0.533773 0.306133 0.039805
O O8 0.684773 0.076697 0.847265
O O9 0.583499 0.005839 0.760970
O O10 0.500000 0.000000 0.000000
O O11 0.838078 0.821681 0.248273
O O12 0.000000 0.758791 0.250000
O O13 0.761131 0.355440 0.367135
O O14 0.569798 0.102996 0.624285
O O15 0.604329 0.237078 0.641808
#
# Coordination Sequence:
#
# PCOD8141283 Si02
#       8
#     8   8   8   8   8   4   4   8
#     4  11  22  34  59  90 115 145 197 250 287 345
#     4  10  21  36  57  88 109 152 193 241 286 349
#     4  11  20  37  58  87 117 147 189 238 301 341
#     4  11  24  42  57  80 122 165 196 232 292 357
#     4   9  22  38  60  83 118 155 191 243 295 352
#     4   9  18  32  54  82 118 151 166 232 306 353
#     4   9  16  30  60  78 116 137 180 230 302 335
#     4   9  16  33  55  89 112 137 182 239 301 336
#
# _framework density 19.274737999999999
#
# number of rings (size 3 to 8) (size 9 to 14) (size 15 to 20)
#    0.000    2.000    2.857    1.714    3.000    4.000 
#    2.571    0.714    1.571    0.000    0.000    0.000 
#    0.000    0.000    0.000    0.000    0.000    0.000 
#
# Total GULP energy -346922.007791 kJ/mol
# GULP energy per Si atom -12390.071707 kJ/mol
# Density = 1.923087 g / cm^3
# Si number density = 19.274738 Si / 1000 Ang^3
#
#
#
# Elastic Constant Matrix: (Units=GPa)
#
#
# Indices 1 2 3 4 5 6 
#
# 1 84.9186 25.5882 31.1061 0.0000 11.4600 0.0000
# 2 25.5882 97.9105 21.4469 0.0000 -8.8636 0.0000
# 3 31.1061 21.4469 93.4209 0.0000 -0.9501 0.0000
# 4 0.0000 0.0000 0.0000 14.4895 0.0000 -5.8116
# 5 11.4600 -8.8636 -0.9501 0.0000 32.8256 0.0000
# 6 0.0000 0.0000 0.0000 -5.8116 0.0000 14.8129
#
#
#
# Elastic Compliance Matrix: (Units=1/GPa)
#
#
# Indices 1 2 3 4 5 6 
#
# 1 0.015334 -0.003643 -0.004335 0.000000 -0.006462 0.000000
# 2 -0.003643 0.011890 -0.001471 0.000000 0.004440 0.000000
# 3 -0.004335 -0.001471 0.012501 0.000000 0.001478 0.000000
# 4 0.000000 0.000000 0.000000 0.081904 0.000000 0.032134
# 5 -0.006462 0.004440 0.001478 0.000000 0.033962 0.000000
# 6 0.000000 0.000000 0.000000 0.032134 0.000000 0.080116
#
#
# Mechanical properties :
#
#
# Convention : Reuss Voigt Hill
#
# Bulk Modulus (GPa) = 48.01863 48.05916 48.03890
# Shear Modulus (GPa) = 19.11710 25.63285 22.37497
#
# Velocity S-wave (km/s) = 3.15274 3.65069 3.41081
# Velocity P-wave (km/s) = 6.18222 6.53896 6.36309
#
# Compressibility (1/GPa) = 0.02082525
#
# Stress axis : x y z
#
# Youngs Moduli (GPa) = 65.21579 84.10674 79.99674
#
# Poissons Ratio (x) = 0.30638 0.34679
# Poissons Ratio (y) = 0.23757 0.11771
# Poissons Ratio (z) = 0.28271 0.12376
#
# Static dielectric constant tensor:
#      x y z
#    x 3.496780 0.000000 0.078740 
#    y 0.000000 3.413420 0.000000 
#    z 0.078740 0.000000 3.519130 
# 
# 
# High freq. dielectric constant tensor:
#      x y z
#    x 1.742590 0.000000 0.001340 
#    y 0.000000 1.717350 0.000000 
#    z 0.001340 0.000000 1.749110 
# 
# From -- ./inp_files/106662.got.cif
#   From: 2010.06.25/outbox.cif.g09.slc.cpg/sg15_54_cif.got.tgz:106662.got - 2010.06.28 07:06:18.
