data_PCOD8141887
_publ_section_title
;
Structure prediction by ZEFSAII (Michael W. Deem and Ramdas Pophale) SiO2 
 PCOD8141887
Probable space group: C 2/C
;
_chemical_formula_sum "Si O2"
_cell_formula_units_Z 40
_cell_length_a 33.239373
_cell_length_b 13.267902
_cell_length_c 8.549298
_cell_angle_alpha 90.000000
_cell_angle_beta 149.404955
_cell_angle_gamma 90.000000
_cell_volume 1919.000720
_symmetry_space_group_name_H-M "C 2/C"
_symmetry_group_IT_number 15
_symmetry_cell_setting 'monoclinic'
loop_
_space_group_symop_operation_xyz
x,y,z
-x,y,1/2-z
-x,-y,-z
x,-y,1/2+z
1/2+x,1/2+y,z
1/2-x,1/2+y,1/2-z
1/2-x,1/2-y,-z
1/2+x,1/2-y,1/2+z
loop_
_atom_site_type_symbol
_atom_site_label
_atom_site_fract_x
_atom_site_fract_y
_atom_site_fract_z
Si Si1 0.163029 0.604019 0.966994
Si Si2 0.617538 0.101856 0.454752
Si Si3 0.521564 0.195390 0.644810
Si Si4 0.468102 0.602532 0.816675
Si Si5 0.306640 0.299397 0.820419
O O1 0.130069 0.606684 0.681192
O O2 0.163004 0.491483 0.032929
O O3 0.113437 0.675418 0.916413
O O4 0.252885 0.645308 0.269984
O O5 0.647763 0.201746 0.461573
O O6 0.523734 0.108944 0.109109
O O7 0.500000 0.173955 0.750000
O O8 0.504091 0.309825 0.542779
O O9 0.500000 0.611817 0.750000
O O10 0.372244 0.617022 0.485865
O O11 0.500000 0.500000 0.000000
O O12 0.250000 0.250000 0.500000
#
# Coordination Sequence:
#
# PCOD8141887 Si02
#       5
#     8   8   8   8   8
#     4  11  21  37  61  85 116 155 197 252 304 364
#     4  10  21  38  57  86 117 153 198 248 306 368
#     4  11  22  39  60  86 117 157 203 249 304 368
#     4  11  23  41  63  90 125 164 204 251 308 375
#     4   9  21  39  60  87 120 159 202 252 307 363
#
# _framework density 20.844183000000001
#
# number of rings (size 3 to 8) (size 9 to 14) (size 15 to 20)
#    0.000    1.600    0.000    6.600    0.000    4.800 
#    0.000    9.000    0.000    0.000    0.000    0.000 
#    0.000    0.000    0.000    0.000    0.000    0.000 
#
# Total GULP energy -247832.885379 kJ/mol
# GULP energy per Si atom -12391.644269 kJ/mol
# Density = 2.079674 g / cm^3
# Si number density = 20.844183 Si / 1000 Ang^3
#
#
#
# Elastic Constant Matrix: (Units=GPa)
#
#
# Indices 1 2 3 4 5 6 
#
# 1 148.5056 46.9506 51.1672 0.0000 27.7602 0.0000
# 2 46.9506 130.1139 37.1831 0.0000 19.8482 0.0000
# 3 51.1672 37.1831 86.8277 0.0000 29.6952 0.0000
# 4 0.0000 0.0000 0.0000 36.2840 0.0000 3.4829
# 5 27.7602 19.8482 29.6952 0.0000 45.7786 0.0000
# 6 0.0000 0.0000 0.0000 3.4829 0.0000 26.9672
#
#
#
# Elastic Compliance Matrix: (Units=1/GPa)
#
#
# Indices 1 2 3 4 5 6 
#
# 1 0.009032 -0.001841 -0.003771 0.000000 -0.002233 0.000000
# 2 -0.001841 0.009243 -0.002422 0.000000 -0.001320 0.000000
# 3 -0.003771 -0.002422 0.017522 0.000000 -0.008030 0.000000
# 4 0.000000 0.000000 0.000000 0.027906 0.000000 -0.003604
# 5 -0.002233 -0.001320 -0.008030 0.000000 0.028979 0.000000
# 6 0.000000 0.000000 0.000000 -0.003604 0.000000 0.037548
#
#
# Mechanical properties :
#
#
# Convention : Reuss Voigt Hill
#
# Bulk Modulus (GPa) = 50.68177 70.67212 60.67695
# Shear Modulus (GPa) = 32.70626 37.14902 34.92764
#
# Velocity S-wave (km/s) = 3.96546 4.22622 4.09792
# Velocity P-wave (km/s) = 6.73305 7.60218 7.18077
#
# Compressibility (1/GPa) = 0.01973096
#
# Stress axis : x y z
#
# Youngs Moduli (GPa) = 110.71240 108.18487 57.06983
#
# Poissons Ratio (x) = 0.19918 0.21519
# Poissons Ratio (y) = 0.20383 0.13822
# Poissons Ratio (z) = 0.41745 0.26202
#
# Static dielectric constant tensor:
#      x y z
#    x 3.841480 0.000000 0.449730 
#    y 0.000000 3.907450 0.000000 
#    z 0.449730 0.000000 4.351140 
# 
# 
# High freq. dielectric constant tensor:
#      x y z
#    x 1.812490 0.000000 0.017100 
#    y 0.000000 1.825260 0.000000 
#    z 0.017100 0.000000 1.818000 
# 
# From -- ./inp_files/70217.got.cif
#   From: 2010.06.25/outbox.cif.g09.slc.cpg/sg15_36_cif.got.tgz:70217.got - 2010.06.28 07:06:18.
