data_PCOD8141073
_publ_section_title
;
Structure prediction by ZEFSAII (Michael W. Deem and Ramdas Pophale) SiO2 
 PCOD8141073
Probable space group: C 2/C
;
_chemical_formula_sum "Si O2"
_cell_formula_units_Z 52
_cell_length_a 14.048620
_cell_length_b 19.896660
_cell_length_c 19.798720
_cell_angle_alpha 90.000000
_cell_angle_beta 151.025285
_cell_angle_gamma 90.000000
_cell_volume 2680.873048
_symmetry_space_group_name_H-M "C 2/C"
_symmetry_group_IT_number 15
_symmetry_cell_setting 'monoclinic'
loop_
_space_group_symop_operation_xyz
x,y,z
-x,y,1/2-z
-x,-y,-z
x,-y,1/2+z
1/2+x,1/2+y,z
1/2-x,1/2+y,1/2-z
1/2-x,1/2-y,-z
1/2+x,1/2-y,1/2+z
loop_
_atom_site_type_symbol
_atom_site_label
_atom_site_fract_x
_atom_site_fract_y
_atom_site_fract_z
Si Si1 0.552742 0.548029 0.096823
Si Si2 0.725977 0.007912 0.990459
Si Si3 0.609507 0.966629 0.130194
Si Si4 0.000000 0.417428 0.750000
Si Si5 0.279122 0.320881 0.847358
Si Si6 0.210902 0.108177 0.869353
Si Si7 0.419892 0.769546 0.552641
O O1 0.761396 0.522279 0.252507
O O2 0.566217 0.628192 0.091288
O O3 0.500000 0.500000 0.000000
O O4 0.400864 0.549083 0.064995
O O5 0.554945 0.056207 0.916278
O O6 0.651187 0.962697 0.883381
O O7 0.805969 0.961192 0.100066
O O8 0.742877 0.906392 0.181835
O O9 0.500000 0.000000 0.000000
O O10 0.114207 0.369544 0.771914
O O11 0.147020 0.268328 0.720469
O O12 0.405002 0.281047 0.980656
O O13 0.000000 0.144956 0.750000
O O14 0.382166 0.154788 0.004063
O O15 0.250000 0.750000 0.500000
#
# Coordination Sequence:
#
# PCOD8141073 Si02
#       7
#     8   8   8   4   8   8   8
#     4  12  23  36  61  88 123 166 199 250 314 375
#     4  11  20  36  58  85 123 159 193 248 312 368
#     4  10  21  35  55  86 121 155 197 252 305 360
#     4  12  18  36  58  86 126 152 192 252 306 374
#     4  12  23  38  56  89 123 161 206 243 310 373
#     4  11  20  34  57  88 118 151 203 248 309 365
#     4  12  23  37  59  85 125 163 197 257 307 363
#
# _framework density 19.396667000000001
#
# number of rings (size 3 to 8) (size 9 to 14) (size 15 to 20)
#    0.000    0.615    7.692    1.846    0.000    1.231 
#    0.000    0.000    0.000    0.923    0.000    2.154 
#    0.000    0.000    0.000    0.000    0.000    0.000 
#
# Total GULP energy -322136.718098 kJ/mol
# GULP energy per Si atom -12389.873773 kJ/mol
# Density = 1.935252 g / cm^3
# Si number density = 19.396667 Si / 1000 Ang^3
#
#
#
# Elastic Constant Matrix: (Units=GPa)
#
#
# Indices 1 2 3 4 5 6 
#
# 1 122.5417 44.4418 29.4595 0.0016 17.1443 -0.0031
# 2 44.4418 77.2578 28.3141 0.0075 -3.9376 -0.0022
# 3 29.4595 28.3141 99.6063 0.0333 -13.9421 -0.0031
# 4 0.0016 0.0075 0.0333 35.0255 0.0148 -4.2745
# 5 17.1443 -3.9376 -13.9421 0.0148 33.5370 -0.0023
# 6 -0.0031 -0.0022 -0.0031 -4.2745 -0.0023 35.2942
#
#
#
# Elastic Compliance Matrix: (Units=1/GPa)
#
#
# Indices 1 2 3 4 5 6 
#
# 1 0.012387 -0.006452 -0.002996 0.000007 -0.008335 0.000001
# 2 -0.006452 0.017810 -0.002548 -0.000003 0.004330 0.000000
# 3 -0.002996 -0.002548 0.012553 -0.000014 0.006451 -0.000001
# 4 0.000007 -0.000003 -0.000014 0.028979 -0.000022 0.003510
# 5 -0.008335 0.004330 0.006451 -0.000022 0.037269 0.000000
# 6 0.000001 0.000000 -0.000001 0.003510 0.000000 0.028758
#
#
# Mechanical properties :
#
#
# Convention : Reuss Voigt Hill
#
# Bulk Modulus (GPa) = 53.31473 55.98183 54.64828
# Shear Modulus (GPa) = 29.76158 33.91737 31.83947
#
# Velocity S-wave (km/s) = 3.92135 4.18618 4.05593
# Velocity P-wave (km/s) = 6.93173 7.23117 7.08303
#
# Compressibility (1/GPa) = 0.01875654
#
# Stress axis : x y z
#
# Youngs Moduli (GPa) = 80.72990 56.14858 79.66220
#
# Poissons Ratio (x) = 0.36229 0.23868
# Poissons Ratio (y) = 0.52089 0.20300
# Poissons Ratio (z) = 0.24188 0.14308
#
# Static dielectric constant tensor:
#      x y z
#    x 3.361500 0.000060 0.039100 
#    y 0.000060 3.459730 -0.000030 
#    z 0.039100 -0.000030 3.709640 
# 
# 
# High freq. dielectric constant tensor:
#      x y z
#    x 1.751190 0.000000 -0.008450 
#    y 0.000000 1.721760 0.000000 
#    z -0.008450 0.000000 1.771070 
# 
# From -- ./inp_files/245054.got.cif
#   From: 2010.06.25/outbox.cif.g09.slc.cpg/sg15_123_cif.got.tgz:245054.got - 2010.06.28 07:06:18.
