data_PCOD8141796
_publ_section_title
;
Structure prediction by ZEFSAII (Michael W. Deem and Ramdas Pophale) SiO2 
 PCOD8141796
Probable space group: C 2/C
;
_chemical_formula_sum "Si O2"
_cell_formula_units_Z 48
_cell_length_a 5.637602
_cell_length_b 13.888199
_cell_length_c 26.134767
_cell_angle_alpha 90.000000
_cell_angle_beta 84.456359
_cell_angle_gamma 90.000000
_cell_volume 2036.680826
_symmetry_space_group_name_H-M "C 2/C"
_symmetry_group_IT_number 15
_symmetry_cell_setting 'monoclinic'
loop_
_space_group_symop_operation_xyz
x,y,z
-x,y,1/2-z
-x,-y,-z
x,-y,1/2+z
1/2+x,1/2+y,z
1/2-x,1/2+y,1/2-z
1/2-x,1/2-y,-z
1/2+x,1/2-y,1/2+z
loop_
_atom_site_type_symbol
_atom_site_label
_atom_site_fract_x
_atom_site_fract_y
_atom_site_fract_z
Si Si1 0.445754 0.048641 0.921429
Si Si2 0.337949 0.417950 0.866359
Si Si3 0.330146 0.683146 0.941528
Si Si4 0.231001 0.275450 0.778655
Si Si5 0.609143 0.397063 0.344972
Si Si6 0.368828 0.382377 0.543106
O O1 0.621564 0.968113 0.897857
O O2 0.240995 0.989878 0.956073
O O3 0.571439 0.129754 0.953715
O O4 0.347697 0.099915 0.872917
O O5 0.238136 0.340097 0.829062
O O6 0.510432 0.495765 0.833832
O O7 0.469645 0.365473 0.910595
O O8 0.414107 0.658339 0.883041
O O9 0.327757 0.797375 0.948721
O O10 0.491856 0.636525 0.984408
O O11 0.500000 0.281133 0.750000
O O12 0.169021 0.164201 0.793185
O O13 0.000000 0.311680 0.750000
#
# Coordination Sequence:
#
# PCOD8141796 Si02
#       6
#     8   8   8   8   8   8
#     4  10  21  38  65  92 142 174 230 277 349 414
#     4  10  24  44  69  99 140 178 229 294 354 426
#     4  10  21  37  64  99 138 184 227 274 341 423
#     4  12  30  50  77 102 137 184 242 304 370 432
#     4  10  24  44  69  99 140 178 229 294 354 426
#     4  10  21  37  64  99 138 184 227 274 341 423
#
# _framework density 23.567758000000001
#
# number of rings (size 3 to 8) (size 9 to 14) (size 15 to 20)
#    0.000    1.667    0.000    2.500   11.667    8.000 
#    0.000    4.167    0.000    0.000    0.000    0.000 
#    0.000    0.000    0.000    0.000    0.000    0.000 
#
# Total GULP energy -297328.225666 kJ/mol
# GULP energy per Si atom -12388.676069 kJ/mol
# Density = 2.351412 g / cm^3
# Si number density = 23.567758 Si / 1000 Ang^3
#
#
#
# Elastic Constant Matrix: (Units=GPa)
#
#
# Indices 1 2 3 4 5 6 
#
# 1 81.7556 22.1520 22.9043 0.0000 20.6106 0.0000
# 2 22.1520 98.2064 26.2946 0.0000 18.6131 0.0000
# 3 22.9043 26.2946 63.8365 0.0000 22.1887 0.0000
# 4 0.0000 0.0000 0.0000 35.6455 0.0000 12.6627
# 5 20.6106 18.6131 22.1887 0.0000 36.7767 0.0000
# 6 0.0000 0.0000 0.0000 12.6627 0.0000 28.9441
#
#
#
# Elastic Compliance Matrix: (Units=1/GPa)
#
#
# Indices 1 2 3 4 5 6 
#
# 1 0.014891 -0.001518 -0.002637 0.000000 -0.005986 0.000000
# 2 -0.001518 0.012019 -0.003274 0.000000 -0.003257 0.000000
# 3 -0.002637 -0.003274 0.021347 0.000000 -0.009745 0.000000
# 4 0.000000 0.000000 0.000000 0.033216 0.000000 -0.014532
# 5 -0.005986 -0.003257 -0.009745 0.000000 0.038073 0.000000
# 6 0.000000 0.000000 0.000000 -0.014532 0.000000 0.040907
#
#
# Mechanical properties :
#
#
# Convention : Reuss Voigt Hill
#
# Bulk Modulus (GPa) = 29.94149 42.94448 36.44298
# Shear Modulus (GPa) = 26.81777 31.76976 29.29377
#
# Velocity S-wave (km/s) = 3.37694 3.67552 3.52939
# Velocity P-wave (km/s) = 5.28554 6.02278 5.66616
#
# Compressibility (1/GPa) = 0.03339847
#
# Stress axis : x y z
#
# Youngs Moduli (GPa) = 67.15595 83.20191 46.84566
#
# Poissons Ratio (x) = 0.12633 0.12352
# Poissons Ratio (y) = 0.10197 0.15337
# Poissons Ratio (z) = 0.17707 0.27240
#
# Static dielectric constant tensor:
#      x y z
#    x 11.973470 0.000000 0.482870 
#    y 0.000000 4.227020 0.000000 
#    z 0.482870 0.000000 4.142430 
# 
# 
# High freq. dielectric constant tensor:
#      x y z
#    x 1.927550 0.000000 0.013870 
#    y 0.000000 1.948570 0.000000 
#    z 0.013870 0.000000 1.921320 
# 
# From -- ./inp_files/285572.got.cif
#   From: 2010.06.25/outbox.cif.g09.slc.cpg/sg15_143_cif.got.tgz:285572.got - 2010.06.28 07:06:18.
