data_PCOD8141420
_publ_section_title
;
Structure prediction by ZEFSAII (Michael W. Deem and Ramdas Pophale) SiO2 
 PCOD8141420
Probable space group: C 2/C
;
_chemical_formula_sum "Si O2"
_cell_formula_units_Z 60
_cell_length_a 17.665567
_cell_length_b 5.339264
_cell_length_c 33.477186
_cell_angle_alpha 90.000000
_cell_angle_beta 109.600494
_cell_angle_gamma 90.000000
_cell_volume 2974.637016
_symmetry_space_group_name_H-M "C 2/C"
_symmetry_group_IT_number 15
_symmetry_cell_setting 'monoclinic'
loop_
_space_group_symop_operation_xyz
x,y,z
-x,y,1/2-z
-x,-y,-z
x,-y,1/2+z
1/2+x,1/2+y,z
1/2-x,1/2+y,1/2-z
1/2-x,1/2-y,-z
1/2+x,1/2-y,1/2+z
loop_
_atom_site_type_symbol
_atom_site_label
_atom_site_fract_x
_atom_site_fract_y
_atom_site_fract_z
Si Si1 0.856832 0.854060 0.242771
Si Si2 0.144660 0.499786 0.479371
Si Si3 0.500000 0.347072 0.750000
Si Si4 0.480207 0.987063 0.403693
Si Si5 0.702129 0.629494 0.194605
Si Si6 0.313612 0.501352 0.469517
Si Si7 0.060600 0.527149 0.689268
Si Si8 0.381350 0.479062 0.396793
O O1 0.796508 0.695756 0.204026
O O2 0.919909 0.719041 0.282832
O O3 0.916958 0.008307 0.225200
O O4 0.798725 0.008906 0.261609
O O5 0.219735 0.504590 0.462789
O O6 0.145780 0.252168 0.506900
O O7 0.065888 0.490366 0.439104
O O8 0.142733 0.752387 0.505261
O O9 0.512967 0.202299 0.711190
O O10 0.494996 0.027323 0.358819
O O11 0.429276 0.221003 0.411186
O O12 0.439382 0.719550 0.405350
O O13 0.672573 0.454407 0.153035
O O14 0.644061 0.868274 0.186164
O O15 0.321535 0.509379 0.423300
#
# Coordination Sequence:
#
# PCOD8141420 Si02
#       8
#     8   8   4   8   8   8   8   8
#     4  11  19  40  61  82 120 164 204 258 307 373
#     4  10  22  42  64  89 125 168 196 248 315 377
#     4  10  24  38  58  88 120 162 212 262 308 368
#     4  11  23  40  65  92 126 161 204 258 318 358
#     4  10  21  36  63  88 116 165 207 251 318 358
#     4  10  22  42  63  90 127 159 206 249 307 376
#     4  10  21  40  57  87 124 159 203 260 304 372
#     4  11  23  40  62  96 125 155 211 264 298 376
#
# _framework density 20.170528000000001
#
# number of rings (size 3 to 8) (size 9 to 14) (size 15 to 20)
#    0.000    1.600    2.667    2.000    0.000    3.200 
#    4.800    2.667    0.000    0.000    0.000    0.000 
#    0.000    0.000    0.000    0.000    0.000    0.000 
#
# Total GULP energy -371873.204877 kJ/mol
# GULP energy per Si atom -12395.773496 kJ/mol
# Density = 2.012462 g / cm^3
# Si number density = 20.170528 Si / 1000 Ang^3
#
#
#
# Elastic Constant Matrix: (Units=GPa)
#
#
# Indices 1 2 3 4 5 6 
#
# 1 97.1564 23.0244 50.7875 0.0003 0.5472 -0.0003
# 2 23.0244 96.7632 7.4967 0.0011 1.3190 -0.0011
# 3 50.7875 7.4967 82.7200 0.0000 1.5364 0.0000
# 4 0.0003 0.0011 0.0000 23.5047 0.0000 2.4817
# 5 0.5472 1.3190 1.5364 0.0000 31.9887 0.0001
# 6 -0.0003 -0.0011 0.0000 2.4817 0.0001 18.0629
#
#
#
# Elastic Compliance Matrix: (Units=1/GPa)
#
#
# Indices 1 2 3 4 5 6 
#
# 1 0.016018 -0.003075 -0.009562 0.000000 0.000312 0.000000
# 2 -0.003075 0.011003 0.000899 -0.000001 -0.000444 0.000001
# 3 -0.009562 0.000899 0.017892 0.000000 -0.000733 0.000000
# 4 0.000000 -0.000001 0.000000 0.043171 0.000000 -0.005931
# 5 0.000312 -0.000444 -0.000733 0.000000 0.031309 0.000000
# 6 0.000000 0.000001 0.000000 -0.005931 0.000000 0.056177
#
#
# Mechanical properties :
#
#
# Convention : Reuss Voigt Hill
#
# Bulk Modulus (GPa) = 46.64805 48.80631 47.72718
# Shear Modulus (GPa) = 24.24950 27.73332 25.99141
#
# Velocity S-wave (km/s) = 3.47107 3.71204 3.59358
# Velocity P-wave (km/s) = 6.26430 6.52853 6.39778
#
# Compressibility (1/GPa) = 0.02143712
#
# Stress axis : x y z
#
# Youngs Moduli (GPa) = 62.43043 90.88790 55.89207
#
# Poissons Ratio (x) = 0.27947 0.53442
# Poissons Ratio (y) = 0.19196 -0.05025
# Poissons Ratio (z) = 0.59693 -0.08171
#
# Static dielectric constant tensor:
#      x y z
#    x 3.578580 0.000000 -0.091080 
#    y 0.000000 3.969200 0.000000 
#    z -0.091080 0.000000 3.723560 
# 
# 
# High freq. dielectric constant tensor:
#      x y z
#    x 1.783410 0.000000 -0.000340 
#    y 0.000000 1.800730 0.000000 
#    z -0.000340 0.000000 1.782950 
# 
# From -- ./inp_files/314894.got.cif
#   From: 2010.06.25/outbox.cif.g09.slc.cpg/sg15_158_cif.got.tgz:314894.got - 2010.06.28 07:06:18.
