data_PCOD8141515
_publ_section_title
;
Structure prediction by ZEFSAII (Michael W. Deem and Ramdas Pophale) SiO2 
 PCOD8141515
Probable space group: C 2/C
;
_chemical_formula_sum "Si O2"
_cell_formula_units_Z 48
_cell_length_a 15.244893
_cell_length_b 11.433255
_cell_length_c 14.966455
_cell_angle_alpha 90.000000
_cell_angle_beta 94.292071
_cell_angle_gamma 90.000000
_cell_volume 2601.318470
_symmetry_space_group_name_H-M "C 2/C"
_symmetry_group_IT_number 15
_symmetry_cell_setting 'monoclinic'
loop_
_space_group_symop_operation_xyz
x,y,z
-x,y,1/2-z
-x,-y,-z
x,-y,1/2+z
1/2+x,1/2+y,z
1/2-x,1/2+y,1/2-z
1/2-x,1/2-y,-z
1/2+x,1/2-y,1/2+z
loop_
_atom_site_type_symbol
_atom_site_label
_atom_site_fract_x
_atom_site_fract_y
_atom_site_fract_z
Si Si1 0.838405 0.317980 0.528551
Si Si2 0.150168 0.215997 0.597169
Si Si3 0.520438 0.338944 0.518683
Si Si4 0.403453 0.508010 0.107051
Si Si5 0.594461 0.714401 0.784254
Si Si6 0.230072 0.570126 0.014608
O O1 0.750000 0.250000 0.500000
O O2 0.917651 0.276181 0.467265
O O3 0.865245 0.289161 0.632188
O O4 0.824121 0.455313 0.516190
O O5 0.159603 0.223821 0.704794
O O6 0.160362 0.341106 0.550857
O O7 0.224178 0.125164 0.569518
O O8 0.051983 0.176062 0.564770
O O9 0.585173 0.439726 0.486577
O O10 0.472875 0.381449 0.607691
O O11 0.417583 0.423377 0.192010
O O12 0.302875 0.551006 0.097812
O O13 0.500000 0.767233 0.750000
#
# Coordination Sequence:
#
# PCOD8141515 Si02
#       6
#     8   8   8   8   8   8
#     4  11  20  35  58  86 115 148 193 237 285 339
#     4  10  21  37  57  84 117 153 192 235 287 348
#     4   9  17  33  56  81 108 151 186 223 281 346
#     4   9  17  33  58  79 110 144 193 230 271 341
#     4  11  20  35  58  88 110 146 197 242 284 334
#     4  10  21  37  57  84 118 154 190 233 291 347
#
# _framework density 18.452181
#
# number of rings (size 3 to 8) (size 9 to 14) (size 15 to 20)
#    0.000    2.000    6.667    0.000    0.000    2.000 
#    0.000    0.000    0.000    0.000    0.000    0.000 
#    0.000    0.000    0.000    0.000    0.000    0.000 
#
# Total GULP energy -297430.406605 kJ/mol
# GULP energy per Si atom -12392.933609 kJ/mol
# Density = 1.841018 g / cm^3
# Si number density = 18.452181 Si / 1000 Ang^3
#
#
#
# Elastic Constant Matrix: (Units=GPa)
#
#
# Indices 1 2 3 4 5 6 
#
# 1 80.9988 49.3382 40.6662 0.0000 -2.5654 0.0000
# 2 49.3382 130.5551 45.2519 0.0000 -6.8574 0.0000
# 3 40.6662 45.2519 84.4637 0.0000 -5.1105 0.0000
# 4 0.0000 0.0000 0.0000 25.0341 0.0000 3.1403
# 5 -2.5654 -6.8574 -5.1105 0.0000 25.1951 0.0000
# 6 0.0000 0.0000 0.0000 3.1403 0.0000 35.0638
#
#
#
# Elastic Compliance Matrix: (Units=1/GPa)
#
#
# Indices 1 2 3 4 5 6 
#
# 1 0.018436 -0.004806 -0.006345 0.000000 -0.000718 0.000000
# 2 -0.004806 0.010720 -0.003323 0.000000 0.001754 0.000000
# 3 -0.006345 -0.003323 0.016787 0.000000 0.001854 0.000000
# 4 0.000000 0.000000 0.000000 0.040399 0.000000 -0.003618
# 5 -0.000718 0.001754 0.001854 0.000000 0.040471 0.000000
# 6 0.000000 0.000000 0.000000 -0.003618 0.000000 0.028843
#
#
# Mechanical properties :
#
#
# Convention : Reuss Voigt Hill
#
# Bulk Modulus (GPa) = 58.84155 62.94780 60.89468
# Shear Modulus (GPa) = 26.27859 27.77602 27.02730
#
# Velocity S-wave (km/s) = 3.77788 3.88402 3.83132
# Velocity P-wave (km/s) = 7.14057 7.36901 7.25569
#
# Compressibility (1/GPa) = 0.01699479
#
# Stress axis : x y z
#
# Youngs Moduli (GPa) = 54.24207 93.28604 59.56998
#
# Poissons Ratio (x) = 0.44829 0.37797
# Poissons Ratio (y) = 0.26066 0.19797
# Poissons Ratio (z) = 0.34417 0.31002
#
# Static dielectric constant tensor:
#      x y z
#    x 3.582180 0.000000 -0.080870 
#    y 0.000000 3.495120 0.000000 
#    z -0.080870 0.000000 3.120840 
# 
# 
# High freq. dielectric constant tensor:
#      x y z
#    x 1.726720 0.000000 -0.003350 
#    y 0.000000 1.709050 0.000000 
#    z -0.003350 0.000000 1.679010 
# 
# From -- ./inp_files/152100.got.cif
#   From: 2010.06.25/outbox.cif.g09.slc.cpg/sg15_77_cif.got.tgz:152100.got - 2010.06.28 07:06:18.
