data_PCOD8141271
_publ_section_title
;
Structure prediction by ZEFSAII (Michael W. Deem and Ramdas Pophale) SiO2 
 PCOD8141271
Probable space group: C 2/C
;
_chemical_formula_sum "Si O2"
_cell_formula_units_Z 40
_cell_length_a 9.456458
_cell_length_b 10.807838
_cell_length_c 19.111302
_cell_angle_alpha 90.000000
_cell_angle_beta 112.775694
_cell_angle_gamma 90.000000
_cell_volume 1800.949170
_symmetry_space_group_name_H-M "C 2/C"
_symmetry_group_IT_number 15
_symmetry_cell_setting 'monoclinic'
loop_
_space_group_symop_operation_xyz
x,y,z
-x,y,1/2-z
-x,-y,-z
x,-y,1/2+z
1/2+x,1/2+y,z
1/2-x,1/2+y,1/2-z
1/2-x,1/2-y,-z
1/2+x,1/2-y,1/2+z
loop_
_atom_site_type_symbol
_atom_site_label
_atom_site_fract_x
_atom_site_fract_y
_atom_site_fract_z
Si Si1 0.799421 0.072698 0.029340
Si Si2 0.159154 0.697622 0.880135
Si Si3 0.173703 0.912486 0.210800
Si Si4 0.890767 0.158005 0.374742
Si Si5 0.330100 0.645847 0.632715
O O1 0.745724 0.183124 0.072124
O O2 0.984347 0.090629 0.050662
O O3 0.763561 0.942534 0.059394
O O4 0.705884 0.080501 0.938806
O O5 0.199544 0.662428 0.808783
O O6 0.978395 0.730967 0.849382
O O7 0.173102 0.057836 0.192114
O O8 0.213901 0.908056 0.299774
O O9 0.013033 0.844776 0.162436
O O10 0.750635 0.219582 0.391154
#
# Coordination Sequence:
#
# PCOD8141271 Si02
#       5
#     8   8   8   8   8
#     4   8  19  39  58  82 112 147 183 232 273 328
#     4   9  19  40  60  79 114 149 185 225 281 326
#     4  10  22  37  55  82 114 148 183 232 272 335
#     4   9  20  38  56  83 108 151 187 221 284 325
#     4  10  21  36  57  82 116 145 183 233 278 321
#
# _framework density 22.210509999999999
#
# number of rings (size 3 to 8) (size 9 to 14) (size 15 to 20)
#    1.200    1.600    0.000    0.000    2.800    6.400 
#    3.600    2.000    0.000    0.000    0.000    0.000 
#    0.000    0.000    0.000    0.000    0.000    0.000 
#
# Total GULP energy -247789.741979 kJ/mol
# GULP energy per Si atom -12389.487099 kJ/mol
# Density = 2.215996 g / cm^3
# Si number density = 22.210510 Si / 1000 Ang^3
#
#
#
# Elastic Constant Matrix: (Units=GPa)
#
#
# Indices 1 2 3 4 5 6 
#
# 1 70.7821 34.4810 0.3182 0.0000 0.3599 0.0000
# 2 34.4810 63.3425 10.1404 0.0000 6.5590 0.0000
# 3 0.3182 10.1404 39.5697 0.0000 -8.0102 0.0000
# 4 0.0000 0.0000 0.0000 23.9016 0.0000 -7.4161
# 5 0.3599 6.5590 -8.0102 0.0000 15.3459 0.0000
# 6 0.0000 0.0000 0.0000 -7.4161 0.0000 31.2189
#
#
#
# Elastic Compliance Matrix: (Units=1/GPa)
#
#
# Indices 1 2 3 4 5 6 
#
# 1 0.020115 -0.012407 0.004468 0.000000 0.007163 0.000000
# 2 -0.012407 0.025723 -0.009682 0.000000 -0.015757 0.000000
# 3 0.004468 -0.009682 0.031905 0.000000 0.020687 0.000000
# 4 0.000000 0.000000 0.000000 0.045167 0.000000 0.010730
# 5 0.007163 -0.015757 0.020687 0.000000 0.082529 0.000000
# 6 0.000000 0.000000 0.000000 0.010730 0.000000 0.034581
#
#
# Mechanical properties :
#
#
# Convention : Reuss Voigt Hill
#
# Bulk Modulus (GPa) = 23.52894 29.28595 26.40745
# Shear Modulus (GPa) = 17.27543 22.67690 19.97617
#
# Velocity S-wave (km/s) = 2.79194 3.19877 3.00226
# Velocity P-wave (km/s) = 4.58365 5.18239 4.89219
#
# Compressibility (1/GPa) = 0.04250085
#
# Stress axis : x y z
#
# Youngs Moduli (GPa) = 49.71343 38.87644 31.34324
#
# Poissons Ratio (x) = 0.48234 -0.14004
# Poissons Ratio (y) = 0.61679 0.30346
# Poissons Ratio (z) = -0.22211 0.37639
#
# Static dielectric constant tensor:
#      x y z
#    x 3.852820 0.000000 0.005640 
#    y 0.000000 3.828090 0.000000 
#    z 0.005640 0.000000 3.652300 
# 
# 
# High freq. dielectric constant tensor:
#      x y z
#    x 1.850510 0.000000 -0.002260 
#    y 0.000000 1.863350 0.000000 
#    z -0.002260 0.000000 1.859810 
# 
# From -- ./inp_files/230008.got.cif
#   From: 2010.06.25/outbox.cif.g09.slc.cpg/sg15_116_cif.got.tgz:230008.got - 2010.06.28 07:06:18.
