data_PCOD8141427
_publ_section_title
;
Structure prediction by ZEFSAII (Michael W. Deem and Ramdas Pophale) SiO2 
 PCOD8141427
Probable space group: C 2/C
;
_chemical_formula_sum "Si O2"
_cell_formula_units_Z 44
_cell_length_a 21.015227
_cell_length_b 13.132308
_cell_length_c 13.204350
_cell_angle_alpha 90.000000
_cell_angle_beta 142.062294
_cell_angle_gamma 90.000000
_cell_volume 2240.418295
_symmetry_space_group_name_H-M "C 2/C"
_symmetry_group_IT_number 15
_symmetry_cell_setting 'monoclinic'
loop_
_space_group_symop_operation_xyz
x,y,z
-x,y,1/2-z
-x,-y,-z
x,-y,1/2+z
1/2+x,1/2+y,z
1/2-x,1/2+y,1/2-z
1/2-x,1/2-y,-z
1/2+x,1/2-y,1/2+z
loop_
_atom_site_type_symbol
_atom_site_label
_atom_site_fract_x
_atom_site_fract_y
_atom_site_fract_z
Si Si1 0.599898 0.776614 0.521901
Si Si2 0.500000 0.889448 0.750000
Si Si3 0.426541 0.774101 0.464833
Si Si4 0.779220 0.097194 0.297138
Si Si5 0.252969 0.391333 0.362942
Si Si6 0.661521 0.062666 0.958708
O O1 0.497203 0.757010 0.455357
O O2 0.686313 0.823943 0.706599
O O3 0.643654 0.674761 0.523484
O O4 0.578896 0.859529 0.406684
O O5 0.489259 0.818005 0.638554
O O6 0.602765 0.957338 0.861614
O O7 0.385018 0.661074 0.436208
O O8 0.336587 0.854435 0.325756
O O9 0.783482 0.008223 0.384126
O O10 0.757728 0.048300 0.158319
O O11 0.209890 0.382988 0.421924
#
# Coordination Sequence:
#
# PCOD8141427 Si02
#       6
#     8   4   8   8   8   8
#     4   9  21  37  60  91 115 159 201 259 293 360
#     4  12  22  38  66  94 118 166 204 254 298 368
#     4  11  22  40  62  88 128 156 210 250 306 360
#     4   9  22  39  58  94 122 164 195 255 311 360
#     4  11  20  41  60  86 125 158 204 256 301 361
#     4  10  21  36  63  92 118 156 207 251 307 348
#
# _framework density 19.639191
#
# number of rings (size 3 to 8) (size 9 to 14) (size 15 to 20)
#    1.091    0.727    1.818    2.727    0.000    2.909 
#    3.273    2.727    0.000    0.000    0.000    0.000 
#    0.000    0.000    0.000    0.000    0.000    0.000 
#
# Total GULP energy -272654.020377 kJ/mol
# GULP energy per Si atom -12393.364563 kJ/mol
# Density = 1.959449 g / cm^3
# Si number density = 19.639191 Si / 1000 Ang^3
#
#
#
# Elastic Constant Matrix: (Units=GPa)
#
#
# Indices 1 2 3 4 5 6 
#
# 1 120.4363 57.8833 28.0045 0.0000 2.6886 0.0000
# 2 57.8833 94.3731 31.0374 0.0000 12.0570 0.0000
# 3 28.0045 31.0374 65.4117 0.0000 -2.4053 0.0000
# 4 0.0000 0.0000 0.0000 37.8253 0.0000 5.7109
# 5 2.6886 12.0570 -2.4053 0.0000 21.3703 0.0000
# 6 0.0000 0.0000 0.0000 5.7109 0.0000 31.3905
#
#
#
# Elastic Compliance Matrix: (Units=1/GPa)
#
#
# Indices 1 2 3 4 5 6 
#
# 1 0.012082 -0.007150 -0.001695 0.000000 0.002323 0.000000
# 2 -0.007150 0.018225 -0.005956 0.000000 -0.010053 0.000000
# 3 -0.001695 -0.005956 0.019050 0.000000 0.005718 0.000000
# 4 0.000000 0.000000 0.000000 0.027184 0.000000 -0.004946
# 5 0.002323 -0.010053 0.005718 0.000000 0.052817 0.000000
# 6 0.000000 0.000000 0.000000 -0.004946 0.000000 0.032757
#
#
# Mechanical properties :
#
#
# Convention : Reuss Voigt Hill
#
# Bulk Modulus (GPa) = 50.61979 57.11907 53.86943
# Shear Modulus (GPa) = 25.21439 29.00361 27.10900
#
# Velocity S-wave (km/s) = 3.58702 3.84711 3.71934
# Velocity P-wave (km/s) = 6.55640 6.99150 6.77744
#
# Compressibility (1/GPa) = 0.01975512
#
# Stress axis : x y z
#
# Youngs Moduli (GPa) = 82.77101 54.87055 52.49422
#
# Poissons Ratio (x) = 0.39230 0.08895
# Poissons Ratio (y) = 0.59178 0.31267
# Poissons Ratio (z) = 0.14026 0.32682
#
# Static dielectric constant tensor:
#      x y z
#    x 3.322500 0.000000 -0.014310 
#    y 0.000000 3.451740 0.000000 
#    z -0.014310 0.000000 3.339310 
# 
# 
# High freq. dielectric constant tensor:
#      x y z
#    x 1.757080 0.000000 -0.004780 
#    y 0.000000 1.761580 0.000000 
#    z -0.004780 0.000000 1.747820 
# 
# From -- ./inp_files/105011.got.cif
#   From: 2010.06.25/outbox.cif.g09.slc.cpg/sg15_53_cif.got.tgz:105011.got - 2010.06.28 07:06:18.
