data_PCOD8141845
_publ_section_title
;
Structure prediction by ZEFSAII (Michael W. Deem and Ramdas Pophale) SiO2 
 PCOD8141845
Probable space group: C 2/C
;
_chemical_formula_sum "Si O2"
_cell_formula_units_Z 48
_cell_length_a 13.343851
_cell_length_b 28.953961
_cell_length_c 8.485455
_cell_angle_alpha 90.000000
_cell_angle_beta 136.357625
_cell_angle_gamma 90.000000
_cell_volume 2262.616266
_symmetry_space_group_name_H-M "C 2/C"
_symmetry_group_IT_number 15
_symmetry_cell_setting 'monoclinic'
loop_
_space_group_symop_operation_xyz
x,y,z
-x,y,1/2-z
-x,-y,-z
x,-y,1/2+z
1/2+x,1/2+y,z
1/2-x,1/2+y,1/2-z
1/2-x,1/2-y,-z
1/2+x,1/2-y,1/2+z
loop_
_atom_site_type_symbol
_atom_site_label
_atom_site_fract_x
_atom_site_fract_y
_atom_site_fract_z
Si Si1 0.157508 0.363992 0.995182
Si Si2 0.179835 0.946415 0.137821
Si Si3 0.665702 0.543158 0.266301
Si Si4 0.259676 0.767049 0.334307
Si Si5 0.037743 0.798508 0.611744
Si Si6 0.874954 0.881163 0.992833
O O1 0.261553 0.352031 0.966336
O O2 0.000000 0.378861 0.750000
O O3 0.232846 0.404414 0.183709
O O4 0.152420 0.315725 0.085414
O O5 0.219347 0.992778 0.277143
O O6 0.229517 0.948351 0.012318
O O7 0.005768 0.944623 0.942601
O O8 0.724435 0.579514 0.204229
O O9 0.250000 0.750000 0.500000
O O10 0.321245 0.731368 0.274143
O O11 0.091947 0.770975 0.110209
O O12 0.049163 0.849290 0.550993
O O13 0.000000 0.805675 0.750000
O O14 0.000000 0.902736 0.250000
#
# Coordination Sequence:
#
# PCOD8141845 Si02
#       6
#     8   8   8   8   8   8
#     4  12  25  43  67  98 136 177 227 276 339 407
#     4  10  21  39  63 100 131 171 218 281 334 394
#     4  10  21  37  69  96 130 167 227 280 329 396
#     4  12  23  45  68  97 131 183 225 272 336 401
#     4  12  26  42  67 103 139 172 224 285 338 396
#     4  12  22  41  68  98 128 178 229 271 331 402
#
# _framework density 21.214378
#
# number of rings (size 3 to 8) (size 9 to 14) (size 15 to 20)
#    0.000    0.667    5.000    3.000    7.000    0.000 
#    0.000    4.167    0.000    0.000    0.000    0.000 
#    0.000    0.000    0.000    0.000    0.000    0.000 
#
# Total GULP energy -297426.519673 kJ/mol
# GULP energy per Si atom -12392.771653 kJ/mol
# Density = 2.116609 g / cm^3
# Si number density = 21.214378 Si / 1000 Ang^3
#
#
#
# Elastic Constant Matrix: (Units=GPa)
#
#
# Indices 1 2 3 4 5 6 
#
# 1 90.7407 31.7278 36.1754 0.0000 -28.1057 0.0000
# 2 31.7278 125.8503 41.7150 0.0000 -21.2266 0.0000
# 3 36.1754 41.7150 88.9996 0.0000 -15.7406 0.0000
# 4 0.0000 0.0000 0.0000 31.8243 0.0000 -3.2608
# 5 -28.1057 -21.2266 -15.7406 0.0000 41.8661 0.0000
# 6 0.0000 0.0000 0.0000 -3.2608 0.0000 24.3988
#
#
#
# Elastic Compliance Matrix: (Units=1/GPa)
#
#
# Indices 1 2 3 4 5 6 
#
# 1 0.015752 -0.001100 -0.004409 0.000000 0.008359 0.000000
# 2 -0.001100 0.009940 -0.003697 0.000000 0.002911 0.000000
# 3 -0.004409 -0.003697 0.014896 0.000000 0.000767 0.000000
# 4 0.000000 0.000000 0.000000 0.031859 0.000000 0.004258
# 5 0.008359 0.002911 0.000767 0.000000 0.031262 0.000000
# 6 0.000000 0.000000 0.000000 0.004258 0.000000 0.041555
#
#
# Mechanical properties :
#
#
# Convention : Reuss Voigt Hill
#
# Bulk Modulus (GPa) = 45.09179 58.31410 51.70294
# Shear Modulus (GPa) = 29.22849 32.68267 30.95558
#
# Velocity S-wave (km/s) = 3.71586 3.92929 3.82406
# Velocity P-wave (km/s) = 6.30171 6.93783 6.62741
#
# Compressibility (1/GPa) = 0.02217699
#
# Stress axis : x y z
#
# Youngs Moduli (GPa) = 63.48499 100.60721 67.13071
#
# Poissons Ratio (x) = 0.11066 0.29595
# Poissons Ratio (y) = 0.06983 0.24817
# Poissons Ratio (z) = 0.27988 0.37193
#
# Static dielectric constant tensor:
#      x y z
#    x 3.885440 0.000000 -0.247940 
#    y 0.000000 3.977700 0.000000 
#    z -0.247940 0.000000 3.601760 
# 
# 
# High freq. dielectric constant tensor:
#      x y z
#    x 1.822360 0.000000 -0.023420 
#    y 0.000000 1.847420 0.000000 
#    z -0.023420 0.000000 1.819790 
# 
# From -- ./inp_files/43957.got.cif
#   From: 2010.06.25/outbox.cif.g09.slc.cpg/sg15_22_cif.got.tgz:43957.got - 2010.06.28 07:06:18.
