data_PCOD8141201
_publ_section_title
;
Structure prediction by ZEFSAII (Michael W. Deem and Ramdas Pophale) SiO2 
 PCOD8141201
Probable space group: C 2/C
;
_chemical_formula_sum "Si O2"
_cell_formula_units_Z 56
_cell_length_a 25.175466
_cell_length_b 5.114274
_cell_length_c 20.875069
_cell_angle_alpha 90.000000
_cell_angle_beta 77.744030
_cell_angle_gamma 90.000000
_cell_volume 2626.496853
_symmetry_space_group_name_H-M "C 2/C"
_symmetry_group_IT_number 15
_symmetry_cell_setting 'monoclinic'
loop_
_space_group_symop_operation_xyz
x,y,z
-x,y,1/2-z
-x,-y,-z
x,-y,1/2+z
1/2+x,1/2+y,z
1/2-x,1/2+y,1/2-z
1/2-x,1/2-y,-z
1/2+x,1/2-y,1/2+z
loop_
_atom_site_type_symbol
_atom_site_label
_atom_site_fract_x
_atom_site_fract_y
_atom_site_fract_z
Si Si1 0.309669 0.262678 0.177092
Si Si2 0.039501 0.646323 0.888362
Si Si3 0.085392 0.757321 0.579400
Si Si4 0.114856 0.424719 0.259537
Si Si5 0.878859 0.731172 0.358966
Si Si6 0.907782 0.866371 0.068311
Si Si7 0.300516 0.540413 0.308745
O O1 0.349299 0.407236 0.116993
O O2 0.290118 0.453343 0.238358
O O3 0.255468 0.171096 0.153238
O O4 0.342180 0.020215 0.198458
O O5 0.064568 0.700755 0.811155
O O6 0.057131 0.363030 0.908829
O O7 0.975226 0.648846 0.899010
O O8 0.058494 0.866479 0.933487
O O9 0.123760 0.521389 0.594227
O O10 0.103159 0.812201 0.502720
O O11 0.089625 0.026688 0.617617
O O12 0.093126 0.651944 0.216914
O O13 0.145843 0.222669 0.205201
O O14 0.816577 0.811864 0.355155
#
# Coordination Sequence:
#
# PCOD8141201 Si02
#       7
#     8   8   8   8   8   8   8
#     4  10  21  35  69  96 120 160 205 274 329 351
#     4  11  23  41  67  96 121 164 214 271 315 358
#     4  12  24  44  63  88 133 179 204 249 316 382
#     4  10  21  40  61  95 125 150 210 264 308 376
#     4  11  25  42  60  91 131 171 210 248 313 394
#     4  11  23  42  66  97 125 158 221 265 304 383
#     4  11  19  40  63  92 128 157 207 269 323 369
#
# _framework density 21.321176999999999
#
# number of rings (size 3 to 8) (size 9 to 14) (size 15 to 20)
#    0.000    1.143    4.286    2.571    0.000    0.571 
#    2.571    1.429    0.000    0.000    0.000    0.000 
#    0.000    0.000    0.000    0.000    0.000    0.000 
#
# Total GULP energy -347140.289676 kJ/mol
# GULP energy per Si atom -12397.867488 kJ/mol
# Density = 2.127265 g / cm^3
# Si number density = 21.321177 Si / 1000 Ang^3
#
#
#
# Elastic Constant Matrix: (Units=GPa)
#
#
# Indices 1 2 3 4 5 6 
#
# 1 70.6550 23.3838 38.2993 0.0000 6.1127 0.0000
# 2 23.3838 88.4410 19.7492 0.0000 5.3142 0.0000
# 3 38.2993 19.7492 76.6716 0.0000 16.5710 0.0000
# 4 0.0000 0.0000 0.0000 35.7700 0.0000 11.2794
# 5 6.1127 5.3142 16.5710 0.0000 20.3239 0.0000
# 6 0.0000 0.0000 0.0000 11.2794 0.0000 30.9314
#
#
#
# Elastic Compliance Matrix: (Units=1/GPa)
#
#
# Indices 1 2 3 4 5 6 
#
# 1 0.020406 -0.003345 -0.009947 0.000000 0.002848 0.000000
# 2 -0.003345 0.012555 -0.001300 0.000000 -0.001217 0.000000
# 3 -0.009947 -0.001300 0.021397 0.000000 -0.014114 0.000000
# 4 0.000000 0.000000 0.000000 0.031589 0.000000 -0.011519
# 5 0.002848 -0.001217 -0.014114 0.000000 0.060173 0.000000
# 6 0.000000 0.000000 0.000000 -0.011519 0.000000 0.036530
#
#
# Mechanical properties :
#
#
# Convention : Reuss Voigt Hill
#
# Bulk Modulus (GPa) = 39.72476 44.29245 42.00860
# Shear Modulus (GPa) = 22.70412 27.69408 25.19910
#
# Velocity S-wave (km/s) = 3.26676 3.60794 3.44158
# Velocity P-wave (km/s) = 5.73594 6.17862 5.96139
#
# Compressibility (1/GPa) = 0.02517322
#
# Stress axis : x y z
#
# Youngs Moduli (GPa) = 49.00531 79.65059 46.73609
#
# Poissons Ratio (x) = 0.26645 0.46489
# Poissons Ratio (y) = 0.16393 0.06075
# Poissons Ratio (z) = 0.48746 0.10354
#
# Static dielectric constant tensor:
#      x y z
#    x 3.735310 0.000000 0.042130 
#    y 0.000000 4.013490 0.000000 
#    z 0.042130 0.000000 3.868070 
# 
# 
# High freq. dielectric constant tensor:
#      x y z
#    x 1.823610 0.000000 0.011260 
#    y 0.000000 1.850760 0.000000 
#    z 0.011260 0.000000 1.820530 
# 
# From -- ./inp_files/254026.got.cif
#   From: 2010.06.25/outbox.cif.g09.slc.cpg/sg15_128_cif.got.tgz:254026.got - 2010.06.28 07:06:18.
