data_PCOD8141640
_publ_section_title
;
Structure prediction by ZEFSAII (Michael W. Deem and Ramdas Pophale) SiO2 
 PCOD8141640
Probable space group: C 2/C
;
_chemical_formula_sum "Si O2"
_cell_formula_units_Z 48
_cell_length_a 16.535942
_cell_length_b 12.496324
_cell_length_c 10.746034
_cell_angle_alpha 90.000000
_cell_angle_beta 120.982300
_cell_angle_gamma 90.000000
_cell_volume 1903.731115
_symmetry_space_group_name_H-M "C 2/C"
_symmetry_group_IT_number 15
_symmetry_cell_setting 'monoclinic'
loop_
_space_group_symop_operation_xyz
x,y,z
-x,y,1/2-z
-x,-y,-z
x,-y,1/2+z
1/2+x,1/2+y,z
1/2-x,1/2+y,1/2-z
1/2-x,1/2-y,-z
1/2+x,1/2-y,1/2+z
loop_
_atom_site_type_symbol
_atom_site_label
_atom_site_fract_x
_atom_site_fract_y
_atom_site_fract_z
Si Si1 0.383077 0.203212 0.011229
Si Si2 0.339321 0.347015 0.754098
Si Si3 0.396210 0.793190 0.802947
Si Si4 0.689662 0.989484 0.187860
Si Si5 0.713962 0.329718 0.079221
Si Si6 0.973755 0.057146 0.107749
O O1 0.493894 0.227134 0.089951
O O2 0.355755 0.224782 0.132306
O O3 0.324565 0.281927 0.872564
O O4 0.357907 0.079921 0.959300
O O5 0.292756 0.464045 0.731051
O O6 0.277764 0.283246 0.595075
O O7 0.450920 0.346106 0.819135
O O8 0.379580 0.914644 0.833376
O O9 0.342251 0.707672 0.843513
O O10 0.704615 0.913424 0.320162
O O11 0.630578 0.396408 0.942443
O O12 0.000000 0.981873 0.250000
O O13 0.000000 0.000000 0.000000
#
# Coordination Sequence:
#
# PCOD8141640 Si02
#       6
#     8   8   8   8   8   8
#     4  10  21  39  67  94 127 174 225 279 337 398
#     4  10  22  42  65  95 133 172 221 273 331 396
#     4  10  21  39  67  94 127 174 225 279 337 398
#     4  10  21  37  60  96 136 162 220 270 338 394
#     4  10  22  42  65  95 133 172 221 273 331 396
#     4  12  26  46  70 101 136 177 226 277 340 400
#
# _framework density 25.213645
#
# number of rings (size 3 to 8) (size 9 to 14) (size 15 to 20)
#    0.000    1.667    3.333    0.500    0.000    9.333 
#    0.000    5.000    0.000    0.000    0.000    0.000 
#    0.000    0.000    0.000    0.000    0.000    0.000 
#
# Total GULP energy -297327.264106 kJ/mol
# GULP energy per Si atom -12388.636004 kJ/mol
# Density = 2.515626 g / cm^3
# Si number density = 25.213645 Si / 1000 Ang^3
#
#
#
# Elastic Constant Matrix: (Units=GPa)
#
#
# Indices 1 2 3 4 5 6 
#
# 1 94.0456 3.1431 22.0250 0.0000 -4.5014 0.0000
# 2 3.1431 80.2901 39.9933 0.0000 -11.0074 0.0000
# 3 22.0250 39.9933 163.1888 0.0000 -10.5883 0.0000
# 4 0.0000 0.0000 0.0000 36.5039 0.0000 -6.2402
# 5 -4.5014 -11.0074 -10.5883 0.0000 31.0407 0.0000
# 6 0.0000 0.0000 0.0000 -6.2402 0.0000 36.1366
#
#
#
# Elastic Compliance Matrix: (Units=1/GPa)
#
#
# Indices 1 2 3 4 5 6 
#
# 1 0.011035 0.000503 -0.001531 0.000000 0.001256 0.000000
# 2 0.000503 0.014695 -0.003402 0.000000 0.004124 0.000000
# 3 -0.001531 -0.003402 0.007236 0.000000 0.001040 0.000000
# 4 0.000000 0.000000 0.000000 0.028228 0.000000 0.004874
# 5 0.001256 0.004124 0.001040 0.000000 0.034215 0.000000
# 6 0.000000 0.000000 0.000000 0.004874 0.000000 0.028515
#
#
# Mechanical properties :
#
#
# Convention : Reuss Voigt Hill
#
# Bulk Modulus (GPa) = 41.48368 51.98305 46.73337
# Shear Modulus (GPa) = 35.50693 38.89378 37.20035
#
# Velocity S-wave (km/s) = 3.75673 3.93182 3.84527
# Velocity P-wave (km/s) = 5.94188 6.42449 6.18789
#
# Compressibility (1/GPa) = 0.02410586
#
# Stress axis : x y z
#
# Youngs Moduli (GPa) = 90.62045 68.05092 138.20472
#
# Poissons Ratio (x) = -0.03422 0.21160
# Poissons Ratio (y) = -0.04557 0.47012
# Poissons Ratio (z) = 0.13875 0.23149
#
# Static dielectric constant tensor:
#      x y z
#    x 4.818730 0.000000 0.015620 
#    y 0.000000 4.406940 0.000000 
#    z 0.015620 0.000000 5.336410 
# 
# 
# High freq. dielectric constant tensor:
#      x y z
#    x 2.020350 0.000000 -0.002100 
#    y 0.000000 1.996240 0.000000 
#    z -0.002100 0.000000 2.056070 
# 
# From -- ./inp_files/111773.got.cif
#   From: 2010.06.25/outbox.cif.g09.slc.cpg/sg15_56_cif.got.tgz:111773.got - 2010.06.28 07:06:18.
