data_PCOD8141329
_publ_section_title
;
Structure prediction by ZEFSAII (Michael W. Deem and Ramdas Pophale) SiO2 
 PCOD8141329
Probable space group: C 2/C
;
_chemical_formula_sum "Si O2"
_cell_formula_units_Z 52
_cell_length_a 11.280796
_cell_length_b 27.232969
_cell_length_c 8.354900
_cell_angle_alpha 90.000000
_cell_angle_beta 69.881215
_cell_angle_gamma 90.000000
_cell_volume 2410.088791
_symmetry_space_group_name_H-M "C 2/C"
_symmetry_group_IT_number 15
_symmetry_cell_setting 'monoclinic'
loop_
_space_group_symop_operation_xyz
x,y,z
-x,y,1/2-z
-x,-y,-z
x,-y,1/2+z
1/2+x,1/2+y,z
1/2-x,1/2+y,1/2-z
1/2-x,1/2-y,-z
1/2+x,1/2-y,1/2+z
loop_
_atom_site_type_symbol
_atom_site_label
_atom_site_fract_x
_atom_site_fract_y
_atom_site_fract_z
Si Si1 0.073683 0.416955 0.551413
Si Si2 0.643922 0.430975 0.652852
Si Si3 0.141347 0.256319 0.247103
Si Si4 0.047479 0.688511 0.065088
Si Si5 0.217649 0.328945 0.954426
Si Si6 0.755668 0.510957 0.396351
Si Si7 0.500000 0.950019 0.250000
O O1 0.195062 0.452910 0.484307
O O2 0.991123 0.419919 0.423325
O O3 0.000000 0.432185 0.750000
O O4 0.125767 0.361673 0.556237
O O5 0.500000 0.415712 0.750000
O O6 0.720453 0.382600 0.560263
O O7 0.651680 0.472718 0.511514
O O8 0.701034 0.453924 0.785983
O O9 0.208277 0.203540 0.211838
O O10 0.000000 0.251039 0.250000
O O11 0.133026 0.271948 0.435890
O O12 0.223839 0.298234 0.118048
O O13 0.928110 0.667769 0.022342
O O14 0.000000 0.713785 0.250000
O O15 0.875497 0.481132 0.278994
#
# Coordination Sequence:
#
# PCOD8141329 Si02
#       7
#     8   8   8   8   8   8   4
#     4  11  22  37  59  98 134 159 203 268 329 378
#     4  12  26  42  62  87 127 175 215 253 319 388
#     4   9  20  38  62  89 119 152 206 260 309 377
#     4  10  21  36  59  93 126 152 198 262 324 375
#     4  10  21  39  62  87 118 163 208 254 310 375
#     4  12  23  41  60  90 127 163 212 268 312 377
#     4  12  22  36  66  94 126 166 212 262 328 374
#
# _framework density 21.575969000000001
#
# number of rings (size 3 to 8) (size 9 to 14) (size 15 to 20)
#    0.000    1.231    2.308    5.077    5.385    0.615 
#    0.000    0.000    0.000    2.769    0.000    0.000 
#    0.000    0.000    0.000    0.000    0.000    0.000 
#
# Total GULP energy -322164.772517 kJ/mol
# GULP energy per Si atom -12390.952789 kJ/mol
# Density = 2.152686 g / cm^3
# Si number density = 21.575969 Si / 1000 Ang^3
#
#
#
# Elastic Constant Matrix: (Units=GPa)
#
#
# Indices 1 2 3 4 5 6 
#
# 1 47.7333 9.8422 13.7924 0.0000 -3.3138 0.0000
# 2 9.8422 119.1550 45.2155 0.0000 -2.5436 0.0000
# 3 13.7924 45.2155 110.5278 0.0000 13.5593 0.0000
# 4 0.0000 0.0000 0.0000 35.2931 0.0000 -2.3292
# 5 -3.3138 -2.5436 13.5593 0.0000 39.1412 0.0000
# 6 0.0000 0.0000 0.0000 -2.3292 0.0000 22.7889
#
#
#
# Elastic Compliance Matrix: (Units=1/GPa)
#
#
# Indices 1 2 3 4 5 6 
#
# 1 0.022102 -0.000697 -0.002817 0.000000 0.002802 0.000000
# 2 -0.000697 0.010132 -0.004315 0.000000 0.002094 0.000000
# 3 -0.002817 -0.004315 0.011726 0.000000 -0.004581 0.000000
# 4 0.000000 0.000000 0.000000 0.028527 0.000000 0.002916
# 5 0.002802 0.002094 -0.004581 0.000000 0.027509 0.000000
# 6 0.000000 0.000000 0.000000 0.002916 0.000000 0.044179
#
#
# Mechanical properties :
#
#
# Convention : Reuss Voigt Hill
#
# Bulk Modulus (GPa) = 35.33177 46.12402 40.72789
# Shear Modulus (GPa) = 29.53941 33.34905 31.44423
#
# Velocity S-wave (km/s) = 3.70413 3.93575 3.82170
# Velocity P-wave (km/s) = 5.89111 6.48671 6.19607
#
# Compressibility (1/GPa) = 0.02830314
#
# Stress axis : x y z
#
# Youngs Moduli (GPa) = 45.24526 98.69684 85.27992
#
# Poissons Ratio (x) = 0.06879 0.24020
# Poissons Ratio (y) = 0.03154 0.36797
# Poissons Ratio (z) = 0.12744 0.42586
#
# Static dielectric constant tensor:
#      x y z
#    x 3.700780 0.000000 0.123780 
#    y 0.000000 4.033620 0.000000 
#    z 0.123780 0.000000 4.314800 
# 
# 
# High freq. dielectric constant tensor:
#      x y z
#    x 1.816070 0.000000 0.003940 
#    y 0.000000 1.857980 0.000000 
#    z 0.003940 0.000000 1.848870 
# 
# From -- ./inp_files/35091.got.cif
#   From: 2010.06.25/outbox.cif.g09.slc.cpg/sg15_18_cif.got.tgz:35091.got - 2010.06.28 07:06:18.
