data_PCOD8141296
_publ_section_title
;
Structure prediction by ZEFSAII (Michael W. Deem and Ramdas Pophale) SiO2 
 PCOD8141296
Probable space group: C 2/C
;
_chemical_formula_sum "Si O2"
_cell_formula_units_Z 56
_cell_length_a 24.522398
_cell_length_b 13.391480
_cell_length_c 9.461068
_cell_angle_alpha 90.000000
_cell_angle_beta 119.884978
_cell_angle_gamma 90.000000
_cell_volume 2693.794782
_symmetry_space_group_name_H-M "C 2/C"
_symmetry_group_IT_number 15
_symmetry_cell_setting 'monoclinic'
loop_
_space_group_symop_operation_xyz
x,y,z
-x,y,1/2-z
-x,-y,-z
x,-y,1/2+z
1/2+x,1/2+y,z
1/2-x,1/2+y,1/2-z
1/2-x,1/2-y,-z
1/2+x,1/2-y,1/2+z
loop_
_atom_site_type_symbol
_atom_site_label
_atom_site_fract_x
_atom_site_fract_y
_atom_site_fract_z
Si Si1 0.890234 0.379717 0.345346
Si Si2 0.607433 0.384841 0.102100
Si Si3 0.809102 0.288595 0.736378
Si Si4 0.665630 0.267435 0.533563
Si Si5 0.387773 0.070504 0.523151
Si Si6 0.924476 0.943630 0.146164
Si Si7 0.488430 0.226947 0.585239
O O1 0.836494 0.306148 0.334483
O O2 0.899361 0.460438 0.480085
O O3 0.950659 0.307746 0.419860
O O4 0.872339 0.428584 0.171589
O O5 0.672487 0.320892 0.172799
O O6 0.604896 0.455431 0.235563
O O7 0.594962 0.452169 0.950338
O O8 0.552002 0.303621 0.059025
O O9 0.735608 0.311722 0.625788
O O10 0.842590 0.292340 0.625456
O O11 0.831564 0.377183 0.866326
O O12 0.611611 0.352224 0.477526
O O13 0.452145 0.126571 0.578911
O O14 0.000000 0.928702 0.250000
O O15 0.500000 0.282812 0.750000
#
# Coordination Sequence:
#
# PCOD8141296 Si02
#       7
#     8   8   8   8   8   8   8
#     4  11  21  36  59  87 114 151 193 239 297 354
#     4  10  21  37  59  84 117 154 191 241 291 349
#     4   9  21  42  58  81 117 157 198 244 295 344
#     4  10  22  39  60  83 117 156 198 244 292 355
#     4  10  21  36  58  84 115 149 192 245 296 354
#     4  11  22  36  58  88 116 150 192 240 295 347
#     4   9  19  36  57  84 117 152 192 242 297 353
#
# _framework density 20.788518
#
# number of rings (size 3 to 8) (size 9 to 14) (size 15 to 20)
#    0.000    2.000    0.000    3.000    0.000    5.143 
#    0.000    9.286    0.000    0.000    0.000    0.000 
#    0.000    0.000    0.000    0.000    0.000    0.000 
#
# Total GULP energy -347017.869270 kJ/mol
# GULP energy per Si atom -12393.495331 kJ/mol
# Density = 2.074120 g / cm^3
# Si number density = 20.788518 Si / 1000 Ang^3
#
#
#
# Elastic Constant Matrix: (Units=GPa)
#
#
# Indices 1 2 3 4 5 6 
#
# 1 73.4974 38.2386 39.1729 0.0000 0.3578 0.0000
# 2 38.2386 81.8322 44.3154 0.0000 -13.2003 0.0000
# 3 39.1729 44.3154 106.0404 0.0000 -0.5725 0.0000
# 4 0.0000 0.0000 0.0000 45.8423 0.0000 -8.2775
# 5 0.3578 -13.2003 -0.5725 0.0000 31.6185 0.0000
# 6 0.0000 0.0000 0.0000 -8.2775 0.0000 5.6790
#
#
#
# Elastic Compliance Matrix: (Units=1/GPa)
#
#
# Indices 1 2 3 4 5 6 
#
# 1 0.019765 -0.007532 -0.004173 0.000000 -0.003444 0.000000
# 2 -0.007532 0.020112 -0.005577 0.000000 0.008381 0.000000
# 3 -0.004173 -0.005577 0.013292 0.000000 -0.002041 0.000000
# 4 0.000000 0.000000 0.000000 0.029606 0.000000 0.043152
# 5 -0.003444 0.008381 -0.002041 0.000000 0.035128 0.000000
# 6 0.000000 0.000000 0.000000 0.043152 0.000000 0.238982
#
#
# Mechanical properties :
#
#
# Convention : Reuss Voigt Hill
#
# Bulk Modulus (GPa) = 53.74826 56.09153 54.91989
# Shear Modulus (GPa) = 12.57390 25.93750 19.25570
#
# Velocity S-wave (km/s) = 2.46203 3.53609 3.04676
# Velocity P-wave (km/s) = 5.83036 6.61154 6.23320
#
# Compressibility (1/GPa) = 0.01860525
#
# Stress axis : x y z
#
# Youngs Moduli (GPa) = 50.59408 49.72198 75.23559
#
# Poissons Ratio (x) = 0.37450 0.31392
# Poissons Ratio (y) = 0.38106 0.41962
# Poissons Ratio (z) = 0.21110 0.27732
#
# Static dielectric constant tensor:
#      x y z
#    x 3.570740 0.000000 0.024120 
#    y 0.000000 3.577880 0.000000 
#    z 0.024120 0.000000 4.775140 
# 
# 
# High freq. dielectric constant tensor:
#      x y z
#    x 1.799470 0.000000 -0.002760 
#    y 0.000000 1.807570 0.000000 
#    z -0.002760 0.000000 1.825000 
# 
# From -- ./inp_files/62011.got.cif
#   From: 2010.06.25/outbox.cif.g09.slc.cpg/sg15_32_cif.got.tgz:62011.got - 2010.06.28 07:06:18.
