data_PCOD8141298
_publ_section_title
;
Structure prediction by ZEFSAII (Michael W. Deem and Ramdas Pophale) SiO2 
 PCOD8141298
Probable space group: C 2/C
;
_chemical_formula_sum "Si O2"
_cell_formula_units_Z 40
_cell_length_a 29.438664
_cell_length_b 7.799491
_cell_length_c 13.810197
_cell_angle_alpha 90.000000
_cell_angle_beta 38.354470
_cell_angle_gamma 90.000000
_cell_volume 1967.629800
_symmetry_space_group_name_H-M "C 2/C"
_symmetry_group_IT_number 15
_symmetry_cell_setting 'monoclinic'
loop_
_space_group_symop_operation_xyz
x,y,z
-x,y,1/2-z
-x,-y,-z
x,-y,1/2+z
1/2+x,1/2+y,z
1/2-x,1/2+y,1/2-z
1/2-x,1/2-y,-z
1/2+x,1/2-y,1/2+z
loop_
_atom_site_type_symbol
_atom_site_label
_atom_site_fract_x
_atom_site_fract_y
_atom_site_fract_z
Si Si1 0.533047 0.390844 0.591805
Si Si2 0.412356 0.637205 0.151925
Si Si3 0.778200 0.075724 0.906489
Si Si4 0.709212 0.893687 0.185616
Si Si5 0.191585 0.747621 0.327538
O O1 0.500000 0.439739 0.750000
O O2 0.548887 0.567848 0.509692
O O3 0.471423 0.293753 0.630739
O O4 0.604671 0.273106 0.484528
O O5 0.362792 0.483776 0.282808
O O6 0.367707 0.800069 0.189233
O O7 0.771983 0.102249 0.801072
O O8 0.750000 0.250000 0.000000
O O9 0.730655 0.927439 0.037167
O O10 0.768790 0.765332 0.134997
O O11 0.704864 0.065313 0.255825
#
# Coordination Sequence:
#
# PCOD8141298 Si02
#       5
#     8   8   8   8   8
#     4  10  21  38  56  80 115 153 190 229 282 339
#     4  10  21  36  58  85 115 152 187 229 283 339
#     4   9  19  35  57  85 113 142 181 231 281 330
#     4  11  21  37  59  85 115 144 189 240 283 334
#     4  10  21  36  58  85 112 148 189 232 283 341
#
# _framework density 20.329025999999999
#
# number of rings (size 3 to 8) (size 9 to 14) (size 15 to 20)
#    0.000    2.000    0.000    4.200    0.000    4.000 
#    0.000    1.000    0.000    0.000    0.000    0.000 
#    0.000    0.000    0.000    0.000    0.000    0.000 
#
# Total GULP energy -247761.318604 kJ/mol
# GULP energy per Si atom -12388.065930 kJ/mol
# Density = 2.028276 g / cm^3
# Si number density = 20.329026 Si / 1000 Ang^3
#
#
#
# Elastic Constant Matrix: (Units=GPa)
#
#
# Indices 1 2 3 4 5 6 
#
# 1 125.5609 43.0851 57.8166 -0.0004 -12.3839 0.0001
# 2 43.0851 82.7276 39.4842 -0.0057 -3.4008 -0.0010
# 3 57.8166 39.4842 108.8216 -0.0027 5.8747 -0.0007
# 4 -0.0004 -0.0057 -0.0027 29.0174 -0.0009 -7.8868
# 5 -12.3839 -3.4008 5.8747 -0.0009 35.8653 -0.0002
# 6 0.0001 -0.0010 -0.0007 -7.8868 -0.0002 23.4958
#
#
#
# Elastic Compliance Matrix: (Units=1/GPa)
#
#
# Indices 1 2 3 4 5 6 
#
# 1 0.012145 -0.003541 -0.005424 -0.000001 0.004746 -0.000001
# 2 -0.003541 0.015839 -0.003915 0.000003 0.000920 0.000002
# 3 -0.005424 -0.003915 0.013734 0.000000 -0.004494 0.000000
# 4 -0.000001 0.000003 0.000000 0.037922 0.000001 0.012729
# 5 0.004746 0.000920 -0.004494 0.000001 0.030344 0.000000
# 6 -0.000001 0.000002 0.000000 0.012729 0.000000 0.046834
#
#
# Mechanical properties :
#
#
# Convention : Reuss Voigt Hill
#
# Bulk Modulus (GPa) = 62.66728 66.43133 64.54930
# Shear Modulus (GPa) = 26.61031 29.45734 28.03383
#
# Velocity S-wave (km/s) = 3.62191 3.81074 3.71752
# Velocity P-wave (km/s) = 6.95589 7.21882 7.08857
#
# Compressibility (1/GPa) = 0.01595729
#
# Stress axis : x y z
#
# Youngs Moduli (GPa) = 82.33756 63.13690 72.81131
#
# Poissons Ratio (x) = 0.22359 0.39492
# Poissons Ratio (y) = 0.29159 0.28505
# Poissons Ratio (z) = 0.44659 0.24718
#
# Static dielectric constant tensor:
#      x y z
#    x 3.812260 0.000000 0.127170 
#    y 0.000000 3.559700 0.000000 
#    z 0.127170 0.000000 4.021910 
# 
# 
# High freq. dielectric constant tensor:
#      x y z
#    x 1.795800 0.000000 0.011470 
#    y 0.000000 1.783360 0.000000 
#    z 0.011470 0.000000 1.804000 
# 
# From -- ./inp_files/109585.got.cif
#   From: 2010.06.25/outbox.cif.g09.slc.cpg/sg15_55_cif.got.tgz:109585.got - 2010.06.28 07:06:18.
