data_PCOD8141738
_publ_section_title
;
Structure prediction by ZEFSAII (Michael W. Deem and Ramdas Pophale) SiO2 
 PCOD8141738
Probable space group: C 2/C
;
_chemical_formula_sum "Si O2"
_cell_formula_units_Z 64
_cell_length_a 8.857965
_cell_length_b 26.046568
_cell_length_c 18.038007
_cell_angle_alpha 90.000000
_cell_angle_beta 133.859732
_cell_angle_gamma 90.000000
_cell_volume 3000.760468
_symmetry_space_group_name_H-M "C 2/C"
_symmetry_group_IT_number 15
_symmetry_cell_setting 'monoclinic'
loop_
_space_group_symop_operation_xyz
x,y,z
-x,y,1/2-z
-x,-y,-z
x,-y,1/2+z
1/2+x,1/2+y,z
1/2-x,1/2+y,1/2-z
1/2-x,1/2-y,-z
1/2+x,1/2-y,1/2+z
loop_
_atom_site_type_symbol
_atom_site_label
_atom_site_fract_x
_atom_site_fract_y
_atom_site_fract_z
Si Si1 0.284711 0.453766 0.219223
Si Si2 0.089419 0.051983 0.061604
Si Si3 0.565137 0.392674 0.690907
Si Si4 0.461735 0.054300 0.331863
Si Si5 0.727491 0.818616 0.542277
Si Si6 0.603734 0.101147 0.525535
Si Si7 0.526600 0.624382 0.606893
Si Si8 0.704965 0.210798 0.869505
O O1 0.500000 0.466274 0.250000
O O2 0.191066 0.505211 0.222638
O O3 0.115444 0.429865 0.105960
O O4 0.315491 0.413331 0.296367
O O5 0.980662 0.064514 0.103366
O O6 0.344219 0.048615 0.160184
O O7 0.037674 0.099628 0.992328
O O8 0.000000 0.000000 0.000000
O O9 0.500000 0.411031 0.750000
O O10 0.819293 0.394155 0.770812
O O11 0.469620 0.337134 0.635978
O O12 0.571913 0.059578 0.449657
O O13 0.588321 0.859986 0.537308
O O14 0.658505 0.816533 0.432717
O O15 0.695458 0.765435 0.574756
O O16 0.819040 0.133118 0.585934
O O17 0.632213 0.678935 0.625068
O O18 0.500000 0.217675 0.750000
#
# Coordination Sequence:
#
# PCOD8141738 Si02
#       8
#     8   8   8   8   8   8   8   8
#     4  10  21  37  63 100 136 180 224 266 330 401
#     4  11  25  41  61  95 136 176 225 274 331 400
#     4  12  23  41  66  92 131 176 222 279 331 393
#     4  11  23  37  63  96 137 183 225 268 329 400
#     4  11  24  43  69  98 130 171 223 288 333 400
#     4  10  22  39  63  94 135 175 217 271 331 394
#     4  10  22  42  62  91 133 170 215 278 326 401
#     4  11  24  43  70  98 127 169 228 278 347 401
#
# _framework density 21.327926999999999
#
# number of rings (size 3 to 8) (size 9 to 14) (size 15 to 20)
#    0.000    1.250    2.500    3.000    1.750    3.500 
#    0.000    0.000    0.000    0.000    0.000    0.000 
#    0.000    0.000    0.000    0.000    0.000    0.000 
#
# Total GULP energy -396767.945999 kJ/mol
# GULP energy per Si atom -12398.998312 kJ/mol
# Density = 2.127938 g / cm^3
# Si number density = 21.327927 Si / 1000 Ang^3
#
#
#
# Elastic Constant Matrix: (Units=GPa)
#
#
# Indices 1 2 3 4 5 6 
#
# 1 88.6816 42.7933 28.6701 0.0000 -9.2787 0.0000
# 2 42.7933 96.0900 28.7669 0.0000 3.0670 0.0000
# 3 28.6701 28.7669 97.2752 0.0000 -3.2364 0.0000
# 4 0.0000 0.0000 0.0000 36.9744 0.0000 -1.8781
# 5 -9.2787 3.0670 -3.2364 0.0000 40.3081 0.0000
# 6 0.0000 0.0000 0.0000 -1.8781 0.0000 35.6359
#
#
#
# Elastic Compliance Matrix: (Units=1/GPa)
#
#
# Indices 1 2 3 4 5 6 
#
# 1 0.015543 -0.006266 -0.002600 0.000000 0.003846 0.000000
# 2 -0.006266 0.013997 -0.002382 0.000000 -0.002699 0.000000
# 3 -0.002600 -0.002382 0.011768 0.000000 0.000528 0.000000
# 4 0.000000 0.000000 0.000000 0.027118 0.000000 0.001429
# 5 0.003846 -0.002699 0.000528 0.000000 0.025942 0.000000
# 6 0.000000 0.000000 0.000000 0.001429 0.000000 0.028137
#
#
# Mechanical properties :
#
#
# Convention : Reuss Voigt Hill
#
# Bulk Modulus (GPa) = 53.15924 53.61194 53.38559
# Shear Modulus (GPa) = 33.05277 34.70479 33.87878
#
# Velocity S-wave (km/s) = 3.94095 4.03823 3.98989
# Velocity P-wave (km/s) = 6.75921 6.85089 6.80520
#
# Compressibility (1/GPa) = 0.01881141
#
# Stress axis : x y z
#
# Youngs Moduli (GPa) = 64.33706 71.44409 84.97324
#
# Poissons Ratio (x) = 0.44770 0.22092
# Poissons Ratio (y) = 0.40317 0.20242
# Poissons Ratio (z) = 0.16727 0.17019
#
# Static dielectric constant tensor:
#      x y z
#    x 3.926050 0.000000 -0.114440 
#    y 0.000000 3.611420 0.000000 
#    z -0.114440 0.000000 4.278450 
# 
# 
# High freq. dielectric constant tensor:
#      x y z
#    x 1.835380 0.000000 -0.016450 
#    y 0.000000 1.811640 0.000000 
#    z -0.016450 0.000000 1.869780 
# 
# From -- ./inp_files/194276.got.cif
#   From: 2010.06.25/outbox.cif.g09.slc.cpg/sg15_98_cif.got.tgz:194276.got - 2010.06.28 07:06:18.
