data_PCOD8141127
_publ_section_title
;
Structure prediction by ZEFSAII (Michael W. Deem and Ramdas Pophale) SiO2 
 PCOD8141127
Probable space group: C 2/C
;
_chemical_formula_sum "Si O2"
_cell_formula_units_Z 48
_cell_length_a 4.916219
_cell_length_b 28.903887
_cell_length_c 17.637202
_cell_angle_alpha 90.000000
_cell_angle_beta 111.981296
_cell_angle_gamma 90.000000
_cell_volume 2324.022212
_symmetry_space_group_name_H-M "C 2/C"
_symmetry_group_IT_number 15
_symmetry_cell_setting 'monoclinic'
loop_
_space_group_symop_operation_xyz
x,y,z
-x,y,1/2-z
-x,-y,-z
x,-y,1/2+z
1/2+x,1/2+y,z
1/2-x,1/2+y,1/2-z
1/2-x,1/2-y,-z
1/2+x,1/2-y,1/2+z
loop_
_atom_site_type_symbol
_atom_site_label
_atom_site_fract_x
_atom_site_fract_y
_atom_site_fract_z
Si Si1 0.948441 0.053982 0.992504
Si Si2 0.140058 0.184983 0.346389
Si Si3 0.789113 0.260785 0.592672
Si Si4 0.998649 0.608460 0.458801
Si Si5 0.755151 0.606215 0.668170
Si Si6 0.201101 0.340143 0.121145
O O1 0.233719 0.081490 0.053644
O O2 0.673477 0.068529 0.014359
O O3 0.876621 0.065687 0.897394
O O4 0.000000 0.000000 0.000000
O O5 0.377858 0.224808 0.361503
O O6 0.287629 0.135258 0.379218
O O7 0.000000 0.178454 0.250000
O O8 0.922010 0.199571 0.392879
O O9 0.750000 0.250000 0.500000
O O10 0.740999 0.214342 0.635713
O O11 0.145152 0.647525 0.527343
O O12 0.485061 0.631814 0.681856
O O13 0.000000 0.584569 0.750000
O O14 0.911425 0.646328 0.636381
#
# Coordination Sequence:
#
# PCOD8141127 Si02
#       6
#     8   8   8   8   8   8
#     4  10  21  39  64  89 113 153 202 244 304 385
#     4  12  26  41  60  91 128 166 212 263 306 357
#     4  12  24  39  63  88 124 170 218 255 299 363
#     4  10  21  39  61  84 117 157 196 245 305 372
#     4  10  21  36  56  86 120 147 189 250 305 350
#     4  10  21  35  59  82 112 160 197 235 296 361
#
# _framework density 20.653846000000001
#
# number of rings (size 3 to 8) (size 9 to 14) (size 15 to 20)
#    0.000    1.333    1.667    4.000    4.667    4.000 
#    0.000    1.667    0.000    0.000    0.000    0.000 
#    0.000    0.000    0.000    0.000    0.000    0.000 
#
# Total GULP energy -297571.059855 kJ/mol
# GULP energy per Si atom -12398.794161 kJ/mol
# Density = 2.060684 g / cm^3
# Si number density = 20.653846 Si / 1000 Ang^3
#
#
#
# Elastic Constant Matrix: (Units=GPa)
#
#
# Indices 1 2 3 4 5 6 
#
# 1 85.5590 11.9753 29.5309 0.0000 12.1274 0.0000
# 2 11.9753 108.8772 44.9658 0.0000 10.6762 0.0000
# 3 29.5309 44.9658 124.1764 0.0000 18.2651 0.0000
# 4 0.0000 0.0000 0.0000 20.1648 0.0000 5.0057
# 5 12.1274 10.6762 18.2651 0.0000 32.3490 0.0000
# 6 0.0000 0.0000 0.0000 5.0057 0.0000 28.4754
#
#
#
# Elastic Compliance Matrix: (Units=1/GPa)
#
#
# Indices 1 2 3 4 5 6 
#
# 1 0.013073 -0.000031 -0.002594 0.000000 -0.003426 0.000000
# 2 -0.000031 0.010865 -0.003709 0.000000 -0.001480 0.000000
# 3 -0.002594 -0.003709 0.010568 0.000000 -0.003770 0.000000
# 4 0.000000 0.000000 0.000000 0.051854 0.000000 -0.009115
# 5 -0.003426 -0.001480 -0.003770 0.000000 0.034815 0.000000
# 6 0.000000 0.000000 0.000000 -0.009115 0.000000 0.036720
#
#
# Mechanical properties :
#
#
# Convention : Reuss Voigt Hill
#
# Bulk Modulus (GPa) = 45.79182 54.61741 50.20462
# Shear Modulus (GPa) = 28.11479 31.67387 29.89433
#
# Velocity S-wave (km/s) = 3.69350 3.92032 3.80860
# Velocity P-wave (km/s) = 6.35676 6.85517 6.61067
#
# Compressibility (1/GPa) = 0.02183796
#
# Stress axis : x y z
#
# Youngs Moduli (GPa) = 76.49307 92.03759 94.62797
#
# Poissons Ratio (x) = 0.00282 0.24545
# Poissons Ratio (y) = 0.00234 0.35102
# Poissons Ratio (z) = 0.19841 0.34141
#
# Static dielectric constant tensor:
#      x y z
#    x 4.033110 0.000000 0.034500 
#    y 0.000000 3.544350 0.000000 
#    z 0.034500 0.000000 3.962620 
# 
# 
# High freq. dielectric constant tensor:
#      x y z
#    x 1.831400 0.000000 0.011490 
#    y 0.000000 1.789330 0.000000 
#    z 0.011490 0.000000 1.794680 
# 
# From -- ./inp_files/185967.got.cif
#   From: 2010.06.25/outbox.cif.g09.slc.cpg/sg15_93_cif.got.tgz:185967.got - 2010.06.28 07:06:18.
