data_PCOD8141861
_publ_section_title
;
Structure prediction by ZEFSAII (Michael W. Deem and Ramdas Pophale) SiO2 
 PCOD8141861
Probable space group: C 2/C
;
_chemical_formula_sum "Si O2"
_cell_formula_units_Z 48
_cell_length_a 28.594270
_cell_length_b 12.956519
_cell_length_c 16.205663
_cell_angle_alpha 90.000000
_cell_angle_beta 156.456766
_cell_angle_gamma 90.000000
_cell_volume 2398.207382
_symmetry_space_group_name_H-M "C 2/C"
_symmetry_group_IT_number 15
_symmetry_cell_setting 'monoclinic'
loop_
_space_group_symop_operation_xyz
x,y,z
-x,y,1/2-z
-x,-y,-z
x,-y,1/2+z
1/2+x,1/2+y,z
1/2-x,1/2+y,1/2-z
1/2-x,1/2-y,-z
1/2+x,1/2-y,1/2+z
loop_
_atom_site_type_symbol
_atom_site_label
_atom_site_fract_x
_atom_site_fract_y
_atom_site_fract_z
Si Si1 0.767120 0.378879 0.355574
Si Si2 0.403945 0.637837 0.321668
Si Si3 0.621596 0.409236 0.273841
Si Si4 0.132108 0.835352 0.465834
Si Si5 0.950874 0.789572 0.585461
Si Si6 0.710835 0.107980 0.135239
O O1 0.721407 0.373952 0.373739
O O2 0.859449 0.286133 0.497160
O O3 0.828629 0.489308 0.440923
O O4 0.655863 0.362623 0.115155
O O5 0.399752 0.531584 0.263971
O O6 0.496932 0.641135 0.547295
O O7 0.447371 0.718812 0.321097
O O8 0.278171 0.656221 0.163059
O O9 0.676690 0.367385 0.447672
O O10 0.203295 0.898879 0.648080
O O11 0.000000 0.872817 0.250000
O O12 0.903592 0.674329 0.528577
O O13 0.000000 0.836977 0.750000
#
# Coordination Sequence:
#
# PCOD8141861 Si02
#       6
#     8   8   8   8   8   8
#     4   9  21  37  53  81 115 141 186 239 275 326
#     4   9  18  34  55  85 115 140 184 237 275 323
#     4   9  17  32  56  83 111 142 182 235 281 321
#     4  11  20  31  59  85 106 149 187 223 279 342
#     4  10  22  35  58  81 105 154 188 228 273 337
#     4  10  21  38  55  82 118 145 184 236 279 328
#
# _framework density 20.014951
#
# number of rings (size 3 to 8) (size 9 to 14) (size 15 to 20)
#    0.000    2.333    1.667    1.500    2.333    1.333 
#    0.000    0.000    0.000    4.000    0.000    0.000 
#    0.000    0.000    0.000    0.000    0.000    0.000 
#
# Total GULP energy -297379.823077 kJ/mol
# GULP energy per Si atom -12390.825962 kJ/mol
# Density = 1.996940 g / cm^3
# Si number density = 20.014951 Si / 1000 Ang^3
#
#
#
# Elastic Constant Matrix: (Units=GPa)
#
#
# Indices 1 2 3 4 5 6 
#
# 1 94.7178 34.6748 30.0319 0.0000 -28.8077 0.0000
# 2 34.6748 70.2385 3.2212 0.0000 0.4746 0.0000
# 3 30.0319 3.2212 51.3973 0.0000 -21.7115 0.0000
# 4 0.0000 0.0000 0.0000 11.0789 0.0000 2.1933
# 5 -28.8077 0.4746 -21.7115 0.0000 21.2968 0.0000
# 6 0.0000 0.0000 0.0000 2.1933 0.0000 34.4630
#
#
#
# Elastic Compliance Matrix: (Units=1/GPa)
#
#
# Indices 1 2 3 4 5 6 
#
# 1 0.026357 -0.013312 0.001088 0.000000 0.037058 0.000000
# 2 -0.013312 0.021059 -0.002365 0.000000 -0.020887 0.000000
# 3 0.001088 -0.002365 0.034448 0.000000 0.036643 0.000000
# 4 0.000000 0.000000 0.000000 0.091413 0.000000 -0.005818
# 5 0.037058 -0.020887 0.036643 0.000000 0.134905 0.000000
# 6 0.000000 0.000000 0.000000 -0.005818 0.000000 0.029387
#
#
# Mechanical properties :
#
#
# Convention : Reuss Voigt Hill
#
# Bulk Modulus (GPa) = 18.98038 39.13439 29.05738
# Shear Modulus (GPa) = 13.01043 23.26280 18.13661
#
# Velocity S-wave (km/s) = 2.55235 3.41291 3.01350
# Velocity P-wave (km/s) = 4.26493 5.92669 5.16310
#
# Compressibility (1/GPa) = 0.05268600
#
# Stress axis : x y z
#
# Youngs Moduli (GPa) = 37.94051 47.48661 29.02965
#
# Poissons Ratio (x) = 0.63214 -0.03158
# Poissons Ratio (y) = 0.50507 0.06864
# Poissons Ratio (z) = -0.04128 0.11228
#
# Static dielectric constant tensor:
#      x y z
#    x 3.869200 0.000000 -0.229590 
#    y 0.000000 3.452710 0.000000 
#    z -0.229590 0.000000 3.529700 
# 
# 
# High freq. dielectric constant tensor:
#      x y z
#    x 1.787490 0.000000 -0.014410 
#    y 0.000000 1.761650 0.000000 
#    z -0.014410 0.000000 1.763190 
# 
# From -- ./inp_files/144401.got.cif
#   From: 2010.06.25/outbox.cif.g09.slc.cpg/sg15_73_cif.got.tgz:144401.got - 2010.06.28 07:06:18.
