data_PCOD8141956
_publ_section_title
;
Structure prediction by ZEFSAII (Michael W. Deem and Ramdas Pophale) SiO2 
 PCOD8141956
Probable space group: C 2/C
;
_chemical_formula_sum "Si O2"
_cell_formula_units_Z 60
_cell_length_a 13.193432
_cell_length_b 18.964353
_cell_length_c 12.010432
_cell_angle_alpha 90.000000
_cell_angle_beta 106.116690
_cell_angle_gamma 90.000000
_cell_volume 2886.964738
_symmetry_space_group_name_H-M "C 2/C"
_symmetry_group_IT_number 15
_symmetry_cell_setting 'monoclinic'
loop_
_space_group_symop_operation_xyz
x,y,z
-x,y,1/2-z
-x,-y,-z
x,-y,1/2+z
1/2+x,1/2+y,z
1/2-x,1/2+y,1/2-z
1/2-x,1/2-y,-z
1/2+x,1/2-y,1/2+z
loop_
_atom_site_type_symbol
_atom_site_label
_atom_site_fract_x
_atom_site_fract_y
_atom_site_fract_z
Si Si1 0.263157 0.230661 0.632646
Si Si2 0.528628 0.735311 0.631734
Si Si3 0.427332 0.395609 0.989944
Si Si4 0.705405 0.374186 0.759667
Si Si5 0.436834 0.113783 0.411622
Si Si6 0.500000 0.014598 0.250000
Si Si7 0.659739 0.083935 0.886793
Si Si8 0.372399 0.459550 0.562929
O O1 0.250000 0.250000 0.500000
O O2 0.150550 0.213459 0.654199
O O3 0.325516 0.295381 0.708934
O O4 0.334577 0.161360 0.665577
O O5 0.500000 0.747144 0.750000
O O6 0.449556 0.676471 0.560969
O O7 0.508358 0.809548 0.562221
O O8 0.328831 0.384604 0.877541
O O9 0.528316 0.415753 0.948637
O O10 0.397653 0.456915 0.069338
O O11 0.830983 0.379051 0.805895
O O12 0.651404 0.434616 0.819069
O O13 0.414362 0.084477 0.526930
O O14 0.509912 0.060186 0.365674
O O15 0.394620 0.966471 0.220702
O O16 0.775846 0.056647 0.951169
#
# Coordination Sequence:
#
# PCOD8141956 Si02
#       8
#     8   8   8   8   8   4   8   8
#     4  11  19  42  66  87 123 168 212 259 315 370
#     4  11  22  40  65  89 127 174 203 252 328 383
#     4  11  22  36  61  96 125 161 207 253 309 384
#     4  10  21  38  64  92 118 165 214 260 301 372
#     4  10  22  42  65  84 128 168 198 255 324 363
#     4  12  24  40  64  94 122 160 214 258 308 376
#     4  11  22  41  65  91 119 164 212 260 308 367
#     4  10  21  38  59  88 129 160 199 260 320 362
#
# _framework density 20.783073000000002
#
# number of rings (size 3 to 8) (size 9 to 14) (size 15 to 20)
#    0.000    1.333    6.000    1.600    0.000    3.200 
#    4.800    2.667    0.000    0.000    0.000    0.000 
#    0.000    0.000    0.000    0.000    0.000    0.000 
#
# Total GULP energy -372062.965415 kJ/mol
# GULP energy per Si atom -12402.098847 kJ/mol
# Density = 2.073577 g / cm^3
# Si number density = 20.783073 Si / 1000 Ang^3
#
#
#
# Elastic Constant Matrix: (Units=GPa)
#
#
# Indices 1 2 3 4 5 6 
#
# 1 52.1466 24.2743 7.4130 0.0000 -7.8004 0.0000
# 2 24.2743 144.0041 20.6147 0.0000 1.0131 0.0000
# 3 7.4130 20.6147 43.1434 0.0000 -1.8368 0.0000
# 4 0.0000 0.0000 0.0000 25.0305 0.0000 0.8394
# 5 -7.8004 1.0131 -1.8368 0.0000 31.6284 0.0000
# 6 0.0000 0.0000 0.0000 0.8394 0.0000 36.2045
#
#
#
# Elastic Compliance Matrix: (Units=1/GPa)
#
#
# Indices 1 2 3 4 5 6 
#
# 1 0.021858 -0.003454 -0.001876 0.000000 0.005392 0.000000
# 2 -0.003454 0.008006 -0.003287 0.000000 -0.001299 0.000000
# 3 -0.001876 -0.003287 0.025118 0.000000 0.001101 0.000000
# 4 0.000000 0.000000 0.000000 0.039982 0.000000 -0.000927
# 5 0.005392 -0.001299 0.001101 0.000000 0.033053 0.000000
# 6 0.000000 0.000000 0.000000 -0.000927 0.000000 0.027642
#
#
# Mechanical properties :
#
#
# Convention : Reuss Voigt Hill
#
# Bulk Modulus (GPa) = 26.49118 38.21091 32.35104
# Shear Modulus (GPa) = 26.95755 31.03881 28.99818
#
# Velocity S-wave (km/s) = 3.60542 3.86873 3.73940
# Velocity P-wave (km/s) = 5.48692 6.19529 5.85183
#
# Compressibility (1/GPa) = 0.03774841
#
# Stress axis : x y z
#
# Youngs Moduli (GPa) = 45.75030 124.90320 39.81130
#
# Poissons Ratio (x) = 0.43140 0.07468
# Poissons Ratio (y) = 0.15802 0.13087
# Poissons Ratio (z) = 0.08582 0.41060
#
# Static dielectric constant tensor:
#      x y z
#    x 3.709620 0.000000 -0.084290 
#    y 0.000000 4.189580 0.000000 
#    z -0.084290 0.000000 3.469220 
# 
# 
# High freq. dielectric constant tensor:
#      x y z
#    x 1.805430 0.000000 -0.009370 
#    y 0.000000 1.833020 0.000000 
#    z -0.009370 0.000000 1.789850 
# 
# From -- ./inp_files/98355.got.cif
#   From: 2010.06.25/outbox.cif.g09.slc.cpg/sg15_50_cif.got.tgz:98355.got - 2010.06.28 07:06:18.
