data_PCOD8141926
_publ_section_title
;
Structure prediction by ZEFSAII (Michael W. Deem and Ramdas Pophale) SiO2 
 PCOD8141926
Probable space group: C 2/C
;
_chemical_formula_sum "Si O2"
_cell_formula_units_Z 60
_cell_length_a 6.379773
_cell_length_b 18.773675
_cell_length_c 27.268319
_cell_angle_alpha 90.000000
_cell_angle_beta 84.001916
_cell_angle_gamma 90.000000
_cell_volume 3248.095297
_symmetry_space_group_name_H-M "C 2/C"
_symmetry_group_IT_number 15
_symmetry_cell_setting 'monoclinic'
loop_
_space_group_symop_operation_xyz
x,y,z
-x,y,1/2-z
-x,-y,-z
x,-y,1/2+z
1/2+x,1/2+y,z
1/2-x,1/2+y,1/2-z
1/2-x,1/2-y,-z
1/2+x,1/2-y,1/2+z
loop_
_atom_site_type_symbol
_atom_site_label
_atom_site_fract_x
_atom_site_fract_y
_atom_site_fract_z
Si Si1 0.793914 0.679128 0.527001
Si Si2 0.640207 0.392628 0.700448
Si Si3 0.598242 0.254116 0.798902
Si Si4 0.894062 0.093461 0.565725
Si Si5 0.893675 0.570955 0.018861
Si Si6 0.979116 0.360096 0.118102
Si Si7 0.000000 0.675398 0.250000
Si Si8 0.298557 0.497962 0.887842
O O1 0.750000 0.750000 0.500000
O O2 0.574389 0.650101 0.551873
O O3 0.934812 0.689657 0.572010
O O4 0.924927 0.630372 0.486091
O O5 0.500000 0.416577 0.750000
O O6 0.533348 0.322660 0.677828
O O7 0.642935 0.459413 0.664028
O O8 0.873983 0.373817 0.714272
O O9 0.500000 0.229987 0.750000
O O10 0.581283 0.185214 0.833236
O O11 0.842390 0.275099 0.785434
O O12 0.794397 0.082176 0.514842
O O13 0.727210 0.122054 0.610005
O O14 0.993823 0.022305 0.587257
O O15 0.814148 0.562284 0.076333
O O16 0.000000 0.500000 0.000000
O O17 0.849355 0.433998 0.119245
#
# Coordination Sequence:
#
# PCOD8141926 Si02
#       8
#     8   8   8   8   8   8   4   8
#     4  10  23  37  56  88 119 153 198 244 290 346
#     4   9  21  40  58  89 114 147 200 241 293 356
#     4   9  20  39  59  83 111 156 197 239 298 360
#     4  10  21  38  59  77 126 155 187 246 289 340
#     4  11  20  39  58  85 117 157 201 231 287 364
#     4  10  22  38  54  87 121 149 203 238 294 359
#     4   8  18  40  64  74 118 148 184 254 294 342
#     4  11  22  36  60  89 115 158 196 240 299 351
#
# _framework density 18.472363000000001
#
# number of rings (size 3 to 8) (size 9 to 14) (size 15 to 20)
#    0.000    2.400    4.000    0.400    0.000   11.733 
#    4.800    0.000    0.000    0.000    0.000    0.000 
#    0.000    0.000    0.000    0.000    0.000    0.000 
#
# Total GULP energy -371822.334098 kJ/mol
# GULP energy per Si atom -12394.077803 kJ/mol
# Density = 1.843032 g / cm^3
# Si number density = 18.472363 Si / 1000 Ang^3
#
#
#
# Elastic Constant Matrix: (Units=GPa)
#
#
# Indices 1 2 3 4 5 6 
#
# 1 116.2981 51.2368 36.9677 0.0000 -14.0074 0.0000
# 2 51.2368 113.4697 67.7616 0.0000 -3.8090 0.0000
# 3 36.9677 67.7616 104.8902 0.0000 -12.2030 0.0000
# 4 0.0000 0.0000 0.0000 52.9303 0.0000 3.0280
# 5 -14.0074 -3.8090 -12.2030 0.0000 19.4205 0.0000
# 6 0.0000 0.0000 0.0000 3.0280 0.0000 15.6676
#
#
#
# Elastic Compliance Matrix: (Units=1/GPa)
#
#
# Indices 1 2 3 4 5 6 
#
# 1 0.011718 -0.005035 -0.000009 0.000000 0.007459 0.000000
# 2 -0.005035 0.016705 -0.009773 0.000000 -0.006496 0.000000
# 3 -0.000009 -0.009773 0.016859 0.000000 0.008670 0.000000
# 4 0.000000 0.000000 0.000000 0.019104 0.000000 -0.003692
# 5 0.007459 -0.006496 0.008670 0.000000 0.061045 0.000000
# 6 0.000000 0.000000 0.000000 -0.003692 0.000000 0.064540
#
#
# Mechanical properties :
#
#
# Convention : Reuss Voigt Hill
#
# Bulk Modulus (GPa) = 63.90886 71.84334 67.87610
# Shear Modulus (GPa) = 22.23985 29.51647 25.87816
#
# Velocity S-wave (km/s) = 3.47357 4.00168 3.74694
# Velocity P-wave (km/s) = 7.12458 7.76711 7.45277
#
# Compressibility (1/GPa) = 0.01564728
#
# Stress axis : x y z
#
# Youngs Moduli (GPa) = 85.33639 59.86366 59.31516
#
# Poissons Ratio (x) = 0.30144 0.00055
# Poissons Ratio (y) = 0.42971 0.57967
# Poissons Ratio (z) = 0.00079 0.58503
#
# Static dielectric constant tensor:
#      x y z
#    x 3.617100 0.000000 -0.041210 
#    y 0.000000 3.279690 0.000000 
#    z -0.041210 0.000000 3.173740 
# 
# 
# High freq. dielectric constant tensor:
#      x y z
#    x 1.733920 0.000000 -0.004860 
#    y 0.000000 1.704820 0.000000 
#    z -0.004860 0.000000 1.709650 
# 
# From -- ./inp_files/305635.got.cif
#   From: 2010.06.25/outbox.cif.g09.slc.cpg/sg15_153_cif.got.tgz:305635.got - 2010.06.28 07:06:18.
