data_PCOD8141142
_publ_section_title
;
Structure prediction by ZEFSAII (Michael W. Deem and Ramdas Pophale) SiO2 
 PCOD8141142
Probable space group: C 2/C
;
_chemical_formula_sum "Si O2"
_cell_formula_units_Z 64
_cell_length_a 20.613461
_cell_length_b 9.256334
_cell_length_c 15.123906
_cell_angle_alpha 90.000000
_cell_angle_beta 85.925184
_cell_angle_gamma 90.000000
_cell_volume 2878.423323
_symmetry_space_group_name_H-M "C 2/C"
_symmetry_group_IT_number 15
_symmetry_cell_setting 'monoclinic'
loop_
_space_group_symop_operation_xyz
x,y,z
-x,y,1/2-z
-x,-y,-z
x,-y,1/2+z
1/2+x,1/2+y,z
1/2-x,1/2+y,1/2-z
1/2-x,1/2-y,-z
1/2+x,1/2-y,1/2+z
loop_
_atom_site_type_symbol
_atom_site_label
_atom_site_fract_x
_atom_site_fract_y
_atom_site_fract_z
Si Si1 0.873922 0.160378 0.587886
Si Si2 0.710436 0.495939 0.764849
Si Si3 0.105340 0.506103 0.442817
Si Si4 0.815437 0.307509 0.180795
Si Si5 0.433199 0.224144 0.785243
Si Si6 0.967492 0.459719 0.875591
Si Si7 0.371825 0.444000 0.902154
Si Si8 0.011482 0.134812 0.650981
O O1 0.835359 0.105494 0.677130
O O2 0.867001 0.333440 0.579148
O O3 0.843994 0.079756 0.503939
O O4 0.949306 0.115187 0.593335
O O5 0.779024 0.577533 0.746766
O O6 0.723811 0.346245 0.819293
O O7 0.682995 0.473635 0.667069
O O8 0.161539 0.388811 0.410854
O O9 0.088639 0.477773 0.545739
O O10 0.037761 0.477940 0.397690
O O11 0.880968 0.245000 0.216146
O O12 0.500000 0.301553 0.750000
O O13 0.410320 0.295637 0.878913
O O14 0.442822 0.053504 0.795688
O O15 0.971872 0.301194 0.838460
O O16 0.424932 0.569806 0.900537
O O17 0.000000 0.068927 0.750000
#
# Coordination Sequence:
#
# PCOD8141142 Si02
#       8
#     8   8   8   8   8   8   8   8
#     4  11  23  42  66  94 138 174 221 275 332 391
#     4  11  26  47  67  96 130 181 226 270 331 399
#     4  10  21  40  62  95 136 172 214 276 327 393
#     4  11  25  43  69  91 131 179 219 276 328 394
#     4  11  21  39  67  97 131 169 221 272 334 395
#     4  10  21  35  60 101 134 167 216 268 335 386
#     4  11  24  42  65  99 136 175 217 272 334 404
#     4  11  22  36  63 100 140 178 210 279 334 388
#
# _framework density 22.234396
#
# number of rings (size 3 to 8) (size 9 to 14) (size 15 to 20)
#    0.000    1.250    3.750    1.875    5.250    1.000 
#    2.250    2.500    0.000    0.000    0.000    0.000 
#    0.000    0.000    0.000    0.000    0.000    0.000 
#
# Total GULP energy -396586.659659 kJ/mol
# GULP energy per Si atom -12393.333114 kJ/mol
# Density = 2.218379 g / cm^3
# Si number density = 22.234396 Si / 1000 Ang^3
#
#
#
# Elastic Constant Matrix: (Units=GPa)
#
#
# Indices 1 2 3 4 5 6 
#
# 1 56.7481 23.3863 13.3686 0.0000 -14.9933 0.0000
# 2 23.3863 82.5830 17.5248 0.0000 -15.6445 0.0000
# 3 13.3686 17.5248 88.2991 0.0000 -3.4475 0.0000
# 4 0.0000 0.0000 0.0000 36.0083 0.0000 -6.9956
# 5 -14.9933 -15.6445 -3.4475 0.0000 33.9995 0.0000
# 6 0.0000 0.0000 0.0000 -6.9956 0.0000 31.8842
#
#
#
# Elastic Compliance Matrix: (Units=1/GPa)
#
#
# Indices 1 2 3 4 5 6 
#
# 1 0.021880 -0.004328 -0.002163 0.000000 0.007438 0.000000
# 2 -0.004328 0.014650 -0.002072 0.000000 0.004622 0.000000
# 3 -0.002163 -0.002072 0.012037 0.000000 -0.000687 0.000000
# 4 0.000000 0.000000 0.000000 0.029008 0.000000 0.006364
# 5 0.007438 0.004622 -0.000687 0.000000 0.034750 0.000000
# 6 0.000000 0.000000 0.000000 0.006364 0.000000 0.032760
#
#
# Mechanical properties :
#
#
# Convention : Reuss Voigt Hill
#
# Bulk Modulus (GPa) = 31.80575 37.35440 34.58008
# Shear Modulus (GPa) = 28.95344 31.93511 30.44428
#
# Velocity S-wave (km/s) = 3.61250 3.79396 3.70434
# Velocity P-wave (km/s) = 5.63348 6.00241 5.82087
#
# Compressibility (1/GPa) = 0.03144086
#
# Stress axis : x y z
#
# Youngs Moduli (GPa) = 45.70354 68.25941 83.07678
#
# Poissons Ratio (x) = 0.29543 0.17972
# Poissons Ratio (y) = 0.19781 0.17212
# Poissons Ratio (z) = 0.09887 0.14142
#
# Static dielectric constant tensor:
#      x y z
#    x 3.690960 0.000000 -0.213020 
#    y 0.000000 4.232380 0.000000 
#    z -0.213020 0.000000 3.879220 
# 
# 
# High freq. dielectric constant tensor:
#      x y z
#    x 1.850940 0.000000 -0.017390 
#    y 0.000000 1.889910 0.000000 
#    z -0.017390 0.000000 1.870780 
# 
# From -- ./inp_files/218248.got.cif
#   From: 2010.06.25/outbox.cif.g09.slc.cpg/sg15_110_cif.got.tgz:218248.got - 2010.06.28 07:06:18.
