data_PCOD8141726
_publ_section_title
;
Structure prediction by ZEFSAII (Michael W. Deem and Ramdas Pophale) SiO2 
 PCOD8141726
Probable space group: C 2/C
;
_chemical_formula_sum "Si O2"
_cell_formula_units_Z 44
_cell_length_a 11.451412
_cell_length_b 7.943692
_cell_length_c 22.994681
_cell_angle_alpha 90.000000
_cell_angle_beta 107.082768
_cell_angle_gamma 90.000000
_cell_volume 1999.460549
_symmetry_space_group_name_H-M "C 2/C"
_symmetry_group_IT_number 15
_symmetry_cell_setting 'monoclinic'
loop_
_space_group_symop_operation_xyz
x,y,z
-x,y,1/2-z
-x,-y,-z
x,-y,1/2+z
1/2+x,1/2+y,z
1/2-x,1/2+y,1/2-z
1/2-x,1/2-y,-z
1/2+x,1/2-y,1/2+z
loop_
_atom_site_type_symbol
_atom_site_label
_atom_site_fract_x
_atom_site_fract_y
_atom_site_fract_z
Si Si1 0.411408 0.090696 0.054650
Si Si2 0.651325 0.646623 0.401984
Si Si3 0.500000 0.903243 0.750000
Si Si4 0.938892 0.373515 0.341449
Si Si5 0.191328 0.219070 0.858281
Si Si6 0.609763 0.236222 0.016535
O O1 0.309488 0.167091 0.083101
O O2 0.476820 0.239863 0.027203
O O3 0.526639 0.007057 0.104054
O O4 0.354363 0.951130 0.003992
O O5 0.552630 0.747278 0.349261
O O6 0.665016 0.470847 0.372304
O O7 0.604580 0.631428 0.462480
O O8 0.776942 0.759610 0.421920
O O9 0.587222 0.783922 0.800020
O O10 0.582997 0.023951 0.721347
O O11 0.820028 0.268980 0.343903
#
# Coordination Sequence:
#
# PCOD8141726 Si02
#       6
#     8   8   4   8   8   8
#     4   9  19  39  63  87 134 164 197 239 301 355
#     4  10  21  37  62  94 124 160 205 239 297 364
#     4  10  26  44  64  84 116 160 200 266 332 336
#     4  10  22  44  60  88 119 158 200 262 305 362
#     4  11  23  42  64  93 115 158 211 256 298 371
#     4   9  18  39  60  91 136 170 186 242 298 363
#
# _framework density 22.005936999999999
#
# number of rings (size 3 to 8) (size 9 to 14) (size 15 to 20)
#    0.000    2.182    1.818    0.000    0.000    5.091 
#   13.091    0.000    0.000    0.000    0.000    0.000 
#    0.000    0.000    0.000    0.000    0.000    0.000 
#
# Total GULP energy -272626.386662 kJ/mol
# GULP energy per Si atom -12392.108485 kJ/mol
# Density = 2.195585 g / cm^3
# Si number density = 22.005937 Si / 1000 Ang^3
#
#
#
# Elastic Constant Matrix: (Units=GPa)
#
#
# Indices 1 2 3 4 5 6 
#
# 1 108.9687 26.2638 31.9818 0.0000 -7.1845 0.0000
# 2 26.2638 57.7237 27.7401 0.0000 2.3914 0.0000
# 3 31.9818 27.7401 70.0437 0.0000 -1.1056 0.0000
# 4 0.0000 0.0000 0.0000 40.7608 0.0000 -10.8265
# 5 -7.1845 2.3914 -1.1056 0.0000 25.6352 0.0000
# 6 0.0000 0.0000 0.0000 -10.8265 0.0000 37.0114
#
#
#
# Elastic Compliance Matrix: (Units=1/GPa)
#
#
# Indices 1 2 3 4 5 6 
#
# 1 0.011338 -0.003501 -0.003738 0.000000 0.003343 0.000000
# 2 -0.003501 0.022621 -0.007414 0.000000 -0.003411 0.000000
# 3 -0.003738 -0.007414 0.018927 0.000000 0.000460 0.000000
# 4 0.000000 0.000000 0.000000 0.026600 0.000000 0.007781
# 5 0.003343 -0.003411 0.000460 0.000000 0.040284 0.000000
# 6 0.000000 0.000000 0.000000 0.007781 0.000000 0.029295
#
#
# Mechanical properties :
#
#
# Convention : Reuss Voigt Hill
#
# Bulk Modulus (GPa) = 42.40781 45.41196 43.90988
# Shear Modulus (GPa) = 26.84839 30.73151 28.78995
#
# Velocity S-wave (km/s) = 3.49671 3.74104 3.62094
# Velocity P-wave (km/s) = 5.96788 6.27229 6.12198
#
# Compressibility (1/GPa) = 0.02358056
#
# Stress axis : x y z
#
# Youngs Moduli (GPa) = 88.19752 44.20641 52.83469
#
# Poissons Ratio (x) = 0.15477 0.19748
# Poissons Ratio (y) = 0.30879 0.39172
# Poissons Ratio (z) = 0.32965 0.32775
#
# Static dielectric constant tensor:
#      x y z
#    x 3.925020 0.000000 -0.114010 
#    y 0.000000 3.820190 0.000000 
#    z -0.114010 0.000000 4.035130 
# 
# 
# High freq. dielectric constant tensor:
#      x y z
#    x 1.865330 0.000000 -0.002360 
#    y 0.000000 1.848700 0.000000 
#    z -0.002360 0.000000 1.857040 
# 
# From -- ./inp_files/267867.got.cif
#   From: 2010.06.25/outbox.cif.g09.slc.cpg/sg15_134_cif.got.tgz:267867.got - 2010.06.28 07:06:18.
