data_PCOD8141559
_publ_section_title
;
Structure prediction by ZEFSAII (Michael W. Deem and Ramdas Pophale) SiO2 
 PCOD8141559
Probable space group: C 2/C
;
_chemical_formula_sum "Si O2"
_cell_formula_units_Z 60
_cell_length_a 17.127866
_cell_length_b 22.709712
_cell_length_c 8.718935
_cell_angle_alpha 90.000000
_cell_angle_beta 62.221161
_cell_angle_gamma 90.000000
_cell_volume 3000.547099
_symmetry_space_group_name_H-M "C 2/C"
_symmetry_group_IT_number 15
_symmetry_cell_setting 'monoclinic'
loop_
_space_group_symop_operation_xyz
x,y,z
-x,y,1/2-z
-x,-y,-z
x,-y,1/2+z
1/2+x,1/2+y,z
1/2-x,1/2+y,1/2-z
1/2-x,1/2-y,-z
1/2+x,1/2-y,1/2+z
loop_
_atom_site_type_symbol
_atom_site_label
_atom_site_fract_x
_atom_site_fract_y
_atom_site_fract_z
Si Si1 0.472643 0.560349 0.099764
Si Si2 0.769568 0.067793 0.244551
Si Si3 0.375646 0.750681 0.491508
Si Si4 0.482191 0.317107 0.444898
Si Si5 0.434921 0.948368 0.104625
Si Si6 0.198833 0.195091 0.228944
Si Si7 0.324708 0.019733 0.445361
Si Si8 0.000000 0.347531 0.250000
O O1 0.500000 0.564676 0.250000
O O2 0.370171 0.557957 0.178451
O O3 0.500000 0.500000 0.000000
O O4 0.508565 0.617437 0.976799
O O5 0.748216 0.133842 0.314436
O O6 0.742776 0.058568 0.091553
O O7 0.721560 0.020433 0.388891
O O8 0.452305 0.728456 0.532787
O O9 0.281885 0.760005 0.667198
O O10 0.353647 0.701975 0.382887
O O11 0.413870 0.808520 0.369933
O O12 0.500000 0.312065 0.250000
O O13 0.378434 0.300898 0.570905
O O14 0.480377 0.888159 0.118935
O O15 0.378668 0.973658 0.295585
O O16 0.381853 0.934417 0.995658
O O17 0.500000 0.000000 0.000000
#
# Coordination Sequence:
#
# PCOD8141559 Si02
#       8
#     8   8   8   8   8   8   8   4
#     4  11  22  39  68  95 126 171 218 268 334 395
#     4  10  21  38  60  91 132 163 209 266 316 391
#     4  11  23  43  69  91 124 174 229 269 326 396
#     4  11  23  43  64  94 134 167 216 279 330 393
#     4  11  21  38  61  90 127 167 205 261 314 391
#     4  10  22  43  66  92 124 174 221 275 327 386
#     4  10  21  37  58  91 130 165 205 254 328 378
#     4  12  22  40  70  94 126 170 232 260 332 408
#
# _framework density 19.996354
#
# number of rings (size 3 to 8) (size 9 to 14) (size 15 to 20)
#    0.000    1.333    2.667    3.600    1.867    1.600 
#    2.400    9.333    0.000    0.000    0.000    0.000 
#    0.000    0.000    0.000    0.000    0.000    0.000 
#
# Total GULP energy -371778.766110 kJ/mol
# GULP energy per Si atom -12392.625537 kJ/mol
# Density = 1.995084 g / cm^3
# Si number density = 19.996354 Si / 1000 Ang^3
#
#
#
# Elastic Constant Matrix: (Units=GPa)
#
#
# Indices 1 2 3 4 5 6 
#
# 1 133.4997 43.9331 51.8245 0.0000 22.2619 0.0000
# 2 43.9331 114.6808 31.2919 0.0000 26.4345 0.0000
# 3 51.8245 31.2919 99.5813 0.0000 10.5774 0.0000
# 4 0.0000 0.0000 0.0000 25.0206 0.0000 -13.3191
# 5 22.2619 26.4345 10.5774 0.0000 42.1919 0.0000
# 6 0.0000 0.0000 0.0000 -13.3191 0.0000 6.8063
#
#
#
# Elastic Compliance Matrix: (Units=1/GPa)
#
#
# Indices 1 2 3 4 5 6 
#
# 1 0.010408 -0.002065 -0.004440 0.000000 -0.003085 0.000000
# 2 -0.002065 0.011298 -0.001890 0.000000 -0.005515 0.000000
# 3 -0.004440 -0.001890 0.012916 0.000000 0.000289 0.000000
# 4 0.000000 0.000000 0.000000 -0.958830 0.000000 -1.876298
# 5 -0.003085 -0.005515 0.000289 0.000000 0.028712 0.000000
# 6 0.000000 0.000000 0.000000 -1.876298 0.000000 -3.524734
#
#
# Mechanical properties :
#
#
# Convention : Reuss Voigt Hill
#
# Bulk Modulus (GPa) = 56.07697 66.87340 61.47519
# Shear Modulus (GPa) = -1.13701 29.51793 14.19046
#
# Velocity S-wave (km/s) = -0.75488 3.84626 2.66682
# Velocity P-wave (km/s) = 5.22921 7.29660 6.34764
#
# Compressibility (1/GPa) = 0.01783263
#
# Stress axis : x y z
#
# Youngs Moduli (GPa) = 96.07772 88.51319 77.42320
#
# Poissons Ratio (x) = 0.18275 0.34378
# Poissons Ratio (y) = 0.19836 0.14632
# Poissons Ratio (z) = 0.42661 0.16728
#
# Static dielectric constant tensor:
#      x y z
#    x 3.976270 0.000000 -0.055620 
#    y 0.000000 7.994190 0.000000 
#    z -0.055620 0.000000 3.603770 
# 
# 
# High freq. dielectric constant tensor:
#      x y z
#    x 1.797190 0.000000 -0.004210 
#    y 0.000000 1.777080 0.000000 
#    z -0.004210 0.000000 1.780630 
# 
# From -- ./inp_files/50628.got.cif
#   From: 2010.06.25/outbox.cif.g09.slc.cpg/sg15_26_cif.got.tgz:50628.got - 2010.06.28 07:06:18.
