data_PCOD8141825
_publ_section_title
;
Structure prediction by ZEFSAII (Michael W. Deem and Ramdas Pophale) SiO2 
 PCOD8141825
Probable space group: C 2/C
;
_chemical_formula_sum "Si O2"
_cell_formula_units_Z 48
_cell_length_a 11.602511
_cell_length_b 13.324491
_cell_length_c 20.118843
_cell_angle_alpha 90.000000
_cell_angle_beta 44.275326
_cell_angle_gamma 90.000000
_cell_volume 2171.338931
_symmetry_space_group_name_H-M "C 2/C"
_symmetry_group_IT_number 15
_symmetry_cell_setting 'monoclinic'
loop_
_space_group_symop_operation_xyz
x,y,z
-x,y,1/2-z
-x,-y,-z
x,-y,1/2+z
1/2+x,1/2+y,z
1/2-x,1/2+y,1/2-z
1/2-x,1/2-y,-z
1/2+x,1/2-y,1/2+z
loop_
_atom_site_type_symbol
_atom_site_label
_atom_site_fract_x
_atom_site_fract_y
_atom_site_fract_z
Si Si1 0.596666 0.820442 0.050615
Si Si2 0.744855 0.283418 0.231758
Si Si3 0.395019 0.030282 0.394739
Si Si4 0.150055 0.996904 0.736117
Si Si5 0.577432 0.838139 0.907895
Si Si6 0.272329 0.073254 0.312246
O O1 0.442883 0.788695 0.160286
O O2 0.651925 0.933426 0.043211
O O3 0.750000 0.750000 0.000000
O O4 0.535409 0.808924 0.000049
O O5 0.678454 0.384106 0.225203
O O6 0.662749 0.258403 0.337334
O O7 0.698864 0.192608 0.201354
O O8 0.410350 0.126774 0.437945
O O9 0.250626 0.044639 0.398678
O O10 0.568581 0.016246 0.284345
O O11 0.000000 0.969930 0.750000
O O12 0.305058 0.936521 0.642276
O O13 0.121366 0.959745 0.825246
#
# Coordination Sequence:
#
# PCOD8141825 Si02
#       6
#     8   8   8   8   8   8
#     4  12  25  38  65  96 125 167 220 265 319 378
#     4  10  22  42  61  95 124 166 217 254 318 384
#     4   9  19  41  61  87 125 166 205 258 317 379
#     4  10  21  37  66  93 126 169 212 260 319 377
#     4  10  24  41  64  91 131 168 213 262 327 377
#     4   9  20  38  65  89 125 168 204 259 318 376
#
# _framework density 22.106176000000001
#
# number of rings (size 3 to 8) (size 9 to 14) (size 15 to 20)
#    0.000    2.333    3.333    0.500   11.667    0.000 
#    0.000    3.333    0.000    0.000    0.000    0.000 
#    0.000    0.000    0.000    0.000    0.000    0.000 
#
# Total GULP energy -297391.303554 kJ/mol
# GULP energy per Si atom -12391.304315 kJ/mol
# Density = 2.205586 g / cm^3
# Si number density = 22.106176 Si / 1000 Ang^3
#
#
#
# Elastic Constant Matrix: (Units=GPa)
#
#
# Indices 1 2 3 4 5 6 
#
# 1 160.7398 22.0739 22.6283 0.0000 32.7180 0.0000
# 2 22.0739 77.4739 17.9376 0.0000 -0.6419 0.0000
# 3 22.6283 17.9376 32.2939 -0.0002 17.6914 0.0000
# 4 0.0000 0.0000 -0.0002 31.5457 0.0000 -1.1317
# 5 32.7180 -0.6419 17.6914 0.0000 31.8970 0.0000
# 6 0.0000 0.0000 0.0000 -1.1317 0.0000 25.0596
#
#
#
# Elastic Compliance Matrix: (Units=1/GPa)
#
#
# Indices 1 2 3 4 5 6 
#
# 1 0.008301 -0.002532 0.000405 0.000000 -0.008791 0.000000
# 2 -0.002532 0.016753 -0.013128 0.000000 0.010215 0.000000
# 3 0.000405 -0.013128 0.055083 0.000000 -0.031231 0.000000
# 4 0.000000 0.000000 0.000000 0.031751 0.000000 0.001434
# 5 -0.008791 0.010215 -0.031231 0.000000 0.057895 0.000000
# 6 0.000000 0.000000 0.000000 0.001434 0.000000 0.039970
#
#
# Mechanical properties :
#
#
# Convention : Reuss Voigt Hill
#
# Bulk Modulus (GPa) = 20.14965 43.97636 32.06300
# Shear Modulus (GPa) = 19.47008 31.55832 25.51420
#
# Velocity S-wave (km/s) = 2.97097 3.78243 3.40099
# Velocity P-wave (km/s) = 4.57205 6.24597 5.47338
#
# Compressibility (1/GPa) = 0.04962866
#
# Stress axis : x y z
#
# Youngs Moduli (GPa) = 120.46514 59.69061 18.15458
#
# Poissons Ratio (x) = 0.15113 -0.00736
# Poissons Ratio (y) = 0.30500 0.23833
# Poissons Ratio (z) = -0.04885 0.78360
#
# Static dielectric constant tensor:
#      x y z
#    x 4.462850 0.000000 0.394150 
#    y 0.000000 3.974290 0.000000 
#    z 0.394150 0.000000 3.664000 
# 
# 
# High freq. dielectric constant tensor:
#      x y z
#    x 1.871490 0.000000 0.025070 
#    y 0.000000 1.873210 0.000000 
#    z 0.025070 0.000000 1.828720 
# 
# From -- ./inp_files/237441.got.cif
#   From: 2010.06.25/outbox.cif.g09.slc.cpg/sg15_119_cif.got.tgz:237441.got - 2010.06.28 07:06:18.
