data_PCOD8141652
_publ_section_title
;
Structure prediction by ZEFSAII (Michael W. Deem and Ramdas Pophale) SiO2 
 PCOD8141652
Probable space group: C 2/C
;
_chemical_formula_sum "Si O2"
_cell_formula_units_Z 64
_cell_length_a 34.133406
_cell_length_b 16.646873
_cell_length_c 10.297106
_cell_angle_alpha 90.000000
_cell_angle_beta 146.729390
_cell_angle_gamma 90.000000
_cell_volume 3209.804213
_symmetry_space_group_name_H-M "C 2/C"
_symmetry_group_IT_number 15
_symmetry_cell_setting 'monoclinic'
loop_
_space_group_symop_operation_xyz
x,y,z
-x,y,1/2-z
-x,-y,-z
x,-y,1/2+z
1/2+x,1/2+y,z
1/2-x,1/2+y,1/2-z
1/2-x,1/2-y,-z
1/2+x,1/2-y,1/2+z
loop_
_atom_site_type_symbol
_atom_site_label
_atom_site_fract_x
_atom_site_fract_y
_atom_site_fract_z
Si Si1 0.941223 0.299494 0.440043
Si Si2 0.958629 0.517230 0.014122
Si Si3 0.318993 0.067105 0.179243
Si Si4 0.703232 0.458699 0.960196
Si Si5 0.732892 0.833391 0.189051
Si Si6 0.905451 0.244086 0.614479
Si Si7 0.323649 0.416412 0.899622
Si Si8 0.686821 0.824503 0.605002
O O1 0.949156 0.389166 0.515222
O O2 0.913766 0.244594 0.481913
O O3 0.018443 0.265254 0.606255
O O4 0.883325 0.299057 0.166988
O O5 0.884954 0.472058 0.790006
O O6 0.000000 0.478457 0.250000
O O7 0.000000 0.500000 0.000000
O O8 0.341927 0.136868 0.342019
O O9 0.279683 0.999050 0.151512
O O10 0.266834 0.100915 0.924029
O O11 0.720397 0.370087 0.063555
O O12 0.661201 0.514790 0.949110
O O13 0.662746 0.450252 0.709135
O O14 0.771519 0.755408 0.241034
O O15 0.652188 0.811683 0.006067
O O16 0.879270 0.155392 0.583525
O O17 0.241563 0.383382 0.679152
#
# Coordination Sequence:
#
# PCOD8141652 Si02
#       8
#     8   8   8   8   8   8   8   8
#     4  11  21  38  60  86 118 159 205 238 297 354
#     4  12  24  36  56  85 124 162 195 232 290 361
#     4  11  23  35  57  88 127 157 195 246 300 357
#     4  11  21  36  60  89 120 153 200 254 306 351
#     4  11  21  37  60  86 123 159 201 250 303 351
#     4  10  21  37  61  86 118 159 203 250 292 365
#     4  10  21  38  61  92 122 153 201 254 307 356
#     4  10  22  38  59  90 121 161 201 246 301 362
#
# _framework density 19.938911000000001
#
# number of rings (size 3 to 8) (size 9 to 14) (size 15 to 20)
#    0.000    1.250    2.500    4.875    3.500    2.000 
#    0.000    0.000    0.000    6.750    0.000    0.000 
#    0.000    0.000    0.000    0.000    0.000    0.000 
#
# Total GULP energy -396772.499271 kJ/mol
# GULP energy per Si atom -12399.140602 kJ/mol
# Density = 1.989353 g / cm^3
# Si number density = 19.938911 Si / 1000 Ang^3
#
#
#
# Elastic Constant Matrix: (Units=GPa)
#
#
# Indices 1 2 3 4 5 6 
#
# 1 89.7094 36.4808 25.4805 0.0000 -4.3812 0.0000
# 2 36.4808 90.3078 18.5856 0.0000 4.1422 0.0000
# 3 25.4805 18.5856 85.5122 0.0000 -2.1221 0.0000
# 4 0.0000 0.0000 0.0000 26.9014 0.0000 -2.2954
# 5 -4.3812 4.1422 -2.1221 0.0000 33.1815 0.0000
# 6 0.0000 0.0000 0.0000 -2.2954 0.0000 29.3958
#
#
#
# Elastic Compliance Matrix: (Units=1/GPa)
#
#
# Indices 1 2 3 4 5 6 
#
# 1 0.014259 -0.005239 -0.003052 0.000000 0.002342 0.000000
# 2 -0.005239 0.013604 -0.001457 0.000000 -0.002483 0.000000
# 3 -0.003052 -0.001457 0.012935 0.000000 0.000606 0.000000
# 4 0.000000 0.000000 0.000000 0.037422 0.000000 0.002922
# 5 0.002342 -0.002483 0.000606 0.000000 0.030795 0.000000
# 6 0.000000 0.000000 0.000000 0.002922 0.000000 0.034247
#
#
# Mechanical properties :
#
#
# Convention : Reuss Voigt Hill
#
# Bulk Modulus (GPa) = 46.94602 47.40256 47.17429
# Shear Modulus (GPa) = 29.43620 30.22791 29.83206
#
# Velocity S-wave (km/s) = 3.84646 3.89784 3.87224
# Velocity P-wave (km/s) = 6.58202 6.63951 6.61083
#
# Compressibility (1/GPa) = 0.02130106
#
# Stress axis : x y z
#
# Youngs Moduli (GPa) = 70.13149 73.51048 77.30741
#
# Poissons Ratio (x) = 0.38515 0.23594
# Poissons Ratio (y) = 0.36744 0.11264
# Poissons Ratio (z) = 0.21404 0.10711
#
# Static dielectric constant tensor:
#      x y z
#    x 3.664370 0.000000 0.009300 
#    y 0.000000 3.445390 0.000000 
#    z 0.009300 0.000000 3.487610 
# 
# 
# High freq. dielectric constant tensor:
#      x y z
#    x 1.772840 0.000000 -0.011160 
#    y 0.000000 1.783450 0.000000 
#    z -0.011160 0.000000 1.760840 
# 
# From -- ./inp_files/70620.got.cif
#   From: 2010.06.25/outbox.cif.g09.slc.cpg/sg15_36_cif.got.tgz:70620.got - 2010.06.28 07:06:18.
