data_PCOD8141464
_publ_section_title
;
Structure prediction by ZEFSAII (Michael W. Deem and Ramdas Pophale) SiO2 
 PCOD8141464
Probable space group: C 2/C
;
_chemical_formula_sum "Si O2"
_cell_formula_units_Z 60
_cell_length_a 15.104044
_cell_length_b 26.716838
_cell_length_c 8.955414
_cell_angle_alpha 90.000000
_cell_angle_beta 116.951883
_cell_angle_gamma 90.000000
_cell_volume 3221.294955
_symmetry_space_group_name_H-M "C 2/C"
_symmetry_group_IT_number 15
_symmetry_cell_setting 'monoclinic'
loop_
_space_group_symop_operation_xyz
x,y,z
-x,y,1/2-z
-x,-y,-z
x,-y,1/2+z
1/2+x,1/2+y,z
1/2-x,1/2+y,1/2-z
1/2-x,1/2-y,-z
1/2+x,1/2-y,1/2+z
loop_
_atom_site_type_symbol
_atom_site_label
_atom_site_fract_x
_atom_site_fract_y
_atom_site_fract_z
Si Si1 0.104528 0.810483 0.297486
Si Si2 0.117113 0.460485 0.522590
Si Si3 0.304448 0.152869 0.888466
Si Si4 0.116400 0.444619 0.194675
Si Si5 0.882696 0.718028 0.397226
Si Si6 0.000000 0.246110 0.250000
Si Si7 0.598905 0.880382 0.745828
Si Si8 0.160535 0.766783 0.651425
O O1 0.184195 0.846060 0.275442
O O2 0.076350 0.763601 0.171133
O O3 0.157984 0.792121 0.488516
O O4 0.000000 0.838678 0.250000
O O5 0.164504 0.452528 0.395579
O O6 0.157529 0.514401 0.608897
O O7 0.149171 0.420977 0.674844
O O8 0.000549 0.453826 0.404197
O O9 0.354295 0.111605 0.822825
O O10 0.349051 0.206848 0.878602
O O11 0.321910 0.137853 0.073129
O O12 0.921116 0.721274 0.596065
O O13 0.932911 0.667642 0.374439
O O14 0.763200 0.717049 0.307598
O O15 0.069088 0.214509 0.187002
O O16 0.500000 0.903069 0.750000
#
# Coordination Sequence:
#
# PCOD8141464 Si02
#       8
#     8   8   8   8   8   4   8   8
#     4  11  20  40  59  77 105 152 198 238 272 327
#     4  10  22  33  55  76 116 144 178 217 271 335
#     4  11  21  35  57  79 109 144 192 228 276 331
#     4  10  21  37  50  81 110 146 179 220 269 334
#     4  11  22  36  53  78 114 148 196 227 281 324
#     4  12  24  32  52  74 114 156 180 242 268 328
#     4  12  20  32  54  82 108 150 181 223 272 337
#     4  11  22  38  53  80 110 154 190 235 276 331
#
# _framework density 18.626049999999999
#
# number of rings (size 3 to 8) (size 9 to 14) (size 15 to 20)
#    0.000    1.067    5.333    3.200    3.733    0.000 
#    0.000    0.000    0.000    0.000    0.000    3.733 
#    0.000    0.000    0.000    0.000    0.000    0.000 
#
# Total GULP energy -371842.083863 kJ/mol
# GULP energy per Si atom -12394.736129 kJ/mol
# Density = 1.858366 g / cm^3
# Si number density = 18.626050 Si / 1000 Ang^3
#
#
#
# Elastic Constant Matrix: (Units=GPa)
#
#
# Indices 1 2 3 4 5 6 
#
# 1 64.7813 5.8915 14.9874 0.0000 1.7666 0.0000
# 2 5.8915 64.9790 23.3193 0.0000 -7.0604 0.0000
# 3 14.9874 23.3193 106.3774 0.0000 -10.4933 0.0000
# 4 0.0000 0.0000 0.0000 13.3535 0.0000 -2.8268
# 5 1.7666 -7.0604 -10.4933 0.0000 30.4023 0.0000
# 6 0.0000 0.0000 0.0000 -2.8268 0.0000 19.7276
#
#
#
# Elastic Compliance Matrix: (Units=1/GPa)
#
#
# Indices 1 2 3 4 5 6 
#
# 1 0.016091 -0.000853 -0.002269 0.000000 -0.001916 0.000000
# 2 -0.000853 0.016967 -0.003319 0.000000 0.002844 0.000000
# 3 -0.002269 -0.003319 0.010751 0.000000 0.003072 0.000000
# 4 0.000000 0.000000 0.000000 0.077229 0.000000 0.011066
# 5 -0.001916 0.002844 0.003072 0.000000 0.034724 0.000000
# 6 0.000000 0.000000 0.000000 0.011066 0.000000 0.052276
#
#
# Mechanical properties :
#
#
# Convention : Reuss Voigt Hill
#
# Bulk Modulus (GPa) = 32.33347 36.05934 34.19640
# Shear Modulus (GPa) = 21.62354 25.49263 23.55808
#
# Velocity S-wave (km/s) = 3.41094 3.70355 3.56025
# Velocity P-wave (km/s) = 5.73669 6.13922 5.94136
#
# Compressibility (1/GPa) = 0.03092771
#
# Stress axis : x y z
#
# Youngs Moduli (GPa) = 62.14519 58.93806 93.01732
#
# Poissons Ratio (x) = 0.05026 0.21107
# Poissons Ratio (y) = 0.05300 0.30869
# Poissons Ratio (z) = 0.14102 0.19559
#
# Static dielectric constant tensor:
#      x y z
#    x 3.337090 0.000000 -0.181840 
#    y 0.000000 3.192230 0.000000 
#    z -0.181840 0.000000 3.709560 
# 
# 
# High freq. dielectric constant tensor:
#      x y z
#    x 1.701690 0.000000 -0.018310 
#    y 0.000000 1.686250 0.000000 
#    z -0.018310 0.000000 1.738210 
# 
# From -- ./inp_files/51538.got.cif
#   From: 2010.06.25/outbox.cif.g09.slc.cpg/sg15_26_cif.got.tgz:51538.got - 2010.06.28 07:06:18.
