data_PCOD8141768
_publ_section_title
;
Structure prediction by ZEFSAII (Michael W. Deem and Ramdas Pophale) SiO2 
 PCOD8141768
Probable space group: C 2/C
;
_chemical_formula_sum "Si O2"
_cell_formula_units_Z 32
_cell_length_a 10.506287
_cell_length_b 15.569778
_cell_length_c 8.990539
_cell_angle_alpha 90.000000
_cell_angle_beta 88.799962
_cell_angle_gamma 90.000000
_cell_volume 1470.354806
_symmetry_space_group_name_H-M "C 2/C"
_symmetry_group_IT_number 15
_symmetry_cell_setting 'monoclinic'
loop_
_space_group_symop_operation_xyz
x,y,z
-x,y,1/2-z
-x,-y,-z
x,-y,1/2+z
1/2+x,1/2+y,z
1/2-x,1/2+y,1/2-z
1/2-x,1/2-y,-z
1/2+x,1/2-y,1/2+z
loop_
_atom_site_type_symbol
_atom_site_label
_atom_site_fract_x
_atom_site_fract_y
_atom_site_fract_z
Si Si1 0.909692 0.214013 0.058632
Si Si2 0.312488 0.684604 0.383339
Si Si3 0.646692 0.041085 0.260457
Si Si4 0.308372 0.112959 0.544440
O O1 0.831382 0.220201 0.216338
O O2 0.919427 0.315156 0.013926
O O3 0.044626 0.165904 0.060961
O O4 0.826944 0.162238 0.938817
O O5 0.250000 0.750000 0.500000
O O6 0.224196 0.600201 0.375825
O O7 0.500000 0.068210 0.250000
O O8 0.661361 0.942165 0.309987
O O9 0.703245 0.048338 0.094352
#
# Coordination Sequence:
#
# PCOD8141768 Si02
#       4
#     8   8   8   8
#     4   9  21  41  61  86 125 164 196 245 313 360
#     4  10  21  37  64  88 119 159 204 249 298 364
#     4  11  23  36  60  92 120 155 208 251 299 356
#     4  10  22  39  61  87 122 159 201 253 302 357
#
# _framework density 21.763453999999999
#
# number of rings (size 3 to 8) (size 9 to 14) (size 15 to 20)
#    0.000    2.000    0.000    2.250    7.000    1.000 
#    0.000    0.000    0.000    0.000    0.000    0.000 
#    0.000    0.000    0.000    0.000    0.000    0.000 
#
# Total GULP energy -198269.897598 kJ/mol
# GULP energy per Si atom -12391.868600 kJ/mol
# Density = 2.171392 g / cm^3
# Si number density = 21.763454 Si / 1000 Ang^3
#
#
#
# Elastic Constant Matrix: (Units=GPa)
#
#
# Indices 1 2 3 4 5 6 
#
# 1 153.1310 62.8125 25.4457 0.0000 28.6200 0.0000
# 2 62.8125 126.8848 34.5246 0.0000 14.9266 0.0000
# 3 25.4457 34.5246 54.0443 0.0000 4.6826 0.0000
# 4 0.0000 0.0000 0.0000 41.6764 0.0000 16.2569
# 5 28.6200 14.9266 4.6826 0.0000 35.3043 0.0000
# 6 0.0000 0.0000 0.0000 16.2569 0.0000 26.8956
#
#
#
# Elastic Compliance Matrix: (Units=1/GPa)
#
#
# Indices 1 2 3 4 5 6 
#
# 1 0.009330 -0.003475 -0.001664 0.000000 -0.005874 0.000000
# 2 -0.003475 0.011220 -0.005427 0.000000 -0.001207 0.000000
# 3 -0.001664 -0.005427 0.022699 0.000000 0.000633 0.000000
# 4 0.000000 0.000000 0.000000 0.031397 0.000000 -0.018978
# 5 -0.005874 -0.001207 0.000633 0.000000 0.033513 0.000000
# 6 0.000000 0.000000 0.000000 -0.018978 0.000000 0.048652
#
#
# Mechanical properties :
#
#
# Convention : Reuss Voigt Hill
#
# Bulk Modulus (GPa) = 45.21402 64.40285 54.80844
# Shear Modulus (GPa) = 26.98106 34.86040 30.92073
#
# Velocity S-wave (km/s) = 3.52482 4.00657 3.77339
# Velocity P-wave (km/s) = 6.11442 7.14563 6.65004
#
# Compressibility (1/GPa) = 0.02211703
#
# Stress axis : x y z
#
# Youngs Moduli (GPa) = 107.18082 89.12662 44.05517
#
# Poissons Ratio (x) = 0.30971 0.07331
# Poissons Ratio (y) = 0.37245 0.23908
# Poissons Ratio (z) = 0.17836 0.48368
#
# Static dielectric constant tensor:
#      x y z
#    x 4.034820 0.000000 0.276080 
#    y 0.000000 3.848460 0.000000 
#    z 0.276080 0.000000 3.859080 
# 
# 
# High freq. dielectric constant tensor:
#      x y z
#    x 1.854570 0.000000 0.024830 
#    y 0.000000 1.847110 0.000000 
#    z 0.024830 0.000000 1.847670 
# 
# From -- ./inp_files/27620.got.cif
#   From: 2010.06.25/outbox.cif.g09.slc.cpg/sg15_14_cif.got.tgz:27620.got - 2010.06.28 07:06:18.
