data_PCOD8141363
_publ_section_title
;
Structure prediction by ZEFSAII (Michael W. Deem and Ramdas Pophale) SiO2 
 PCOD8141363
Probable space group: C 2/C
;
_chemical_formula_sum "Si O2"
_cell_formula_units_Z 40
_cell_length_a 24.185390
_cell_length_b 11.944982
_cell_length_c 10.262849
_cell_angle_alpha 90.000000
_cell_angle_beta 39.169761
_cell_angle_gamma 90.000000
_cell_volume 1872.675634
_symmetry_space_group_name_H-M "C 2/C"
_symmetry_group_IT_number 15
_symmetry_cell_setting 'monoclinic'
loop_
_space_group_symop_operation_xyz
x,y,z
-x,y,1/2-z
-x,-y,-z
x,-y,1/2+z
1/2+x,1/2+y,z
1/2-x,1/2+y,1/2-z
1/2-x,1/2-y,-z
1/2+x,1/2-y,1/2+z
loop_
_atom_site_type_symbol
_atom_site_label
_atom_site_fract_x
_atom_site_fract_y
_atom_site_fract_z
Si Si1 0.096803 0.075728 0.614283
Si Si2 0.555820 0.838394 0.936922
Si Si3 0.687893 0.199522 0.963483
Si Si4 0.620685 0.612907 0.860595
Si Si5 0.927197 0.434505 0.987212
O O1 0.168119 0.172314 0.457322
O O2 0.098987 0.046211 0.765572
O O3 0.000000 0.118549 0.750000
O O4 0.119963 0.967294 0.486206
O O5 0.626159 0.836184 0.693725
O O6 0.549873 0.713727 0.010355
O O7 0.460071 0.880461 0.063667
O O8 0.587903 0.931750 0.980892
O O9 0.787541 0.178897 0.821988
O O10 0.665374 0.120742 0.881190
O O11 0.000000 0.401240 0.750000
#
# Coordination Sequence:
#
# PCOD8141363 Si02
#       5
#     8   8   8   8   8
#     4  11  23  43  63  88 121 168 204 244 305 374
#     4   9  18  36  57  85 116 160 198 244 300 366
#     4  10  21  36  61  83 122 157 201 246 308 360
#     4  11  24  38  65  88 125 157 206 252 304 357
#     4   9  18  33  59  88 114 151 200 249 298 358
#
# _framework density 21.359811000000001
#
# number of rings (size 3 to 8) (size 9 to 14) (size 15 to 20)
#    0.000    2.000    0.000    6.000    5.600    0.800 
#    0.000    5.000    0.000    0.000    0.000    0.000 
#    0.000    0.000    0.000    0.000    0.000    0.000 
#
# Total GULP energy -247863.889987 kJ/mol
# GULP energy per Si atom -12393.194499 kJ/mol
# Density = 2.131120 g / cm^3
# Si number density = 21.359811 Si / 1000 Ang^3
#
#
#
# Elastic Constant Matrix: (Units=GPa)
#
#
# Indices 1 2 3 4 5 6 
#
# 1 115.9369 58.2049 23.1172 0.0000 -3.8706 0.0000
# 2 58.2049 119.3455 25.6770 0.0000 17.0045 0.0000
# 3 23.1172 25.6770 29.9241 0.0000 -4.5917 0.0000
# 4 0.0000 0.0000 0.0000 29.8144 0.0000 7.9627
# 5 -3.8706 17.0045 -4.5917 0.0000 21.0415 0.0000
# 6 0.0000 0.0000 0.0000 7.9627 0.0000 47.0050
#
#
#
# Elastic Compliance Matrix: (Units=1/GPa)
#
#
# Indices 1 2 3 4 5 6 
#
# 1 0.012772 -0.006526 -0.003204 0.000000 0.006924 0.000000
# 2 -0.006526 0.016537 -0.011778 0.000000 -0.017135 0.000000
# 3 -0.003204 -0.011778 0.049011 0.000000 0.019624 0.000000
# 4 0.000000 0.000000 0.000000 0.035130 0.000000 -0.005951
# 5 0.006924 -0.017135 0.019624 0.000000 0.066929 0.000000
# 6 0.000000 0.000000 0.000000 -0.005951 0.000000 0.022282
#
#
# Mechanical properties :
#
#
# Convention : Reuss Voigt Hill
#
# Bulk Modulus (GPa) = 28.32592 53.24499 40.78545
# Shear Modulus (GPa) = 19.42163 30.11935 24.77049
#
# Velocity S-wave (km/s) = 3.01867 3.75920 3.40910
# Velocity P-wave (km/s) = 5.04380 6.61996 5.88488
#
# Compressibility (1/GPa) = 0.03530335
#
# Stress axis : x y z
#
# Youngs Moduli (GPa) = 78.29785 60.47009 20.40368
#
# Poissons Ratio (x) = 0.39462 0.06538
# Poissons Ratio (y) = 0.51096 0.24031
# Poissons Ratio (z) = 0.25090 0.71221
#
# Static dielectric constant tensor:
#      x y z
#    x 4.437560 0.000000 -0.096500 
#    y 0.000000 4.062240 0.000000 
#    z -0.096500 0.000000 3.344440 
# 
# 
# High freq. dielectric constant tensor:
#      x y z
#    x 1.859190 0.000000 -0.004650 
#    y 0.000000 1.845720 0.000000 
#    z -0.004650 0.000000 1.786750 
# 
# From -- ./inp_files/94525.got.cif
#   From: 2010.06.25/outbox.cif.g09.slc.cpg/sg15_48_cif.got.tgz:94525.got - 2010.06.28 07:06:18.
