data_PCOD8141517
_publ_section_title
;
Structure prediction by ZEFSAII (Michael W. Deem and Ramdas Pophale) SiO2 
 PCOD8141517
Probable space group: C 2/C
;
_chemical_formula_sum "Si O2"
_cell_formula_units_Z 56
_cell_length_a 15.046453
_cell_length_b 26.464342
_cell_length_c 8.666959
_cell_angle_alpha 90.000000
_cell_angle_beta 124.022593
_cell_angle_gamma 90.000000
_cell_volume 2860.359556
_symmetry_space_group_name_H-M "C 2/C"
_symmetry_group_IT_number 15
_symmetry_cell_setting 'monoclinic'
loop_
_space_group_symop_operation_xyz
x,y,z
-x,y,1/2-z
-x,-y,-z
x,-y,1/2+z
1/2+x,1/2+y,z
1/2-x,1/2+y,1/2-z
1/2-x,1/2-y,-z
1/2+x,1/2-y,1/2+z
loop_
_atom_site_type_symbol
_atom_site_label
_atom_site_fract_x
_atom_site_fract_y
_atom_site_fract_z
Si Si1 0.775518 0.660693 0.857539
Si Si2 0.457306 0.303501 0.377945
Si Si3 0.020753 0.095480 0.092253
Si Si4 0.276859 0.548493 0.353533
Si Si5 0.017739 0.300988 0.087240
Si Si6 0.181072 0.946294 0.254437
Si Si7 0.900093 0.625214 0.257878
O O1 0.671509 0.696077 0.752095
O O2 0.859415 0.683122 0.817700
O O3 0.747941 0.603795 0.777973
O O4 0.822895 0.660323 0.077485
O O5 0.500000 0.315421 0.250000
O O6 0.503225 0.345969 0.535976
O O7 0.497730 0.250057 0.475168
O O8 0.000000 0.086266 0.250000
O O9 0.142385 0.080336 0.174238
O O10 0.941100 0.059198 0.919931
O O11 0.259278 0.492687 0.269508
O O12 0.325562 0.544605 0.570561
O O13 0.161604 0.575876 0.241497
O O14 0.000000 0.292888 0.250000
O O15 0.938239 0.343541 0.943596
O O16 0.000000 0.607353 0.250000
#
# Coordination Sequence:
#
# PCOD8141517 Si02
#       7
#     8   8   8   8   8   8   8
#     4   9  21  41  59  80 115 149 188 235 277 337
#     4  11  22  38  62  86 112 151 190 228 285 342
#     4  11  22  36  56  87 121 149 187 234 282 340
#     4  11  21  37  61  84 115 152 191 236 283 334
#     4  11  24  39  58  86 116 148 188 235 283 334
#     4  10  21  37  57  85 116 153 190 230 287 338
#     4   9  20  40  60  81 111 150 193 232 278 334
#
# _framework density 19.577959
#
# number of rings (size 3 to 8) (size 9 to 14) (size 15 to 20)
#    0.000    1.714    0.000    6.000    0.000    7.429 
#    0.000    7.143    0.000    0.000    0.000    0.000 
#    0.000    0.000    0.000    0.000    0.000    0.000 
#
# Total GULP energy -347342.483925 kJ/mol
# GULP energy per Si atom -12405.088712 kJ/mol
# Density = 1.953340 g / cm^3
# Si number density = 19.577959 Si / 1000 Ang^3
#
#
#
# Elastic Constant Matrix: (Units=GPa)
#
#
# Indices 1 2 3 4 5 6 
#
# 1 107.5774 47.0269 34.2127 0.0000 4.1660 0.0000
# 2 47.0269 91.6003 23.3154 0.0000 6.6567 0.0000
# 3 34.2127 23.3154 74.5294 0.0000 -3.8680 0.0000
# 4 0.0000 0.0000 0.0000 -200.7947 0.0000 171.2400
# 5 4.1660 6.6567 -3.8680 0.0000 35.0347 0.0000
# 6 0.0000 0.0000 0.0000 171.2400 0.0000 -106.5897
#
#
#
# Elastic Compliance Matrix: (Units=1/GPa)
#
#
# Indices 1 2 3 4 5 6 
#
# 1 0.013153 -0.005575 -0.004345 0.000000 -0.000984 0.000000
# 2 -0.005575 0.014480 -0.002091 0.000000 -0.002319 0.000000
# 3 -0.004345 -0.002091 0.016206 0.000000 0.002703 0.000000
# 4 0.000000 0.000000 0.000000 0.013457 0.000000 0.021620
# 5 -0.000984 -0.002319 0.002703 0.000000 0.029399 0.000000
# 6 0.000000 0.000000 0.000000 0.021620 0.000000 0.025351
#
#
# Mechanical properties :
#
#
# Convention : Reuss Voigt Hill
#
# Bulk Modulus (GPa) = 50.46052 53.64634 52.05343
# Shear Modulus (GPa) = 35.04487 -43.19313 -4.07413
#
# Velocity S-wave (km/s) = 4.23545 -4.70213 -1.44412
# Velocity P-wave (km/s) = 7.05328 1.42096 4.88516
#
# Compressibility (1/GPa) = 0.01981747
#
# Stress axis : x y z
#
# Youngs Moduli (GPa) = 76.03070 69.06114 61.70410
#
# Poissons Ratio (x) = 0.38502 0.26809
# Poissons Ratio (y) = 0.42387 0.12902
# Poissons Ratio (z) = 0.33033 0.14440
#
# Static dielectric constant tensor:
#      x y z
#    x 3.595930 0.000000 0.103980 
#    y 0.000000 3.567220 0.000000 
#    z 0.103980 0.000000 3.676580 
# 
# 
# High freq. dielectric constant tensor:
#      x y z
#    x 1.765800 0.000000 0.001130 
#    y 0.000000 1.765760 0.000000 
#    z 0.001130 0.000000 1.765350 
# 
# From -- ./inp_files/42749.got.cif
#   From: 2010.06.25/outbox.cif.g09.slc.cpg/sg15_22_cif.got.tgz:42749.got - 2010.06.28 07:06:18.
