data_PCOD8141591
_publ_section_title
;
Structure prediction by ZEFSAII (Michael W. Deem and Ramdas Pophale) SiO2 
 PCOD8141591
Probable space group: C 2/C
;
_chemical_formula_sum "Si O2"
_cell_formula_units_Z 44
_cell_length_a 23.316448
_cell_length_b 5.129662
_cell_length_c 16.733088
_cell_angle_alpha 90.000000
_cell_angle_beta 99.934442
_cell_angle_gamma 90.000000
_cell_volume 1971.360374
_symmetry_space_group_name_H-M "C 2/C"
_symmetry_group_IT_number 15
_symmetry_cell_setting 'monoclinic'
loop_
_space_group_symop_operation_xyz
x,y,z
-x,y,1/2-z
-x,-y,-z
x,-y,1/2+z
1/2+x,1/2+y,z
1/2-x,1/2+y,1/2-z
1/2-x,1/2-y,-z
1/2+x,1/2-y,1/2+z
loop_
_atom_site_type_symbol
_atom_site_label
_atom_site_fract_x
_atom_site_fract_y
_atom_site_fract_z
Si Si1 0.559777 0.599677 0.615551
Si Si2 0.944937 0.263336 0.523151
Si Si3 0.693796 0.240739 0.806964
Si Si4 0.408196 0.750023 0.104920
Si Si5 0.321291 0.258366 0.302299
Si Si6 0.500000 0.626919 0.250000
O O1 0.514668 0.786623 0.556428
O O2 0.564481 0.318740 0.571507
O O3 0.622046 0.743391 0.627724
O O4 0.538427 0.555093 0.700901
O O5 0.913342 0.531403 0.537730
O O6 0.919963 0.034029 0.572926
O O7 0.658142 0.242855 0.880500
O O8 0.675661 0.484044 0.749663
O O9 0.762954 0.245725 0.842649
O O10 0.676546 0.985207 0.754968
O O11 0.454904 0.804048 0.187795
#
# Coordination Sequence:
#
# PCOD8141591 Si02
#       6
#     8   8   8   8   8   4
#     4  10  22  42  58  92 116 162 191 243 292 356
#     4  10  25  38  60  84 132 151 189 237 308 344
#     4  10  21  37  59  90 115 149 198 249 287 336
#     4  11  22  40  58  91 118 157 192 248 283 357
#     4  10  21  37  61  85 119 150 195 250 288 336
#     4  10  22  34  68  84 118 148 212 236 290 340
#
# _framework density 22.319614000000001
#
# number of rings (size 3 to 8) (size 9 to 14) (size 15 to 20)
#    0.000    1.818    1.818    1.091    5.091    8.727 
#    0.000    1.818    0.000    0.000    0.000    0.000 
#    0.000    0.000    0.000    0.000    0.000    0.000 
#
# Total GULP energy -272837.390035 kJ/mol
# GULP energy per Si atom -12401.699547 kJ/mol
# Density = 2.226881 g / cm^3
# Si number density = 22.319614 Si / 1000 Ang^3
#
#
#
# Elastic Constant Matrix: (Units=GPa)
#
#
# Indices 1 2 3 4 5 6 
#
# 1 177.1629 25.2371 38.7329 0.0000 -6.2554 0.0000
# 2 25.2371 89.1193 -1.7239 0.0000 -0.4641 0.0000
# 3 38.7329 -1.7239 69.5025 0.0000 -7.4672 0.0000
# 4 0.0000 0.0000 0.0000 17.3511 0.0000 -2.6797
# 5 -6.2554 -0.4641 -7.4672 0.0000 34.2753 0.0000
# 6 0.0000 0.0000 0.0000 -2.6797 0.0000 24.3773
#
#
#
# Elastic Compliance Matrix: (Units=1/GPa)
#
#
# Indices 1 2 3 4 5 6 
#
# 1 0.006768 -0.001988 -0.003779 0.000000 0.000385 0.000000
# 2 -0.001988 0.011812 0.001412 0.000000 0.000105 0.000000
# 3 -0.003779 0.001412 0.016852 0.000000 0.003001 0.000000
# 4 0.000000 0.000000 0.000000 0.058628 0.000000 0.006445
# 5 0.000385 0.000105 0.003001 0.000000 0.029901 0.000000
# 6 0.000000 0.000000 0.000000 0.006445 0.000000 0.041730
#
#
# Mechanical properties :
#
#
# Convention : Reuss Voigt Hill
#
# Bulk Modulus (GPa) = 37.42437 51.14186 44.28311
# Shear Modulus (GPa) = 27.27659 33.43666 30.35663
#
# Velocity S-wave (km/s) = 3.49963 3.87471 3.69194
# Velocity P-wave (km/s) = 5.75620 6.55599 6.16907
#
# Compressibility (1/GPa) = 0.02672056
#
# Stress axis : x y z
#
# Youngs Moduli (GPa) = 147.76450 84.66243 59.34152
#
# Poissons Ratio (x) = 0.16827 0.22428
# Poissons Ratio (y) = 0.29369 -0.08378
# Poissons Ratio (z) = 0.55846 -0.11953
#
# Static dielectric constant tensor:
#      x y z
#    x 4.401610 0.000000 -0.083470 
#    y 0.000000 3.860930 0.000000 
#    z -0.083470 0.000000 3.879790 
# 
# 
# High freq. dielectric constant tensor:
#      x y z
#    x 1.890030 0.000000 -0.016150 
#    y 0.000000 1.882790 0.000000 
#    z -0.016150 0.000000 1.858790 
# 
# From -- ./inp_files/170863.got.cif
#   From: 2010.06.25/outbox.cif.g09.slc.cpg/sg15_86_cif.got.tgz:170863.got - 2010.06.28 07:06:18.
