data_PCOD8141260
_publ_section_title
;
Structure prediction by ZEFSAII (Michael W. Deem and Ramdas Pophale) SiO2 
 PCOD8141260
Probable space group: C 2/C
;
_chemical_formula_sum "Si O2"
_cell_formula_units_Z 60
_cell_length_a 6.360052
_cell_length_b 29.194334
_cell_length_c 17.462134
_cell_angle_alpha 90.000000
_cell_angle_beta 92.666530
_cell_angle_gamma 90.000000
_cell_volume 3238.814360
_symmetry_space_group_name_H-M "C 2/C"
_symmetry_group_IT_number 15
_symmetry_cell_setting 'monoclinic'
loop_
_space_group_symop_operation_xyz
x,y,z
-x,y,1/2-z
-x,-y,-z
x,-y,1/2+z
1/2+x,1/2+y,z
1/2-x,1/2+y,1/2-z
1/2-x,1/2-y,-z
1/2+x,1/2-y,1/2+z
loop_
_atom_site_type_symbol
_atom_site_label
_atom_site_fract_x
_atom_site_fract_y
_atom_site_fract_z
Si Si1 0.081537 0.365472 0.054771
Si Si2 0.365958 0.282984 0.058817
Si Si3 0.863065 0.469501 0.677002
Si Si4 0.186009 0.834229 0.953865
Si Si5 0.213113 0.119922 0.090579
Si Si6 0.993708 0.701953 0.157920
Si Si7 0.000000 0.977723 0.250000
Si Si8 0.605683 0.944932 0.170424
O O1 0.197242 0.319851 0.087770
O O2 0.042427 0.401127 0.121189
O O3 0.241264 0.387680 0.997686
O O4 0.862190 0.357240 0.008939
O O5 0.437714 0.254169 0.134217
O O6 0.250000 0.250000 0.000000
O O7 0.557385 0.302894 0.011413
O O8 0.801958 0.425458 0.628873
O O9 0.645287 0.491113 0.699914
O O10 0.000000 0.451110 0.750000
O O11 0.005097 0.507683 0.633865
O O12 0.286702 0.807580 0.882900
O O13 0.038639 0.872558 0.910021
O O14 0.321524 0.165704 0.125359
O O15 0.000000 0.698353 0.250000
O O16 0.142357 0.947770 0.311262
O O17 0.500000 0.938099 0.250000
#
# Coordination Sequence:
#
# PCOD8141260 Si02
#       8
#     8   8   8   8   8   8   4   8
#     4  10  22  38  58  82 112 149 194 235 284 342
#     4  11  20  41  60  82 113 156 194 231 290 350
#     4   9  19  35  57  83 115 149 187 230 289 339
#     4  10  21  38  62  77 117 157 185 230 294 342
#     4  10  21  36  56  86 114 149 190 232 284 349
#     4  11  23  38  57  88 119 146 192 246 283 340
#     4   8  18  36  60  76 114 152 182 230 288 332
#     4   9  20  39  57  82 114 148 189 239 285 335
#
# _framework density 18.525297999999999
#
# number of rings (size 3 to 8) (size 9 to 14) (size 15 to 20)
#    0.000    2.400    4.000    0.800    0.000   10.667 
#    3.600    1.333    0.000    0.000    0.000    0.000 
#    0.000    0.000    0.000    0.000    0.000    0.000 
#
# Total GULP energy -371646.785230 kJ/mol
# GULP energy per Si atom -12388.226174 kJ/mol
# Density = 1.848313 g / cm^3
# Si number density = 18.525298 Si / 1000 Ang^3
#
#
#
# Elastic Constant Matrix: (Units=GPa)
#
#
# Indices 1 2 3 4 5 6 
#
# 1 118.3292 49.8537 34.2392 0.0000 16.9525 0.0000
# 2 49.8537 133.2279 54.3895 0.0000 11.7119 0.0000
# 3 34.2392 54.3895 75.7104 0.0000 5.7230 0.0000
# 4 0.0000 0.0000 0.0000 34.5413 0.0000 9.9607
# 5 16.9525 11.7119 5.7230 0.0000 17.7064 0.0000
# 6 0.0000 0.0000 0.0000 9.9607 0.0000 17.7914
#
#
#
# Elastic Compliance Matrix: (Units=1/GPa)
#
#
# Indices 1 2 3 4 5 6 
#
# 1 0.011501 -0.002398 -0.002835 0.000000 -0.008508 0.000000
# 2 -0.002398 0.011512 -0.006953 0.000000 -0.003071 0.000000
# 3 -0.002835 -0.006953 0.019407 0.000000 0.001041 0.000000
# 4 0.000000 0.000000 0.000000 0.034525 0.000000 -0.019329
# 5 -0.008508 -0.003071 0.001041 0.000000 0.066318 0.000000
# 6 0.000000 0.000000 0.000000 -0.019329 0.000000 0.067028
#
#
# Mechanical properties :
#
#
# Convention : Reuss Voigt Hill
#
# Bulk Modulus (GPa) = 55.41306 67.13692 61.27499
# Shear Modulus (GPa) = 20.77455 26.59350 23.68403
#
# Velocity S-wave (km/s) = 3.35239 3.79294 3.57945
# Velocity P-wave (km/s) = 6.70535 7.44991 7.08742
#
# Compressibility (1/GPa) = 0.01804629
#
# Stress axis : x y z
#
# Youngs Moduli (GPa) = 86.95124 86.86601 51.52802
#
# Poissons Ratio (x) = 0.20832 0.14609
# Poissons Ratio (y) = 0.20852 0.35829
# Poissons Ratio (z) = 0.24651 0.60401
#
# Static dielectric constant tensor:
#      x y z
#    x 3.447280 0.000000 -0.131480 
#    y 0.000000 3.431600 0.000000 
#    z -0.131480 0.000000 3.611740 
# 
# 
# High freq. dielectric constant tensor:
#      x y z
#    x 1.735010 0.000000 0.007810 
#    y 0.000000 1.718260 0.000000 
#    z 0.007810 0.000000 1.700460 
# 
# From -- ./inp_files/186568.got.cif
#   From: 2010.06.25/outbox.cif.g09.slc.cpg/sg15_94_cif.got.tgz:186568.got - 2010.06.28 07:06:18.
