data_PCOD8141511
_publ_section_title
;
Structure prediction by ZEFSAII (Michael W. Deem and Ramdas Pophale) SiO2 
 PCOD8141511
Probable space group: C 2/C
;
_chemical_formula_sum "Si O2"
_cell_formula_units_Z 64
_cell_length_a 30.578168
_cell_length_b 19.009084
_cell_length_c 9.660309
_cell_angle_alpha 90.000000
_cell_angle_beta 141.331241
_cell_angle_gamma 90.000000
_cell_volume 3508.459977
_symmetry_space_group_name_H-M "C 2/C"
_symmetry_group_IT_number 15
_symmetry_cell_setting 'monoclinic'
loop_
_space_group_symop_operation_xyz
x,y,z
-x,y,1/2-z
-x,-y,-z
x,-y,1/2+z
1/2+x,1/2+y,z
1/2-x,1/2+y,1/2-z
1/2-x,1/2-y,-z
1/2+x,1/2-y,1/2+z
loop_
_atom_site_type_symbol
_atom_site_label
_atom_site_fract_x
_atom_site_fract_y
_atom_site_fract_z
Si Si1 0.767534 0.436892 0.462278
Si Si2 0.231348 0.437685 0.348138
Si Si3 0.607403 0.561637 0.258255
Si Si4 0.105963 0.929949 0.077849
Si Si5 0.048864 0.796056 0.498742
Si Si6 0.544995 0.280289 0.989612
Si Si7 0.188022 0.282122 0.254213
Si Si8 0.187600 0.715962 0.429164
O O1 0.773560 0.463977 0.320903
O O2 0.798823 0.499245 0.633217
O O3 0.688118 0.416679 0.307680
O O4 0.813630 0.367645 0.593800
O O5 0.312201 0.424414 0.583359
O O6 0.188201 0.366564 0.270911
O O7 0.578785 0.493666 0.106200
O O8 0.593575 0.551324 0.386835
O O9 0.568713 0.629864 0.111108
O O10 0.060956 0.863162 0.013159
O O11 0.114481 0.746951 0.626317
O O12 0.000913 0.757976 0.492635
O O13 0.000000 0.811569 0.250000
O O14 0.617474 0.240378 0.182352
O O15 0.500000 0.252467 0.750000
O O16 0.250000 0.250000 0.500000
O O17 0.196295 0.262185 0.112346
O O18 0.250000 0.750000 0.500000
#
# Coordination Sequence:
#
# PCOD8141511 Si02
#       8
#     8   8   8   8   8   8   8   8
#     4   9  19  37  60  88 119 147 199 249 297 347
#     4   9  19  37  60  88 116 151 195 252 295 349
#     4  10  21  37  57  83 121 161 205 241 295 359
#     4  10  21  37  57  85 119 164 201 245 293 358
#     4  12  25  41  57  88 124 163 203 248 304 363
#     4  12  25  41  59  87 127 162 202 251 305 358
#     4  11  23  40  65  90 120 160 206 250 300 357
#     4  11  23  40  65  91 119 160 205 252 300 356
#
# _framework density 18.241622
#
# number of rings (size 3 to 8) (size 9 to 14) (size 15 to 20)
#    0.000    1.500    5.000    0.000    3.500    2.000 
#    0.000    0.000    0.000    1.500    0.000    0.000 
#    0.000    0.000    0.000    0.000    0.000    0.000 
#
# Total GULP energy -396804.984769 kJ/mol
# GULP energy per Si atom -12400.155774 kJ/mol
# Density = 1.820010 g / cm^3
# Si number density = 18.241622 Si / 1000 Ang^3
#
#
#
# Elastic Constant Matrix: (Units=GPa)
#
#
# Indices 1 2 3 4 5 6 
#
# 1 111.9699 43.9107 43.7243 0.0000 -4.4974 0.0000
# 2 43.9107 76.8617 45.5979 0.0000 -1.7871 0.0000
# 3 43.7243 45.5979 107.0048 0.0000 -3.9387 0.0000
# 4 0.0000 0.0000 0.0000 34.7820 0.0000 -3.7792
# 5 -4.4974 -1.7871 -3.9387 0.0000 27.2707 0.0000
# 6 0.0000 0.0000 0.0000 -3.7792 0.0000 29.7328
#
#
#
# Elastic Compliance Matrix: (Units=1/GPa)
#
#
# Indices 1 2 3 4 5 6 
#
# 1 0.012095 -0.005321 -0.002628 0.000000 0.001266 0.000000
# 2 -0.005321 0.019753 -0.006261 0.000000 -0.000487 0.000000
# 3 -0.002628 -0.006261 0.013126 0.000000 0.001052 0.000000
# 4 0.000000 0.000000 0.000000 0.029153 0.000000 0.003706
# 5 0.001266 -0.000487 0.001052 0.000000 0.036998 0.000000
# 6 0.000000 0.000000 0.000000 0.003706 0.000000 0.034104
#
#
# Mechanical properties :
#
#
# Convention : Reuss Voigt Hill
#
# Bulk Modulus (GPa) = 60.41002 62.47804 61.44403
# Shear Modulus (GPa) = 27.90672 29.19731 28.55202
#
# Velocity S-wave (km/s) = 3.91556 4.00507 3.96057
# Velocity P-wave (km/s) = 7.32329 7.46406 7.39401
#
# Compressibility (1/GPa) = 0.01655355
#
# Stress axis : x y z
#
# Youngs Moduli (GPa) = 82.67943 50.62417 76.18454
#
# Poissons Ratio (x) = 0.26938 0.20022
# Poissons Ratio (y) = 0.43996 0.47700
# Poissons Ratio (z) = 0.21729 0.31696
#
# Static dielectric constant tensor:
#      x y z
#    x 3.529500 0.000000 -0.131890 
#    y 0.000000 3.335510 0.000000 
#    z -0.131890 0.000000 3.479040 
# 
# 
# High freq. dielectric constant tensor:
#      x y z
#    x 1.712380 0.000000 -0.012890 
#    y 0.000000 1.698520 0.000000 
#    z -0.012890 0.000000 1.709650 
# 
# From -- ./inp_files/70627.got.cif
#   From: 2010.06.25/outbox.cif.g09.slc.cpg/sg15_36_cif.got.tgz:70627.got - 2010.06.28 07:06:18.
