data_PCOD8141455
_publ_section_title
;
Structure prediction by ZEFSAII (Michael W. Deem and Ramdas Pophale) SiO2 
 PCOD8141455
Probable space group: C 2/C
;
_chemical_formula_sum "Si O2"
_cell_formula_units_Z 60
_cell_length_a 26.144715
_cell_length_b 5.660887
_cell_length_c 20.949206
_cell_angle_alpha 90.000000
_cell_angle_beta 107.244589
_cell_angle_gamma 90.000000
_cell_volume 2961.154993
_symmetry_space_group_name_H-M "C 2/C"
_symmetry_group_IT_number 15
_symmetry_cell_setting 'monoclinic'
loop_
_space_group_symop_operation_xyz
x,y,z
-x,y,1/2-z
-x,-y,-z
x,-y,1/2+z
1/2+x,1/2+y,z
1/2-x,1/2+y,1/2-z
1/2-x,1/2-y,-z
1/2+x,1/2-y,1/2+z
loop_
_atom_site_type_symbol
_atom_site_label
_atom_site_fract_x
_atom_site_fract_y
_atom_site_fract_z
Si Si1 0.184697 0.201823 0.289707
Si Si2 0.033975 0.422311 0.642703
Si Si3 0.124088 0.915583 0.170919
Si Si4 0.500000 0.226383 0.750000
Si Si5 0.082319 0.681135 0.423284
Si Si6 0.100675 0.826617 0.861328
Si Si7 0.891681 0.700952 0.922152
Si Si8 0.296693 0.024348 0.314402
O O1 0.157031 0.233704 0.347814
O O2 0.235700 0.029017 0.317032
O O3 0.203744 0.438417 0.259958
O O4 0.136422 0.108948 0.228177
O O5 0.077969 0.241374 0.684934
O O6 0.022201 0.576973 0.699632
O O7 0.060080 0.557323 0.592505
O O8 0.981664 0.285381 0.598046
O O9 0.179206 0.784892 0.175506
O O10 0.101261 0.026883 0.096541
O O11 0.550024 0.375954 0.795714
O O12 0.092642 0.419384 0.397336
O O13 0.107237 0.670808 0.502409
O O14 0.107002 0.921088 0.400652
O O15 0.832366 0.633336 0.874967
#
# Coordination Sequence:
#
# PCOD8141455 Si02
#       8
#     8   8   8   4   8   8   8   8
#     4  11  22  39  65  99 126 161 219 269 344 388
#     4  10  23  39  67  94 130 173 211 273 319 389
#     4  10  21  36  67  94 124 164 207 280 322 384
#     4  10  22  44  58 100 134 164 212 260 346 390
#     4  11  27  44  64  94 135 182 223 258 318 385
#     4  11  27  41  67  94 135 176 211 274 324 393
#     4  10  23  43  62  95 126 175 226 264 316 383
#     4  10  21  39  66  96 124 162 212 282 331 382
#
# _framework density 20.262364000000002
#
# number of rings (size 3 to 8) (size 9 to 14) (size 15 to 20)
#    0.000    1.600    1.333    2.800   14.933    1.067 
#    0.000    1.333    0.000    0.000    0.000    0.000 
#    0.000    0.000    0.000    0.000    0.000    0.000 
#
# Total GULP energy -371650.319009 kJ/mol
# GULP energy per Si atom -12388.343967 kJ/mol
# Density = 2.021625 g / cm^3
# Si number density = 20.262364 Si / 1000 Ang^3
#
#
#
# Elastic Constant Matrix: (Units=GPa)
#
#
# Indices 1 2 3 4 5 6 
#
# 1 131.5854 30.6645 46.7597 0.0000 -12.3131 0.0000
# 2 30.6645 95.5697 29.8508 -0.0001 -9.5035 0.0002
# 3 46.7597 29.8508 108.3002 0.0000 -6.8636 0.0000
# 4 0.0000 -0.0001 0.0000 73.7639 0.0000 29.1808
# 5 -12.3131 -9.5035 -6.8636 0.0000 22.0599 0.0000
# 6 0.0000 0.0002 0.0000 29.1808 0.0000 36.2084
#
#
#
# Elastic Compliance Matrix: (Units=1/GPa)
#
#
# Indices 1 2 3 4 5 6 
#
# 1 0.009535 -0.001631 -0.003442 0.000000 0.003548 0.000000
# 2 -0.001631 0.012091 -0.002403 0.000000 0.003550 0.000000
# 3 -0.003442 -0.002403 0.011420 0.000000 0.000596 0.000000
# 4 0.000000 0.000000 0.000000 0.019902 0.000000 -0.016039
# 5 0.003548 0.003550 0.000596 0.000000 0.049027 0.000000
# 6 0.000000 0.000000 0.000000 -0.016039 0.000000 0.040544
#
#
# Mechanical properties :
#
#
# Convention : Reuss Voigt Hill
#
# Bulk Modulus (GPa) = 55.27297 61.11172 58.19234
# Shear Modulus (GPa) = 30.58048 41.61844 36.09946
#
# Velocity S-wave (km/s) = 3.88909 4.53700 4.22548
# Velocity P-wave (km/s) = 6.89235 7.59418 7.25176
#
# Compressibility (1/GPa) = 0.01809203
#
# Stress axis : x y z
#
# Youngs Moduli (GPa) = 104.87570 82.70821 87.56533
#
# Poissons Ratio (x) = 0.13493 0.30143
# Poissons Ratio (y) = 0.17109 0.21044
# Poissons Ratio (z) = 0.36102 0.19876
#
# Static dielectric constant tensor:
#      x y z
#    x 3.846430 0.000000 0.064250 
#    y 0.000000 3.904780 0.000000 
#    z 0.064250 0.000000 3.573910 
# 
# 
# High freq. dielectric constant tensor:
#      x y z
#    x 1.799080 0.000000 0.004090 
#    y 0.000000 1.797320 0.000000 
#    z 0.004090 0.000000 1.771010 
# 
# From -- ./inp_files/256545.got.cif
#   From: 2010.06.25/outbox.cif.g09.slc.cpg/sg15_129_cif.got.tgz:256545.got - 2010.06.28 07:06:18.
