data_PCOD8141929
_publ_section_title
;
Structure prediction by ZEFSAII (Michael W. Deem and Ramdas Pophale) SiO2 
 PCOD8141929
Probable space group: C 2/C
;
_chemical_formula_sum "Si O2"
_cell_formula_units_Z 48
_cell_length_a 4.936325
_cell_length_b 18.138207
_cell_length_c 22.171200
_cell_angle_alpha 90.000000
_cell_angle_beta 94.659851
_cell_angle_gamma 90.000000
_cell_volume 1978.560735
_symmetry_space_group_name_H-M "C 2/C"
_symmetry_group_IT_number 15
_symmetry_cell_setting 'monoclinic'
loop_
_space_group_symop_operation_xyz
x,y,z
-x,y,1/2-z
-x,-y,-z
x,-y,1/2+z
1/2+x,1/2+y,z
1/2-x,1/2+y,1/2-z
1/2-x,1/2-y,-z
1/2+x,1/2-y,1/2+z
loop_
_atom_site_type_symbol
_atom_site_label
_atom_site_fract_x
_atom_site_fract_y
_atom_site_fract_z
Si Si1 0.655789 0.089231 0.691076
Si Si2 0.016398 0.251711 0.180366
Si Si3 0.978442 0.679048 0.019907
Si Si4 0.648501 0.682186 0.581020
Si Si5 0.977268 0.127348 0.412180
Si Si6 0.121084 0.035918 0.632376
O O1 0.500000 0.076681 0.750000
O O2 0.711983 0.176314 0.679804
O O3 0.443655 0.050379 0.641219
O O4 0.947112 0.048268 0.691261
O O5 0.728984 0.280947 0.147232
O O6 0.000000 0.226168 0.250000
O O7 0.124978 0.181958 0.143520
O O8 0.940310 0.765321 0.040121
O O9 0.213632 0.643945 0.066133
O O10 0.703233 0.636104 0.030735
O O11 0.067011 0.676298 0.951826
O O12 0.511398 0.601651 0.586202
O O13 0.947396 0.043652 0.392466
#
# Coordination Sequence:
#
# PCOD8141929 Si02
#       6
#     8   8   8   8   8   8
#     4  10  21  38  59  82 114 159 202 242 291 357
#     4   9  20  39  62  87 117 154 199 247 298 358
#     4  10  22  40  62  86 121 161 204 248 295 358
#     4   9  21  39  63  89 118 162 207 248 296 354
#     4  11  23  39  59  90 123 156 195 247 308 357
#     4  11  22  37  59  88 122 154 199 249 300 360
#
# _framework density 24.260058999999998
#
# number of rings (size 3 to 8) (size 9 to 14) (size 15 to 20)
#    0.000    2.000    0.000    2.500    0.000   11.333 
#    0.000    8.333    0.000    0.000    0.000    0.000 
#    0.000    0.000    0.000    0.000    0.000    0.000 
#
# Total GULP energy -297402.509883 kJ/mol
# GULP energy per Si atom -12391.771245 kJ/mol
# Density = 2.420484 g / cm^3
# Si number density = 24.260059 Si / 1000 Ang^3
#
#
#
# Elastic Constant Matrix: (Units=GPa)
#
#
# Indices 1 2 3 4 5 6 
#
# 1 63.5205 27.1097 5.9038 0.0000 -22.1883 0.0000
# 2 27.1097 169.3113 44.5051 0.0000 -14.5305 0.0000
# 3 5.9038 44.5051 100.5100 0.0000 5.2556 0.0000
# 4 0.0000 0.0000 0.0000 26.2518 0.0000 -5.4502
# 5 -22.1883 -14.5305 5.2556 0.0000 25.3732 0.0000
# 6 0.0000 0.0000 0.0000 -5.4502 0.0000 28.7176
#
#
#
# Elastic Compliance Matrix: (Units=1/GPa)
#
#
# Indices 1 2 3 4 5 6 
#
# 1 0.023601 -0.001602 -0.001727 0.000000 0.020079 0.000000
# 2 -0.001602 0.007340 -0.003339 0.000000 0.003494 0.000000
# 3 -0.001727 -0.003339 0.011836 0.000000 -0.005874 0.000000
# 4 0.000000 0.000000 0.000000 0.039655 0.000000 0.007526
# 5 0.020079 0.003494 -0.005874 0.000000 0.060188 0.000000
# 6 0.000000 0.000000 0.000000 0.007526 0.000000 0.036250
#
#
# Mechanical properties :
#
#
# Convention : Reuss Voigt Hill
#
# Bulk Modulus (GPa) = 33.96483 54.26433 44.11458
# Shear Modulus (GPa) = 24.75005 33.12341 28.93673
#
# Velocity S-wave (km/s) = 3.19752 3.69907 3.45740
# Velocity P-wave (km/s) = 5.25955 6.37656 5.84480
#
# Compressibility (1/GPa) = 0.02944222
#
# Stress axis : x y z
#
# Youngs Moduli (GPa) = 42.37148 136.23416 84.48614
#
# Poissons Ratio (x) = 0.21822 0.14590
# Poissons Ratio (y) = 0.06787 0.28209
# Poissons Ratio (z) = 0.07317 0.45487
#
# Static dielectric constant tensor:
#      x y z
#    x 4.329440 0.000000 -0.004490 
#    y 0.000000 4.288200 0.000000 
#    z -0.004490 0.000000 4.519560 
# 
# 
# High freq. dielectric constant tensor:
#      x y z
#    x 1.963210 0.000000 -0.002940 
#    y 0.000000 1.949990 0.000000 
#    z -0.002940 0.000000 1.968300 
# 
# From -- ./inp_files/260673.got.cif
#   From: 2010.06.25/outbox.cif.g09.slc.cpg/sg15_131_cif.got.tgz:260673.got - 2010.06.28 07:06:18.
