data_PCOD8141194
_publ_section_title
;
Structure prediction by ZEFSAII (Michael W. Deem and Ramdas Pophale) SiO2 
 PCOD8141194
Probable space group: C 2/C
;
_chemical_formula_sum "Si O2"
_cell_formula_units_Z 52
_cell_length_a 24.086850
_cell_length_b 14.051693
_cell_length_c 8.910854
_cell_angle_alpha 90.000000
_cell_angle_beta 128.842290
_cell_angle_gamma 90.000000
_cell_volume 2349.069663
_symmetry_space_group_name_H-M "C 2/C"
_symmetry_group_IT_number 15
_symmetry_cell_setting 'monoclinic'
loop_
_space_group_symop_operation_xyz
x,y,z
-x,y,1/2-z
-x,-y,-z
x,-y,1/2+z
1/2+x,1/2+y,z
1/2-x,1/2+y,1/2-z
1/2-x,1/2-y,-z
1/2+x,1/2-y,1/2+z
loop_
_atom_site_type_symbol
_atom_site_label
_atom_site_fract_x
_atom_site_fract_y
_atom_site_fract_z
Si Si1 0.545669 0.815811 0.565699
Si Si2 0.500000 0.316790 0.250000
Si Si3 0.782277 0.973968 0.514349
Si Si4 0.635138 0.954089 0.903183
Si Si5 0.402609 0.839947 0.152327
Si Si6 0.649025 0.616210 0.093060
Si Si7 0.691594 0.179957 0.739802
O O1 0.542965 0.740390 0.695121
O O2 0.584028 0.910247 0.690567
O O3 0.466170 0.834956 0.378364
O O4 0.587885 0.779478 0.486017
O O5 0.563161 0.375526 0.436746
O O6 0.837546 0.940331 0.732293
O O7 0.764206 0.882158 0.376867
O O8 0.711813 0.022086 0.462655
O O9 0.821997 0.056942 0.495539
O O10 0.602025 0.051048 0.909470
O O11 0.638011 0.882476 0.048491
O O12 0.334147 0.806114 0.130515
O O13 0.694427 0.715560 0.170928
#
# Coordination Sequence:
#
# PCOD8141194 Si02
#       7
#     8   4   8   8   8   8   8
#     4  11  21  39  64 106 142 182 233 274 354 419
#     4  12  26  48  72  96 136 190 242 292 340 412
#     4  11  26  47  71 108 139 186 237 285 355 417
#     4  11  21  40  68 104 145 182 227 283 358 426
#     4  10  21  35  65 108 146 185 221 284 349 428
#     4  12  26  51  73  99 140 183 241 296 349 410
#     4  11  22  45  72 102 149 182 227 288 350 421
#
# _framework density 22.136424000000002
#
# number of rings (size 3 to 8) (size 9 to 14) (size 15 to 20)
#    0.000    0.923    4.615    2.769    2.154    3.692 
#    2.769    0.000    0.000    0.000    0.000    0.000 
#    0.000    0.000    0.000    0.000    0.000    0.000 
#
# Total GULP energy -322211.126210 kJ/mol
# GULP energy per Si atom -12392.735623 kJ/mol
# Density = 2.208604 g / cm^3
# Si number density = 22.136424 Si / 1000 Ang^3
#
#
#
# Elastic Constant Matrix: (Units=GPa)
#
#
# Indices 1 2 3 4 5 6 
#
# 1 63.9810 35.4279 22.2834 0.0000 -3.3700 0.0000
# 2 35.4279 97.8851 26.6858 0.0000 -11.6266 0.0000
# 3 22.2834 26.6858 100.5916 0.0000 -13.7887 0.0000
# 4 0.0000 0.0000 0.0000 -5.9975 0.0000 -10.0207
# 5 -3.3700 -11.6266 -13.7887 0.0000 30.6183 0.0000
# 6 0.0000 0.0000 0.0000 -10.0207 0.0000 28.5578
#
#
#
# Elastic Compliance Matrix: (Units=1/GPa)
#
#
# Indices 1 2 3 4 5 6 
#
# 1 0.020298 -0.006742 -0.002934 0.000000 -0.001647 0.000000
# 2 -0.006742 0.013527 -0.001591 0.000000 0.003678 0.000000
# 3 -0.002934 -0.001591 0.011602 0.000000 0.004298 0.000000
# 4 0.000000 0.000000 0.000000 -0.105112 0.000000 -0.036883
# 5 -0.001647 0.003678 0.004298 0.000000 0.035811 0.000000
# 6 0.000000 0.000000 0.000000 -0.036883 0.000000 0.022075
#
#
# Mechanical properties :
#
#
# Convention : Reuss Voigt Hill
#
# Bulk Modulus (GPa) = 43.68036 47.91689 45.79863
# Shear Modulus (GPa) = 176.26847 22.50641 99.38744
#
# Velocity S-wave (km/s) = 8.93315 3.19205 6.70784
# Velocity P-wave (km/s) = 11.23284 5.93959 8.98486
#
# Compressibility (1/GPa) = 0.02289358
#
# Stress axis : x y z
#
# Youngs Moduli (GPa) = 49.26576 73.92658 86.19041
#
# Poissons Ratio (x) = 0.49845 0.25285
# Poissons Ratio (y) = 0.33217 0.13711
# Poissons Ratio (z) = 0.14453 0.11760
#
# Static dielectric constant tensor:
#      x y z
#    x 3.875870 0.000000 -0.103690 
#    y 0.000000 3.961090 0.000000 
#    z -0.103690 0.000000 4.326940 
# 
# 
# High freq. dielectric constant tensor:
#      x y z
#    x 1.855080 0.000000 -0.007100 
#    y 0.000000 1.852440 0.000000 
#    z -0.007100 0.000000 1.899480 
# 
# From -- ./inp_files/69799.got.cif
#   From: 2010.06.25/outbox.cif.g09.slc.cpg/sg15_35_cif.got.tgz:69799.got - 2010.06.28 07:06:18.
