data_PCOD8141063
_publ_section_title
;
Structure prediction by ZEFSAII (Michael W. Deem and Ramdas Pophale) SiO2 
 PCOD8141063
Probable space group: C 2/C
;
_chemical_formula_sum "Si O2"
_cell_formula_units_Z 40
_cell_length_a 22.139705
_cell_length_b 5.168330
_cell_length_c 19.114256
_cell_angle_alpha 90.000000
_cell_angle_beta 79.461922
_cell_angle_gamma 90.000000
_cell_volume 2150.265038
_symmetry_space_group_name_H-M "C 2/C"
_symmetry_group_IT_number 15
_symmetry_cell_setting 'monoclinic'
loop_
_space_group_symop_operation_xyz
x,y,z
-x,y,1/2-z
-x,-y,-z
x,-y,1/2+z
1/2+x,1/2+y,z
1/2-x,1/2+y,1/2-z
1/2-x,1/2-y,-z
1/2+x,1/2-y,1/2+z
loop_
_atom_site_type_symbol
_atom_site_label
_atom_site_fract_x
_atom_site_fract_y
_atom_site_fract_z
Si Si1 0.928477 0.214195 0.251506
Si Si2 0.201781 0.318581 0.898284
Si Si3 0.634206 0.774498 0.772128
Si Si4 0.316780 0.697973 0.015243
Si Si5 0.337999 0.515071 0.868181
O O1 0.911726 0.484102 0.219571
O O2 0.891811 0.182222 0.333034
O O3 0.000000 0.200176 0.250000
O O4 0.907674 0.980001 0.204299
O O5 0.185315 0.317040 0.820093
O O6 0.163450 0.547169 0.945483
O O7 0.274640 0.358164 0.890759
O O8 0.181735 0.047590 0.934659
O O9 0.669820 0.737212 0.690155
O O10 0.250000 0.750000 0.000000
O O11 0.358590 0.644130 0.937665
#
# Coordination Sequence:
#
# PCOD8141063 Si02
#       5
#     8   8   8   8   8
#     4  10  22  38  59  81 109 149 202 239 269 326
#     4  11  22  35  57  89 124 137 181 232 296 340
#     4  10  23  35  60  85 114 146 187 241 284 321
#     4  10  21  35  54  84 122 154 174 221 283 361
#     4   9  23  33  62  81 115 147 191 217 288 334
#
# _framework density 18.602360000000001
#
# number of rings (size 3 to 8) (size 9 to 14) (size 15 to 20)
#    1.200    0.800    0.000    4.200   11.200    0.000 
#    0.000    0.000    0.000    7.200    0.000    0.000 
#    0.000    0.000    0.000    0.000    0.000    0.000 
#
# Total GULP energy -247833.321486 kJ/mol
# GULP energy per Si atom -12391.666074 kJ/mol
# Density = 1.856002 g / cm^3
# Si number density = 18.602360 Si / 1000 Ang^3
#
#
#
# Elastic Constant Matrix: (Units=GPa)
#
#
# Indices 1 2 3 4 5 6 
#
# 1 52.5444 11.5349 23.0989 0.0000 -6.0832 0.0000
# 2 11.5349 123.8574 26.5350 0.0000 2.2983 0.0000
# 3 23.0989 26.5350 104.9012 0.0000 3.1605 0.0000
# 4 0.0000 0.0000 0.0000 23.0939 0.0000 7.9801
# 5 -6.0832 2.2983 3.1605 0.0000 9.4548 0.0000
# 6 0.0000 0.0000 0.0000 7.9801 0.0000 21.8782
#
#
#
# Elastic Compliance Matrix: (Units=1/GPa)
#
#
# Indices 1 2 3 4 5 6 
#
# 1 0.023722 -0.001375 -0.005400 0.000000 0.017402 0.000000
# 2 -0.001375 0.008634 -0.001809 0.000000 -0.002379 0.000000
# 3 -0.005400 -0.001809 0.011386 0.000000 -0.006840 0.000000
# 4 0.000000 0.000000 0.000000 0.049546 0.000000 -0.018072
# 5 0.017402 -0.002379 -0.006840 0.000000 0.119828 0.000000
# 6 0.000000 0.000000 0.000000 -0.018072 0.000000 0.052299
#
#
# Mechanical properties :
#
#
# Convention : Reuss Voigt Hill
#
# Bulk Modulus (GPa) = 37.63358 44.84895 41.24127
# Shear Modulus (GPa) = 17.15610 25.56098 21.35854
#
# Velocity S-wave (km/s) = 3.04016 3.71087 3.39213
# Velocity P-wave (km/s) = 5.70946 6.52092 6.12863
#
# Compressibility (1/GPa) = 0.02657201
#
# Stress axis : x y z
#
# Youngs Moduli (GPa) = 42.15505 115.82561 87.83019
#
# Poissons Ratio (x) = 0.15929 0.47428
# Poissons Ratio (y) = 0.05798 0.15892
# Poissons Ratio (z) = 0.22763 0.20957
#
# Static dielectric constant tensor:
#      x y z
#    x 2.934300 0.000000 0.083210 
#    y 0.000000 3.784260 0.000000 
#    z 0.083210 0.000000 3.950310 
# 
# 
# High freq. dielectric constant tensor:
#      x y z
#    x 1.671660 0.000000 0.006920 
#    y 0.000000 1.740800 0.000000 
#    z 0.006920 0.000000 1.721000 
# 
# From -- ./inp_files/212641.got.cif
#   From: 2010.06.25/outbox.cif.g09.slc.cpg/sg15_107_cif.got.tgz:212641.got - 2010.06.28 07:06:18.
