data_PCOD8141960
_publ_section_title
;
Structure prediction by ZEFSAII (Michael W. Deem and Ramdas Pophale) SiO2 
 PCOD8141960
Probable space group: C 2/C
;
_chemical_formula_sum "Si O2"
_cell_formula_units_Z 52
_cell_length_a 10.697232
_cell_length_b 24.345683
_cell_length_c 9.936405
_cell_angle_alpha 90.000000
_cell_angle_beta 73.861460
_cell_angle_gamma 90.000000
_cell_volume 2485.774961
_symmetry_space_group_name_H-M "C 2/C"
_symmetry_group_IT_number 15
_symmetry_cell_setting 'monoclinic'
loop_
_space_group_symop_operation_xyz
x,y,z
-x,y,1/2-z
-x,-y,-z
x,-y,1/2+z
1/2+x,1/2+y,z
1/2-x,1/2+y,1/2-z
1/2-x,1/2-y,-z
1/2+x,1/2-y,1/2+z
loop_
_atom_site_type_symbol
_atom_site_label
_atom_site_fract_x
_atom_site_fract_y
_atom_site_fract_z
Si Si1 0.640088 0.185185 0.740879
Si Si2 0.855223 0.532010 0.346747
Si Si3 0.500000 0.391544 0.750000
Si Si4 0.249618 0.050693 0.100683
Si Si5 0.130604 0.664775 0.455793
Si Si6 0.662249 0.148433 0.000650
Si Si7 0.320463 0.303432 0.677624
O O1 0.500000 0.158024 0.750000
O O2 0.701992 0.186300 0.572935
O O3 0.615661 0.244331 0.818833
O O4 0.713771 0.145457 0.828358
O O5 0.760601 0.526259 0.247579
O O6 0.794612 0.491641 0.474622
O O7 0.850766 0.592061 0.414807
O O8 0.000000 0.517133 0.250000
O O9 0.400235 0.428716 0.868211
O O10 0.422070 0.352783 0.670108
O O11 0.352156 0.099686 0.059411
O O12 0.200958 0.695736 0.315595
O O13 0.978419 0.677291 0.479317
O O14 0.760568 0.189301 0.047129
#
# Coordination Sequence:
#
# PCOD8141960 Si02
#       7
#     8   8   4   8   8   8   8
#     4  10  22  34  60  94 122 160 201 252 310 371
#     4  12  23  41  64  96 119 161 204 267 323 363
#     4  10  22  42  62  90 124 174 204 246 304 372
#     4  11  25  40  66  87 127 162 207 257 310 381
#     4  10  21  38  59  90 124 157 200 263 310 362
#     4  11  21  38  61  90 123 155 205 265 310 360
#     4  11  19  40  62  83 125 168 208 243 302 374
#
# _framework density 20.919031
#
# number of rings (size 3 to 8) (size 9 to 14) (size 15 to 20)
#    0.000    1.231    5.385    1.846    2.154    1.231 
#    0.000    0.000    0.000    0.000    0.000    0.000 
#    0.000    0.000    0.000    0.000    0.000    0.000 
#
# Total GULP energy -322105.568492 kJ/mol
# GULP energy per Si atom -12388.675711 kJ/mol
# Density = 2.087142 g / cm^3
# Si number density = 20.919031 Si / 1000 Ang^3
#
#
#
# Elastic Constant Matrix: (Units=GPa)
#
#
# Indices 1 2 3 4 5 6 
#
# 1 95.0407 18.9739 43.3254 0.0000 18.5269 0.0000
# 2 18.9739 67.7935 42.4773 0.0000 0.7673 0.0000
# 3 43.3254 42.4773 120.7945 0.0000 41.0567 0.0000
# 4 0.0000 0.0000 0.0000 37.8674 0.0000 4.8070
# 5 18.5269 0.7673 41.0567 0.0000 36.4232 0.0000
# 6 0.0000 0.0000 0.0000 4.8070 0.0000 11.0535
#
#
#
# Elastic Compliance Matrix: (Units=1/GPa)
#
#
# Indices 1 2 3 4 5 6 
#
# 1 0.012815 -0.001741 -0.002887 0.000000 -0.003227 0.000000
# 2 -0.001741 0.022689 -0.012146 0.000000 0.014099 0.000000
# 3 -0.002887 -0.012146 0.021073 0.000000 -0.022029 0.000000
# 4 0.000000 0.000000 0.000000 0.027951 0.000000 -0.012155
# 5 -0.003227 0.014099 -0.022029 0.000000 0.053631 0.000000
# 6 0.000000 0.000000 0.000000 -0.012155 0.000000 0.095755
#
#
# Mechanical properties :
#
#
# Convention : Reuss Voigt Hill
#
# Bulk Modulus (GPa) = 43.42632 54.79797 49.11215
# Shear Modulus (GPa) = 18.17276 28.99229 23.58252
#
# Velocity S-wave (km/s) = 2.95060 3.72685 3.36121
# Velocity P-wave (km/s) = 5.69319 6.69114 6.21223
#
# Compressibility (1/GPa) = 0.02302751
#
# Stress axis : x y z
#
# Youngs Moduli (GPa) = 78.03596 44.07478 47.45517
#
# Poissons Ratio (x) = 0.07674 0.13701
# Poissons Ratio (y) = 0.13586 0.57639
# Poissons Ratio (z) = 0.22530 0.53533
#
# Static dielectric constant tensor:
#      x y z
#    x 3.785620 0.000000 0.213410 
#    y 0.000000 3.762700 0.000000 
#    z 0.213410 0.000000 4.284940 
# 
# 
# High freq. dielectric constant tensor:
#      x y z
#    x 1.806380 0.000000 0.018340 
#    y 0.000000 1.807180 0.000000 
#    z 0.018340 0.000000 1.833460 
# 
# From -- ./inp_files/33507.got.cif
#   From: 2010.06.25/outbox.cif.g09.slc.cpg/sg15_17_cif.got.tgz:33507.got - 2010.06.28 07:06:18.
