data_PCOD8141380
_publ_section_title
;
Structure prediction by ZEFSAII (Michael W. Deem and Ramdas Pophale) SiO2 
 PCOD8141380
Probable space group: C 2/C
;
_chemical_formula_sum "Si O2"
_cell_formula_units_Z 48
_cell_length_a 29.362126
_cell_length_b 9.857173
_cell_length_c 14.197542
_cell_angle_alpha 90.000000
_cell_angle_beta 32.548569
_cell_angle_gamma 90.000000
_cell_volume 2210.786975
_symmetry_space_group_name_H-M "C 2/C"
_symmetry_group_IT_number 15
_symmetry_cell_setting 'monoclinic'
loop_
_space_group_symop_operation_xyz
x,y,z
-x,y,1/2-z
-x,-y,-z
x,-y,1/2+z
1/2+x,1/2+y,z
1/2-x,1/2+y,1/2-z
1/2-x,1/2-y,-z
1/2+x,1/2-y,1/2+z
loop_
_atom_site_type_symbol
_atom_site_label
_atom_site_fract_x
_atom_site_fract_y
_atom_site_fract_z
Si Si1 0.412240 0.079623 0.434661
Si Si2 0.232370 0.035793 0.474449
Si Si3 0.492681 0.118560 0.936574
Si Si4 0.667406 0.117629 0.558046
Si Si5 0.152336 0.210863 0.759696
Si Si6 0.761400 0.842050 0.198170
O O1 0.500000 0.158518 0.250000
O O2 0.342450 0.166752 0.614301
O O3 0.441423 0.944213 0.438380
O O4 0.360917 0.029542 0.432456
O O5 0.156143 0.109874 0.663104
O O6 0.305903 0.144464 0.334033
O O7 0.264333 0.906609 0.478989
O O8 0.207665 0.973767 0.415940
O O9 0.582991 0.182098 0.750054
O O10 0.445616 0.253715 0.054503
O O11 0.500000 0.000000 0.000000
O O12 0.707289 0.205376 0.405198
O O13 0.196409 0.140961 0.773074
#
# Coordination Sequence:
#
# PCOD8141380 Si02
#       6
#     8   8   8   8   8   8
#     4  10  21  36  61  94 125 162 217 272 313 374
#     4  11  23  39  61  99 126 173 214 266 330 390
#     4  11  20  39  63  94 124 163 220 273 314 374
#     4  11  21  37  65  93 129 166 223 266 321 386
#     4  11  23  39  65  94 135 170 212 277 324 375
#     4  12  21  39  63  96 134 169 215 266 327 394
#
# _framework density 21.711725000000001
#
# number of rings (size 3 to 8) (size 9 to 14) (size 15 to 20)
#    0.000    1.000    6.667    0.500    0.000    0.000 
#    0.000    0.833    0.000    4.000    0.000    0.000 
#    0.000    0.000    0.000    0.000    0.000    0.000 
#
# Total GULP energy -297471.307629 kJ/mol
# GULP energy per Si atom -12394.637818 kJ/mol
# Density = 2.166231 g / cm^3
# Si number density = 21.711725 Si / 1000 Ang^3
#
#
#
# Elastic Constant Matrix: (Units=GPa)
#
#
# Indices 1 2 3 4 5 6 
#
# 1 57.2143 18.2936 29.7173 0.0000 15.1921 0.0000
# 2 18.2936 54.9254 47.9557 0.0000 1.0723 0.0000
# 3 29.7173 47.9557 184.3907 0.0000 0.1908 0.0000
# 4 0.0000 0.0000 0.0000 40.4876 0.0000 10.1963
# 5 15.1921 1.0723 0.1908 0.0000 29.8582 0.0000
# 6 0.0000 0.0000 0.0000 10.1963 0.0000 39.0086
#
#
#
# Elastic Compliance Matrix: (Units=1/GPa)
#
#
# Indices 1 2 3 4 5 6 
#
# 1 0.023614 -0.005592 -0.002339 0.000000 -0.011799 0.000000
# 2 -0.005592 0.024899 -0.005576 0.000000 0.001987 0.000000
# 3 -0.002339 -0.005576 0.007249 0.000000 0.001344 0.000000
# 4 0.000000 0.000000 0.000000 0.026439 0.000000 -0.006911
# 5 -0.011799 0.001987 0.001344 0.000000 0.039415 0.000000
# 6 0.000000 0.000000 0.000000 -0.006911 0.000000 0.027442
#
#
# Mechanical properties :
#
#
# Convention : Reuss Voigt Hill
#
# Bulk Modulus (GPa) = 34.78659 54.27374 44.53017
# Shear Modulus (GPa) = 26.93136 35.24179 31.08657
#
# Velocity S-wave (km/s) = 3.52576 4.03323 3.78800
# Velocity P-wave (km/s) = 5.71240 6.83673 6.29970
#
# Compressibility (1/GPa) = 0.02874671
#
# Stress axis : x y z
#
# Youngs Moduli (GPa) = 42.34726 40.16196 137.94685
#
# Poissons Ratio (x) = 0.22460 0.32268
# Poissons Ratio (y) = 0.23682 0.76925
# Poissons Ratio (z) = 0.09906 0.22396
#
# Static dielectric constant tensor:
#      x y z
#    x 3.994260 0.000000 0.292460 
#    y 0.000000 3.496770 0.000000 
#    z 0.292460 0.000000 4.426780 
# 
# 
# High freq. dielectric constant tensor:
#      x y z
#    x 1.851060 0.000000 0.025050 
#    y 0.000000 1.809040 0.000000 
#    z 0.025050 0.000000 1.869760 
# 
# From -- ./inp_files/181701.got.cif
#   From: 2010.06.25/outbox.cif.g09.slc.cpg/sg15_91_cif.got.tgz:181701.got - 2010.06.28 07:06:18.
