data_PCOD8141200
_publ_section_title
;
Structure prediction by ZEFSAII (Michael W. Deem and Ramdas Pophale) SiO2 
 PCOD8141200
Probable space group: C 2/C
;
_chemical_formula_sum "Si O2"
_cell_formula_units_Z 48
_cell_length_a 14.660094
_cell_length_b 22.245475
_cell_length_c 14.723752
_cell_angle_alpha 90.000000
_cell_angle_beta 28.058533
_cell_angle_gamma 90.000000
_cell_volume 2258.601555
_symmetry_space_group_name_H-M "C 2/C"
_symmetry_group_IT_number 15
_symmetry_cell_setting 'monoclinic'
loop_
_space_group_symop_operation_xyz
x,y,z
-x,y,1/2-z
-x,-y,-z
x,-y,1/2+z
1/2+x,1/2+y,z
1/2-x,1/2+y,1/2-z
1/2-x,1/2-y,-z
1/2+x,1/2-y,1/2+z
loop_
_atom_site_type_symbol
_atom_site_label
_atom_site_fract_x
_atom_site_fract_y
_atom_site_fract_z
Si Si1 0.353313 0.713318 0.213002
Si Si2 0.974387 0.566563 0.986663
Si Si3 0.784652 0.878709 0.926422
Si Si4 0.596151 0.155032 0.305705
Si Si5 0.763681 0.658296 0.831669
Si Si6 0.277548 0.679908 0.962484
O O1 0.284023 0.682076 0.367080
O O2 0.188205 0.711425 0.279505
O O3 0.399268 0.783436 0.191842
O O4 0.542464 0.678075 0.010188
O O5 0.173987 0.603144 0.789190
O O6 0.000000 0.500000 0.000000
O O7 0.840834 0.569708 0.013708
O O8 0.862388 0.597411 0.168626
O O9 0.000000 0.905035 0.750000
O O10 0.693297 0.862632 0.103651
O O11 0.363843 0.162676 0.496680
O O12 0.705443 0.145008 0.114878
O O13 0.500000 0.662140 0.750000
O O14 0.250000 0.750000 0.000000
#
# Coordination Sequence:
#
# PCOD8141200 Si02
#       6
#     8   8   8   8   8   8
#     4  10  21  35  68 101 137 157 203 261 335 407
#     4  11  25  45  66  87 128 174 229 265 309 379
#     4   9  20  42  63  97 131 165 202 260 327 388
#     4  10  24  42  61  96 128 174 219 269 328 384
#     4  11  22  36  66 100 130 170 199 262 327 392
#     4  11  23  38  65  93 135 171 211 269 335 390
#
# _framework density 21.252089000000002
#
# number of rings (size 3 to 8) (size 9 to 14) (size 15 to 20)
#    0.000    1.667    1.667    3.000    7.000    2.667 
#    6.000    8.333    0.000    0.000    0.000    0.000 
#    0.000    0.000    0.000    0.000    0.000    0.000 
#
# Total GULP energy -297482.951832 kJ/mol
# GULP energy per Si atom -12395.122993 kJ/mol
# Density = 2.120372 g / cm^3
# Si number density = 21.252089 Si / 1000 Ang^3
#
#
#
# Elastic Constant Matrix: (Units=GPa)
#
#
# Indices 1 2 3 4 5 6 
#
# 1 147.3160 50.6512 63.5409 -0.0163 -13.8437 0.0221
# 2 50.6512 131.7506 49.7843 -0.0348 7.4994 0.0115
# 3 63.5409 49.7843 127.2209 0.0475 -9.3828 -0.0113
# 4 -0.0163 -0.0348 0.0475 22.5004 0.0156 0.4954
# 5 -13.8437 7.4994 -9.3828 0.0156 40.1643 -0.0532
# 6 0.0221 0.0115 -0.0113 0.4954 -0.0532 28.1284
#
#
#
# Elastic Compliance Matrix: (Units=1/GPa)
#
#
# Indices 1 2 3 4 5 6 
#
# 1 0.009427 -0.002452 -0.003537 0.000009 0.002881 -0.000003
# 2 -0.002452 0.009803 -0.002858 0.000022 -0.003343 -0.000010
# 3 -0.003537 -0.002858 0.010882 -0.000032 0.001857 0.000012
# 4 0.000009 0.000022 -0.000032 0.044461 -0.000027 -0.000783
# 5 0.002881 -0.003343 0.001857 -0.000027 0.026949 0.000051
# 6 -0.000003 -0.000010 0.000012 -0.000783 0.000051 0.035565
#
#
# Mechanical properties :
#
#
# Convention : Reuss Voigt Hill
#
# Bulk Modulus (GPa) = 80.51992 81.58225 81.05109
# Shear Modulus (GPa) = 31.46231 34.31270 32.88751
#
# Velocity S-wave (km/s) = 3.85181 4.02251 3.93809
# Velocity P-wave (km/s) = 7.59949 7.74889 7.67456
#
# Compressibility (1/GPa) = 0.01241929
#
# Stress axis : x y z
#
# Youngs Moduli (GPa) = 106.07501 102.00931 91.89438
#
# Poissons Ratio (x) = 0.25012 0.32499
# Poissons Ratio (y) = 0.26009 0.26264
# Poissons Ratio (z) = 0.37514 0.29155
#
# Static dielectric constant tensor:
#      x y z
#    x 4.216090 -0.000130 -0.083730 
#    y -0.000130 3.360550 0.000380 
#    z -0.083730 0.000380 4.212890 
# 
# 
# High freq. dielectric constant tensor:
#      x y z
#    x 1.853170 -0.000020 0.001530 
#    y -0.000020 1.777010 0.000030 
#    z 0.001530 0.000030 1.848010 
# 
# From -- ./inp_files/156745.got.cif
#   From: 2010.06.25/outbox.cif.g09.slc.cpg/sg15_79_cif.got.tgz:156745.got - 2010.06.28 07:06:18.
