data_PCOD8141461
_publ_section_title
;
Structure prediction by ZEFSAII (Michael W. Deem and Ramdas Pophale) SiO2 
 PCOD8141461
Probable space group: C 2/C
;
_chemical_formula_sum "Si O2"
_cell_formula_units_Z 56
_cell_length_a 12.728856
_cell_length_b 16.605310
_cell_length_c 19.147821
_cell_angle_alpha 90.000000
_cell_angle_beta 41.090135
_cell_angle_gamma 90.000000
_cell_volume 2660.010400
_symmetry_space_group_name_H-M "C 2/C"
_symmetry_group_IT_number 15
_symmetry_cell_setting 'monoclinic'
loop_
_space_group_symop_operation_xyz
x,y,z
-x,y,1/2-z
-x,-y,-z
x,-y,1/2+z
1/2+x,1/2+y,z
1/2-x,1/2+y,1/2-z
1/2-x,1/2-y,-z
1/2+x,1/2-y,1/2+z
loop_
_atom_site_type_symbol
_atom_site_label
_atom_site_fract_x
_atom_site_fract_y
_atom_site_fract_z
Si Si1 0.882967 0.955700 0.253943
Si Si2 0.597297 0.215785 0.536019
Si Si3 0.432853 0.630746 0.527642
Si Si4 0.340166 0.880181 0.232882
Si Si5 0.997683 0.451714 0.830211
Si Si6 0.122062 0.569913 0.414574
Si Si7 0.142204 0.022451 0.509084
O O1 0.802588 0.035095 0.327982
O O2 0.000000 0.911426 0.250000
O O3 0.739572 0.896940 0.302994
O O4 0.993494 0.981155 0.134904
O O5 0.750000 0.250000 0.500000
O O6 0.511579 0.289885 0.540398
O O7 0.478791 0.185193 0.655623
O O8 0.626126 0.145329 0.464868
O O9 0.300905 0.657381 0.650377
O O10 0.594308 0.588487 0.474659
O O11 0.336699 0.567606 0.528872
O O12 0.414450 0.962813 0.225397
O O13 0.000000 0.411657 0.750000
O O14 0.085886 0.405452 0.850659
O O15 0.816416 0.455766 0.950950
O O16 0.000000 0.500000 0.500000
#
# Coordination Sequence:
#
# PCOD8141461 Si02
#       7
#     8   8   8   8   8   8   8
#     4  10  21  36  68  96 127 172 223 281 330 404
#     4  12  26  41  66  97 138 177 215 285 352 409
#     4  10  23  41  61  93 133 169 223 278 333 413
#     4  10  22  42  62  96 135 175 217 278 353 403
#     4  11  20  38  72  91 127 181 227 275 340 406
#     4  11  23  42  64  99 136 177 231 277 338 425
#     4  10  21  38  66  95 122 172 230 275 328 405
#
# _framework density 21.052548999999999
#
# number of rings (size 3 to 8) (size 9 to 14) (size 15 to 20)
#    0.000    1.429    4.286    1.714    4.000    1.143 
#    0.000    0.714    0.000    0.000    0.000    0.000 
#    0.000    0.000    0.000    0.000    0.000    0.000 
#
# Total GULP energy -346910.031167 kJ/mol
# GULP energy per Si atom -12389.643970 kJ/mol
# Density = 2.100463 g / cm^3
# Si number density = 21.052549 Si / 1000 Ang^3
#
#
#
# Elastic Constant Matrix: (Units=GPa)
#
#
# Indices 1 2 3 4 5 6 
#
# 1 109.3245 21.4439 11.7010 0.0002 2.7749 -0.0001
# 2 21.4439 83.6388 11.8106 -0.0001 7.8650 0.0002
# 3 11.7010 11.8106 59.4522 -0.0004 -0.2844 0.0007
# 4 0.0002 -0.0001 -0.0004 26.0823 0.0003 0.5040
# 5 2.7749 7.8650 -0.2844 0.0003 39.9336 -0.0004
# 6 -0.0001 0.0002 0.0007 0.5040 -0.0004 19.0650
#
#
#
# Elastic Compliance Matrix: (Units=1/GPa)
#
#
# Indices 1 2 3 4 5 6 
#
# 1 0.009756 -0.002271 -0.001470 0.000000 -0.000241 0.000000
# 2 -0.002271 0.013072 -0.002162 0.000000 -0.002432 0.000000
# 3 -0.001470 -0.002162 0.017542 0.000000 0.000653 -0.000001
# 4 0.000000 0.000000 0.000000 0.038360 0.000000 -0.001014
# 5 -0.000241 -0.002432 0.000653 0.000000 0.025542 0.000000
# 6 0.000000 0.000000 -0.000001 -0.001014 0.000000 0.052479
#
#
# Mechanical properties :
#
#
# Convention : Reuss Voigt Hill
#
# Bulk Modulus (GPa) = 35.00785 38.03629 36.52207
# Shear Modulus (GPa) = 28.07750 30.84682 29.46216
#
# Velocity S-wave (km/s) = 3.65593 3.83198 3.74499
# Velocity P-wave (km/s) = 5.87248 6.13884 6.00713
#
# Compressibility (1/GPa) = 0.02856502
#
# Stress axis : x y z
#
# Youngs Moduli (GPa) = 102.50090 76.49708 57.00567
#
# Poissons Ratio (x) = 0.17373 0.08380
# Poissons Ratio (y) = 0.23278 0.12322
# Poissons Ratio (z) = 0.15069 0.16536
#
# Static dielectric constant tensor:
#      x y z
#    x 4.229360 0.000000 0.129180 
#    y 0.000000 3.504250 0.000000 
#    z 0.129180 0.000000 4.019820 
# 
# 
# High freq. dielectric constant tensor:
#      x y z
#    x 1.841560 0.000000 -0.001850 
#    y 0.000000 1.773600 0.000000 
#    z -0.001850 0.000000 1.840370 
# 
# From -- ./inp_files/200119.got.cif
#   From: 2010.06.25/outbox.cif.g09.slc.cpg/sg15_101_cif.got.tgz:200119.got - 2010.06.28 07:06:18.
