data_PCOD8141046
_publ_section_title
;
Structure prediction by ZEFSAII (Michael W. Deem and Ramdas Pophale) SiO2 
 PCOD8141046
Probable space group: C 2/C
;
_chemical_formula_sum "Si O2"
_cell_formula_units_Z 44
_cell_length_a 15.621537
_cell_length_b 9.174515
_cell_length_c 18.030995
_cell_angle_alpha 90.000000
_cell_angle_beta 110.999896
_cell_angle_gamma 90.000000
_cell_volume 2412.562706
_symmetry_space_group_name_H-M "C 2/C"
_symmetry_group_IT_number 15
_symmetry_cell_setting 'monoclinic'
loop_
_space_group_symop_operation_xyz
x,y,z
-x,y,1/2-z
-x,-y,-z
x,-y,1/2+z
1/2+x,1/2+y,z
1/2-x,1/2+y,1/2-z
1/2-x,1/2-y,-z
1/2+x,1/2-y,1/2+z
loop_
_atom_site_type_symbol
_atom_site_label
_atom_site_fract_x
_atom_site_fract_y
_atom_site_fract_z
Si Si1 0.500000 0.974278 0.750000
Si Si2 0.768532 0.213151 0.339277
Si Si3 0.811379 0.574938 0.726733
Si Si4 0.379574 0.836393 0.591863
Si Si5 0.408728 0.407982 0.985383
Si Si6 0.242515 0.601703 0.953212
O O1 0.461500 0.869214 0.673963
O O2 0.421642 0.081203 0.757526
O O3 0.775796 0.352526 0.290253
O O4 0.706067 0.243635 0.392921
O O5 0.868929 0.156850 0.395944
O O6 0.718971 0.091880 0.274319
O O7 0.768430 0.640657 0.637627
O O8 0.422747 0.731108 0.543616
O O9 0.340863 0.992423 0.548156
O O10 0.337070 0.519475 0.998955
O O11 0.500000 0.500000 0.000000
O O12 0.250000 0.750000 0.000000
#
# Coordination Sequence:
#
# PCOD8141046 Si02
#       6
#     4   8   8   8   8   8
#     4   8  18  34  54  76 104 132 172 214 256 302
#     4   9  19  35  53  73 103 137 171 211 259 312
#     4   9  19  34  53  77 102 133 171 212 257 307
#     4   9  19  37  54  71 104 143 171 209 262 311
#     4  10  21  35  52  77 106 136 174 215 257 309
#     4   9  19  36  55  76 104 137 172 211 260 314
#
# _framework density 18.237869
#
# number of rings (size 3 to 8) (size 9 to 14) (size 15 to 20)
#    0.000    3.636    0.000    2.182    0.000   11.636 
#    0.000    1.818    0.000    0.000    0.000    0.000 
#    0.000    0.000    0.000    0.000    0.000    0.000 
#
# Total GULP energy -272583.706748 kJ/mol
# GULP energy per Si atom -12390.168489 kJ/mol
# Density = 1.819636 g / cm^3
# Si number density = 18.237869 Si / 1000 Ang^3
#
#
#
# Elastic Constant Matrix: (Units=GPa)
#
#
# Indices 1 2 3 4 5 6 
#
# 1 70.0662 42.4326 37.8735 0.0000 9.5633 0.0000
# 2 42.4326 101.2464 47.4466 0.0000 -10.6021 0.0000
# 3 37.8735 47.4466 61.6083 0.0000 6.2653 0.0000
# 4 0.0000 0.0000 0.0000 39.8433 0.0000 -14.5599
# 5 9.5633 -10.6021 6.2653 0.0000 30.6346 0.0000
# 6 0.0000 0.0000 0.0000 -14.5599 0.0000 31.6997
#
#
#
# Elastic Compliance Matrix: (Units=1/GPa)
#
#
# Indices 1 2 3 4 5 6 
#
# 1 0.024348 -0.006949 -0.008781 0.000000 -0.008209 0.000000
# 2 -0.006949 0.019597 -0.011980 0.000000 0.011402 0.000000
# 3 -0.008781 -0.011980 0.031658 0.000000 -0.007879 0.000000
# 4 0.000000 0.000000 0.000000 0.030161 0.000000 0.013853
# 5 -0.008209 0.011402 -0.007879 0.000000 0.040763 0.000000
# 6 0.000000 0.000000 0.000000 0.013853 0.000000 0.037909
#
#
# Mechanical properties :
#
#
# Convention : Reuss Voigt Hill
#
# Bulk Modulus (GPa) = 49.54955 54.26958 51.90957
# Shear Modulus (GPa) = 20.27716 27.44673 23.86195
#
# Velocity S-wave (km/s) = 3.33801 3.88355 3.62107
# Velocity P-wave (km/s) = 6.48721 7.06615 6.78286
#
# Compressibility (1/GPa) = 0.02018182
#
# Stress axis : x y z
#
# Youngs Moduli (GPa) = 41.07198 51.02740 31.58787
#
# Poissons Ratio (x) = 0.35457 0.27738
# Poissons Ratio (y) = 0.28539 0.37844
# Poissons Ratio (z) = 0.36067 0.61133
#
# Static dielectric constant tensor:
#      x y z
#    x 3.325570 0.000000 0.187500 
#    y 0.000000 3.202020 0.000000 
#    z 0.187500 0.000000 3.310340 
# 
# 
# High freq. dielectric constant tensor:
#      x y z
#    x 1.693360 0.000000 0.018380 
#    y 0.000000 1.695910 0.000000 
#    z 0.018380 0.000000 1.707430 
# 
# From -- ./inp_files/202580.got.cif
#   From: 2010.06.25/outbox.cif.g09.slc.cpg/sg15_102_cif.got.tgz:202580.got - 2010.06.28 07:06:18.
