data_PCOD8141658
_publ_section_title
;
Structure prediction by ZEFSAII (Michael W. Deem and Ramdas Pophale) SiO2 
 PCOD8141658
Probable space group: C 2/C
;
_chemical_formula_sum "Si O2"
_cell_formula_units_Z 56
_cell_length_a 15.568863
_cell_length_b 12.308446
_cell_length_c 30.076345
_cell_angle_alpha 90.000000
_cell_angle_beta 28.021367
_cell_angle_gamma 90.000000
_cell_volume 2707.689958
_symmetry_space_group_name_H-M "C 2/C"
_symmetry_group_IT_number 15
_symmetry_cell_setting 'monoclinic'
loop_
_space_group_symop_operation_xyz
x,y,z
-x,y,1/2-z
-x,-y,-z
x,-y,1/2+z
1/2+x,1/2+y,z
1/2-x,1/2+y,1/2-z
1/2-x,1/2-y,-z
1/2+x,1/2-y,1/2+z
loop_
_atom_site_type_symbol
_atom_site_label
_atom_site_fract_x
_atom_site_fract_y
_atom_site_fract_z
Si Si1 0.519830 0.269361 0.141165
Si Si2 0.658887 0.888925 0.709439
Si Si3 0.642044 0.508507 0.809601
Si Si4 0.010836 0.767078 0.969191
Si Si5 0.801126 0.867795 0.993145
Si Si6 0.906473 0.663350 0.483407
Si Si7 0.968113 0.551932 0.599191
O O1 0.389219 0.209318 0.235120
O O2 0.431793 0.369973 0.155406
O O3 0.560353 0.184894 0.083576
O O4 0.694580 0.309588 0.089532
O O5 0.500000 0.931819 0.750000
O O6 0.735840 0.990300 0.702301
O O7 0.809579 0.839868 0.608092
O O8 0.473670 0.420945 0.886791
O O9 0.774549 0.504683 0.705726
O O10 0.051050 0.664570 0.918381
O O11 0.855403 0.847570 0.020063
O O12 0.965962 0.729344 0.039896
O O13 0.750000 0.750000 0.000000
O O14 0.617627 0.938972 0.071337
O O15 0.949760 0.536871 0.472267
#
# Coordination Sequence:
#
# PCOD8141658 Si02
#       7
#     8   8   8   8   8   8   8
#     4  11  22  39  60  87 124 159 199 261 308 368
#     4  11  21  39  61  88 121 162 209 254 307 377
#     4  11  22  39  63  91 119 165 209 249 318 372
#     4  10  21  37  61  87 122 165 204 256 313 370
#     4   9  21  39  60  87 123 166 203 247 311 379
#     4  11  22  37  59  90 122 155 207 258 310 360
#     4  11  20  37  65  88 123 163 206 258 313 375
#
# _framework density 20.681836000000001
#
# number of rings (size 3 to 8) (size 9 to 14) (size 15 to 20)
#    0.000    1.429    5.714    0.429    0.000    0.000 
#    2.571    1.429    0.000    3.429    0.000    0.000 
#    0.000    0.000    0.000    0.000    0.000    0.000 
#
# Total GULP energy -346872.457968 kJ/mol
# GULP energy per Si atom -12388.302070 kJ/mol
# Density = 2.063476 g / cm^3
# Si number density = 20.681836 Si / 1000 Ang^3
#
#
#
# Elastic Constant Matrix: (Units=GPa)
#
#
# Indices 1 2 3 4 5 6 
#
# 1 89.5585 17.3473 10.1244 -0.0013 -11.5689 -0.0013
# 2 17.3473 63.8184 9.8414 0.0015 -9.2673 -0.0002
# 3 10.1244 9.8414 49.0550 -0.0100 -13.1495 -0.0085
# 4 -0.0013 0.0015 -0.0100 25.0033 -0.0045 -2.3929
# 5 -11.5689 -9.2673 -13.1495 -0.0045 27.4107 -0.0008
# 6 -0.0013 -0.0002 -0.0085 -2.3929 -0.0008 39.6358
#
#
#
# Elastic Compliance Matrix: (Units=1/GPa)
#
#
# Indices 1 2 3 4 5 6 
#
# 1 0.012280 -0.002632 -0.000982 0.000001 0.003822 0.000000
# 2 -0.002632 0.017229 -0.001893 -0.000001 0.003806 0.000000
# 3 -0.000982 -0.001893 0.023738 0.000012 0.010333 0.000006
# 4 0.000001 -0.000001 0.000012 0.040227 0.000012 0.002429
# 5 0.003822 0.003806 0.010333 0.000012 0.044339 0.000004
# 6 0.000000 0.000000 0.000006 0.002429 0.000004 0.025376
#
#
# Mechanical properties :
#
#
# Convention : Reuss Voigt Hill
#
# Bulk Modulus (GPa) = 23.67770 30.78423 27.23096
# Shear Modulus (GPa) = 26.55600 29.41788 27.98694
#
# Velocity S-wave (km/s) = 3.58722 3.77557 3.68260
# Velocity P-wave (km/s) = 5.35079 5.82439 5.59260
#
# Compressibility (1/GPa) = 0.04223383
#
# Stress axis : x y z
#
# Youngs Moduli (GPa) = 81.43074 58.04016 42.12739
#
# Poissons Ratio (x) = 0.15274 0.04137
# Poissons Ratio (y) = 0.21429 0.07975
# Poissons Ratio (z) = 0.07996 0.10988
#
# Static dielectric constant tensor:
#      x y z
#    x 3.924180 0.000000 -0.430280 
#    y 0.000000 3.830860 0.000010 
#    z -0.430280 0.000010 3.766940 
# 
# 
# High freq. dielectric constant tensor:
#      x y z
#    x 1.807000 0.000000 -0.019130 
#    y 0.000000 1.815710 0.000000 
#    z -0.019130 0.000000 1.790160 
# 
# From -- ./inp_files/181910.got.cif
#   From: 2010.06.25/outbox.cif.g09.slc.cpg/sg15_91_cif.got.tgz:181910.got - 2010.06.28 07:06:18.
