data_PCOD8141320
_publ_section_title
;
Structure prediction by ZEFSAII (Michael W. Deem and Ramdas Pophale) SiO2 
 PCOD8141320
Probable space group: C 2/C
;
_chemical_formula_sum "Si O2"
_cell_formula_units_Z 48
_cell_length_a 8.999228
_cell_length_b 30.574392
_cell_length_c 17.186189
_cell_angle_alpha 90.000000
_cell_angle_beta 151.015390
_cell_angle_gamma 90.000000
_cell_volume 2291.413042
_symmetry_space_group_name_H-M "C 2/C"
_symmetry_group_IT_number 15
_symmetry_cell_setting 'monoclinic'
loop_
_space_group_symop_operation_xyz
x,y,z
-x,y,1/2-z
-x,-y,-z
x,-y,1/2+z
1/2+x,1/2+y,z
1/2-x,1/2+y,1/2-z
1/2-x,1/2-y,-z
1/2+x,1/2-y,1/2+z
loop_
_atom_site_type_symbol
_atom_site_label
_atom_site_fract_x
_atom_site_fract_y
_atom_site_fract_z
Si Si1 0.942338 0.725326 0.382767
Si Si2 0.906418 0.363545 0.117676
Si Si3 0.177701 0.287278 0.147751
Si Si4 0.801452 0.638894 0.236322
Si Si5 0.606552 0.960822 0.387277
Si Si6 0.194871 0.543042 0.261893
O O1 0.672103 0.750518 0.213147
O O2 0.936632 0.674315 0.357532
O O3 0.250000 0.750000 0.500000
O O4 0.915613 0.726326 0.464585
O O5 0.978599 0.412800 0.119876
O O6 0.000000 0.357364 0.250000
O O7 0.109540 0.333535 0.155331
O O8 0.549799 0.351440 0.946801
O O9 0.500000 0.290583 0.250000
O O10 0.824902 0.590836 0.288389
O O11 0.000000 0.642313 0.250000
O O12 0.500000 0.963074 0.250000
O O13 0.964037 0.969103 0.557844
O O14 0.435981 0.002520 0.350678
O O15 0.000000 0.548613 0.250000
#
# Coordination Sequence:
#
# PCOD8141320 Si02
#       6
#     8   8   8   8   8   8
#     4  10  22  41  63  87 121 156 205 247 301 359
#     4  10  23  37  60  93 124 155 206 253 300 361
#     4  10  23  42  63  88 121 161 197 251 306 360
#     4  10  21  36  59  88 124 162 200 251 305 356
#     4   9  16  30  48  82 119 150 195 250 289 351
#     4   9  16  28  49  81 115 155 195 241 300 346
#
# _framework density 20.947773000000002
#
# number of rings (size 3 to 8) (size 9 to 14) (size 15 to 20)
#    0.000    2.333    0.000    3.500    7.000    2.667 
#    0.000    0.000    0.000    1.000    0.000    0.000 
#    0.000    0.000    0.000    0.000    0.000    0.000 
#
# Total GULP energy -297323.284343 kJ/mol
# GULP energy per Si atom -12388.470181 kJ/mol
# Density = 2.090010 g / cm^3
# Si number density = 20.947773 Si / 1000 Ang^3
#
#
#
# Elastic Constant Matrix: (Units=GPa)
#
#
# Indices 1 2 3 4 5 6 
#
# 1 56.1434 47.6802 39.9482 0.0000 -11.3453 0.0000
# 2 47.6802 197.0957 82.4236 0.0000 -10.6323 0.0000
# 3 39.9482 82.4236 109.7902 0.0000 -13.1655 0.0000
# 4 0.0000 0.0000 0.0000 39.9432 0.0000 1.0773
# 5 -11.3453 -10.6323 -13.1655 0.0000 29.5825 0.0000
# 6 0.0000 0.0000 0.0000 1.0773 0.0000 13.8368
#
#
#
# Elastic Compliance Matrix: (Units=1/GPa)
#
#
# Indices 1 2 3 4 5 6 
#
# 1 0.026452 -0.003427 -0.006321 0.000000 0.006100 0.000000
# 2 -0.003427 0.007841 -0.004710 0.000000 -0.000593 0.000000
# 3 -0.006321 -0.004710 0.015265 0.000000 0.002677 0.000000
# 4 0.000000 0.000000 0.000000 0.025088 0.000000 -0.001953
# 5 0.006100 -0.000593 0.002677 0.000000 0.037121 0.000000
# 6 0.000000 0.000000 0.000000 -0.001953 0.000000 0.072423
#
#
# Mechanical properties :
#
#
# Convention : Reuss Voigt Hill
#
# Bulk Modulus (GPa) = 48.44470 78.12591 63.28531
# Shear Modulus (GPa) = 22.72866 29.53766 26.13316
#
# Velocity S-wave (km/s) = 3.29753 3.75915 3.53588
# Velocity P-wave (km/s) = 6.13799 7.49788 6.85175
#
# Compressibility (1/GPa) = 0.02064209
#
# Stress axis : x y z
#
# Youngs Moduli (GPa) = 37.80461 127.54248 65.50789
#
# Poissons Ratio (x) = 0.43706 0.41405
# Poissons Ratio (y) = 0.12955 0.30857
# Poissons Ratio (z) = 0.23895 0.60077
#
# Static dielectric constant tensor:
#      x y z
#    x 3.336320 0.000000 -0.093070 
#    y 0.000000 4.985210 0.000000 
#    z -0.093070 0.000000 4.034090 
# 
# 
# High freq. dielectric constant tensor:
#      x y z
#    x 1.764670 0.000000 0.010100 
#    y 0.000000 1.852020 0.000000 
#    z 0.010100 0.000000 1.828360 
# 
# From -- ./inp_files/194339.got.cif
#   From: 2010.06.25/outbox.cif.g09.slc.cpg/sg15_98_cif.got.tgz:194339.got - 2010.06.28 07:06:18.
