data_PCOD8141272
_publ_section_title
;
Structure prediction by ZEFSAII (Michael W. Deem and Ramdas Pophale) SiO2 
 PCOD8141272
Probable space group: C 2/C
;
_chemical_formula_sum "Si O2"
_cell_formula_units_Z 48
_cell_length_a 14.135618
_cell_length_b 23.392871
_cell_length_c 12.243939
_cell_angle_alpha 90.000000
_cell_angle_beta 143.061767
_cell_angle_gamma 90.000000
_cell_volume 2433.103074
_symmetry_space_group_name_H-M "C 2/C"
_symmetry_group_IT_number 15
_symmetry_cell_setting 'monoclinic'
loop_
_space_group_symop_operation_xyz
x,y,z
-x,y,1/2-z
-x,-y,-z
x,-y,1/2+z
1/2+x,1/2+y,z
1/2-x,1/2+y,1/2-z
1/2-x,1/2-y,-z
1/2+x,1/2-y,1/2+z
loop_
_atom_site_type_symbol
_atom_site_label
_atom_site_fract_x
_atom_site_fract_y
_atom_site_fract_z
Si Si1 0.138950 0.705537 0.035143
Si Si2 0.701066 0.393797 0.701697
Si Si3 0.162278 0.959681 0.449173
Si Si4 0.168004 0.501472 0.594533
Si Si5 0.862869 0.069932 0.942424
Si Si6 0.293134 0.182780 0.647825
O O1 0.220649 0.668275 0.207095
O O2 0.168840 0.772836 0.086405
O O3 0.215330 0.689820 0.989851
O O4 0.954536 0.696170 0.858243
O O5 0.729516 0.417505 0.604868
O O6 0.782614 0.435386 0.865373
O O7 0.516316 0.393384 0.555167
O O8 0.313902 0.969579 0.508435
O O9 0.000000 0.932922 0.250000
O O10 0.107985 0.022353 0.439342
O O11 0.300975 0.535845 0.781721
O O12 0.000000 0.500000 0.500000
O O13 0.735508 0.116379 0.858991
#
# Coordination Sequence:
#
# PCOD8141272 Si02
#       6
#     8   8   8   8   8   8
#     4  10  21  37  55  86 114 154 195 248 304 365
#     4  11  21  35  59  84 117 157 202 240 296 361
#     4  11  20  38  58  85 121 163 198 238 297 358
#     4  11  22  36  55  86 120 153 200 245 296 351
#     4  11  21  33  57  85 114 157 194 243 292 363
#     4  10  21  36  57  82 119 149 194 246 309 357
#
# _framework density 19.727893000000002
#
# number of rings (size 3 to 8) (size 9 to 14) (size 15 to 20)
#    0.000    1.333    3.333    4.000    0.000    5.333 
#    0.000    0.000    0.000    1.000    0.000    0.000 
#    0.000    0.000    0.000    0.000    0.000    0.000 
#
# Total GULP energy -297399.407649 kJ/mol
# GULP energy per Si atom -12391.641985 kJ/mol
# Density = 1.968299 g / cm^3
# Si number density = 19.727893 Si / 1000 Ang^3
#
#
#
# Elastic Constant Matrix: (Units=GPa)
#
#
# Indices 1 2 3 4 5 6 
#
# 1 91.6814 -1.8110 26.9166 0.0000 -0.5929 0.0000
# 2 -1.8110 74.4455 24.3087 0.0000 -1.5977 0.0000
# 3 26.9166 24.3087 83.6646 0.0000 2.5751 0.0000
# 4 0.0000 0.0000 0.0000 27.5663 0.0000 7.5461
# 5 -0.5929 -1.5977 2.5751 0.0000 26.0258 0.0000
# 6 0.0000 0.0000 0.0000 7.5461 0.0000 23.5521
#
#
#
# Elastic Compliance Matrix: (Units=1/GPa)
#
#
# Indices 1 2 3 4 5 6 
#
# 1 0.012266 0.001782 -0.004490 0.000000 0.000833 0.000000
# 2 0.001782 0.015146 -0.005019 0.000000 0.001467 0.000000
# 3 -0.004490 -0.005019 0.014913 0.000000 -0.001886 0.000000
# 4 0.000000 0.000000 0.000000 0.039764 0.000000 -0.012740
# 5 0.000833 0.001467 -0.001886 0.000000 0.038719 0.000000
# 6 0.000000 0.000000 0.000000 -0.012740 0.000000 0.046541
#
#
# Mechanical properties :
#
#
# Convention : Reuss Voigt Hill
#
# Bulk Modulus (GPa) = 37.21304 38.73557 37.97430
# Shear Modulus (GPa) = 26.07417 28.78733 27.43075
#
# Velocity S-wave (km/s) = 3.63945 3.82412 3.73293
# Velocity P-wave (km/s) = 6.04689 6.25908 6.15390
#
# Compressibility (1/GPa) = 0.02687230
#
# Stress axis : x y z
#
# Youngs Moduli (GPa) = 81.52573 66.02200 67.05406
#
# Poissons Ratio (x) = -0.11767 0.30105
# Poissons Ratio (y) = -0.14530 0.33657
# Poissons Ratio (z) = 0.36603 0.33139
#
# Static dielectric constant tensor:
#      x y z
#    x 3.554410 0.000000 -0.008760 
#    y 0.000000 3.590670 0.000000 
#    z -0.008760 0.000000 3.608780 
# 
# 
# High freq. dielectric constant tensor:
#      x y z
#    x 1.752080 0.000000 0.012470 
#    y 0.000000 1.758190 0.000000 
#    z 0.012470 0.000000 1.772150 
# 
# From -- ./inp_files/100051.got.cif
#   From: 2010.06.25/outbox.cif.g09.slc.cpg/sg15_51_cif.got.tgz:100051.got - 2010.06.28 07:06:18.
