data_PCOD8141609
_publ_section_title
;
Structure prediction by ZEFSAII (Michael W. Deem and Ramdas Pophale) SiO2 
 PCOD8141609
Probable space group: C 2/C
;
_chemical_formula_sum "Si O2"
_cell_formula_units_Z 40
_cell_length_a 24.856610
_cell_length_b 9.547970
_cell_length_c 15.071397
_cell_angle_alpha 90.000000
_cell_angle_beta 31.533873
_cell_angle_gamma 90.000000
_cell_volume 1870.726337
_symmetry_space_group_name_H-M "C 2/C"
_symmetry_group_IT_number 15
_symmetry_cell_setting 'monoclinic'
loop_
_space_group_symop_operation_xyz
x,y,z
-x,y,1/2-z
-x,-y,-z
x,-y,1/2+z
1/2+x,1/2+y,z
1/2-x,1/2+y,1/2-z
1/2-x,1/2-y,-z
1/2+x,1/2-y,1/2+z
loop_
_atom_site_type_symbol
_atom_site_label
_atom_site_fract_x
_atom_site_fract_y
_atom_site_fract_z
Si Si1 0.909512 0.882734 0.183597
Si Si2 0.606461 0.021714 0.797680
Si Si3 0.891420 0.682303 0.360181
Si Si4 0.368348 0.327982 0.683695
Si Si5 0.228042 0.292782 0.720147
O O1 0.858475 0.802197 0.336991
O O2 0.874079 0.805664 0.141129
O O3 0.865810 0.040246 0.254015
O O4 0.032412 0.863683 0.017210
O O5 0.627235 0.187283 0.764987
O O6 0.601516 0.965659 0.703073
O O7 0.699939 0.943658 0.717365
O O8 0.500000 0.000000 0.000000
O O9 0.808933 0.693239 0.554128
O O10 0.000000 0.716093 0.250000
O O11 0.267713 0.320510 0.763220
#
# Coordination Sequence:
#
# PCOD8141609 Si02
#       5
#     8   8   8   8   8
#     4  10  21  37  60  88 120 151 202 247 298 357
#     4  11  20  37  60  89 118 152 205 249 287 359
#     4  11  21  40  62  85 122 166 200 239 307 367
#     4  11  21  37  61  90 117 154 200 252 295 355
#     4  11  21  39  63  87 118 164 198 242 308 361
#
# _framework density 21.382069999999999
#
# number of rings (size 3 to 8) (size 9 to 14) (size 15 to 20)
#    0.000    1.200    6.000    3.600    0.000    0.000 
#    0.000    5.000    0.000    0.000    0.000    0.000 
#    0.000    0.000    0.000    0.000    0.000    0.000 
#
# Total GULP energy -247832.380031 kJ/mol
# GULP energy per Si atom -12391.619002 kJ/mol
# Density = 2.133340 g / cm^3
# Si number density = 21.382070 Si / 1000 Ang^3
#
#
#
# Elastic Constant Matrix: (Units=GPa)
#
#
# Indices 1 2 3 4 5 6 
#
# 1 84.3224 43.7733 12.2670 -0.0002 -18.0109 0.0000
# 2 43.7733 187.2875 1.2084 -0.0003 -3.2374 0.0002
# 3 12.2670 1.2084 37.7198 -0.0001 -7.9167 0.0001
# 4 -0.0002 -0.0003 -0.0001 32.9847 0.0002 -0.9171
# 5 -18.0109 -3.2374 -7.9167 0.0002 30.8405 0.0000
# 6 0.0000 0.0002 0.0001 -0.9171 0.0000 22.3939
#
#
#
# Elastic Compliance Matrix: (Units=1/GPa)
#
#
# Indices 1 2 3 4 5 6 
#
# 1 0.015919 -0.003559 -0.003372 0.000000 0.008057 0.000000
# 2 -0.003559 0.006145 0.000697 0.000000 -0.001255 0.000000
# 3 -0.003372 0.000697 0.028736 0.000000 0.005481 0.000000
# 4 0.000000 0.000000 0.000000 0.030352 0.000000 0.001243
# 5 0.008057 -0.001255 0.005481 0.000000 0.038405 0.000000
# 6 0.000000 0.000000 0.000000 0.001243 0.000000 0.044706
#
#
# Mechanical properties :
#
#
# Convention : Reuss Voigt Hill
#
# Bulk Modulus (GPa) = 26.08812 47.09188 36.59000
# Shear Modulus (GPa) = 26.38419 34.04922 30.21670
#
# Velocity S-wave (km/s) = 3.51656 3.99484 3.76331
# Velocity P-wave (km/s) = 5.35870 6.58408 6.00274
#
# Compressibility (1/GPa) = 0.03833163
#
# Stress axis : x y z
#
# Youngs Moduli (GPa) = 62.81973 162.73046 34.79987
#
# Poissons Ratio (x) = 0.57924 0.11734
# Poissons Ratio (y) = 0.22361 -0.02427
# Poissons Ratio (z) = 0.21182 -0.11349
#
# Static dielectric constant tensor:
#      x y z
#    x 3.915220 0.000000 -0.390860 
#    y 0.000000 4.115600 0.000000 
#    z -0.390860 0.000000 3.790280 
# 
# 
# High freq. dielectric constant tensor:
#      x y z
#    x 1.831690 0.000000 -0.036410 
#    y 0.000000 1.845090 0.000000 
#    z -0.036410 0.000000 1.819620 
# 
# From -- ./inp_files/208887.got.cif
#   From: 2010.06.25/outbox.cif.g09.slc.cpg/sg15_105_cif.got.tgz:208887.got - 2010.06.28 07:06:18.
