data_PCOD8141757
_publ_section_title
;
Structure prediction by ZEFSAII (Michael W. Deem and Ramdas Pophale) SiO2 
 PCOD8141757
Probable space group: C 2/C
;
_chemical_formula_sum "Si O2"
_cell_formula_units_Z 56
_cell_length_a 13.639317
_cell_length_b 11.981603
_cell_length_c 24.102756
_cell_angle_alpha 90.000000
_cell_angle_beta 42.556256
_cell_angle_gamma 90.000000
_cell_volume 2663.928039
_symmetry_space_group_name_H-M "C 2/C"
_symmetry_group_IT_number 15
_symmetry_cell_setting 'monoclinic'
loop_
_space_group_symop_operation_xyz
x,y,z
-x,y,1/2-z
-x,-y,-z
x,-y,1/2+z
1/2+x,1/2+y,z
1/2-x,1/2+y,1/2-z
1/2-x,1/2-y,-z
1/2+x,1/2-y,1/2+z
loop_
_atom_site_type_symbol
_atom_site_label
_atom_site_fract_x
_atom_site_fract_y
_atom_site_fract_z
Si Si1 0.599041 0.184692 0.904765
Si Si2 0.797932 0.093646 0.182383
Si Si3 0.334450 0.460047 0.063914
Si Si4 0.198327 0.347086 0.481689
Si Si5 0.392778 0.938071 0.634920
Si Si6 0.205757 0.706719 0.424784
Si Si7 0.116525 0.044272 0.080475
O O1 0.670727 0.275267 0.835225
O O2 0.650350 0.212146 0.945430
O O3 0.644022 0.064087 0.865599
O O4 0.425677 0.196369 0.976754
O O5 0.665259 0.082047 0.279356
O O6 0.943673 0.035626 0.145510
O O7 0.750016 0.039055 0.143098
O O8 0.288786 0.333859 0.098869
O O9 0.500000 0.500000 0.000000
O O10 0.297200 0.467837 0.014340
O O11 0.250000 0.250000 0.500000
O O12 0.326542 0.433566 0.412052
O O13 0.063474 0.414372 0.564065
O O14 0.310700 0.863892 0.624120
O O15 0.342922 0.657270 0.402149
#
# Coordination Sequence:
#
# PCOD8141757 Si02
#       7
#     8   8   8   8   8   8   8
#     4  11  21  45  63  91 130 171 214 263 327 390
#     4  11  26  40  65  96 135 169 210 272 339 373
#     4  10  21  37  63  94 127 163 213 256 320 379
#     4  11  23  40  71  93 122 171 226 260 310 392
#     4  11  25  42  64  94 135 172 207 271 341 373
#     4  11  20  40  66  93 122 170 221 263 306 395
#     4  11  21  40  66  96 117 168 224 264 305 394
#
# _framework density 21.021588999999999
#
# number of rings (size 3 to 8) (size 9 to 14) (size 15 to 20)
#    0.000    1.143    5.714    2.143    8.000    0.571 
#    0.000    4.286    3.143    0.000    0.000    0.000 
#    0.000    0.000    0.000    0.000    0.000    0.000 
#
# Total GULP energy -347052.192078 kJ/mol
# GULP energy per Si atom -12394.721146 kJ/mol
# Density = 2.097374 g / cm^3
# Si number density = 21.021589 Si / 1000 Ang^3
#
#
#
# Elastic Constant Matrix: (Units=GPa)
#
#
# Indices 1 2 3 4 5 6 
#
# 1 71.1109 15.6419 8.4856 0.0000 -2.3232 0.0000
# 2 15.6419 101.8518 11.8885 0.0000 2.6663 0.0000
# 3 8.4856 11.8885 71.2551 0.0000 16.1327 0.0000
# 4 0.0000 0.0000 0.0000 20.6010 0.0000 8.2945
# 5 -2.3232 2.6663 16.1327 0.0000 25.8089 0.0000
# 6 0.0000 0.0000 0.0000 8.2945 0.0000 35.0760
#
#
#
# Elastic Compliance Matrix: (Units=1/GPa)
#
#
# Indices 1 2 3 4 5 6 
#
# 1 0.014867 -0.002117 -0.002062 0.000000 0.002846 0.000000
# 2 -0.002117 0.010315 -0.001380 0.000000 -0.000394 0.000000
# 3 -0.002062 -0.001380 0.016913 0.000000 -0.010615 0.000000
# 4 0.000000 0.000000 0.000000 0.053649 0.000000 -0.012687
# 5 0.002846 -0.000394 -0.010615 0.000000 0.045678 0.000000
# 6 0.000000 0.000000 0.000000 -0.012687 0.000000 0.031510
#
#
# Mechanical properties :
#
#
# Convention : Reuss Voigt Hill
#
# Bulk Modulus (GPa) = 32.28058 35.13887 33.70973
# Shear Modulus (GPa) = 25.72344 30.17730 27.95037
#
# Velocity S-wave (km/s) = 3.50189 3.79296 3.65033
# Velocity P-wave (km/s) = 5.63385 5.99449 5.81697
#
# Compressibility (1/GPa) = 0.03097838
#
# Stress axis : x y z
#
# Youngs Moduli (GPa) = 67.26216 96.94935 59.12565
#
# Poissons Ratio (x) = 0.20525 0.12189
# Poissons Ratio (y) = 0.14240 0.08157
# Poissons Ratio (z) = 0.13866 0.13376
#
# Static dielectric constant tensor:
#      x y z
#    x 3.989180 0.000000 0.212490 
#    y 0.000000 4.147620 0.000000 
#    z 0.212490 0.000000 3.518690 
# 
# 
# High freq. dielectric constant tensor:
#      x y z
#    x 1.828710 0.000000 0.013740 
#    y 0.000000 1.839560 0.000000 
#    z 0.013740 0.000000 1.787500 
# 
# From -- ./inp_files/295905.got.cif
#   From: 2010.06.25/outbox.cif.g09.slc.cpg/sg15_148_cif.got.tgz:295905.got - 2010.06.28 07:06:18.
