data_PCOD8141581
_publ_section_title
;
Structure prediction by ZEFSAII (Michael W. Deem and Ramdas Pophale) SiO2 
 PCOD8141581
Probable space group: C 2/C
;
_chemical_formula_sum "Si O2"
_cell_formula_units_Z 32
_cell_length_a 11.062827
_cell_length_b 13.918594
_cell_length_c 12.893091
_cell_angle_alpha 90.000000
_cell_angle_beta 134.193302
_cell_angle_gamma 90.000000
_cell_volume 1423.419490
_symmetry_space_group_name_H-M "C 2/C"
_symmetry_group_IT_number 15
_symmetry_cell_setting 'monoclinic'
loop_
_space_group_symop_operation_xyz
x,y,z
-x,y,1/2-z
-x,-y,-z
x,-y,1/2+z
1/2+x,1/2+y,z
1/2-x,1/2+y,1/2-z
1/2-x,1/2-y,-z
1/2+x,1/2-y,1/2+z
loop_
_atom_site_type_symbol
_atom_site_label
_atom_site_fract_x
_atom_site_fract_y
_atom_site_fract_z
Si Si1 0.827006 0.331851 0.908792
Si Si2 0.380279 0.852193 0.269973
Si Si3 0.608074 0.484051 0.904392
Si Si4 0.287568 0.548065 0.331153
O O1 0.731870 0.231519 0.846459
O O2 0.727182 0.404585 0.924551
O O3 0.839752 0.376899 0.800058
O O4 0.013807 0.316438 0.066529
O O5 0.500000 0.890108 0.250000
O O6 0.263879 0.940501 0.234937
O O7 0.500000 0.538728 0.750000
O O8 0.475581 0.429269 0.900823
O O9 0.713221 0.556473 0.042668
#
# Coordination Sequence:
#
# PCOD8141581 Si02
#       4
#     8   8   8   8
#     4  11  24  39  62  96 123 156 206 252 304 361
#     4  12  23  37  63  94 125 155 203 260 303 352
#     4   9  19  36  59  87 119 156 200 243 302 356
#     4  10  21  37  59  87 127 163 195 246 310 360
#
# _framework density 22.481076999999999
#
# number of rings (size 3 to 8) (size 9 to 14) (size 15 to 20)
#    0.000    1.500    2.500    3.750   10.500    0.000 
#    0.000    0.000    0.000   10.500    0.000    0.000 
#    0.000    0.000    0.000    0.000    0.000    0.000 
#
# Total GULP energy -198260.726743 kJ/mol
# GULP energy per Si atom -12391.295421 kJ/mol
# Density = 2.242991 g / cm^3
# Si number density = 22.481077 Si / 1000 Ang^3
#
#
#
# Elastic Constant Matrix: (Units=GPa)
#
#
# Indices 1 2 3 4 5 6 
#
# 1 28.9699 20.8984 14.3597 0.0000 -2.1098 0.0000
# 2 20.8984 40.3049 11.4432 0.0000 0.5281 0.0000
# 3 14.3597 11.4432 188.6130 0.0000 -9.1795 0.0000
# 4 0.0000 0.0000 0.0000 45.3483 0.0000 -5.0281
# 5 -2.1098 0.5281 -9.1795 0.0000 29.3279 0.0000
# 6 0.0000 0.0000 0.0000 -5.0281 0.0000 16.3844
#
#
#
# Elastic Compliance Matrix: (Units=1/GPa)
#
#
# Indices 1 2 3 4 5 6 
#
# 1 0.056761 -0.028804 -0.002386 0.000000 0.003855 0.000000
# 2 -0.028804 0.039889 -0.000369 0.000000 -0.002906 0.000000
# 3 -0.002386 -0.000369 0.005583 0.000000 0.001582 0.000000
# 4 0.000000 0.000000 0.000000 0.022828 0.000000 0.007006
# 5 0.003855 -0.002906 0.001582 0.000000 0.034922 0.000000
# 6 0.000000 0.000000 0.000000 0.007006 0.000000 0.063184
#
#
# Mechanical properties :
#
#
# Convention : Reuss Voigt Hill
#
# Bulk Modulus (GPa) = 25.56563 39.03225 32.29894
# Shear Modulus (GPa) = 16.70437 32.29121 24.49779
#
# Velocity S-wave (km/s) = 2.72884 3.79406 3.30465
# Velocity P-wave (km/s) = 4.61795 6.04923 5.38139
#
# Compressibility (1/GPa) = 0.03911501
#
# Stress axis : x y z
#
# Youngs Moduli (GPa) = 17.61773 25.06972 179.11827
#
# Poissons Ratio (x) = 0.72211 0.42742
# Poissons Ratio (y) = 0.50746 0.06601
# Poissons Ratio (z) = 0.04204 0.00924
#
# Static dielectric constant tensor:
#      x y z
#    x 3.924180 0.000000 -0.228810 
#    y 0.000000 3.636830 0.000000 
#    z -0.228810 0.000000 5.187030 
# 
# 
# High freq. dielectric constant tensor:
#      x y z
#    x 1.847550 0.000000 -0.005430 
#    y 0.000000 1.838680 0.000000 
#    z -0.005430 0.000000 1.934580 
# 
# From -- ./inp_files/28437.got.cif
#   From: 2010.06.25/outbox.cif.g09.slc.cpg/sg15_15_cif.got.tgz:28437.got - 2010.06.28 07:06:18.
