data_PCOD8141964
_publ_section_title
;
Structure prediction by ZEFSAII (Michael W. Deem and Ramdas Pophale) SiO2 
 PCOD8141964
Probable space group: C 2/C
;
_chemical_formula_sum "Si O2"
_cell_formula_units_Z 56
_cell_length_a 17.921825
_cell_length_b 9.385541
_cell_length_c 25.128766
_cell_angle_alpha 90.000000
_cell_angle_beta 38.986232
_cell_angle_gamma 90.000000
_cell_volume 2659.228181
_symmetry_space_group_name_H-M "C 2/C"
_symmetry_group_IT_number 15
_symmetry_cell_setting 'monoclinic'
loop_
_space_group_symop_operation_xyz
x,y,z
-x,y,1/2-z
-x,-y,-z
x,-y,1/2+z
1/2+x,1/2+y,z
1/2-x,1/2+y,1/2-z
1/2-x,1/2-y,-z
1/2+x,1/2-y,1/2+z
loop_
_atom_site_type_symbol
_atom_site_label
_atom_site_fract_x
_atom_site_fract_y
_atom_site_fract_z
Si Si1 0.234541 0.254923 0.099892
Si Si2 0.578971 0.974267 0.008351
Si Si3 0.451129 0.438575 0.836126
Si Si4 0.214796 0.186481 0.575310
Si Si5 0.138779 0.540532 0.180227
Si Si6 0.861099 0.522136 0.698675
Si Si7 0.176310 0.825749 0.749843
O O1 0.151867 0.181456 0.100784
O O2 0.223001 0.426714 0.101559
O O3 0.179699 0.223532 0.187593
O O4 0.366354 0.186794 0.023050
O O5 0.498549 0.991220 0.105614
O O6 0.683407 0.091105 0.953379
O O7 0.500000 0.000000 0.000000
O O8 0.500000 0.436529 0.750000
O O9 0.399733 0.593876 0.875563
O O10 0.551087 0.408610 0.825361
O O11 0.250000 0.250000 0.500000
O O12 0.175792 0.305766 0.638798
O O13 0.163374 0.538432 0.229368
O O14 0.000000 0.504208 0.250000
O O15 0.820799 0.686414 0.714540
O O16 0.784256 0.430206 0.700684
#
# Coordination Sequence:
#
# PCOD8141964 Si02
#       7
#     8   8   8   8   8   8   8
#     4   9  19  40  64  89 126 165 208 262 317 383
#     4  11  23  42  63  91 131 175 211 259 324 398
#     4   9  19  38  64  86 117 163 209 256 311 386
#     4  11  25  41  64  94 125 165 216 273 327 385
#     4  11  23  42  64  97 128 162 215 277 322 374
#     4  11  24  38  65  91 128 168 214 266 319 388
#     4  10  21  38  59  93 121 164 216 257 320 378
#
# _framework density 21.058743
#
# number of rings (size 3 to 8) (size 9 to 14) (size 15 to 20)
#    0.000    1.714    1.429    3.429    2.000    3.429 
#    0.000    4.286    0.000    0.000    0.000    0.000 
#    0.000    0.000    0.000    0.000    0.000    0.000 
#
# Total GULP energy -347140.150156 kJ/mol
# GULP energy per Si atom -12397.862506 kJ/mol
# Density = 2.101081 g / cm^3
# Si number density = 21.058743 Si / 1000 Ang^3
#
#
#
# Elastic Constant Matrix: (Units=GPa)
#
#
# Indices 1 2 3 4 5 6 
#
# 1 49.9978 26.6381 12.9591 0.0000 -16.1620 0.0000
# 2 26.6381 143.6317 44.7829 0.0000 -12.5461 -0.0001
# 3 12.9591 44.7829 76.0116 0.0000 -12.7411 0.0000
# 4 0.0000 0.0000 0.0000 36.1201 0.0000 -9.6102
# 5 -16.1620 -12.5461 -12.7411 0.0000 31.5094 0.0000
# 6 0.0000 -0.0001 0.0000 -9.6102 0.0000 22.9713
#
#
#
# Elastic Compliance Matrix: (Units=1/GPa)
#
#
# Indices 1 2 3 4 5 6 
#
# 1 0.025802 -0.003681 -0.000276 0.000000 0.011657 0.000000
# 2 -0.003681 0.009117 -0.004776 0.000000 -0.000189 0.000000
# 3 -0.000276 -0.004776 0.016814 0.000000 0.004755 0.000000
# 4 0.000000 0.000000 0.000000 0.031153 0.000000 0.013033
# 5 0.011657 -0.000189 0.004755 0.000000 0.039564 0.000000
# 6 0.000000 0.000000 0.000000 0.013033 0.000000 0.048985
#
#
# Mechanical properties :
#
#
# Convention : Reuss Voigt Hill
#
# Bulk Modulus (GPa) = 29.18242 48.71125 38.94684
# Shear Modulus (GPa) = 24.95972 30.47091 27.71531
#
# Velocity S-wave (km/s) = 3.44647 3.80800 3.63174
# Velocity P-wave (km/s) = 5.45209 6.52042 6.01004
#
# Compressibility (1/GPa) = 0.03426721
#
# Stress axis : x y z
#
# Youngs Moduli (GPa) = 38.75695 109.68000 59.47509
#
# Poissons Ratio (x) = 0.40372 0.01644
# Poissons Ratio (y) = 0.14266 0.28404
# Poissons Ratio (z) = 0.01071 0.52380
#
# Static dielectric constant tensor:
#      x y z
#    x 4.217610 0.000000 -0.386160 
#    y 0.000000 3.233670 0.000000 
#    z -0.386160 0.000000 3.946510 
# 
# 
# High freq. dielectric constant tensor:
#      x y z
#    x 1.817400 0.000000 -0.006230 
#    y 0.000000 1.832900 0.000000 
#    z -0.006230 0.000000 1.823340 
# 
# From -- ./inp_files/298517.got.cif
#   From: 2010.06.25/outbox.cif.g09.slc.cpg/sg15_150_cif.got.tgz:298517.got - 2010.06.28 07:06:18.
