data_PCOD8141411
_publ_section_title
;
Structure prediction by ZEFSAII (Michael W. Deem and Ramdas Pophale) SiO2 
 PCOD8141411
Probable space group: C 2/C
;
_chemical_formula_sum "Si O2"
_cell_formula_units_Z 56
_cell_length_a 9.041363
_cell_length_b 27.852980
_cell_length_c 20.059880
_cell_angle_alpha 90.000000
_cell_angle_beta 32.323076
_cell_angle_gamma 90.000000
_cell_volume 2701.084613
_symmetry_space_group_name_H-M "C 2/C"
_symmetry_group_IT_number 15
_symmetry_cell_setting 'monoclinic'
loop_
_space_group_symop_operation_xyz
x,y,z
-x,y,1/2-z
-x,-y,-z
x,-y,1/2+z
1/2+x,1/2+y,z
1/2-x,1/2+y,1/2-z
1/2-x,1/2-y,-z
1/2+x,1/2-y,1/2+z
loop_
_atom_site_type_symbol
_atom_site_label
_atom_site_fract_x
_atom_site_fract_y
_atom_site_fract_z
Si Si1 0.691076 0.007575 0.860247
Si Si2 0.146075 0.859261 0.042000
Si Si3 0.819057 0.354945 0.491453
Si Si4 0.295356 0.098309 0.131067
Si Si5 0.694798 0.324057 0.885273
Si Si6 0.750531 0.712843 0.609800
Si Si7 0.118157 0.416006 0.277906
O O1 0.735470 0.952913 0.820818
O O2 0.000000 0.030374 0.750000
O O3 0.564121 0.038360 0.847401
O O4 0.500000 0.000000 0.000000
O O5 0.155796 0.807132 0.073822
O O6 0.939408 0.899031 0.152072
O O7 0.460231 0.876579 0.923423
O O8 0.066928 0.853485 0.995381
O O9 0.850397 0.400903 0.529710
O O10 0.507180 0.335664 0.599428
O O11 0.970936 0.310849 0.468984
O O12 0.953585 0.370364 0.370203
O O13 0.000000 0.125984 0.250000
O O14 0.703859 0.269263 0.905522
O O15 0.000000 0.341855 0.750000
O O16 0.500000 0.695533 0.750000
O O17 0.000000 0.429258 0.250000
#
# Coordination Sequence:
#
# PCOD8141411 Si02
#       7
#     8   8   8   8   8   8   8
#     4  11  23  42  69  98 126 167 222 271 323 396
#     4  11  22  40  65  92 126 171 213 260 319 390
#     4  11  21  39  64  88 127 166 215 258 319 384
#     4  10  22  40  64  92 121 161 211 263 318 384
#     4  11  23  39  59  93 132 169 210 264 327 380
#     4  10  21  36  62  93 126 166 217 267 311 376
#     4  12  24  41  65  96 129 167 214 272 330 379
#
# _framework density 20.732412
#
# number of rings (size 3 to 8) (size 9 to 14) (size 15 to 20)
#    0.000    1.143    4.286    2.571    2.000    0.000 
#    0.000    6.429    3.143    0.000    0.000    0.000 
#    0.000    0.000    0.000    0.000    0.000    0.000 
#
# Total GULP energy -346869.923059 kJ/mol
# GULP energy per Si atom -12388.211538 kJ/mol
# Density = 2.068522 g / cm^3
# Si number density = 20.732412 Si / 1000 Ang^3
#
#
#
# Elastic Constant Matrix: (Units=GPa)
#
#
# Indices 1 2 3 4 5 6 
#
# 1 111.1750 23.4804 35.0343 0.0010 0.5700 -0.0012
# 2 23.4804 63.7106 15.9654 -0.0002 5.3078 0.0001
# 3 35.0343 15.9654 107.1974 0.0029 -11.5184 -0.0019
# 4 0.0010 -0.0002 0.0029 21.4679 -0.0029 11.0426
# 5 0.5700 5.3078 -11.5184 -0.0029 38.9707 0.0027
# 6 -0.0012 0.0001 -0.0019 11.0426 0.0027 23.1603
#
#
#
# Elastic Compliance Matrix: (Units=1/GPa)
#
#
# Indices 1 2 3 4 5 6 
#
# 1 0.010621 -0.003089 -0.003081 -0.000001 -0.000645 0.000001
# 2 -0.003089 0.017558 -0.001919 0.000000 -0.002913 0.000000
# 3 -0.003081 -0.001919 0.011003 -0.000001 0.003559 0.000001
# 4 -0.000001 0.000000 -0.000001 0.061717 0.000006 -0.029426
# 5 -0.000645 -0.002913 0.003559 0.000006 0.027118 -0.000006
# 6 0.000001 0.000000 0.000001 -0.029426 -0.000006 0.057207
#
#
# Mechanical properties :
#
#
# Convention : Reuss Voigt Hill
#
# Bulk Modulus (GPa) = 43.46519 47.89368 45.67944
# Shear Modulus (GPa) = 23.91542 30.55997 27.23769
#
# Velocity S-wave (km/s) = 3.40005 3.84346 3.62853
# Velocity P-wave (km/s) = 6.03524 6.54578 6.29569
#
# Compressibility (1/GPa) = 0.02300692
#
# Stress axis : x y z
#
# Youngs Moduli (GPa) = 94.15090 56.95473 90.88039
#
# Poissons Ratio (x) = 0.17592 0.27996
# Poissons Ratio (y) = 0.29081 0.17436
# Poissons Ratio (z) = 0.29004 0.10927
#
# Static dielectric constant tensor:
#      x y z
#    x 3.625310 0.000000 -0.002760 
#    y 0.000000 3.561400 0.000000 
#    z -0.002760 0.000000 4.018730 
# 
# 
# High freq. dielectric constant tensor:
#      x y z
#    x 1.809080 0.000000 -0.004100 
#    y 0.000000 1.797430 0.000000 
#    z -0.004100 0.000000 1.826440 
# 
# From -- ./inp_files/234914.got.cif
#   From: 2010.06.25/outbox.cif.g09.slc.cpg/sg15_118_cif.got.tgz:234914.got - 2010.06.28 07:06:18.
