data_PCOD8141371
_publ_section_title
;
Structure prediction by ZEFSAII (Michael W. Deem and Ramdas Pophale) SiO2 
 PCOD8141371
Probable space group: C 2/C
;
_chemical_formula_sum "Si O2"
_cell_formula_units_Z 52
_cell_length_a 24.990189
_cell_length_b 14.970228
_cell_length_c 8.154003
_cell_angle_alpha 90.000000
_cell_angle_beta 126.591920
_cell_angle_gamma 90.000000
_cell_volume 2449.238727
_symmetry_space_group_name_H-M "C 2/C"
_symmetry_group_IT_number 15
_symmetry_cell_setting 'monoclinic'
loop_
_space_group_symop_operation_xyz
x,y,z
-x,y,1/2-z
-x,-y,-z
x,-y,1/2+z
1/2+x,1/2+y,z
1/2-x,1/2+y,1/2-z
1/2-x,1/2-y,-z
1/2+x,1/2-y,1/2+z
loop_
_atom_site_type_symbol
_atom_site_label
_atom_site_fract_x
_atom_site_fract_y
_atom_site_fract_z
Si Si1 0.000000 0.206572 0.250000
Si Si2 0.131995 0.909181 0.421712
Si Si3 0.887041 0.258459 0.819982
Si Si4 0.922582 0.600753 0.123389
Si Si5 0.851232 0.460210 0.190804
Si Si6 0.563388 0.563761 0.133266
Si Si7 0.715918 0.116153 0.229149
O O1 0.050352 0.270621 0.442595
O O2 0.045378 0.147619 0.212352
O O3 0.112131 0.843898 0.236256
O O4 0.084588 0.900018 0.493620
O O5 0.205395 0.881028 0.609361
O O6 0.123782 0.008580 0.330452
O O7 0.893772 0.317725 0.671776
O O8 0.818328 0.289590 0.782405
O O9 0.907288 0.505468 0.178806
O O10 0.000000 0.612695 0.250000
O O11 0.888076 0.605874 0.882902
O O12 0.809925 0.536084 0.206359
O O13 0.800797 0.401541 0.991226
O O14 0.500000 0.500000 0.000000
#
# Coordination Sequence:
#
# PCOD8141371 Si02
#       7
#     4   8   8   8   8   8   8
#     4  12  26  44  64  96 138 166 220 274 334 388
#     4  12  23  42  68  94 129 170 216 270 328 393
#     4  11  26  39  62  94 134 173 210 271 327 390
#     4  10  21  36  61  89 121 166 208 261 320 370
#     4   9  20  40  62  88 125 165 219 259 301 387
#     4  12  23  42  69  98 124 170 222 275 332 385
#     4  10  22  42  63  96 131 174 216 264 322 386
#
# _framework density 21.231086000000001
#
# number of rings (size 3 to 8) (size 9 to 14) (size 15 to 20)
#    0.000    1.231    3.077    1.846    4.308    0.000 
#    2.769    6.154    0.000    0.000    0.000    0.000 
#    0.000    0.000    0.000    0.000    0.000    0.000 
#
# Total GULP energy -322467.563399 kJ/mol
# GULP energy per Si atom -12402.598592 kJ/mol
# Density = 2.118276 g / cm^3
# Si number density = 21.231086 Si / 1000 Ang^3
#
#
#
# Elastic Constant Matrix: (Units=GPa)
#
#
# Indices 1 2 3 4 5 6 
#
# 1 93.6198 19.0248 42.4783 0.0000 4.9334 0.0000
# 2 19.0248 54.2502 24.3542 0.0000 -1.1800 0.0000
# 3 42.4783 24.3542 135.1117 0.0000 -0.2962 0.0000
# 4 0.0000 0.0000 0.0000 59.5065 0.0000 -2.1256
# 5 4.9334 -1.1800 -0.2962 0.0000 40.3690 0.0000
# 6 0.0000 0.0000 0.0000 -2.1256 0.0000 32.0041
#
#
#
# Elastic Compliance Matrix: (Units=1/GPa)
#
#
# Indices 1 2 3 4 5 6 
#
# 1 0.012990 -0.003000 -0.003547 0.000000 -0.001701 0.000000
# 2 -0.003000 0.020762 -0.002797 0.000000 0.000953 0.000000
# 3 -0.003547 -0.002797 0.009022 0.000000 0.000418 0.000000
# 4 0.000000 0.000000 0.000000 0.016845 0.000000 0.001119
# 5 -0.001701 0.000953 0.000418 0.000000 0.025010 0.000000
# 6 0.000000 0.000000 0.000000 0.001119 0.000000 0.031320
#
#
# Mechanical properties :
#
#
# Convention : Reuss Voigt Hill
#
# Bulk Modulus (GPa) = 41.51958 50.52181 46.02070
# Shear Modulus (GPa) = 35.04704 39.51756 37.28230
#
# Velocity S-wave (km/s) = 4.06734 4.31897 4.19504
# Velocity P-wave (km/s) = 6.45416 6.97991 6.72217
#
# Compressibility (1/GPa) = 0.02408502
#
# Stress axis : x y z
#
# Youngs Moduli (GPa) = 76.98105 48.16581 110.84612
#
# Poissons Ratio (x) = 0.14451 0.39317
# Poissons Ratio (y) = 0.23096 0.31004
# Poissons Ratio (z) = 0.27305 0.13472
#
# Static dielectric constant tensor:
#      x y z
#    x 3.916920 0.000000 -0.152280 
#    y 0.000000 3.707260 0.000000 
#    z -0.152280 0.000000 4.128360 
# 
# 
# High freq. dielectric constant tensor:
#      x y z
#    x 1.833400 0.000000 -0.008460 
#    y 0.000000 1.816650 0.000000 
#    z -0.008460 0.000000 1.850520 
# 
# From -- ./inp_files/66120.got.cif
#   From: 2010.06.25/outbox.cif.g09.slc.cpg/sg15_34_cif.got.tgz:66120.got - 2010.06.28 07:06:18.
