data_PCOD8141816
_publ_section_title
;
Structure prediction by ZEFSAII (Michael W. Deem and Ramdas Pophale) SiO2 
 PCOD8141816
Probable space group: C 2/C
;
_chemical_formula_sum "Si O2"
_cell_formula_units_Z 52
_cell_length_a 8.612701
_cell_length_b 17.365670
_cell_length_c 17.747621
_cell_angle_alpha 90.000000
_cell_angle_beta 130.589183
_cell_angle_gamma 90.000000
_cell_volume 2015.757620
_symmetry_space_group_name_H-M "C 2/C"
_symmetry_group_IT_number 15
_symmetry_cell_setting 'monoclinic'
loop_
_space_group_symop_operation_xyz
x,y,z
-x,y,1/2-z
-x,-y,-z
x,-y,1/2+z
1/2+x,1/2+y,z
1/2-x,1/2+y,1/2-z
1/2-x,1/2-y,-z
1/2+x,1/2-y,1/2+z
loop_
_atom_site_type_symbol
_atom_site_label
_atom_site_fract_x
_atom_site_fract_y
_atom_site_fract_z
Si Si1 0.217057 0.136229 0.042876
Si Si2 0.671547 0.844492 0.693951
Si Si3 0.043309 0.077947 0.845463
Si Si4 0.212515 0.174604 0.535536
Si Si5 0.000000 0.726380 0.750000
Si Si6 0.811911 0.557977 0.442519
Si Si7 0.727153 0.983142 0.822518
O O1 0.431522 0.178126 0.135508
O O2 0.214494 0.048705 0.075758
O O3 0.197886 0.129151 0.945173
O O4 0.023154 0.182434 0.012751
O O5 0.836716 0.775975 0.748457
O O6 0.657613 0.871931 0.603895
O O7 0.753897 0.909777 0.775630
O O8 0.000000 0.117915 0.750000
O O9 0.125012 0.992724 0.853721
O O10 0.846563 0.060531 0.835763
O O11 0.250000 0.250000 0.500000
O O12 0.368939 0.172640 0.654216
O O13 0.259871 0.094859 0.507104
O O14 0.000000 0.500000 0.500000
O O15 0.500000 0.014087 0.750000
#
# Coordination Sequence:
#
# PCOD8141816 Si02
#       7
#     8   8   8   8   4   8   8
#     4  11  25  44  70 112 146 193 255 317 379 452
#     4  11  22  46  77 105 143 202 255 302 386 472
#     4  12  23  40  68 108 155 198 243 309 376 457
#     4  12  27  49  77 107 153 203 258 320 386 472
#     4  12  26  48  76 108 148 200 258 316 390 462
#     4  12  24  44  75 108 149 201 253 312 392 458
#     4  10  21  37  66 104 139 193 247 297 365 454
#
# _framework density 25.796752000000001
#
# number of rings (size 3 to 8) (size 9 to 14) (size 15 to 20)
#    0.000    0.615    6.154    2.308    0.000    1.846 
#    1.385    0.000    0.000    0.000    0.000    0.000 
#    0.000    0.000    0.000    0.000    0.000    0.000 
#
# Total GULP energy -322270.386683 kJ/mol
# GULP energy per Si atom -12395.014872 kJ/mol
# Density = 2.573804 g / cm^3
# Si number density = 25.796752 Si / 1000 Ang^3
#
#
#
# Elastic Constant Matrix: (Units=GPa)
#
#
# Indices 1 2 3 4 5 6 
#
# 1 109.3060 18.0146 20.6679 0.0000 28.7313 0.0000
# 2 18.0146 37.1842 10.0271 0.0000 6.4097 0.0000
# 3 20.6679 10.0271 116.3708 0.0000 5.2541 0.0000
# 4 0.0000 0.0000 0.0000 34.9441 0.0000 1.6447
# 5 28.7313 6.4097 5.2541 0.0000 47.8037 0.0000
# 6 0.0000 0.0000 0.0000 1.6447 0.0000 37.7475
#
#
#
# Elastic Compliance Matrix: (Units=1/GPa)
#
#
# Indices 1 2 3 4 5 6 
#
# 1 0.011790 -0.004226 -0.001443 0.000000 -0.006361 0.000000
# 2 -0.004226 0.029625 -0.001746 0.000000 -0.001240 0.000000
# 3 -0.001443 -0.001746 0.008995 0.000000 0.000113 0.000000
# 4 0.000000 0.000000 0.000000 0.028676 0.000000 -0.001249
# 5 -0.006361 -0.001240 0.000113 0.000000 0.024896 0.000000
# 6 0.000000 0.000000 0.000000 -0.001249 0.000000 0.026546
#
#
# Mechanical properties :
#
#
# Convention : Reuss Voigt Hill
#
# Bulk Modulus (GPa) = 28.10572 40.03116 34.06844
# Shear Modulus (GPa) = 31.80295 38.37580 35.08938
#
# Velocity S-wave (km/s) = 3.51497 3.86115 3.69212
# Velocity P-wave (km/s) = 5.23375 5.95228 5.60454
#
# Compressibility (1/GPa) = 0.03557994
#
# Stress axis : x y z
#
# Youngs Moduli (GPa) = 84.81842 33.75491 111.17542
#
# Poissons Ratio (x) = 0.14266 0.16038
# Poissons Ratio (y) = 0.35848 0.19412
# Poissons Ratio (z) = 0.12236 0.05894
#
# Static dielectric constant tensor:
#      x y z
#    x 3.818330 0.000000 -0.163010 
#    y 0.000000 4.350910 0.000000 
#    z -0.163010 0.000000 5.000610 
# 
# 
# High freq. dielectric constant tensor:
#      x y z
#    x 2.047850 0.000000 0.007980 
#    y 0.000000 1.995510 0.000000 
#    z 0.007980 0.000000 2.046510 
# 
# From -- ./inp_files/192619.got.cif
#   From: 2010.06.25/outbox.cif.g09.slc.cpg/sg15_97_cif.got.tgz:192619.got - 2010.06.28 07:06:18.
