data_PCOD8141453
_publ_section_title
;
Structure prediction by ZEFSAII (Michael W. Deem and Ramdas Pophale) SiO2 
 PCOD8141453
Probable space group: C 2/C
;
_chemical_formula_sum "Si O2"
_cell_formula_units_Z 64
_cell_length_a 11.187590
_cell_length_b 14.962668
_cell_length_c 24.899872
_cell_angle_alpha 90.000000
_cell_angle_beta 42.543202
_cell_angle_gamma 90.000000
_cell_volume 2818.273506
_symmetry_space_group_name_H-M "C 2/C"
_symmetry_group_IT_number 15
_symmetry_cell_setting 'monoclinic'
loop_
_space_group_symop_operation_xyz
x,y,z
-x,y,1/2-z
-x,-y,-z
x,-y,1/2+z
1/2+x,1/2+y,z
1/2-x,1/2+y,1/2-z
1/2-x,1/2-y,-z
1/2+x,1/2-y,1/2+z
loop_
_atom_site_type_symbol
_atom_site_label
_atom_site_fract_x
_atom_site_fract_y
_atom_site_fract_z
Si Si1 0.719282 0.064913 0.979207
Si Si2 0.365453 0.869380 0.641448
Si Si3 0.178026 0.388857 0.045916
Si Si4 0.398027 0.482962 0.832613
Si Si5 0.831367 0.563366 0.835333
Si Si6 0.698478 0.408253 0.806925
Si Si7 0.010255 0.233285 0.439916
Si Si8 0.997201 0.811182 0.440939
O O1 0.828041 0.145855 0.968587
O O2 0.760159 0.056946 0.901758
O O3 0.516631 0.072756 0.062685
O O4 0.773467 0.964432 0.979264
O O5 0.192649 0.893966 0.663119
O O6 0.340019 0.890034 0.712830
O O7 0.412518 0.765729 0.623756
O O8 0.109703 0.440051 0.122001
O O9 0.016379 0.336200 0.070167
O O10 0.321948 0.313861 0.010484
O O11 0.500000 0.531888 0.750000
O O12 0.531881 0.457508 0.835933
O O13 0.794144 0.467112 0.821036
O O14 0.647432 0.614894 0.895240
O O15 0.000000 0.609297 0.750000
O O16 0.637733 0.316358 0.855551
O O17 0.082710 0.230219 0.477141
#
# Coordination Sequence:
#
# PCOD8141453 Si02
#       8
#     8   8   8   8   8   8   8   8
#     4  12  21  44  66  90 138 177 232 279 341 420
#     4  11  26  40  65  95 132 183 231 281 345 421
#     4  10  21  36  66  97 124 172 223 271 339 408
#     4  10  22  40  66  92 129 176 231 284 346 399
#     4  11  23  38  66 100 132 169 229 280 341 414
#     4  11  22  43  63  97 138 174 216 293 353 404
#     4  10  21  38  64  96 133 167 217 281 343 413
#     4  11  24  41  65  96 132 180 224 281 356 405
#
# _framework density 22.708939000000001
#
# number of rings (size 3 to 8) (size 9 to 14) (size 15 to 20)
#    0.000    1.250    2.500    3.000    5.250    2.500 
#    0.000    1.250    0.000    0.000    0.000    0.000 
#    0.000    0.000    0.000    0.000    0.000    0.000 
#
# Total GULP energy -396575.141577 kJ/mol
# GULP energy per Si atom -12392.973174 kJ/mol
# Density = 2.265725 g / cm^3
# Si number density = 22.708939 Si / 1000 Ang^3
#
#
#
# Elastic Constant Matrix: (Units=GPa)
#
#
# Indices 1 2 3 4 5 6 
#
# 1 81.7276 42.6553 40.5365 -0.0002 17.2112 0.0001
# 2 42.6553 98.9663 41.6961 -0.0009 25.3316 0.0004
# 3 40.5365 41.6961 177.1578 -0.0033 26.0290 0.0008
# 4 -0.0002 -0.0009 -0.0033 41.1309 0.0003 -2.0674
# 5 17.2112 25.3316 26.0290 0.0003 31.5990 -0.0001
# 6 0.0001 0.0004 0.0008 -2.0674 -0.0001 32.2191
#
#
#
# Elastic Compliance Matrix: (Units=1/GPa)
#
#
# Indices 1 2 3 4 5 6 
#
# 1 0.016826 -0.005618 -0.002097 0.000000 -0.002934 0.000000
# 2 -0.005618 0.015056 -0.001063 0.000000 -0.008134 0.000000
# 3 -0.002097 -0.001063 0.006919 0.000001 -0.003705 0.000000
# 4 0.000000 0.000000 0.000001 0.024391 -0.000001 0.001565
# 5 -0.002934 -0.008134 -0.003705 -0.000001 0.042817 0.000000
# 6 0.000000 0.000000 0.000000 0.001565 0.000000 0.031138
#
#
# Mechanical properties :
#
#
# Convention : Reuss Voigt Hill
#
# Bulk Modulus (GPa) = 47.06886 67.51417 57.29151
# Shear Modulus (GPa) = 30.90557 36.52071 33.71314
#
# Velocity S-wave (km/s) = 3.69310 4.01460 3.85720
# Velocity P-wave (km/s) = 6.24158 7.16129 6.71719
#
# Compressibility (1/GPa) = 0.02124547
#
# Stress axis : x y z
#
# Youngs Moduli (GPa) = 59.43346 66.42078 144.52905
#
# Poissons Ratio (x) = 0.37313 0.30303
# Poissons Ratio (y) = 0.33387 0.15364
# Poissons Ratio (z) = 0.12461 0.07061
#
# Static dielectric constant tensor:
#      x y z
#    x 4.130620 0.000000 0.241850 
#    y 0.000000 3.939960 0.000000 
#    z 0.241850 0.000000 4.398550 
# 
# 
# High freq. dielectric constant tensor:
#      x y z
#    x 1.889230 0.000000 0.010410 
#    y 0.000000 1.879520 0.000000 
#    z 0.010410 0.000000 1.915570 
# 
# From -- ./inp_files/293068.got.cif
#   From: 2010.06.25/outbox.cif.g09.slc.cpg/sg15_147_cif.got.tgz:293068.got - 2010.06.28 07:06:18.
