data_PCOD8141068
_publ_section_title
;
Structure prediction by ZEFSAII (Michael W. Deem and Ramdas Pophale) SiO2 
 PCOD8141068
Probable space group: C 2/C
;
_chemical_formula_sum "Si O2"
_cell_formula_units_Z 60
_cell_length_a 18.627783
_cell_length_b 26.881326
_cell_length_c 12.430467
_cell_angle_alpha 90.000000
_cell_angle_beta 149.304134
_cell_angle_gamma 90.000000
_cell_volume 3177.450402
_symmetry_space_group_name_H-M "C 2/C"
_symmetry_group_IT_number 15
_symmetry_cell_setting 'monoclinic'
loop_
_space_group_symop_operation_xyz
x,y,z
-x,y,1/2-z
-x,-y,-z
x,-y,1/2+z
1/2+x,1/2+y,z
1/2-x,1/2+y,1/2-z
1/2-x,1/2-y,-z
1/2+x,1/2-y,1/2+z
loop_
_atom_site_type_symbol
_atom_site_label
_atom_site_fract_x
_atom_site_fract_y
_atom_site_fract_z
Si Si1 0.845455 0.956217 0.577462
Si Si2 0.576573 0.700163 0.033142
Si Si3 0.315921 0.230619 0.195052
Si Si4 0.000000 0.122734 0.750000
Si Si5 0.752470 0.440571 0.487977
Si Si6 0.754622 0.902021 0.256396
Si Si7 0.460859 0.641785 0.317662
Si Si8 0.968855 0.364603 0.828189
O O1 0.761083 0.940111 0.363093
O O2 0.868408 0.908570 0.685233
O O3 0.000000 0.977617 0.750000
O O4 0.753296 0.999862 0.509449
O O5 0.701671 0.733179 0.143710
O O6 0.624162 0.677996 0.211228
O O7 0.447466 0.735872 0.894273
O O8 0.532551 0.657008 0.894249
O O9 0.361962 0.173124 0.247013
O O10 0.250000 0.250000 0.000000
O O11 0.129092 0.087065 0.891537
O O12 0.746801 0.432658 0.354352
O O13 0.897241 0.419031 0.723757
O O14 0.891143 0.867127 0.431578
O O15 0.612350 0.869271 0.081483
O O16 0.500000 0.664128 0.250000
O O17 0.000000 0.342228 0.750000
#
# Coordination Sequence:
#
# PCOD8141068 Si02
#       8
#     8   8   8   4   8   8   8   8
#     4   9  20  36  57  85 111 158 209 249 292 357
#     4  12  23  38  60  91 122 158 196 256 303 370
#     4  12  23  37  59  94 126 152 196 248 319 374
#     4  12  20  32  56  92 122 144 190 240 310 358
#     4  11  19  33  56  88 119 150 198 246 307 365
#     4   9  20  35  56  79 116 160 195 245 306 352
#     4   9  21  41  63  83 116 164 211 251 296 349
#     4  10  21  35  55  84 122 159 191 243 310 375
#
# _framework density 18.883064999999998
#
# number of rings (size 3 to 8) (size 9 to 14) (size 15 to 20)
#    0.000    1.867    4.667    0.800    3.733    3.733 
#    0.000    0.667    0.000    0.000    0.000    0.000 
#    0.000    0.000    0.000    0.000    0.000    0.000 
#
# Total GULP energy -371897.199989 kJ/mol
# GULP energy per Si atom -12396.573333 kJ/mol
# Density = 1.884009 g / cm^3
# Si number density = 18.883065 Si / 1000 Ang^3
#
#
#
# Elastic Constant Matrix: (Units=GPa)
#
#
# Indices 1 2 3 4 5 6 
#
# 1 107.0135 57.7958 32.8834 0.0000 -2.6300 0.0000
# 2 57.7958 89.7188 44.4525 0.0000 -4.6948 0.0000
# 3 32.8834 44.4525 94.2944 0.0000 -4.1274 0.0000
# 4 0.0000 0.0000 0.0000 15.7456 0.0000 -0.1526
# 5 -2.6300 -4.6948 -4.1274 0.0000 24.5026 0.0000
# 6 0.0000 0.0000 0.0000 -0.1526 0.0000 31.6065
#
#
#
# Elastic Compliance Matrix: (Units=1/GPa)
#
#
# Indices 1 2 3 4 5 6 
#
# 1 0.014384 -0.008859 -0.000853 0.000000 -0.000297 0.000000
# 2 -0.008859 0.020065 -0.006289 0.000000 0.001834 0.000000
# 3 -0.000853 -0.006289 0.013913 0.000000 0.001047 0.000000
# 4 0.000000 0.000000 0.000000 0.063513 0.000000 0.000307
# 5 -0.000297 0.001834 0.001047 0.000000 0.041308 0.000000
# 6 0.000000 0.000000 0.000000 0.000307 0.000000 0.031640
#
#
# Mechanical properties :
#
#
# Convention : Reuss Voigt Hill
#
# Bulk Modulus (GPa) = 61.12540 62.36555 61.74548
# Shear Modulus (GPa) = 22.49429 24.76397 23.62913
#
# Velocity S-wave (km/s) = 3.45518 3.62531 3.54127
# Velocity P-wave (km/s) = 6.95402 7.11497 7.03496
#
# Compressibility (1/GPa) = 0.01635981
#
# Stress axis : x y z
#
# Youngs Moduli (GPa) = 69.52218 49.83826 71.87392
#
# Poissons Ratio (x) = 0.44151 0.06130
# Poissons Ratio (y) = 0.61589 0.45204
# Poissons Ratio (z) = 0.05929 0.31345
#
# Static dielectric constant tensor:
#      x y z
#    x 3.533890 0.000000 0.092320 
#    y 0.000000 3.380640 0.000000 
#    z 0.092320 0.000000 3.573590 
# 
# 
# High freq. dielectric constant tensor:
#      x y z
#    x 1.727850 0.000000 0.006030 
#    y 0.000000 1.726570 0.000000 
#    z 0.006030 0.000000 1.725380 
# 
# From -- ./inp_files/108460.got.cif
#   From: 2010.06.25/outbox.cif.g09.slc.cpg/sg15_55_cif.got.tgz:108460.got - 2010.06.28 07:06:18.
