data_PCOD8141807
_publ_section_title
;
Structure prediction by ZEFSAII (Michael W. Deem and Ramdas Pophale) SiO2 
 PCOD8141807
Probable space group: C 2/C
;
_chemical_formula_sum "Si O2"
_cell_formula_units_Z 40
_cell_length_a 14.055225
_cell_length_b 13.573307
_cell_length_c 18.467064
_cell_angle_alpha 90.000000
_cell_angle_beta 147.273335
_cell_angle_gamma 90.000000
_cell_volume 1904.684255
_symmetry_space_group_name_H-M "C 2/C"
_symmetry_group_IT_number 15
_symmetry_cell_setting 'monoclinic'
loop_
_space_group_symop_operation_xyz
x,y,z
-x,y,1/2-z
-x,-y,-z
x,-y,1/2+z
1/2+x,1/2+y,z
1/2-x,1/2+y,1/2-z
1/2-x,1/2-y,-z
1/2+x,1/2-y,1/2+z
loop_
_atom_site_type_symbol
_atom_site_label
_atom_site_fract_x
_atom_site_fract_y
_atom_site_fract_z
Si Si1 0.486673 0.953877 0.412841
Si Si2 0.184572 0.953276 0.635638
Si Si3 0.811177 0.411294 0.560964
Si Si4 0.391168 0.240710 0.908929
Si Si5 0.004469 0.224034 0.642889
O O1 0.503548 0.834367 0.430627
O O2 0.500000 0.000000 0.500000
O O3 0.292567 0.978377 0.258831
O O4 0.639846 0.996166 0.459031
O O5 0.299327 0.946196 0.635932
O O6 0.144957 0.847985 0.649225
O O7 0.000000 0.000000 0.500000
O O8 0.627714 0.362496 0.417022
O O9 0.962205 0.328439 0.653080
O O10 0.197182 0.191630 0.793870
O O11 0.491013 0.258332 0.048143
#
# Coordination Sequence:
#
# PCOD8141807 Si02
#       5
#     8   8   8   8   8
#     4  12  22  38  60  96 129 160 205 272 322 370
#     4  11  24  42  63  89 126 172 216 256 319 390
#     4  10  21  38  62  92 124 165 212 259 315 376
#     4  11  21  40  63  95 128 165 205 268 322 376
#     4  10  21  37  65  93 126 160 216 265 316 370
#
# _framework density 21.000855999999999
#
# number of rings (size 3 to 8) (size 9 to 14) (size 15 to 20)
#    0.000    1.200    4.000    3.000    2.800    2.400 
#    3.600    1.000    0.000    2.400    0.000    0.000 
#    0.000    0.000    0.000    0.000    0.000    0.000 
#
# Total GULP energy -247924.002635 kJ/mol
# GULP energy per Si atom -12396.200132 kJ/mol
# Density = 2.095306 g / cm^3
# Si number density = 21.000856 Si / 1000 Ang^3
#
#
#
# Elastic Constant Matrix: (Units=GPa)
#
#
# Indices 1 2 3 4 5 6 
#
# 1 76.7285 55.6425 17.1579 0.0004 -6.3609 0.0001
# 2 55.6425 130.1312 6.6445 0.0007 6.0399 0.0003
# 3 17.1579 6.6445 78.8295 0.0013 -7.9581 0.0007
# 4 0.0004 0.0007 0.0013 26.8335 0.0009 4.6081
# 5 -6.3609 6.0399 -7.9581 0.0009 28.1208 0.0003
# 6 0.0001 0.0003 0.0007 4.6081 0.0003 51.1584
#
#
#
# Elastic Compliance Matrix: (Units=1/GPa)
#
#
# Indices 1 2 3 4 5 6 
#
# 1 0.020715 -0.008960 -0.003177 0.000000 0.005711 0.000000
# 2 -0.008960 0.011693 0.000521 0.000000 -0.004391 0.000000
# 3 -0.003177 0.000521 0.013639 -0.000001 0.003029 0.000000
# 4 0.000000 0.000000 -0.000001 0.037852 -0.000001 -0.003410
# 5 0.005711 -0.004391 0.003029 -0.000001 0.038653 0.000000
# 6 0.000000 0.000000 0.000000 -0.003410 0.000000 0.019854
#
#
# Mechanical properties :
#
#
# Convention : Reuss Voigt Hill
#
# Bulk Modulus (GPa) = 43.83048 49.39769 46.61408
# Shear Modulus (GPa) = 28.86125 34.97215 31.91670
#
# Velocity S-wave (km/s) = 3.71116 4.08520 3.90267
# Velocity P-wave (km/s) = 6.26736 6.76939 6.52320
#
# Compressibility (1/GPa) = 0.02281517
#
# Stress axis : x y z
#
# Youngs Moduli (GPa) = 48.27504 85.52135 73.31949
#
# Poissons Ratio (x) = 0.76629 0.23293
# Poissons Ratio (y) = 0.43255 -0.03823
# Poissons Ratio (z) = 0.15337 -0.04459
#
# Static dielectric constant tensor:
#      x y z
#    x 3.897280 -0.000010 0.009880 
#    y -0.000010 4.492490 0.000000 
#    z 0.009880 0.000000 3.886210 
# 
# 
# High freq. dielectric constant tensor:
#      x y z
#    x 1.789830 0.000000 -0.010820 
#    y 0.000000 1.817940 0.000000 
#    z -0.010820 0.000000 1.841650 
# 
# From -- ./inp_files/244421.got.cif
#   From: 2010.06.25/outbox.cif.g09.slc.cpg/sg15_123_cif.got.tgz:244421.got - 2010.06.28 07:06:18.
