data_PCOD8141579
_publ_section_title
;
Structure prediction by ZEFSAII (Michael W. Deem and Ramdas Pophale) SiO2 
 PCOD8141579
Probable space group: C 2/C
;
_chemical_formula_sum "Si O2"
_cell_formula_units_Z 48
_cell_length_a 14.757545
_cell_length_b 20.536334
_cell_length_c 7.809553
_cell_angle_alpha 90.000000
_cell_angle_beta 62.954467
_cell_angle_gamma 90.000000
_cell_volume 2107.987681
_symmetry_space_group_name_H-M "C 2/C"
_symmetry_group_IT_number 15
_symmetry_cell_setting 'monoclinic'
loop_
_space_group_symop_operation_xyz
x,y,z
-x,y,1/2-z
-x,-y,-z
x,-y,1/2+z
1/2+x,1/2+y,z
1/2-x,1/2+y,1/2-z
1/2-x,1/2-y,-z
1/2+x,1/2-y,1/2+z
loop_
_atom_site_type_symbol
_atom_site_label
_atom_site_fract_x
_atom_site_fract_y
_atom_site_fract_z
Si Si1 0.817563 0.409309 0.005161
Si Si2 0.038282 0.931018 0.905071
Si Si3 0.627602 0.346558 0.340432
Si Si4 0.821671 0.286641 0.809181
Si Si5 0.116633 0.537744 0.694948
Si Si6 0.231214 0.126065 0.112195
O O1 0.702239 0.386124 0.146429
O O2 0.878414 0.431884 0.120324
O O3 0.873726 0.347953 0.863096
O O4 0.819989 0.469910 0.870364
O O5 0.159886 0.920447 0.794419
O O6 0.000000 0.918066 0.750000
O O7 0.983668 0.878630 0.075030
O O8 0.000000 0.000000 0.000000
O O9 0.603737 0.270819 0.318396
O O10 0.676063 0.351325 0.487437
O O11 0.758687 0.310762 0.698471
O O12 0.750000 0.250000 0.000000
O O13 0.165437 0.587537 0.517929
O O14 0.000000 0.525160 0.750000
#
# Coordination Sequence:
#
# PCOD8141579 Si02
#       6
#     8   8   8   8   8   8
#     4  10  21  37  59  87 118 154 195 246 296 353
#     4  10  21  37  61  91 118 153 198 245 297 349
#     4   9  20  39  62  88 119 157 198 242 299 357
#     4  10  21  39  60  85 120 158 195 240 297 356
#     4  11  22  39  61  87 118 154 199 246 298 354
#     4  10  21  39  61  86 120 158 197 247 295 353
#
# _framework density 22.770530999999998
#
# number of rings (size 3 to 8) (size 9 to 14) (size 15 to 20)
#    0.000    2.000    0.000    3.000    0.000    5.333 
#    0.000   12.500    0.000    0.000    0.000    0.000 
#    0.000    0.000    0.000    0.000    0.000    0.000 
#
# Total GULP energy -297414.010516 kJ/mol
# GULP energy per Si atom -12392.250438 kJ/mol
# Density = 2.271870 g / cm^3
# Si number density = 22.770531 Si / 1000 Ang^3
#
#
#
# Elastic Constant Matrix: (Units=GPa)
#
#
# Indices 1 2 3 4 5 6 
#
# 1 41.0736 24.1895 36.5329 0.0000 -12.6749 0.0000
# 2 24.1895 173.7562 73.0887 0.0000 -1.5782 0.0000
# 3 36.5329 73.0887 108.7925 0.0000 -5.8685 0.0000
# 4 0.0000 0.0000 0.0000 56.5406 0.0000 3.4354
# 5 -12.6749 -1.5782 -5.8685 0.0000 31.4818 0.0000
# 6 0.0000 0.0000 0.0000 3.4354 0.0000 29.9011
#
#
#
# Elastic Compliance Matrix: (Units=1/GPa)
#
#
# Indices 1 2 3 4 5 6 
#
# 1 0.039797 -0.000146 -0.012528 0.000000 0.013680 0.000000
# 2 -0.000146 0.008034 -0.005384 0.000000 -0.000660 0.000000
# 3 -0.012528 -0.005384 0.016899 0.000000 -0.002164 0.000000
# 4 0.000000 0.000000 0.000000 0.017811 0.000000 -0.002046
# 5 0.013680 -0.000660 -0.002164 0.000000 0.036836 0.000000
# 6 0.000000 0.000000 0.000000 -0.002046 0.000000 0.033679
#
#
# Mechanical properties :
#
#
# Convention : Reuss Voigt Hill
#
# Bulk Modulus (GPa) = 34.94777 65.69382 50.32080
# Shear Modulus (GPa) = 25.16231 36.23876 30.70054
#
# Velocity S-wave (km/s) = 3.32782 3.99366 3.67585
# Velocity P-wave (km/s) = 5.49062 7.08370 6.33742
#
# Compressibility (1/GPa) = 0.02861413
#
# Stress axis : x y z
#
# Youngs Moduli (GPa) = 25.12748 124.46612 59.17509
#
# Poissons Ratio (x) = 0.01823 0.74133
# Poissons Ratio (y) = 0.00368 0.31860
# Poissons Ratio (z) = 0.31479 0.67013
#
# Static dielectric constant tensor:
#      x y z
#    x 3.845230 0.000000 -0.216990 
#    y 0.000000 4.770550 0.000000 
#    z -0.216990 0.000000 5.081320 
# 
# 
# High freq. dielectric constant tensor:
#      x y z
#    x 1.865830 0.000000 0.012280 
#    y 0.000000 1.908030 0.000000 
#    z 0.012280 0.000000 1.922620 
# 
# From -- ./inp_files/48341.got.cif
#   From: 2010.06.25/outbox.cif.g09.slc.cpg/sg15_25_cif.got.tgz:48341.got - 2010.06.28 07:06:18.
