data_PCOD8141746
_publ_section_title
;
Structure prediction by ZEFSAII (Michael W. Deem and Ramdas Pophale) SiO2 
 PCOD8141746
Probable space group: C 2/C
;
_chemical_formula_sum "Si O2"
_cell_formula_units_Z 52
_cell_length_a 20.505235
_cell_length_b 9.381697
_cell_length_c 14.678940
_cell_angle_alpha 90.000000
_cell_angle_beta 116.024437
_cell_angle_gamma 90.000000
_cell_volume 2537.526839
_symmetry_space_group_name_H-M "C 2/C"
_symmetry_group_IT_number 15
_symmetry_cell_setting 'monoclinic'
loop_
_space_group_symop_operation_xyz
x,y,z
-x,y,1/2-z
-x,-y,-z
x,-y,1/2+z
1/2+x,1/2+y,z
1/2-x,1/2+y,1/2-z
1/2-x,1/2-y,-z
1/2+x,1/2-y,1/2+z
loop_
_atom_site_type_symbol
_atom_site_label
_atom_site_fract_x
_atom_site_fract_y
_atom_site_fract_z
Si Si1 0.110004 0.033516 0.851825
Si Si2 0.238537 0.566741 0.619789
Si Si3 0.966095 0.379704 0.388597
Si Si4 0.641142 0.422213 0.173453
Si Si5 0.000000 0.194396 0.250000
Si Si6 0.892681 0.622809 0.425463
Si Si7 0.375446 0.303944 0.964917
O O1 0.198132 0.016647 0.912267
O O2 0.090280 0.070468 0.733825
O O3 0.060540 0.895572 0.843154
O O4 0.092129 0.152554 0.916578
O O5 0.275356 0.593328 0.741828
O O6 0.184787 0.434066 0.590262
O O7 0.199136 0.714376 0.567840
O O8 0.953155 0.293214 0.288642
O O9 0.923088 0.530539 0.357715
O O10 0.935568 0.295506 0.457053
O O11 0.051761 0.400973 0.456841
O O12 0.614479 0.287913 0.100599
O O13 0.635966 0.559133 0.106004
#
# Coordination Sequence:
#
# PCOD8141746 Si02
#       7
#     8   8   8   8   4   8   8
#     4  10  24  35  65  91 119 158 207 250 295 365
#     4   9  21  40  60  90 124 157 205 248 299 367
#     4  10  23  40  64  84 127 159 196 258 305 363
#     4  10  21  37  63  91 116 163 205 247 297 360
#     4  12  22  44  58  98 120 160 210 250 304 368
#     4  10  21  42  60  91 120 162 202 245 315 353
#     4  11  20  41  63  88 125 159 200 258 304 351
#
# _framework density 20.492395999999999
#
# number of rings (size 3 to 8) (size 9 to 14) (size 15 to 20)
#    0.923    0.923    1.538    2.308    2.154    1.231 
#    8.308    4.615    0.000    0.000    0.000    0.000 
#    0.000    0.000    0.000    0.000    0.000    0.000 
#
# Total GULP energy -322143.010799 kJ/mol
# GULP energy per Si atom -12390.115800 kJ/mol
# Density = 2.044575 g / cm^3
# Si number density = 20.492396 Si / 1000 Ang^3
#
#
#
# Elastic Constant Matrix: (Units=GPa)
#
#
# Indices 1 2 3 4 5 6 
#
# 1 76.5725 18.4829 17.1474 0.0000 4.0425 0.0000
# 2 18.4829 103.4977 18.9059 0.0000 2.0291 0.0000
# 3 17.1474 18.9059 48.6923 0.0000 -2.7759 0.0000
# 4 0.0000 0.0000 0.0000 35.9288 0.0000 2.2502
# 5 4.0425 2.0291 -2.7759 0.0000 31.1729 0.0000
# 6 0.0000 0.0000 0.0000 2.2502 0.0000 28.9183
#
#
#
# Elastic Compliance Matrix: (Units=1/GPa)
#
#
# Indices 1 2 3 4 5 6 
#
# 1 0.014623 -0.001727 -0.004604 0.000000 -0.002194 0.000000
# 2 -0.001727 0.010637 -0.003567 0.000000 -0.000786 0.000000
# 3 -0.004604 -0.003567 0.023711 0.000000 0.002941 0.000000
# 4 0.000000 0.000000 0.000000 0.027969 0.000000 -0.002176
# 5 -0.002194 -0.000786 0.002941 0.000000 0.032677 0.000000
# 6 0.000000 0.000000 0.000000 -0.002176 0.000000 0.034749
#
#
# Mechanical properties :
#
#
# Convention : Reuss Voigt Hill
#
# Bulk Modulus (GPa) = 34.27554 37.53721 35.90637
# Shear Modulus (GPa) = 28.75405 30.81912 29.78658
#
# Velocity S-wave (km/s) = 3.74994 3.88226 3.81667
# Velocity P-wave (km/s) = 5.95917 6.20107 6.08132
#
# Compressibility (1/GPa) = 0.02917533
#
# Stress axis : x y z
#
# Youngs Moduli (GPa) = 68.38388 94.00723 42.17457
#
# Poissons Ratio (x) = 0.16239 0.19417
# Poissons Ratio (y) = 0.11813 0.15043
# Poissons Ratio (z) = 0.31484 0.33530
#
# Static dielectric constant tensor:
#      x y z
#    x 3.743300 0.000000 0.054160 
#    y 0.000000 3.705780 0.000000 
#    z 0.054160 0.000000 3.433320 
# 
# 
# High freq. dielectric constant tensor:
#      x y z
#    x 1.803670 0.000000 0.009080 
#    y 0.000000 1.804110 0.000000 
#    z 0.009080 0.000000 1.780750 
# 
# From -- ./inp_files/172026.got.cif
#   From: 2010.06.25/outbox.cif.g09.slc.cpg/sg15_87_cif.got.tgz:172026.got - 2010.06.28 07:06:18.
