data_PCOD8141467
_publ_section_title
;
Structure prediction by ZEFSAII (Michael W. Deem and Ramdas Pophale) SiO2 
 PCOD8141467
Probable space group: C 2/C
;
_chemical_formula_sum "Si O2"
_cell_formula_units_Z 60
_cell_length_a 17.641799
_cell_length_b 25.526355
_cell_length_c 10.040331
_cell_angle_alpha 90.000000
_cell_angle_beta 132.261276
_cell_angle_gamma 90.000000
_cell_volume 3346.276088
_symmetry_space_group_name_H-M "C 2/C"
_symmetry_group_IT_number 15
_symmetry_cell_setting 'monoclinic'
loop_
_space_group_symop_operation_xyz
x,y,z
-x,y,1/2-z
-x,-y,-z
x,-y,1/2+z
1/2+x,1/2+y,z
1/2-x,1/2+y,1/2-z
1/2-x,1/2-y,-z
1/2+x,1/2-y,1/2+z
loop_
_atom_site_type_symbol
_atom_site_label
_atom_site_fract_x
_atom_site_fract_y
_atom_site_fract_z
Si Si1 0.062154 0.275674 0.452765
Si Si2 0.500000 0.697277 0.750000
Si Si3 0.430216 0.610057 0.863595
Si Si4 0.879213 0.744291 0.913828
Si Si5 0.383641 0.517963 0.627864
Si Si6 0.259327 0.665804 0.139948
Si Si7 0.201046 0.823076 0.114867
Si Si8 0.857390 0.940173 0.819819
O O1 0.151830 0.318078 0.578436
O O2 0.110085 0.218332 0.490242
O O3 0.000000 0.291835 0.250000
O O4 0.987274 0.278633 0.490422
O O5 0.467662 0.663295 0.838778
O O6 0.402871 0.732853 0.589281
O O7 0.376061 0.574732 0.688197
O O8 0.347094 0.624511 0.877883
O O9 0.523687 0.577842 0.039445
O O10 0.844349 0.790529 0.773144
O O11 0.791974 0.699631 0.816120
O O12 0.500000 0.499923 0.750000
O O13 0.330032 0.474113 0.656364
O O14 0.333069 0.524304 0.421773
O O15 0.286021 0.610412 0.236501
O O16 0.251329 0.661917 0.971054
#
# Coordination Sequence:
#
# PCOD8141467 Si02
#       8
#     8   4   8   8   8   8   8   8
#     4  11  18  35  52  77 111 138 179 233 255 309
#     4  12  20  36  52  72 118 156 174 220 266 318
#     4  11  20  35  52  78 113 145 180 220 270 327
#     4  11  21  37  50  79 112 148 189 216 263 322
#     4  10  21  37  52  79 109 143 175 226 276 338
#     4  11  21  33  57  79 109 144 180 223 280 319
#     4  11  22  31  56  82 104 151 185 220 267 320
#     4  11  22  36  55  80 112 139 185 218 284 333
#
# _framework density 17.930378000000001
#
# number of rings (size 3 to 8) (size 9 to 14) (size 15 to 20)
#    0.000    1.067    7.333    2.400    3.733    0.533 
#    2.400    0.000    0.000    0.000    0.000    3.733 
#    0.000    0.000    0.000    0.000    0.000    0.000 
#
# Total GULP energy -372009.703248 kJ/mol
# GULP energy per Si atom -12400.323442 kJ/mol
# Density = 1.788957 g / cm^3
# Si number density = 17.930378 Si / 1000 Ang^3
#
#
#
# Elastic Constant Matrix: (Units=GPa)
#
#
# Indices 1 2 3 4 5 6 
#
# 1 77.0896 38.3374 33.0390 0.0000 2.5561 0.0000
# 2 38.3374 68.0675 32.2151 0.0000 -2.4151 0.0000
# 3 33.0390 32.2151 68.1028 0.0000 -4.1418 0.0000
# 4 0.0000 0.0000 0.0000 27.4021 0.0000 -8.9052
# 5 2.5561 -2.4151 -4.1418 0.0000 23.1859 0.0000
# 6 0.0000 0.0000 0.0000 -8.9052 0.0000 25.3476
#
#
#
# Elastic Compliance Matrix: (Units=1/GPa)
#
#
# Indices 1 2 3 4 5 6 
#
# 1 0.019876 -0.008580 -0.005835 0.000000 -0.004127 0.000000
# 2 -0.008580 0.022636 -0.006414 0.000000 0.002158 0.000000
# 3 -0.005835 -0.006414 0.020773 0.000000 0.003686 0.000000
# 4 0.000000 0.000000 0.000000 0.041197 0.000000 0.014473
# 5 -0.004127 0.002158 0.003686 0.000000 0.044468 0.000000
# 6 0.000000 0.000000 0.000000 0.014473 0.000000 0.044536
#
#
# Mechanical properties :
#
#
# Convention : Reuss Voigt Hill
#
# Bulk Modulus (GPa) = 46.23820 46.71587 46.47703
# Shear Modulus (GPa) = 20.63105 22.49834 21.56469
#
# Velocity S-wave (km/s) = 3.39576 3.54610 3.47174
# Velocity P-wave (km/s) = 6.42016 6.54806 6.48443
#
# Compressibility (1/GPa) = 0.02162714
#
# Stress axis : x y z
#
# Youngs Moduli (GPa) = 50.31107 44.17788 48.13986
#
# Poissons Ratio (x) = 0.37903 0.28091
# Poissons Ratio (y) = 0.43165 0.30877
# Poissons Ratio (z) = 0.29358 0.28336
#
# Static dielectric constant tensor:
#      x y z
#    x 3.181740 0.000000 -0.123330 
#    y 0.000000 3.218610 0.000000 
#    z -0.123330 0.000000 3.345800 
# 
# 
# High freq. dielectric constant tensor:
#      x y z
#    x 1.671080 0.000000 -0.020190 
#    y 0.000000 1.679610 0.000000 
#    z -0.020190 0.000000 1.686980 
# 
# From -- ./inp_files/52201.got.cif
#   From: 2010.06.25/outbox.cif.g09.slc.cpg/sg15_27_cif.got.tgz:52201.got - 2010.06.28 07:06:18.
