data_PCOD8141495
_publ_section_title
;
Structure prediction by ZEFSAII (Michael W. Deem and Ramdas Pophale) SiO2 
 PCOD8141495
Probable space group: C 2/C
;
_chemical_formula_sum "Si O2"
_cell_formula_units_Z 48
_cell_length_a 8.559749
_cell_length_b 28.811915
_cell_length_c 9.784944
_cell_angle_alpha 90.000000
_cell_angle_beta 89.668446
_cell_angle_gamma 90.000000
_cell_volume 2413.149498
_symmetry_space_group_name_H-M "C 2/C"
_symmetry_group_IT_number 15
_symmetry_cell_setting 'monoclinic'
loop_
_space_group_symop_operation_xyz
x,y,z
-x,y,1/2-z
-x,-y,-z
x,-y,1/2+z
1/2+x,1/2+y,z
1/2-x,1/2+y,1/2-z
1/2-x,1/2-y,-z
1/2+x,1/2-y,1/2+z
loop_
_atom_site_type_symbol
_atom_site_label
_atom_site_fract_x
_atom_site_fract_y
_atom_site_fract_z
Si Si1 0.855669 0.367518 0.159030
Si Si2 0.852387 0.216271 0.843041
Si Si3 0.636888 0.884982 0.642952
Si Si4 0.353381 0.302765 0.653900
Si Si5 0.329972 0.987857 0.945529
Si Si6 0.821594 0.042154 0.788782
O O1 0.788809 0.317577 0.199861
O O2 0.716937 0.404657 0.176938
O O3 0.000000 0.381845 0.250000
O O4 0.920320 0.367204 0.004353
O O5 0.790776 0.268064 0.816402
O O6 0.000000 0.206269 0.750000
O O7 0.906216 0.205721 0.997638
O O8 0.500000 0.875361 0.750000
O O9 0.791024 0.855054 0.681825
O O10 0.677728 0.939339 0.636370
O O11 0.500000 0.292799 0.750000
O O12 0.281971 0.027369 0.839988
O O13 0.214670 0.988295 0.076387
O O14 0.500000 0.000000 0.000000
O O15 0.000000 0.035631 0.750000
#
# Coordination Sequence:
#
# PCOD8141495 Si02
#       6
#     8   8   8   8   8   8
#     4  10  21  37  58  83 112 148 190 234 285 344
#     4  10  21  38  59  84 115 148 189 238 283 340
#     4  10  21  37  56  82 112 145 188 234 280 338
#     4  10  22  38  57  84 116 149 187 233 287 343
#     4  11  22  39  60  83 114 154 196 238 290 350
#     4  11  22  37  57  84 116 149 190 241 293 345
#
# _framework density 19.891017999999999
#
# number of rings (size 3 to 8) (size 9 to 14) (size 15 to 20)
#    0.000    1.667    0.000    5.500    0.000    2.667 
#    0.000    6.667    0.000    0.000    0.000    0.000 
#    0.000    0.000    0.000    0.000    0.000    0.000 
#
# Total GULP energy -297660.779612 kJ/mol
# GULP energy per Si atom -12402.532484 kJ/mol
# Density = 1.984574 g / cm^3
# Si number density = 19.891018 Si / 1000 Ang^3
#
#
#
# Elastic Constant Matrix: (Units=GPa)
#
#
# Indices 1 2 3 4 5 6 
#
# 1 110.8339 31.3846 70.6444 0.0000 -11.2133 0.0000
# 2 31.3846 96.1315 32.9983 0.0000 -2.4256 0.0000
# 3 70.6444 32.9983 120.7037 0.0000 -14.8075 0.0000
# 4 0.0000 0.0000 0.0000 26.1272 0.0000 3.0718
# 5 -11.2133 -2.4256 -14.8075 0.0000 41.0030 0.0000
# 6 0.0000 0.0000 0.0000 3.0718 0.0000 20.9259
#
#
#
# Elastic Compliance Matrix: (Units=1/GPa)
#
#
# Indices 1 2 3 4 5 6 
#
# 1 0.014789 -0.002069 -0.007961 0.000000 0.001047 0.000000
# 2 -0.002069 0.011778 -0.002085 0.000000 -0.000622 0.000000
# 3 -0.007961 -0.002085 0.013846 0.000000 0.002699 0.000000
# 4 0.000000 0.000000 0.000000 0.038947 0.000000 -0.005717
# 5 0.001047 -0.000622 0.002699 0.000000 0.025613 0.000000
# 6 0.000000 0.000000 0.000000 -0.005717 0.000000 0.048627
#
#
# Mechanical properties :
#
#
# Convention : Reuss Voigt Hill
#
# Bulk Modulus (GPa) = 61.80081 66.41375 64.10728
# Shear Modulus (GPa) = 27.28905 30.45401 28.87153
#
# Velocity S-wave (km/s) = 3.70797 3.91710 3.81397
# Velocity P-wave (km/s) = 7.03344 7.34299 7.18988
#
# Compressibility (1/GPa) = 0.01618102
#
# Stress axis : x y z
#
# Youngs Moduli (GPa) = 67.61865 84.90417 72.22502
#
# Poissons Ratio (x) = 0.17566 0.57502
# Poissons Ratio (y) = 0.13990 0.15061
# Poissons Ratio (z) = 0.53834 0.17705
#
# Static dielectric constant tensor:
#      x y z
#    x 3.354760 0.000000 -0.094560 
#    y 0.000000 3.729130 0.000000 
#    z -0.094560 0.000000 3.773260 
# 
# 
# High freq. dielectric constant tensor:
#      x y z
#    x 1.764570 0.000000 -0.008800 
#    y 0.000000 1.786360 0.000000 
#    z -0.008800 0.000000 1.785870 
# 
# From -- ./inp_files/26061.got.cif
#   From: 2010.06.25/outbox.cif.g09.slc.cpg/sg15_14_cif.got.tgz:26061.got - 2010.06.28 07:06:18.
