data_PCOD8141607
_publ_section_title
;
Structure prediction by ZEFSAII (Michael W. Deem and Ramdas Pophale) SiO2 
 PCOD8141607
Probable space group: C 2/C
;
_chemical_formula_sum "Si O2"
_cell_formula_units_Z 40
_cell_length_a 5.022587
_cell_length_b 16.867409
_cell_length_c 22.411901
_cell_angle_alpha 90.000000
_cell_angle_beta 96.433667
_cell_angle_gamma 90.000000
_cell_volume 1886.734592
_symmetry_space_group_name_H-M "C 2/C"
_symmetry_group_IT_number 15
_symmetry_cell_setting 'monoclinic'
loop_
_space_group_symop_operation_xyz
x,y,z
-x,y,1/2-z
-x,-y,-z
x,-y,1/2+z
1/2+x,1/2+y,z
1/2-x,1/2+y,1/2-z
1/2-x,1/2-y,-z
1/2+x,1/2-y,1/2+z
loop_
_atom_site_type_symbol
_atom_site_label
_atom_site_fract_x
_atom_site_fract_y
_atom_site_fract_z
Si Si1 0.934557 0.218978 0.134853
Si Si2 0.081240 0.532320 0.438200
Si Si3 0.000000 0.321150 0.250000
Si Si4 0.950296 0.031022 0.134853
Si Si5 0.500000 0.571150 0.750000
Si Si6 0.106959 0.717680 0.438200
O O1 0.948693 0.125000 0.147386
O O2 0.697011 0.245261 0.082922
O O3 0.889689 0.264890 0.195036
O O4 0.215111 0.245318 0.113397
O O5 0.364089 0.504739 0.417078
O O6 0.097991 0.625000 0.445982
O O7 0.000000 0.500000 0.500000
O O8 0.851714 0.504682 0.386603
O O9 0.241159 0.375000 0.232317
O O10 0.055347 0.985110 0.195036
O O11 0.250000 0.750000 0.500000
#
# Coordination Sequence:
#
# PCOD8141607 Si02
#       6
#     8   8   4   8   4   8
#     4  10  22  41  61  84 119 161 197 236 295 363
#     4  10  21  37  60  88 117 154 198 241 292 350
#     4  12  25  40  61  92 120 152 200 254 303 348
#     4  10  22  41  61  84 119 161 197 236 295 363
#     4  12  25  40  61  92 120 152 200 254 303 348
#     4  10  21  37  60  88 117 154 198 241 292 350
#
# _framework density 21.200648000000001
#
# number of rings (size 3 to 8) (size 9 to 14) (size 15 to 20)
#    0.000    1.600    0.000    4.200    0.000    4.800 
#    0.000    8.000    0.000    0.000    0.000    0.000 
#    0.000    0.000    0.000    0.000    0.000    0.000 
#
# Total GULP energy -247949.326008 kJ/mol
# GULP energy per Si atom -12397.466300 kJ/mol
# Density = 2.115239 g / cm^3
# Si number density = 21.200648 Si / 1000 Ang^3
#
#
#
# Elastic Constant Matrix: (Units=GPa)
#
#
# Indices 1 2 3 4 5 6 
#
# 1 129.4258 42.3907 31.1110 0.0000 -4.9505 0.0000
# 2 42.3907 46.2856 53.1419 0.0000 1.5146 0.0000
# 3 31.1110 53.1419 124.9505 0.0000 4.3200 0.0000
# 4 0.0000 0.0000 0.0000 24.1265 0.0000 -0.2711
# 5 -4.9505 1.5146 4.3200 0.0000 32.8916 0.0000
# 6 0.0000 0.0000 0.0000 -0.2711 0.0000 26.0509
#
#
#
# Elastic Compliance Matrix: (Units=1/GPa)
#
#
# Indices 1 2 3 4 5 6 
#
# 1 0.011791 -0.014489 0.003156 0.000000 0.002027 0.000000
# 2 -0.014489 0.060032 -0.021853 0.000000 -0.002075 0.000000
# 3 0.003156 -0.021853 0.016535 0.000000 -0.000690 0.000000
# 4 0.000000 0.000000 0.000000 0.041453 0.000000 0.000431
# 5 0.002027 -0.002075 -0.000690 0.000000 0.030894 0.000000
# 6 0.000000 0.000000 0.000000 0.000431 0.000000 0.038391
#
#
# Mechanical properties :
#
#
# Convention : Reuss Voigt Hill
#
# Bulk Modulus (GPa) = 45.47966 61.54988 53.51477
# Shear Modulus (GPa) = 18.32874 28.21502 23.27188
#
# Velocity S-wave (km/s) = 2.94349 3.65205 3.31674
# Velocity P-wave (km/s) = 5.74898 6.84678 6.32175
#
# Compressibility (1/GPa) = 0.02198785
#
# Stress axis : x y z
#
# Youngs Moduli (GPa) = 84.81209 16.65775 60.47714
#
# Poissons Ratio (x) = 0.24135 -0.19088
# Poissons Ratio (y) = 1.22882 1.32158
# Poissons Ratio (z) = -0.26769 0.36402
#
# Static dielectric constant tensor:
#      x y z
#    x 4.293060 0.000000 -0.115620 
#    y 0.000000 3.783370 0.000000 
#    z -0.115620 0.000000 3.472310 
# 
# 
# High freq. dielectric constant tensor:
#      x y z
#    x 1.850870 0.000000 -0.002510 
#    y 0.000000 1.823720 0.000000 
#    z -0.002510 0.000000 1.833070 
# 
# From -- ./inp_files/184301.got.cif
#   From: 2010.06.25/outbox.cif.g09.slc.cpg/sg15_93_cif.got.tgz:184301.got - 2010.06.28 07:06:18.
