data_PCOD8141286
_publ_section_title
;
Structure prediction by ZEFSAII (Michael W. Deem and Ramdas Pophale) SiO2 
 PCOD8141286
Probable space group: C 2/C
;
_chemical_formula_sum "Si O2"
_cell_formula_units_Z 60
_cell_length_a 16.818892
_cell_length_b 12.751198
_cell_length_c 16.562279
_cell_angle_alpha 90.000000
_cell_angle_beta 59.105118
_cell_angle_gamma 90.000000
_cell_volume 3047.977964
_symmetry_space_group_name_H-M "C 2/C"
_symmetry_group_IT_number 15
_symmetry_cell_setting 'monoclinic'
loop_
_space_group_symop_operation_xyz
x,y,z
-x,y,1/2-z
-x,-y,-z
x,-y,1/2+z
1/2+x,1/2+y,z
1/2-x,1/2+y,1/2-z
1/2-x,1/2-y,-z
1/2+x,1/2-y,1/2+z
loop_
_atom_site_type_symbol
_atom_site_label
_atom_site_fract_x
_atom_site_fract_y
_atom_site_fract_z
Si Si1 0.329155 0.335448 0.282397
Si Si2 0.358568 0.747837 0.929859
Si Si3 0.019334 0.445745 0.646143
Si Si4 0.330595 0.421779 0.754458
Si Si5 0.867685 0.322104 0.629921
Si Si6 0.967912 0.323866 0.415329
Si Si7 0.636816 0.720765 0.400178
Si Si8 0.000000 0.183583 0.250000
O O1 0.388731 0.318342 0.334383
O O2 0.313091 0.455596 0.270421
O O3 0.377344 0.281195 0.180700
O O4 0.234947 0.276666 0.351438
O O5 0.395451 0.866270 0.905512
O O6 0.250000 0.750000 0.000000
O O7 0.401177 0.696686 0.989517
O O8 0.052190 0.555214 0.592051
O O9 0.000000 0.462302 0.750000
O O10 0.929721 0.410286 0.641555
O O11 0.237286 0.360732 0.826711
O O12 0.357326 0.390427 0.648799
O O13 0.416194 0.389845 0.765791
O O14 0.901233 0.289762 0.523341
O O15 0.952241 0.254661 0.343810
O O16 0.073187 0.304737 0.387461
#
# Coordination Sequence:
#
# PCOD8141286 Si02
#       8
#     8   8   8   8   8   8   8   4
#     4  10  21  40  60  87 128 157 200 252 299 359
#     4  10  21  36  57  91 126 156 195 250 302 361
#     4  12  22  37  63  98 123 155 200 250 318 351
#     4  10  23  42  62  86 121 167 202 241 314 351
#     4  11  23  38  64  95 117 155 209 256 291 369
#     4  11  22  40  64  88 123 155 203 257 306 350
#     4   9  20  40  61  88 121 158 203 253 303 358
#     4  10  24  46  58  84 128 164 198 252 298 370
#
# _framework density 19.685181
#
# number of rings (size 3 to 8) (size 9 to 14) (size 15 to 20)
#    0.000    1.600    3.333    1.200    3.733    1.600 
#    2.400    1.333    0.000    0.000    0.000    0.000 
#    0.000    0.000    0.000    0.000    0.000    0.000 
#
# Total GULP energy -371872.329719 kJ/mol
# GULP energy per Si atom -12395.744324 kJ/mol
# Density = 1.964038 g / cm^3
# Si number density = 19.685181 Si / 1000 Ang^3
#
#
#
# Elastic Constant Matrix: (Units=GPa)
#
#
# Indices 1 2 3 4 5 6 
#
# 1 75.6565 28.2730 33.1741 0.0000 11.5101 0.0000
# 2 28.2730 84.6896 45.3536 0.0000 20.6349 0.0000
# 3 33.1741 45.3536 151.2506 0.0000 32.2836 0.0000
# 4 0.0000 0.0000 0.0000 23.2814 0.0000 -1.7063
# 5 11.5101 20.6349 32.2836 0.0000 36.9495 0.0000
# 6 0.0000 0.0000 0.0000 -1.7063 0.0000 21.5180
#
#
#
# Elastic Compliance Matrix: (Units=1/GPa)
#
#
# Indices 1 2 3 4 5 6 
#
# 1 0.015732 -0.003918 -0.002086 0.000000 -0.000890 0.000000
# 2 -0.003918 0.015879 -0.002790 0.000000 -0.005210 0.000000
# 3 -0.002086 -0.002790 0.009139 0.000000 -0.005777 0.000000
# 4 0.000000 0.000000 0.000000 0.043204 0.000000 0.003426
# 5 -0.000890 -0.005210 -0.005777 0.000000 0.035298 0.000000
# 6 0.000000 0.000000 0.000000 0.003426 0.000000 0.046744
#
#
# Mechanical properties :
#
#
# Convention : Reuss Voigt Hill
#
# Bulk Modulus (GPa) = 43.17414 58.35533 50.76474
# Shear Modulus (GPa) = 26.13632 30.00284 28.06958
#
# Velocity S-wave (km/s) = 3.64774 3.90825 3.78024
# Velocity P-wave (km/s) = 6.30248 7.07634 6.70059
#
# Compressibility (1/GPa) = 0.02316201
#
# Stress axis : x y z
#
# Youngs Moduli (GPa) = 63.56555 62.97440 109.42519
#
# Poissons Ratio (x) = 0.24674 0.22821
# Poissons Ratio (y) = 0.24906 0.30532
# Poissons Ratio (z) = 0.13257 0.17571
#
# Static dielectric constant tensor:
#      x y z
#    x 3.843340 0.000000 0.381250 
#    y 0.000000 3.368010 0.000000 
#    z 0.381250 0.000000 4.038300 
# 
# 
# High freq. dielectric constant tensor:
#      x y z
#    x 1.774800 0.000000 0.013210 
#    y 0.000000 1.748470 0.000000 
#    z 0.013210 0.000000 1.782990 
# 
# From -- ./inp_files/210611.got.cif
#   From: 2010.06.25/outbox.cif.g09.slc.cpg/sg15_106_cif.got.tgz:210611.got - 2010.06.28 07:06:18.
