data_PCOD8141342
_publ_section_title
;
Structure prediction by ZEFSAII (Michael W. Deem and Ramdas Pophale) SiO2 
 PCOD8141342
Probable space group: C 2/C
;
_chemical_formula_sum "Si O2"
_cell_formula_units_Z 64
_cell_length_a 21.157372
_cell_length_b 20.709574
_cell_length_c 11.626199
_cell_angle_alpha 90.000000
_cell_angle_beta 142.132401
_cell_angle_gamma 90.000000
_cell_volume 3126.979447
_symmetry_space_group_name_H-M "C 2/C"
_symmetry_group_IT_number 15
_symmetry_cell_setting 'monoclinic'
loop_
_space_group_symop_operation_xyz
x,y,z
-x,y,1/2-z
-x,-y,-z
x,-y,1/2+z
1/2+x,1/2+y,z
1/2-x,1/2+y,1/2-z
1/2-x,1/2-y,-z
1/2+x,1/2-y,1/2+z
loop_
_atom_site_type_symbol
_atom_site_label
_atom_site_fract_x
_atom_site_fract_y
_atom_site_fract_z
Si Si1 0.442428 0.958155 0.275619
Si Si2 0.231177 0.095340 0.540648
Si Si3 0.965406 0.598612 0.365793
Si Si4 0.428741 0.597594 0.381001
Si Si5 0.176026 0.667496 0.623138
Si Si6 0.920304 0.016146 0.038341
Si Si7 0.403393 0.304639 0.038508
Si Si8 0.763351 0.326460 0.532748
O O1 0.500000 0.928201 0.250000
O O2 0.327855 0.931844 0.112790
O O3 0.510345 0.931291 0.476206
O O4 0.433643 0.035653 0.247699
O O5 0.153965 0.120607 0.332261
O O6 0.262235 0.152703 0.671762
O O7 0.183446 0.037498 0.547577
O O8 0.873594 0.651319 0.243016
O O9 0.066306 0.631686 0.456686
O O10 0.531433 0.577689 0.459589
O O11 0.389621 0.537479 0.401256
O O12 0.448633 0.656436 0.495475
O O13 0.159719 0.744142 0.599792
O O14 0.242165 0.645240 0.605632
O O15 0.000000 0.989495 0.250000
O O16 0.500000 0.279409 0.250000
O O17 0.328303 0.349027 0.012418
O O18 0.750000 0.250000 0.500000
#
# Coordination Sequence:
#
# PCOD8141342 Si02
#       8
#     8   8   8   8   8   8   8   8
#     4  10  22  36  59  91 122 157 198 246 303 372
#     4  10  23  38  63  89 121 163 193 245 312 366
#     4  10  21  39  61  86 122 160 199 247 304 356
#     4  10  22  39  63  87 121 154 204 259 293 368
#     4  10  21  41  59  86 126 157 200 248 298 365
#     4   9  20  41  60  87 122 160 201 248 311 355
#     4  11  24  38  62  92 118 159 206 253 300 352
#     4  10  21  36  60  88 116 160 204 253 296 354
#
# _framework density 20.467036
#
# number of rings (size 3 to 8) (size 9 to 14) (size 15 to 20)
#    0.000    2.000    0.000    3.000    5.250    3.500 
#    0.000    0.000    0.000    0.750    0.000    0.000 
#    0.000    0.000    0.000    0.000    0.000    0.000 
#
# Total GULP energy -396661.996128 kJ/mol
# GULP energy per Si atom -12395.687379 kJ/mol
# Density = 2.042045 g / cm^3
# Si number density = 20.467036 Si / 1000 Ang^3
#
#
#
# Elastic Constant Matrix: (Units=GPa)
#
#
# Indices 1 2 3 4 5 6 
#
# 1 123.8351 24.9802 27.9769 0.0000 -1.3232 0.0000
# 2 24.9802 72.9117 37.2696 0.0000 -5.2941 0.0000
# 3 27.9769 37.2696 91.6846 0.0000 -1.3628 0.0000
# 4 0.0000 0.0000 0.0000 30.6308 0.0000 -4.9876
# 5 -1.3232 -5.2941 -1.3628 0.0000 26.0722 0.0000
# 6 0.0000 0.0000 0.0000 -4.9876 0.0000 29.9503
#
#
#
# Elastic Compliance Matrix: (Units=1/GPa)
#
#
# Indices 1 2 3 4 5 6 
#
# 1 0.008921 -0.002108 -0.001867 0.000000 -0.000073 0.000000
# 2 -0.002108 0.018073 -0.006656 0.000000 0.003215 0.000000
# 3 -0.001867 -0.006656 0.014172 0.000000 -0.000705 0.000000
# 4 0.000000 0.000000 0.000000 0.033557 0.000000 0.005588
# 5 -0.000073 0.003215 -0.000705 0.000000 0.038967 0.000000
# 6 0.000000 0.000000 0.000000 0.005588 0.000000 0.034319
#
#
# Mechanical properties :
#
#
# Convention : Reuss Voigt Hill
#
# Bulk Modulus (GPa) = 50.23633 52.09831 51.16732
# Shear Modulus (GPa) = 28.42454 30.54430 29.48442
#
# Velocity S-wave (km/s) = 3.73070 3.86731 3.79962
# Velocity P-wave (km/s) = 6.56930 6.74177 6.65609
#
# Compressibility (1/GPa) = 0.01990591
#
# Stress axis : x y z
#
# Youngs Moduli (GPa) = 112.09068 55.33148 70.56381
#
# Poissons Ratio (x) = 0.11662 0.13171
# Poissons Ratio (y) = 0.23625 0.46965
# Poissons Ratio (z) = 0.20923 0.36827
#
# Static dielectric constant tensor:
#      x y z
#    x 4.217200 0.000000 -0.089390 
#    y 0.000000 3.487020 0.000000 
#    z -0.089390 0.000000 3.598140 
# 
# 
# High freq. dielectric constant tensor:
#      x y z
#    x 1.821630 0.000000 -0.006390 
#    y 0.000000 1.778800 0.000000 
#    z -0.006390 0.000000 1.794590 
# 
# From -- ./inp_files/114265.got.cif
#   From: 2010.06.25/outbox.cif.g09.slc.cpg/sg15_58_cif.got.tgz:114265.got - 2010.06.28 07:06:18.
