data_PCOD8141071
_publ_section_title
;
Structure prediction by ZEFSAII (Michael W. Deem and Ramdas Pophale) SiO2 
 PCOD8141071
Probable space group: C 2/C
;
_chemical_formula_sum "Si O2"
_cell_formula_units_Z 48
_cell_length_a 25.922802
_cell_length_b 12.665238
_cell_length_c 21.967388
_cell_angle_alpha 90.000000
_cell_angle_beta 159.820458
_cell_angle_gamma 90.000000
_cell_volume 2487.976847
_symmetry_space_group_name_H-M "C 2/C"
_symmetry_group_IT_number 15
_symmetry_cell_setting 'monoclinic'
loop_
_space_group_symop_operation_xyz
x,y,z
-x,y,1/2-z
-x,-y,-z
x,-y,1/2+z
1/2+x,1/2+y,z
1/2-x,1/2+y,1/2-z
1/2-x,1/2-y,-z
1/2+x,1/2-y,1/2+z
loop_
_atom_site_type_symbol
_atom_site_label
_atom_site_fract_x
_atom_site_fract_y
_atom_site_fract_z
Si Si1 0.141369 0.739332 0.662344
Si Si2 0.225756 0.877887 0.533396
Si Si3 0.799502 0.445831 0.829948
Si Si4 0.080281 0.178919 0.753620
Si Si5 0.152999 0.145652 0.698633
Si Si6 0.121997 0.475577 0.209494
O O1 0.252513 0.833006 0.804444
O O2 0.189598 0.697973 0.648459
O O3 0.158808 0.645104 0.730725
O O4 0.974860 0.784867 0.474979
O O5 0.158601 0.895256 0.391622
O O6 0.367163 0.800018 0.683603
O O7 0.098495 0.825745 0.435582
O O8 0.282625 0.988257 0.625859
O O9 0.659271 0.525062 0.681974
O O10 0.842608 0.441316 0.805785
O O11 0.945637 0.483611 0.029316
O O12 0.130783 0.133975 0.745337
#
# Coordination Sequence:
#
# PCOD8141071 Si02
#       6
#     8   8   8   8   8   8
#     4  11  21  37  57  87 121 151 188 239 296 355
#     4  10  22  37  57  83 118 153 193 239 292 341
#     4  10  21  35  55  86 115 154 188 239 298 348
#     4  10  21  37  57  86 113 154 193 240 288 341
#     4  11  21  33  58  84 117 147 193 237 290 354
#     4  10  21  37  56  85 121 153 188 240 299 349
#
# _framework density 19.292784999999999
#
# number of rings (size 3 to 8) (size 9 to 14) (size 15 to 20)
#    0.000    1.667    1.667    3.500    7.000    1.333 
#    0.000    0.000    0.000    1.000    0.000    0.000 
#    0.000    0.000    0.000    0.000    0.000    0.000 
#
# Total GULP energy -297440.612342 kJ/mol
# GULP energy per Si atom -12393.358848 kJ/mol
# Density = 1.924887 g / cm^3
# Si number density = 19.292785 Si / 1000 Ang^3
#
#
#
# Elastic Constant Matrix: (Units=GPa)
#
#
# Indices 1 2 3 4 5 6 
#
# 1 81.8217 38.9794 36.8785 -0.0021 1.8488 -0.0006
# 2 38.9794 126.9877 56.1336 -0.0073 -0.3160 -0.0048
# 3 36.8785 56.1336 92.6078 -0.0130 6.5779 -0.0079
# 4 -0.0021 -0.0073 -0.0130 36.7153 -0.0074 -2.4695
# 5 1.8488 -0.3160 6.5779 -0.0074 29.7032 -0.0042
# 6 -0.0006 -0.0048 -0.0079 -2.4695 -0.0042 26.7594
#
#
#
# Elastic Compliance Matrix: (Units=1/GPa)
#
#
# Indices 1 2 3 4 5 6 
#
# 1 0.015585 -0.002787 -0.004517 -0.000001 0.000001 -0.000002
# 2 -0.002787 0.011329 -0.005870 0.000000 0.001594 0.000001
# 3 -0.004517 -0.005870 0.016398 0.000004 -0.003413 0.000004
# 4 -0.000001 0.000000 0.000004 0.027407 0.000006 0.002529
# 5 0.000001 0.001594 -0.003413 0.000006 0.034439 0.000005
# 6 -0.000002 0.000001 0.000004 0.002529 0.000005 0.037604
#
#
# Mechanical properties :
#
#
# Convention : Reuss Voigt Hill
#
# Bulk Modulus (GPa) = 58.95198 62.82225 60.88711
# Shear Modulus (GPa) = 28.60975 29.93060 29.27017
#
# Velocity S-wave (km/s) = 3.85505 3.94304 3.89929
# Velocity P-wave (km/s) = 7.10198 7.30502 7.20421
#
# Compressibility (1/GPa) = 0.01696296
#
# Stress axis : x y z
#
# Youngs Moduli (GPa) = 64.16242 88.26680 60.98415
#
# Poissons Ratio (x) = 0.24603 0.27546
# Poissons Ratio (y) = 0.17884 0.35800
# Poissons Ratio (z) = 0.28982 0.51816
#
# Static dielectric constant tensor:
#      x y z
#    x 3.448780 0.000000 0.272910 
#    y 0.000000 3.491460 0.000000 
#    z 0.272910 0.000000 3.602050 
# 
# 
# High freq. dielectric constant tensor:
#      x y z
#    x 1.727300 0.000000 0.031000 
#    y 0.000000 1.741440 0.000000 
#    z 0.031000 0.000000 1.755420 
# 
# From -- ./inp_files/283535.got.cif
#   From: 2010.06.25/outbox.cif.g09.slc.cpg/sg15_142_cif.got.tgz:283535.got - 2010.06.28 07:06:18.
