data_PCOD8141519
_publ_section_title
;
Structure prediction by ZEFSAII (Michael W. Deem and Ramdas Pophale) SiO2 
 PCOD8141519
Probable space group: C 2/C
;
_chemical_formula_sum "Si O2"
_cell_formula_units_Z 40
_cell_length_a 15.771202
_cell_length_b 25.630494
_cell_length_c 9.186142
_cell_angle_alpha 90.000000
_cell_angle_beta 30.401822
_cell_angle_gamma 90.000000
_cell_volume 1879.134904
_symmetry_space_group_name_H-M "C 2/C"
_symmetry_group_IT_number 15
_symmetry_cell_setting 'monoclinic'
loop_
_space_group_symop_operation_xyz
x,y,z
-x,y,1/2-z
-x,-y,-z
x,-y,1/2+z
1/2+x,1/2+y,z
1/2-x,1/2+y,1/2-z
1/2-x,1/2-y,-z
1/2+x,1/2-y,1/2+z
loop_
_atom_site_type_symbol
_atom_site_label
_atom_site_fract_x
_atom_site_fract_y
_atom_site_fract_z
Si Si1 0.684970 0.918371 0.530850
Si Si2 0.194181 0.463107 0.009415
Si Si3 0.312877 0.803940 0.471192
Si Si4 0.693651 0.386824 0.436048
Si Si5 0.171240 0.880769 0.904862
O O1 0.793427 0.884404 0.257419
O O2 0.685768 0.890401 0.685967
O O3 0.754181 0.977468 0.429690
O O4 0.500000 0.919783 0.750000
O O5 0.229605 0.441668 0.119926
O O6 0.000000 0.455924 0.250000
O O7 0.317424 0.429736 0.722296
O O8 0.500000 0.797228 0.250000
O O9 0.250000 0.750000 0.500000
O O10 0.306397 0.842904 0.345177
O O11 0.201464 0.826986 0.770874
O O12 0.500000 0.377059 0.750000
O O13 0.000000 0.880031 0.250000
#
# Coordination Sequence:
#
# PCOD8141519 Si02
#       5
#     8   8   8   8   8
#     4  11  21  35  58  89 124 164 209 251 290 344
#     4  10  21  37  57  85 128 176 207 235 292 358
#     4  11  24  46  69  87 115 157 199 246 314 377
#     4  11  22  37  59  88 121 159 202 247 303 359
#     4  11  23  39  61  92 125 156 201 255 298 351
#
# _framework density 21.286389
#
# number of rings (size 3 to 8) (size 9 to 14) (size 15 to 20)
#    0.000    1.200    0.000    9.000    0.000    8.000 
#    0.000    5.000    0.000    0.000    0.000    0.000 
#    0.000    0.000    0.000    0.000    0.000    0.000 
#
# Total GULP energy -247919.231864 kJ/mol
# GULP energy per Si atom -12395.961593 kJ/mol
# Density = 2.123794 g / cm^3
# Si number density = 21.286389 Si / 1000 Ang^3
#
#
#
# Elastic Constant Matrix: (Units=GPa)
#
#
# Indices 1 2 3 4 5 6 
#
# 1 103.1279 60.2036 9.6400 -0.0003 7.8087 0.0003
# 2 60.2036 137.5371 49.4713 -0.0001 7.6818 0.0003
# 3 9.6400 49.4713 94.9786 0.0006 10.0555 -0.0004
# 4 -0.0003 -0.0001 0.0006 19.5906 -0.0003 0.6198
# 5 7.8087 7.6818 10.0555 -0.0003 45.6226 0.0003
# 6 0.0003 0.0003 -0.0004 0.6198 0.0003 43.0596
#
#
#
# Elastic Compliance Matrix: (Units=1/GPa)
#
#
# Indices 1 2 3 4 5 6 
#
# 1 0.013476 -0.006616 0.002257 0.000000 -0.001690 0.000000
# 2 -0.006616 0.012206 -0.005722 0.000000 0.000338 0.000000
# 3 0.002257 -0.005722 0.013535 0.000000 -0.002406 0.000000
# 4 0.000000 0.000000 0.000000 0.051068 0.000000 -0.000735
# 5 -0.001690 0.000338 -0.002406 0.000000 0.022682 0.000000
# 6 0.000000 0.000000 0.000000 -0.000735 0.000000 0.023234
#
#
# Mechanical properties :
#
#
# Convention : Reuss Voigt Hill
#
# Bulk Modulus (GPa) = 52.47990 63.80817 58.14404
# Shear Modulus (GPa) = 30.72854 36.07647 33.40250
#
# Velocity S-wave (km/s) = 3.80356 4.12128 3.96560
# Velocity P-wave (km/s) = 6.63304 7.25863 6.95287
#
# Compressibility (1/GPa) = 0.01905491
#
# Stress axis : x y z
#
# Youngs Moduli (GPa) = 74.20495 81.92495 73.88379
#
# Poissons Ratio (x) = 0.54205 -0.16679
# Poissons Ratio (y) = 0.49098 0.42277
# Poissons Ratio (z) = -0.16751 0.46879
#
# Static dielectric constant tensor:
#      x y z
#    x 4.404900 0.000000 0.080750 
#    y 0.000000 3.972210 0.000000 
#    z 0.080750 0.000000 3.570360 
# 
# 
# High freq. dielectric constant tensor:
#      x y z
#    x 1.864720 0.000000 -0.001210 
#    y 0.000000 1.810260 0.000000 
#    z -0.001210 0.000000 1.833350 
# 
# From -- ./inp_files/25362.got.cif
#   From: 2010.06.25/outbox.cif.g09.slc.cpg/sg15_13_cif.got.tgz:25362.got - 2010.06.28 07:06:18.
