data_PCOD8141405
_publ_section_title
;
Structure prediction by ZEFSAII (Michael W. Deem and Ramdas Pophale) SiO2 
 PCOD8141405
Probable space group: C 2/C
;
_chemical_formula_sum "Si O2"
_cell_formula_units_Z 64
_cell_length_a 18.814946
_cell_length_b 15.019412
_cell_length_c 16.223055
_cell_angle_alpha 90.000000
_cell_angle_beta 41.708642
_cell_angle_gamma 90.000000
_cell_volume 3050.240728
_symmetry_space_group_name_H-M "C 2/C"
_symmetry_group_IT_number 15
_symmetry_cell_setting 'monoclinic'
loop_
_space_group_symop_operation_xyz
x,y,z
-x,y,1/2-z
-x,-y,-z
x,-y,1/2+z
1/2+x,1/2+y,z
1/2-x,1/2+y,1/2-z
1/2-x,1/2-y,-z
1/2+x,1/2-y,1/2+z
loop_
_atom_site_type_symbol
_atom_site_label
_atom_site_fract_x
_atom_site_fract_y
_atom_site_fract_z
Si Si1 0.715328 0.812522 0.756853
Si Si2 0.433199 0.953971 0.129022
Si Si3 0.133389 0.049204 0.295045
Si Si4 0.408058 0.179615 0.964290
Si Si5 0.604720 0.911325 0.702991
Si Si6 0.210600 0.116058 0.794772
Si Si7 0.259145 0.962798 0.525674
Si Si8 0.907343 0.873407 0.940452
O O1 0.820305 0.873547 0.683536
O O2 0.643439 0.816770 0.900249
O O3 0.659618 0.844034 0.720235
O O4 0.735924 0.706754 0.722257
O O5 0.312452 0.948698 0.203772
O O6 0.444505 0.008185 0.203124
O O7 0.474315 0.856553 0.117044
O O8 0.500000 0.000000 0.000000
O O9 0.221047 0.020009 0.151140
O O10 0.019792 0.081579 0.361845
O O11 0.114491 0.951102 0.351318
O O12 0.345606 0.116295 0.954494
O O13 0.426699 0.271012 0.898319
O O14 0.500000 0.866324 0.750000
O O15 0.691339 0.949419 0.561498
O O16 0.179832 0.140657 0.913295
O O17 0.149099 0.931626 0.579406
#
# Coordination Sequence:
#
# PCOD8141405 Si02
#       8
#     8   8   8   8   8   8   8   8
#     4  10  22  42  62  95 124 162 217 262 309 379
#     4  12  20  39  66  91 118 156 210 259 316 367
#     4  11  22  41  62  86 126 169 208 254 315 378
#     4  10  21  36  62  92 123 161 204 262 321 378
#     4  12  23  39  64  92 127 164 207 263 320 372
#     4  11  23  39  67  90 121 165 215 262 309 373
#     4  11  22  39  58  90 128 165 200 257 326 374
#     4  11  22  39  59  91 125 163 209 260 313 377
#
# _framework density 20.981952
#
# number of rings (size 3 to 8) (size 9 to 14) (size 15 to 20)
#    0.000    1.000    5.000    2.625    0.000    0.000 
#    4.500    1.875    0.000    0.000    0.000    0.000 
#    0.000    0.000    0.000    0.000    0.000    0.000 
#
# Total GULP energy -396430.286886 kJ/mol
# GULP energy per Si atom -12388.446465 kJ/mol
# Density = 2.093420 g / cm^3
# Si number density = 20.981952 Si / 1000 Ang^3
#
#
#
# Elastic Constant Matrix: (Units=GPa)
#
#
# Indices 1 2 3 4 5 6 
#
# 1 129.4853 32.7117 12.5016 0.0000 -6.2648 0.0000
# 2 32.7117 96.7359 4.2016 0.0000 -1.1321 0.0000
# 3 12.5016 4.2016 62.0555 0.0000 -2.3123 0.0000
# 4 0.0000 0.0000 0.0000 22.7164 0.0000 -1.2871
# 5 -6.2648 -1.1321 -2.3123 0.0000 25.7589 0.0000
# 6 0.0000 0.0000 0.0000 -1.2871 0.0000 29.2518
#
#
#
# Elastic Compliance Matrix: (Units=1/GPa)
#
#
# Indices 1 2 3 4 5 6 
#
# 1 0.008675 -0.002847 -0.001486 0.000000 0.001851 0.000000
# 2 -0.002847 0.011306 -0.000200 0.000000 -0.000214 0.000000
# 3 -0.001486 -0.000200 0.016469 0.000000 0.001108 0.000000
# 4 0.000000 0.000000 0.000000 0.044131 0.000000 0.001942
# 5 0.001851 -0.000214 0.001108 0.000000 0.039362 0.000000
# 6 0.000000 0.000000 0.000000 0.001942 0.000000 0.034271
#
#
# Mechanical properties :
#
#
# Convention : Reuss Voigt Hill
#
# Bulk Modulus (GPa) = 36.51742 43.01183 39.76462
# Shear Modulus (GPa) = 29.00077 31.46955 30.23516
#
# Velocity S-wave (km/s) = 3.72180 3.87698 3.80018
# Velocity P-wave (km/s) = 5.99258 6.37065 6.18451
#
# Compressibility (1/GPa) = 0.02738419
#
# Stress axis : x y z
#
# Youngs Moduli (GPa) = 115.27042 88.44505 60.72091
#
# Poissons Ratio (x) = 0.25184 0.09023
# Poissons Ratio (y) = 0.32822 0.01214
# Poissons Ratio (z) = 0.17128 0.01768
#
# Static dielectric constant tensor:
#      x y z
#    x 3.916030 0.000000 0.086650 
#    y 0.000000 3.999340 0.000000 
#    z 0.086650 0.000000 3.805430 
# 
# 
# High freq. dielectric constant tensor:
#      x y z
#    x 1.829060 0.000000 -0.003060 
#    y 0.000000 1.817340 0.000000 
#    z -0.003060 0.000000 1.815510 
# 
# From -- ./inp_files/162529.got.cif
#   From: 2010.06.25/outbox.cif.g09.slc.cpg/sg15_82_cif.got.tgz:162529.got - 2010.06.28 07:06:18.
