data_PCOD8141717
_publ_section_title
;
Structure prediction by ZEFSAII (Michael W. Deem and Ramdas Pophale) SiO2 
 PCOD8141717
Probable space group: C 2/C
;
_chemical_formula_sum "Si O2"
_cell_formula_units_Z 56
_cell_length_a 27.554420
_cell_length_b 8.930222
_cell_length_c 19.103753
_cell_angle_alpha 90.000000
_cell_angle_beta 36.350908
_cell_angle_gamma 90.000000
_cell_volume 2786.303471
_symmetry_space_group_name_H-M "C 2/C"
_symmetry_group_IT_number 15
_symmetry_cell_setting 'monoclinic'
loop_
_space_group_symop_operation_xyz
x,y,z
-x,y,1/2-z
-x,-y,-z
x,-y,1/2+z
1/2+x,1/2+y,z
1/2-x,1/2+y,1/2-z
1/2-x,1/2-y,-z
1/2+x,1/2-y,1/2+z
loop_
_atom_site_type_symbol
_atom_site_label
_atom_site_fract_x
_atom_site_fract_y
_atom_site_fract_z
Si Si1 0.766580 0.601319 0.022441
Si Si2 0.963777 0.069802 0.972930
Si Si3 0.080504 0.594112 0.205181
Si Si4 0.317597 0.920387 0.615159
Si Si5 0.672474 0.379950 0.315818
Si Si6 0.883281 0.099647 0.778842
Si Si7 0.021724 0.578306 0.046679
O O1 0.779322 0.643446 0.088345
O O2 0.682680 0.509657 0.110811
O O3 0.750000 0.750000 0.000000
O O4 0.846716 0.514467 0.902776
O O5 0.023126 0.033906 0.836858
O O6 0.953633 0.248559 0.992607
O O7 0.876786 0.984718 0.070774
O O8 0.000000 0.000000 0.000000
O O9 0.116304 0.762109 0.167434
O O10 0.000000 0.585102 0.250000
O O11 0.056026 0.554879 0.313006
O O12 0.324745 0.788285 0.661604
O O13 0.262534 0.052182 0.710561
O O14 0.404907 0.994068 0.499490
O O15 0.637043 0.362925 0.278562
O O16 0.000000 0.500000 0.000000
#
# Coordination Sequence:
#
# PCOD8141717 Si02
#       7
#     8   8   8   8   8   8   8
#     4  11  25  43  60  91 131 171 210 267 317 379
#     4   9  18  36  58  92 121 159 202 260 314 373
#     4  11  22  43  64  91 128 170 215 259 312 390
#     4  11  22  39  59  93 126 167 213 265 321 379
#     4  10  21  37  62  91 129 155 213 267 317 371
#     4   9  21  41  65  86 123 168 212 252 319 381
#     4  11  22  38  67  93 124 166 213 262 326 375
#
# _framework density 20.098314999999999
#
# number of rings (size 3 to 8) (size 9 to 14) (size 15 to 20)
#    0.000    1.714    1.429    3.857    0.000    6.857 
#    5.143    0.000    0.000    0.000    0.000    0.000 
#    0.000    0.000    0.000    0.000    0.000    0.000 
#
# Total GULP energy -347003.732816 kJ/mol
# GULP energy per Si atom -12392.990458 kJ/mol
# Density = 2.005257 g / cm^3
# Si number density = 20.098315 Si / 1000 Ang^3
#
#
#
# Elastic Constant Matrix: (Units=GPa)
#
#
# Indices 1 2 3 4 5 6 
#
# 1 58.4374 42.5587 32.4037 -0.0013 -7.0419 0.0023
# 2 42.5587 119.0208 54.8617 0.0116 -1.5288 -0.0029
# 3 32.4037 54.8617 107.1031 0.0088 -8.8120 -0.0017
# 4 -0.0013 0.0116 0.0088 39.9424 -0.0018 -0.8562
# 5 -7.0419 -1.5288 -8.8120 -0.0018 25.2833 -0.0010
# 6 0.0023 -0.0029 -0.0017 -0.8562 -0.0010 35.7779
#
#
#
# Elastic Compliance Matrix: (Units=1/GPa)
#
#
# Indices 1 2 3 4 5 6 
#
# 1 0.024935 -0.007295 -0.003369 0.000004 0.005330 -0.000002
# 2 -0.007295 0.013177 -0.004781 -0.000003 -0.002901 0.000001
# 3 -0.003369 -0.004781 0.013079 -0.000001 0.003331 0.000000
# 4 0.000004 -0.000003 -0.000001 0.025049 0.000002 0.000599
# 5 0.005330 -0.002901 0.003331 0.000002 0.042022 0.000001
# 6 -0.000002 0.000001 0.000000 0.000599 0.000001 0.027965
#
#
# Mechanical properties :
#
#
# Convention : Reuss Voigt Hill
#
# Bulk Modulus (GPa) = 49.25789 60.46773 54.86281
# Shear Modulus (GPa) = 27.19100 30.51655 28.85378
#
# Velocity S-wave (km/s) = 3.68217 3.90085 3.79308
# Velocity P-wave (km/s) = 6.52989 7.10212 6.82201
#
# Compressibility (1/GPa) = 0.02030132
#
# Stress axis : x y z
#
# Youngs Moduli (GPa) = 40.10366 75.88965 76.45669
#
# Poissons Ratio (x) = 0.55361 0.25758
# Poissons Ratio (y) = 0.29255 0.36557
# Poissons Ratio (z) = 0.13511 0.36286
#
# Static dielectric constant tensor:
#      x y z
#    x 3.676590 -0.000010 -0.341860 
#    y -0.000010 3.686940 0.000000 
#    z -0.341860 0.000000 4.292060 
# 
# 
# High freq. dielectric constant tensor:
#      x y z
#    x 1.775440 0.000000 -0.012140 
#    y 0.000000 1.782590 0.000000 
#    z -0.012140 0.000000 1.802910 
# 
# From -- ./inp_files/222006.got.cif
#   From: 2010.06.25/outbox.cif.g09.slc.cpg/sg15_112_cif.got.tgz:222006.got - 2010.06.28 07:06:18.
