data_PCOD8141356
_publ_section_title
;
Structure prediction by ZEFSAII (Michael W. Deem and Ramdas Pophale) SiO2 
 PCOD8141356
Probable space group: C 2/C
;
_chemical_formula_sum "Si O2"
_cell_formula_units_Z 56
_cell_length_a 12.722330
_cell_length_b 17.148197
_cell_length_c 20.310549
_cell_angle_alpha 90.000000
_cell_angle_beta 144.755579
_cell_angle_gamma 90.000000
_cell_volume 2557.007614
_symmetry_space_group_name_H-M "C 2/C"
_symmetry_group_IT_number 15
_symmetry_cell_setting 'monoclinic'
loop_
_space_group_symop_operation_xyz
x,y,z
-x,y,1/2-z
-x,-y,-z
x,-y,1/2+z
1/2+x,1/2+y,z
1/2-x,1/2+y,1/2-z
1/2-x,1/2-y,-z
1/2+x,1/2-y,1/2+z
loop_
_atom_site_type_symbol
_atom_site_label
_atom_site_fract_x
_atom_site_fract_y
_atom_site_fract_z
Si Si1 0.171147 0.852945 0.911769
Si Si2 0.395859 0.925380 0.924785
Si Si3 0.578319 0.344205 0.533844
Si Si4 0.175032 0.680165 0.876885
Si Si5 0.503882 0.611296 0.853523
Si Si6 0.273930 0.823937 0.380172
Si Si7 0.864629 0.058810 0.317630
O O1 0.220558 0.917786 0.882643
O O2 0.153485 0.772299 0.865295
O O3 0.977047 0.869489 0.844778
O O4 0.324354 0.851349 0.047768
O O5 0.334289 0.937313 0.817700
O O6 0.520420 0.850135 0.000301
O O7 0.500000 0.000000 0.000000
O O8 0.363133 0.339070 0.437092
O O9 0.595890 0.354084 0.465201
O O10 0.708562 0.269723 0.615031
O O11 0.653670 0.419816 0.613840
O O12 0.000000 0.642570 0.750000
O O13 0.308536 0.648430 0.732514
O O14 0.647384 0.634514 0.870217
O O15 0.471557 0.520181 0.853689
#
# Coordination Sequence:
#
# PCOD8141356 Si02
#       7
#     8   8   8   8   8   8   8
#     4  10  22  36  59  90 128 159 209 263 334 389
#     4  12  22  38  64  95 129 164 227 273 331 402
#     4  11  25  43  68  97 135 175 222 280 345 399
#     4  10  21  36  60  94 124 164 205 268 332 402
#     4  11  25  47  67  91 138 175 233 272 341 400
#     4  11  25  42  67 100 125 182 229 283 323 409
#     4  11  24  42  67  98 132 175 215 278 344 403
#
# _framework density 21.900600000000001
#
# number of rings (size 3 to 8) (size 9 to 14) (size 15 to 20)
#    0.000    1.143    2.857    3.000    6.000    0.000 
#    0.000    0.000    0.000    0.000    0.000    0.000 
#    0.000    0.000    0.000    0.000    0.000    0.000 
#
# Total GULP energy -346992.754019 kJ/mol
# GULP energy per Si atom -12392.598358 kJ/mol
# Density = 2.185075 g / cm^3
# Si number density = 21.900600 Si / 1000 Ang^3
#
#
#
# Elastic Constant Matrix: (Units=GPa)
#
#
# Indices 1 2 3 4 5 6 
#
# 1 56.2996 16.2151 31.3404 0.0001 -17.3948 -0.0001
# 2 16.2151 95.4858 38.2757 0.0005 -11.3199 -0.0001
# 3 31.3404 38.2757 165.4650 0.0002 -24.8656 -0.0008
# 4 0.0001 0.0005 0.0002 27.3809 -0.0001 -4.3498
# 5 -17.3948 -11.3199 -24.8656 -0.0001 35.4868 -0.0003
# 6 -0.0001 -0.0001 -0.0008 -4.3498 -0.0003 32.5626
#
#
#
# Elastic Compliance Matrix: (Units=1/GPa)
#
#
# Indices 1 2 3 4 5 6 
#
# 1 0.022339 -0.001758 -0.002530 0.000000 0.008617 0.000000
# 2 -0.001758 0.011813 -0.002194 0.000000 0.001369 0.000000
# 3 -0.002530 -0.002194 0.007532 0.000000 0.003338 0.000000
# 4 0.000000 0.000000 0.000000 0.037314 0.000000 0.004984
# 5 0.008617 0.001369 0.003338 0.000000 0.035179 0.000000
# 6 0.000000 0.000000 0.000000 0.004984 0.000000 0.031376
#
#
# Mechanical properties :
#
#
# Convention : Reuss Voigt Hill
#
# Bulk Modulus (GPa) = 34.81798 54.32364 44.57081
# Shear Modulus (GPa) = 29.74622 34.51401 32.13011
#
# Velocity S-wave (km/s) = 3.68943 3.97412 3.83441
# Velocity P-wave (km/s) = 5.83797 6.77618 6.32449
#
# Compressibility (1/GPa) = 0.02872079
#
# Stress axis : x y z
#
# Youngs Moduli (GPa) = 44.76493 84.65220 132.77074
#
# Poissons Ratio (x) = 0.14882 0.33586
# Poissons Ratio (y) = 0.07870 0.29128
# Poissons Ratio (z) = 0.11324 0.18572
#
# Static dielectric constant tensor:
#      x y z
#    x 3.118970 0.000000 -1.849230 
#    y 0.000000 3.913400 0.000000 
#    z -1.849230 0.000000 0.619570 
# 
# 
# High freq. dielectric constant tensor:
#      x y z
#    x 1.843740 0.000000 -0.011440 
#    y 0.000000 1.854320 0.000000 
#    z -0.011440 0.000000 1.881960 
# 
# From -- ./inp_files/245181.got.cif
#   From: 2010.06.25/outbox.cif.g09.slc.cpg/sg15_123_cif.got.tgz:245181.got - 2010.06.28 07:06:18.
