data_PCOD8141393
_publ_section_title
;
Structure prediction by ZEFSAII (Michael W. Deem and Ramdas Pophale) SiO2 
 PCOD8141393
Probable space group: C 2/C
;
_chemical_formula_sum "Si O2"
_cell_formula_units_Z 48
_cell_length_a 9.351567
_cell_length_b 19.477851
_cell_length_c 29.476682
_cell_angle_alpha 90.000000
_cell_angle_beta 152.493678
_cell_angle_gamma 90.000000
_cell_volume 2479.714411
_symmetry_space_group_name_H-M "C 2/C"
_symmetry_group_IT_number 15
_symmetry_cell_setting 'monoclinic'
loop_
_space_group_symop_operation_xyz
x,y,z
-x,y,1/2-z
-x,-y,-z
x,-y,1/2+z
1/2+x,1/2+y,z
1/2-x,1/2+y,1/2-z
1/2-x,1/2-y,-z
1/2+x,1/2-y,1/2+z
loop_
_atom_site_type_symbol
_atom_site_label
_atom_site_fract_x
_atom_site_fract_y
_atom_site_fract_z
Si Si1 0.670738 0.029925 0.237687
Si Si2 0.558121 0.326936 0.062851
Si Si3 0.705007 0.063208 0.039961
Si Si4 0.500000 0.092314 0.750000
Si Si5 0.000000 0.080965 0.250000
Si Si6 0.005193 0.932945 0.532299
Si Si7 0.412570 0.826581 0.928260
O O1 0.346584 0.071640 0.151584
O O2 0.943532 0.063818 0.343223
O O3 0.763133 0.030915 0.210291
O O4 0.631155 0.952811 0.245280
O O5 0.733991 0.360686 0.154490
O O6 0.695501 0.251113 0.092033
O O7 0.579247 0.367471 0.021684
O O8 0.204779 0.324056 0.977904
O O9 0.536058 0.133085 0.009593
O O10 0.734594 0.061486 0.993887
O O11 0.500000 0.000000 0.000000
O O12 0.155936 0.130605 0.329856
O O13 0.000000 0.000000 0.500000
#
# Coordination Sequence:
#
# PCOD8141393 Si02
#       7
#     8   8   8   4   4   8   8
#     4  11  21  35  60  90 116 152 193 249 296 349
#     4  11  23  38  61  82 124 159 203 240 298 361
#     4  11  23  38  63  89 122 151 201 252 299 349
#     4  12  21  38  58  90 117 158 194 244 303 344
#     4  10  21  36  62  88 117 150 206 242 305 352
#     4  12  21  38  60  89 118 157 200 247 302 351
#     4  10  22  40  57  89 116 163 197 247 294 355
#
# _framework density 19.357068000000002
#
# number of rings (size 3 to 8) (size 9 to 14) (size 15 to 20)
#    0.000    1.000    5.000    2.500    2.333    0.667 
#    0.000    0.000    0.000    0.000    0.000    0.000 
#    0.000    0.000    0.000    0.000    0.000    0.000 
#
# Total GULP energy -297478.435930 kJ/mol
# GULP energy per Si atom -12394.934830 kJ/mol
# Density = 1.931301 g / cm^3
# Si number density = 19.357068 Si / 1000 Ang^3
#
#
#
# Elastic Constant Matrix: (Units=GPa)
#
#
# Indices 1 2 3 4 5 6 
#
# 1 163.5617 77.9683 17.9973 0.0056 -2.1933 -0.0055
# 2 77.9683 153.4947 27.8250 -0.0020 -11.7031 0.0027
# 3 17.9973 27.8250 72.7437 0.0132 -7.0395 -0.0185
# 4 0.0056 -0.0020 0.0132 27.5210 -0.0086 -1.4256
# 5 -2.1933 -11.7031 -7.0395 -0.0086 23.5118 0.0012
# 6 -0.0055 0.0027 -0.0185 -1.4256 0.0012 25.9787
#
#
#
# Elastic Compliance Matrix: (Units=1/GPa)
#
#
# Indices 1 2 3 4 5 6 
#
# 1 0.008130 -0.004138 -0.000571 -0.000002 -0.001472 0.000002
# 2 -0.004138 0.009286 -0.002181 0.000003 0.003583 -0.000003
# 3 -0.000571 -0.002181 0.015048 -0.000006 0.003367 0.000010
# 4 -0.000002 0.000003 -0.000006 0.036439 0.000013 0.002000
# 5 -0.001472 0.003583 0.003367 0.000013 0.045186 0.000000
# 6 0.000002 -0.000003 0.000010 0.002000 0.000000 0.038603
#
#
# Mechanical properties :
#
#
# Convention : Reuss Voigt Hill
#
# Bulk Modulus (GPa) = 53.52565 70.82016 62.17291
# Shear Modulus (GPa) = 28.95195 33.13625 31.04410
#
# Velocity S-wave (km/s) = 3.87160 4.14193 4.00904
# Velocity P-wave (km/s) = 6.90633 7.71620 7.32247
#
# Compressibility (1/GPa) = 0.01868263
#
# Stress axis : x y z
#
# Youngs Moduli (GPa) = 123.00656 107.69475 66.45286
#
# Poissons Ratio (x) = 0.44567 0.03794
# Poissons Ratio (y) = 0.50903 0.14495
# Poissons Ratio (z) = 0.07022 0.23491
#
# Static dielectric constant tensor:
#      x y z
#    x 4.036520 0.000010 0.036440 
#    y 0.000010 3.780350 -0.000040 
#    z 0.036440 -0.000040 3.673210 
# 
# 
# High freq. dielectric constant tensor:
#      x y z
#    x 1.763190 0.000000 -0.000790 
#    y 0.000000 1.739980 0.000000 
#    z -0.000790 0.000000 1.755350 
# 
# From -- ./inp_files/134881.got.cif
#   From: 2010.06.25/outbox.cif.g09.slc.cpg/sg15_68_cif.got.tgz:134881.got - 2010.06.28 07:06:18.
