data_PCOD8141025
_publ_section_title
;
Structure prediction by ZEFSAII (Michael W. Deem and Ramdas Pophale) SiO2 
 PCOD8141025
Probable space group: C 2/C
;
_chemical_formula_sum "Si O2"
_cell_formula_units_Z 44
_cell_length_a 5.360453
_cell_length_b 18.635140
_cell_length_c 26.142331
_cell_angle_alpha 90.000000
_cell_angle_beta 65.033314
_cell_angle_gamma 90.000000
_cell_volume 2367.401038
_symmetry_space_group_name_H-M "C 2/C"
_symmetry_group_IT_number 15
_symmetry_cell_setting 'monoclinic'
loop_
_space_group_symop_operation_xyz
x,y,z
-x,y,1/2-z
-x,-y,-z
x,-y,1/2+z
1/2+x,1/2+y,z
1/2-x,1/2+y,1/2-z
1/2-x,1/2-y,-z
1/2+x,1/2-y,1/2+z
loop_
_atom_site_type_symbol
_atom_site_label
_atom_site_fract_x
_atom_site_fract_y
_atom_site_fract_z
Si Si1 0.319956 0.337757 0.214158
Si Si2 0.949436 0.320088 0.694452
Si Si3 0.391148 0.046769 0.055641
Si Si4 0.186341 0.906929 0.904687
Si Si5 0.455347 0.481156 0.156535
Si Si6 0.000000 0.069645 0.250000
O O1 0.500000 0.345825 0.250000
O O2 0.354995 0.259286 0.186095
O O3 0.417237 0.395990 0.164081
O O4 0.000000 0.352418 0.250000
O O5 0.718665 0.379363 0.702030
O O6 0.000000 0.321358 0.750000
O O7 0.220723 0.339891 0.638578
O O8 0.270134 0.995967 0.111361
O O9 0.645087 0.092379 0.056788
O O10 0.144178 0.099502 0.056927
O O11 0.500000 0.000000 0.000000
O O12 0.242781 0.982030 0.868963
O O13 0.375399 0.518451 0.217324
#
# Coordination Sequence:
#
# PCOD8141025 Si02
#       6
#     8   8   8   8   8   4
#     4  11  25  35  51  82 123 153 177 222 283 339
#     4  11  20  35  52  83 118 150 185 219 280 340
#     4  10  21  37  58  86 107 140 195 246 283 317
#     4  10  21  34  60  81 104 149 189 230 276 326
#     4  10  23  32  60  82 114 148 183 232 277 335
#     4  12  18  36  54  86 114 148 186 226 272 346
#
# _framework density 18.585784
#
# number of rings (size 3 to 8) (size 9 to 14) (size 15 to 20)
#    1.091    0.364    5.455    0.545    5.091    0.000 
#    0.000    0.000    0.000    2.182    0.000    0.000 
#    0.000    0.000    0.000    0.000    0.000    0.000 
#
# Total GULP energy -272616.771517 kJ/mol
# GULP energy per Si atom -12391.671433 kJ/mol
# Density = 1.854348 g / cm^3
# Si number density = 18.585784 Si / 1000 Ang^3
#
#
#
# Elastic Constant Matrix: (Units=GPa)
#
#
# Indices 1 2 3 4 5 6 
#
# 1 115.3950 11.1986 10.4275 0.0000 1.7584 0.0000
# 2 11.1986 86.5556 16.3072 0.0000 -1.2834 0.0000
# 3 10.4275 16.3072 35.7102 0.0000 -1.8910 0.0000
# 4 0.0000 0.0000 0.0000 7.8742 0.0000 -5.9265
# 5 1.7584 -1.2834 -1.8910 0.0000 25.9569 0.0000
# 6 0.0000 0.0000 0.0000 -5.9265 0.0000 17.7255
#
#
#
# Elastic Compliance Matrix: (Units=1/GPa)
#
#
# Indices 1 2 3 4 5 6 
#
# 1 0.008959 -0.000733 -0.002324 0.000000 -0.000813 0.000000
# 2 -0.000733 0.012702 -0.005572 0.000000 0.000272 0.000000
# 3 -0.002324 -0.005572 0.031341 0.000000 0.002165 0.000000
# 4 0.000000 0.000000 0.000000 0.169703 0.000000 0.056741
# 5 -0.000813 0.000272 0.002165 0.000000 0.038752 0.000000
# 6 0.000000 0.000000 0.000000 0.056741 0.000000 0.075387
#
#
# Mechanical properties :
#
#
# Convention : Reuss Voigt Hill
#
# Bulk Modulus (GPa) = 27.97726 34.83638 31.40682
# Shear Modulus (GPa) = 13.66054 23.62648 18.64351
#
# Velocity S-wave (km/s) = 2.71403 3.56927 3.17062
# Velocity P-wave (km/s) = 4.99069 5.98085 5.50806
#
# Compressibility (1/GPa) = 0.03574332
#
# Stress axis : x y z
#
# Youngs Moduli (GPa) = 111.61370 78.72827 31.90710
#
# Poissons Ratio (x) = 0.05773 0.07416
# Poissons Ratio (y) = 0.08185 0.17778
# Poissons Ratio (z) = 0.25943 0.43866
#
# Static dielectric constant tensor:
#      x y z
#    x 3.507050 0.000000 -0.056260 
#    y 0.000000 3.409130 0.000000 
#    z -0.056260 0.000000 3.119000 
# 
# 
# High freq. dielectric constant tensor:
#      x y z
#    x 1.729960 0.000000 -0.001910 
#    y 0.000000 1.700450 0.000000 
#    z -0.001910 0.000000 1.690930 
# 
# From -- ./inp_files/260627.got.cif
#   From: 2010.06.25/outbox.cif.g09.slc.cpg/sg15_131_cif.got.tgz:260627.got - 2010.06.28 07:06:18.
