data_PCOD8141564
_publ_section_title
;
Structure prediction by ZEFSAII (Michael W. Deem and Ramdas Pophale) SiO2 
 PCOD8141564
Probable space group: C 2/C
;
_chemical_formula_sum "Si O2"
_cell_formula_units_Z 64
_cell_length_a 15.844315
_cell_length_b 8.451547
_cell_length_c 28.333961
_cell_angle_alpha 90.000000
_cell_angle_beta 56.001085
_cell_angle_gamma 90.000000
_cell_volume 3145.551003
_symmetry_space_group_name_H-M "C 2/C"
_symmetry_group_IT_number 15
_symmetry_cell_setting 'monoclinic'
loop_
_space_group_symop_operation_xyz
x,y,z
-x,y,1/2-z
-x,-y,-z
x,-y,1/2+z
1/2+x,1/2+y,z
1/2-x,1/2+y,1/2-z
1/2-x,1/2-y,-z
1/2+x,1/2-y,1/2+z
loop_
_atom_site_type_symbol
_atom_site_label
_atom_site_fract_x
_atom_site_fract_y
_atom_site_fract_z
Si Si1 0.833301 0.635833 0.000004
Si Si2 0.405194 0.449719 0.000005
Si Si3 0.489988 0.958354 0.607221
Si Si4 0.075111 0.142567 0.598216
Si Si5 0.228470 0.642588 0.098226
Si Si6 0.448434 0.070913 0.816462
Si Si7 0.704430 0.958381 0.392770
Si Si8 0.081366 0.070938 0.183539
O O1 0.899565 0.526113 0.944182
O O2 0.910246 0.759941 0.000005
O O3 0.750000 0.750000 0.000000
O O4 0.787913 0.526125 0.055830
O O5 0.407848 0.510655 0.946056
O O6 0.500000 0.500000 0.000000
O O7 0.299968 0.510661 0.053963
O O8 0.473868 0.024655 0.665371
O O9 0.398992 0.999975 0.601011
O O10 0.488609 0.766858 0.609081
O O11 0.175089 0.249991 0.574924
O O12 0.043656 0.049904 0.655202
O O13 0.145942 0.549936 0.155211
O O14 0.293234 0.766884 0.109096
O O15 0.500000 0.052256 0.750000
O O16 0.413220 0.249987 0.836774
O O17 0.804608 0.024682 0.334619
O O18 0.000000 0.052277 0.250000
#
# Coordination Sequence:
#
# PCOD8141564 Si02
#       8
#     8   8   8   8   8   8   8   8
#     4  12  22  36  60  84 121 163 198 237 296 363
#     4  12  22  34  54  86 118 149 190 237 284 339
#     4  11  22  38  59  89 121 152 194 249 298 348
#     4  10  21  37  59  81 113 152 191 230 285 352
#     4  10  21  37  59  81 113 152 191 230 285 352
#     4  10  22  42  63  83 112 152 198 242 293 361
#     4  11  22  38  59  89 121 152 194 249 298 348
#     4  10  22  42  63  83 112 152 198 242 293 361
#
# _framework density 20.346195999999999
#
# number of rings (size 3 to 8) (size 9 to 14) (size 15 to 20)
#    0.000    1.250    0.000    8.250    0.000    4.500 
#    0.000    6.250    0.000    0.000    0.000    0.000 
#    0.000    0.000    0.000    0.000    0.000    0.000 
#
# Total GULP energy -396664.193506 kJ/mol
# GULP energy per Si atom -12395.756047 kJ/mol
# Density = 2.029989 g / cm^3
# Si number density = 20.346196 Si / 1000 Ang^3
#
#
#
# Elastic Constant Matrix: (Units=GPa)
#
#
# Indices 1 2 3 4 5 6 
#
# 1 95.4793 24.8600 41.5276 -0.0001 -3.7613 0.0000
# 2 24.8600 141.4080 43.1546 -0.0002 1.7353 0.0000
# 3 41.5276 43.1546 96.4835 0.0000 3.8089 0.0000
# 4 -0.0001 -0.0002 0.0000 33.7414 0.0000 0.3323
# 5 -3.7613 1.7353 3.8089 0.0000 8.1543 -0.0001
# 6 0.0000 0.0000 0.0000 0.3323 -0.0001 30.2675
#
#
#
# Elastic Compliance Matrix: (Units=1/GPa)
#
#
# Indices 1 2 3 4 5 6 
#
# 1 0.013580 -0.000701 -0.005893 0.000000 0.009166 0.000000
# 2 -0.000701 0.008226 -0.003357 0.000000 -0.000506 0.000000
# 3 -0.005893 -0.003357 0.014754 0.000000 -0.008896 0.000000
# 4 0.000000 0.000000 0.000000 0.029640 0.000000 -0.000325
# 5 0.009166 -0.000506 -0.008896 0.000000 0.131125 0.000000
# 6 0.000000 0.000000 0.000000 -0.000325 0.000000 0.033042
#
#
# Mechanical properties :
#
#
# Convention : Reuss Voigt Hill
#
# Bulk Modulus (GPa) = 60.03862 61.38391 60.71127
# Shear Modulus (GPa) = 19.54467 29.35455 24.44961
#
# Velocity S-wave (km/s) = 3.10273 3.80248 3.47029
# Velocity P-wave (km/s) = 6.51218 7.03660 6.77946
#
# Compressibility (1/GPa) = 0.01665595
#
# Stress axis : x y z
#
# Youngs Moduli (GPa) = 73.63540 121.56809 67.77906
#
# Poissons Ratio (x) = 0.08528 0.39944
# Poissons Ratio (y) = 0.05165 0.22756
# Poissons Ratio (z) = 0.43395 0.40814
#
# Static dielectric constant tensor:
#      x y z
#    x 3.832850 0.000000 -0.032830 
#    y 0.000000 4.779570 0.000000 
#    z -0.032830 0.000000 3.492390 
# 
# 
# High freq. dielectric constant tensor:
#      x y z
#    x 1.787950 0.000000 -0.000810 
#    y 0.000000 1.828220 0.000000 
#    z -0.000810 0.000000 1.779530 
# 
# From -- ./inp_files/313148.got.cif
#   From: 2010.06.25/outbox.cif.g09.slc.cpg/sg15_157_cif.got.tgz:313148.got - 2010.06.28 07:06:18.
