data_PCOD8141766
_publ_section_title
;
Structure prediction by ZEFSAII (Michael W. Deem and Ramdas Pophale) SiO2 
 PCOD8141766
Probable space group: C 2/C
;
_chemical_formula_sum "Si O2"
_cell_formula_units_Z 48
_cell_length_a 15.482280
_cell_length_b 14.235976
_cell_length_c 15.844768
_cell_angle_alpha 90.000000
_cell_angle_beta 143.978632
_cell_angle_gamma 90.000000
_cell_volume 2053.759452
_symmetry_space_group_name_H-M "C 2/C"
_symmetry_group_IT_number 15
_symmetry_cell_setting 'monoclinic'
loop_
_space_group_symop_operation_xyz
x,y,z
-x,y,1/2-z
-x,-y,-z
x,-y,1/2+z
1/2+x,1/2+y,z
1/2-x,1/2+y,1/2-z
1/2-x,1/2-y,-z
1/2+x,1/2-y,1/2+z
loop_
_atom_site_type_symbol
_atom_site_label
_atom_site_fract_x
_atom_site_fract_y
_atom_site_fract_z
Si Si1 0.067164 0.613181 0.168955
Si Si2 0.205541 0.749682 0.153710
Si Si3 0.718943 0.536539 0.706134
Si Si4 0.717063 0.858951 0.966558
Si Si5 0.448042 0.509163 0.589968
Si Si6 0.514759 0.301695 0.853552
O O1 0.099990 0.707213 0.141411
O O2 0.127106 0.520970 0.165861
O O3 0.139695 0.621248 0.317159
O O4 0.890600 0.607617 0.042131
O O5 0.251054 0.855905 0.210104
O O6 0.355375 0.690420 0.271224
O O7 0.125206 0.742669 0.999394
O O8 0.621113 0.532704 0.714310
O O9 0.628006 0.484180 0.561205
O O10 0.750000 0.750000 0.000000
O O11 0.869859 0.917282 0.091754
O O12 0.424496 0.406602 0.611307
O O13 0.500000 0.251961 0.750000
#
# Coordination Sequence:
#
# PCOD8141766 Si02
#       6
#     8   8   8   8   8   8
#     4  10  21  39  62  97 135 170 223 276 333 409
#     4  11  23  42  71  92 133 179 224 278 339 407
#     4   9  18  37  65  91 121 176 218 265 334 394
#     4  10  21  37  63  99 136 170 218 278 338 405
#     4   9  18  38  65  87 127 172 218 270 332 398
#     4  11  24  45  65  96 129 177 230 284 332 400
#
# _framework density 23.371773999999998
#
# number of rings (size 3 to 8) (size 9 to 14) (size 15 to 20)
#    0.000    2.000    1.667    1.500    4.667    0.000 
#   18.000    0.833    0.000    0.000    0.000    0.000 
#    0.000    0.000    0.000    0.000    0.000    0.000 
#
# Total GULP energy -297583.878743 kJ/mol
# GULP energy per Si atom -12399.328281 kJ/mol
# Density = 2.331858 g / cm^3
# Si number density = 23.371774 Si / 1000 Ang^3
#
#
#
# Elastic Constant Matrix: (Units=GPa)
#
#
# Indices 1 2 3 4 5 6 
#
# 1 133.3697 73.4193 28.8382 0.0001 44.7638 0.0000
# 2 73.4193 126.0705 34.4101 0.0000 31.5338 0.0000
# 3 28.8382 34.4101 58.4142 0.0000 25.9968 0.0000
# 4 0.0001 0.0000 0.0000 25.4522 0.0001 10.6614
# 5 44.7638 31.5338 25.9968 0.0001 39.1272 0.0000
# 6 0.0000 0.0000 0.0000 10.6614 0.0000 33.6723
#
#
#
# Elastic Compliance Matrix: (Units=1/GPa)
#
#
# Indices 1 2 3 4 5 6 
#
# 1 0.014832 -0.005800 0.002223 0.000000 -0.013772 0.000000
# 2 -0.005800 0.012657 -0.004268 0.000000 -0.000730 0.000000
# 3 0.002223 -0.004268 0.025751 0.000000 -0.016213 0.000000
# 4 0.000000 0.000000 0.000000 0.045297 0.000000 -0.014342
# 5 -0.013772 -0.000730 -0.016213 0.000000 0.052674 0.000000
# 6 0.000000 0.000000 0.000000 -0.014342 0.000000 0.034239
#
#
# Mechanical properties :
#
#
# Convention : Reuss Voigt Hill
#
# Bulk Modulus (GPa) = 26.63012 65.68772 46.15892
# Shear Modulus (GPa) = 23.40194 31.72947 27.56571
#
# Velocity S-wave (km/s) = 3.16775 3.68856 3.43803
# Velocity P-wave (km/s) = 4.97980 6.80494 5.96262
#
# Compressibility (1/GPa) = 0.03755146
#
# Stress axis : x y z
#
# Youngs Moduli (GPa) = 67.41958 79.00651 38.83292
#
# Poissons Ratio (x) = 0.45824 -0.08633
# Poissons Ratio (y) = 0.39103 0.16574
# Poissons Ratio (z) = -0.14988 0.33719
#
# Static dielectric constant tensor:
#      x y z
#    x 4.569360 0.000000 0.290190 
#    y 0.000000 3.963990 0.000000 
#    z 0.290190 0.000000 4.137070 
# 
# 
# High freq. dielectric constant tensor:
#      x y z
#    x 1.935340 0.000000 0.010020 
#    y 0.000000 1.913900 0.000000 
#    z 0.010020 0.000000 1.911580 
# 
# From -- ./inp_files/66497.got.cif
#   From: 2010.06.25/outbox.cif.g09.slc.cpg/sg15_34_cif.got.tgz:66497.got - 2010.06.28 07:06:18.
