data_PCOD8141739
_publ_section_title
;
Structure prediction by ZEFSAII (Michael W. Deem and Ramdas Pophale) SiO2 
 PCOD8141739
Probable space group: C 2/C
;
_chemical_formula_sum "Si O2"
_cell_formula_units_Z 64
_cell_length_a 31.771088
_cell_length_b 15.006836
_cell_length_c 21.426695
_cell_angle_alpha 90.000000
_cell_angle_beta 18.531079
_cell_angle_gamma 90.000000
_cell_volume 3246.805565
_symmetry_space_group_name_H-M "C 2/C"
_symmetry_group_IT_number 15
_symmetry_cell_setting 'monoclinic'
loop_
_space_group_symop_operation_xyz
x,y,z
-x,y,1/2-z
-x,-y,-z
x,-y,1/2+z
1/2+x,1/2+y,z
1/2-x,1/2+y,1/2-z
1/2-x,1/2-y,-z
1/2+x,1/2-y,1/2+z
loop_
_atom_site_type_symbol
_atom_site_label
_atom_site_fract_x
_atom_site_fract_y
_atom_site_fract_z
Si Si1 0.864335 0.460683 0.072670
Si Si2 0.546372 0.784548 0.252316
Si Si3 0.795464 0.659941 0.179133
Si Si4 0.323852 0.203605 0.277590
Si Si5 0.669264 0.953766 0.641564
Si Si6 0.136671 0.302601 0.334009
Si Si7 0.150153 0.629397 0.037892
Si Si8 0.236795 0.861154 0.472177
O O1 0.785727 0.553193 0.188340
O O2 0.816534 0.386434 0.189455
O O3 0.831310 0.425346 0.050947
O O4 0.018467 0.481607 0.869363
O O5 0.500000 0.820337 0.250000
O O6 0.435841 0.799784 0.459938
O O7 0.676936 0.839155 0.087590
O O8 0.589019 0.679799 0.187922
O O9 0.763679 0.681617 0.295192
O O10 0.685287 0.708200 0.292500
O O11 0.284043 0.131070 0.384938
O O12 0.259035 0.294495 0.391755
O O13 0.480591 0.208285 0.051293
O O14 0.677548 0.936987 0.556362
O O15 0.768306 0.032127 0.524244
O O16 0.196575 0.316580 0.181808
O O17 0.000000 0.668710 0.250000
#
# Coordination Sequence:
#
# PCOD8141739 Si02
#       8
#     8   8   8   8   8   8   8   8
#     4  10  21  37  63  91 117 159 209 244 297 362
#     4  11  23  36  58  88 126 158 194 246 306 356
#     4  12  22  39  64  90 125 163 199 253 301 362
#     4  11  22  42  62  89 121 162 201 252 302 355
#     4  10  21  37  63  87 119 157 211 249 289 362
#     4  11  22  39  63  90 122 159 202 247 302 362
#     4  10  22  40  64  89 119 157 203 257 300 353
#     4  11  22  37  60  92 120 158 201 249 300 356
#
# _framework density 19.711683000000001
#
# number of rings (size 3 to 8) (size 9 to 14) (size 15 to 20)
#    0.000    1.250    5.000    1.125    1.750    2.000 
#    0.000    2.500    0.000    0.000    0.000    0.000 
#    0.000    0.000    0.000    0.000    0.000    0.000 
#
# Total GULP energy -396807.696044 kJ/mol
# GULP energy per Si atom -12400.240501 kJ/mol
# Density = 1.966682 g / cm^3
# Si number density = 19.711683 Si / 1000 Ang^3
#
#
#
# Elastic Constant Matrix: (Units=GPa)
#
#
# Indices 1 2 3 4 5 6 
#
# 1 107.8968 22.2898 6.7736 0.0000 2.6468 0.0000
# 2 22.2898 111.5505 17.2144 -0.0002 -4.0153 0.0000
# 3 6.7736 17.2144 27.1270 -0.0006 4.7357 0.0002
# 4 0.0000 -0.0002 -0.0006 29.0773 0.0002 -7.9203
# 5 2.6468 -4.0153 4.7357 0.0002 18.3664 -0.0001
# 6 0.0000 0.0000 0.0002 -7.9203 -0.0001 26.2430
#
#
#
# Elastic Compliance Matrix: (Units=1/GPa)
#
#
# Indices 1 2 3 4 5 6 
#
# 1 0.009751 -0.001852 -0.000988 0.000000 -0.001555 0.000000
# 2 -0.001852 0.010575 -0.007014 0.000000 0.004387 0.000000
# 3 -0.000988 -0.007014 0.043775 0.000001 -0.012678 0.000000
# 4 0.000000 0.000000 0.000001 0.037472 -0.000001 0.011309
# 5 -0.001555 0.004387 -0.012678 -0.000001 0.058899 0.000000
# 6 0.000000 0.000000 0.000000 0.011309 0.000000 0.041519
#
#
# Mechanical properties :
#
#
# Convention : Reuss Voigt Hill
#
# Bulk Modulus (GPa) = 22.52652 37.68110 30.10381
# Shear Modulus (GPa) = 21.14201 28.09044 24.61622
#
# Velocity S-wave (km/s) = 3.27855 3.77910 3.53769
# Velocity P-wave (km/s) = 5.07786 6.18059 5.65617
#
# Compressibility (1/GPa) = 0.04439211
#
# Stress axis : x y z
#
# Youngs Moduli (GPa) = 102.55495 94.56316 22.84427
#
# Poissons Ratio (x) = 0.17512 0.02257
# Poissons Ratio (y) = 0.18992 0.16023
# Poissons Ratio (z) = 0.10133 0.66328
#
# Static dielectric constant tensor:
#      x y z
#    x 3.796580 0.000000 0.062650 
#    y 0.000000 3.643620 0.000000 
#    z 0.062650 0.000000 3.468370 
# 
# 
# High freq. dielectric constant tensor:
#      x y z
#    x 1.789680 0.000000 0.008870 
#    y 0.000000 1.768680 0.000000 
#    z 0.008870 0.000000 1.741430 
# 
# From -- ./inp_files/259424.got.cif
#   From: 2010.06.25/outbox.cif.g09.slc.cpg/sg15_130_cif.got.tgz:259424.got - 2010.06.28 07:06:18.
