data_PCOD8141736
_publ_section_title
;
Structure prediction by ZEFSAII (Michael W. Deem and Ramdas Pophale) SiO2 
 PCOD8141736
Probable space group: C 2/C
;
_chemical_formula_sum "Si O2"
_cell_formula_units_Z 40
_cell_length_a 9.264699
_cell_length_b 16.151790
_cell_length_c 22.664627
_cell_angle_alpha 90.000000
_cell_angle_beta 33.127085
_cell_angle_gamma 90.000000
_cell_volume 1853.484907
_symmetry_space_group_name_H-M "C 2/C"
_symmetry_group_IT_number 15
_symmetry_cell_setting 'monoclinic'
loop_
_space_group_symop_operation_xyz
x,y,z
-x,y,1/2-z
-x,-y,-z
x,-y,1/2+z
1/2+x,1/2+y,z
1/2-x,1/2+y,1/2-z
1/2-x,1/2-y,-z
1/2+x,1/2-y,1/2+z
loop_
_atom_site_type_symbol
_atom_site_label
_atom_site_fract_x
_atom_site_fract_y
_atom_site_fract_z
Si Si1 0.500000 0.508837 0.750000
Si Si2 0.722434 0.674291 0.373485
Si Si3 0.079393 0.832217 0.048747
Si Si4 0.666162 0.865374 0.423949
Si Si5 0.500000 0.767319 0.250000
Si Si6 0.060194 0.872157 0.641424
O O1 0.752726 0.568221 0.653269
O O2 0.428813 0.451590 0.717922
O O3 0.680168 0.630670 0.451694
O O4 0.697049 0.773263 0.387590
O O5 0.500890 0.635233 0.406764
O O6 0.000000 0.649562 0.250000
O O7 0.148458 0.886709 0.082475
O O8 0.763642 0.821513 0.152360
O O9 0.250000 0.750000 0.000000
O O10 0.370456 0.880282 0.545846
O O11 0.548531 0.711178 0.290956
#
# Coordination Sequence:
#
# PCOD8141736 Si02
#       6
#     4   8   8   8   4   8
#     4  11  26  40  64  90 135 170 212 255 330 392
#     4  11  22  39  69  96 126 163 221 271 315 372
#     4  10  21  37  62  99 126 159 212 276 315 368
#     4  11  22  42  64  94 127 168 216 266 316 388
#     4  11  20  34  64  96 129 154 210 269 322 366
#     4  11  23  39  63  93 125 174 210 260 321 385
#
# _framework density 21.580969
#
# number of rings (size 3 to 8) (size 9 to 14) (size 15 to 20)
#    0.000    1.200    5.000    3.600    2.800    0.000 
#    0.000    1.000    2.200    0.000    0.000    0.000 
#    0.000    0.000    0.000    0.000    0.000    0.000 
#
# Total GULP energy -247951.544382 kJ/mol
# GULP energy per Si atom -12397.577219 kJ/mol
# Density = 2.153185 g / cm^3
# Si number density = 21.580969 Si / 1000 Ang^3
#
#
#
# Elastic Constant Matrix: (Units=GPa)
#
#
# Indices 1 2 3 4 5 6 
#
# 1 135.1620 38.6362 42.3295 -0.0062 13.0966 0.0110
# 2 38.6362 61.5118 26.6367 -0.0043 7.6676 0.0121
# 3 42.3295 26.6367 144.3496 0.0205 4.0912 0.0136
# 4 -0.0062 -0.0043 0.0205 17.2017 -0.0336 6.8286
# 5 13.0966 7.6676 4.0912 -0.0336 36.4000 0.0036
# 6 0.0110 0.0121 0.0136 6.8286 0.0036 18.2989
#
#
#
# Elastic Compliance Matrix: (Units=1/GPa)
#
#
# Indices 1 2 3 4 5 6 
#
# 1 0.009607 -0.004963 -0.001839 0.000000 -0.002204 -0.000001
# 2 -0.004963 0.020654 -0.002290 0.000006 -0.002308 -0.000011
# 3 -0.001839 -0.002290 0.007882 -0.000010 0.000258 0.000001
# 4 0.000000 0.000006 -0.000010 0.068244 0.000065 -0.025467
# 5 -0.002204 -0.002308 0.000258 0.000065 0.028723 -0.000027
# 6 -0.000001 -0.000011 0.000001 -0.025467 -0.000027 0.064152
#
#
# Mechanical properties :
#
#
# Convention : Reuss Voigt Hill
#
# Bulk Modulus (GPa) = 50.10479 61.80312 55.95395
# Shear Modulus (GPa) = 22.31167 29.94151 26.12659
#
# Velocity S-wave (km/s) = 3.21886 3.72883 3.48319
# Velocity P-wave (km/s) = 6.08952 6.87305 6.49311
#
# Compressibility (1/GPa) = 0.01995817
#
# Stress axis : x y z
#
# Youngs Moduli (GPa) = 104.09445 48.41714 126.86842
#
# Poissons Ratio (x) = 0.24029 0.23328
# Poissons Ratio (y) = 0.51662 0.29059
# Poissons Ratio (z) = 0.19141 0.11090
#
# Static dielectric constant tensor:
#      x y z
#    x 4.350040 -0.000040 0.377610 
#    y -0.000040 3.575280 0.000040 
#    z 0.377610 0.000040 4.080150 
# 
# 
# High freq. dielectric constant tensor:
#      x y z
#    x 1.847620 0.000000 0.015520 
#    y 0.000000 1.803350 0.000000 
#    z 0.015520 0.000000 1.865800 
# 
# From -- ./inp_files/76854.got.cif
#   From: 2010.06.25/outbox.cif.g09.slc.cpg/sg15_39_cif.got.tgz:76854.got - 2010.06.28 07:06:18.
