data_PCOD8141350
_publ_section_title
;
Structure prediction by ZEFSAII (Michael W. Deem and Ramdas Pophale) SiO2 
 PCOD8141350
Probable space group: C 2/C
;
_chemical_formula_sum "Si O2"
_cell_formula_units_Z 64
_cell_length_a 24.864253
_cell_length_b 11.374971
_cell_length_c 21.967905
_cell_angle_alpha 90.000000
_cell_angle_beta 146.958280
_cell_angle_gamma 90.000000
_cell_volume 3387.737002
_symmetry_space_group_name_H-M "C 2/C"
_symmetry_group_IT_number 15
_symmetry_cell_setting 'monoclinic'
loop_
_space_group_symop_operation_xyz
x,y,z
-x,y,1/2-z
-x,-y,-z
x,-y,1/2+z
1/2+x,1/2+y,z
1/2-x,1/2+y,1/2-z
1/2-x,1/2-y,-z
1/2+x,1/2-y,1/2+z
loop_
_atom_site_type_symbol
_atom_site_label
_atom_site_fract_x
_atom_site_fract_y
_atom_site_fract_z
Si Si1 0.890147 0.511368 0.660972
Si Si2 0.773852 0.638947 0.847676
Si Si3 0.003206 0.372026 0.973642
Si Si4 0.732388 0.403927 0.172932
Si Si5 0.437713 0.745423 0.028864
Si Si6 0.211492 0.575822 0.055733
Si Si7 0.674838 0.127033 0.285453
Si Si8 0.871890 0.264299 0.221503
O O1 0.821446 0.510097 0.536563
O O2 0.841443 0.421980 0.662376
O O3 0.894224 0.644339 0.689244
O O4 0.000000 0.467571 0.750000
O O5 0.721153 0.628530 0.732578
O O6 0.748881 0.520583 0.859898
O O7 0.727063 0.747435 0.839766
O O8 0.890331 0.657384 0.952243
O O9 0.929186 0.364955 0.847082
O O10 0.000000 0.500000 0.000000
O O11 0.975836 0.275945 0.997954
O O12 0.751843 0.541967 0.182895
O O13 0.824624 0.331100 0.234139
O O14 0.633596 0.367251 0.043316
O O15 0.525993 0.708927 0.157621
O O16 0.381358 0.857622 0.002994
O O17 0.301777 0.663744 0.127849
#
# Coordination Sequence:
#
# PCOD8141350 Si02
#       8
#     8   8   8   8   8   8   8   8
#     4  11  21  41  67  88 116 163 214 255 290 357
#     4  12  23  37  61  90 127 165 196 249 307 368
#     4  12  19  35  63  87 119 156 205 249 294 368
#     4  10  21  36  60  90 126 156 193 255 307 367
#     4  11  19  36  61  93 119 152 203 255 307 361
#     4  11  23  37  61  89 122 159 205 254 307 353
#     4  11  24  41  58  91 126 161 207 248 307 364
#     4  10  21  38  62  94 121 151 200 261 312 351
#
# _framework density 18.891667000000002
#
# number of rings (size 3 to 8) (size 9 to 14) (size 15 to 20)
#    0.000    1.000    6.250    1.875    1.750    0.500 
#    2.250    1.250    0.000    0.750    0.000    0.000 
#    0.000    0.000    0.000    0.000    0.000    0.000 
#
# Total GULP energy -396983.331262 kJ/mol
# GULP energy per Si atom -12405.729102 kJ/mol
# Density = 1.884867 g / cm^3
# Si number density = 18.891667 Si / 1000 Ang^3
#
#
#
# Elastic Constant Matrix: (Units=GPa)
#
#
# Indices 1 2 3 4 5 6 
#
# 1 74.2044 26.3339 19.4829 0.0000 -2.7177 0.0000
# 2 26.3339 59.3094 20.2597 0.0000 8.8238 0.0000
# 3 19.4829 20.2597 98.3022 0.0000 1.8131 0.0000
# 4 0.0000 0.0000 0.0000 20.9563 0.0000 3.9261
# 5 -2.7177 8.8238 1.8131 0.0000 30.9092 0.0000
# 6 0.0000 0.0000 0.0000 3.9261 0.0000 24.7232
#
#
#
# Elastic Compliance Matrix: (Units=1/GPa)
#
#
# Indices 1 2 3 4 5 6 
#
# 1 0.016700 -0.007322 -0.001868 0.000000 0.003668 0.000000
# 2 -0.007322 0.022142 -0.002987 0.000000 -0.006790 0.000000
# 3 -0.001868 -0.002987 0.011158 0.000000 0.000034 0.000000
# 4 0.000000 0.000000 0.000000 0.049182 0.000000 -0.007810
# 5 0.003668 -0.006790 0.000034 0.000000 0.034612 0.000000
# 6 0.000000 0.000000 0.000000 -0.007810 0.000000 0.041688
#
#
# Mechanical properties :
#
#
# Convention : Reuss Voigt Hill
#
# Bulk Modulus (GPa) = 38.99434 40.44102 39.71768
# Shear Modulus (GPa) = 23.99405 26.36706 25.18056
#
# Velocity S-wave (km/s) = 3.56769 3.73996 3.65484
# Velocity P-wave (km/s) = 6.13654 6.33269 6.23539
#
# Compressibility (1/GPa) = 0.02564474
#
# Stress axis : x y z
#
# Youngs Moduli (GPa) = 59.88105 45.16219 89.62194
#
# Poissons Ratio (x) = 0.33070 0.16744
# Poissons Ratio (y) = 0.43847 0.26770
# Poissons Ratio (z) = 0.11188 0.13490
#
# Static dielectric constant tensor:
#      x y z
#    x 3.446220 0.000000 -0.074420 
#    y 0.000000 3.300580 0.000000 
#    z -0.074420 0.000000 3.225600 
# 
# 
# High freq. dielectric constant tensor:
#      x y z
#    x 1.732470 0.000000 -0.001460 
#    y 0.000000 1.714240 0.000000 
#    z -0.001460 0.000000 1.742510 
# 
# From -- ./inp_files/283509.got.cif
#   From: 2010.06.25/outbox.cif.g09.slc.cpg/sg15_142_cif.got.tgz:283509.got - 2010.06.28 07:06:18.
