data_PCOD8141353
_publ_section_title
;
Structure prediction by ZEFSAII (Michael W. Deem and Ramdas Pophale) SiO2 
 PCOD8141353
Probable space group: C 2/C
;
_chemical_formula_sum "Si O2"
_cell_formula_units_Z 64
_cell_length_a 16.283368
_cell_length_b 12.528160
_cell_length_c 30.026980
_cell_angle_alpha 90.000000
_cell_angle_beta 150.422340
_cell_angle_gamma 90.000000
_cell_volume 3023.575411
_symmetry_space_group_name_H-M "C 2/C"
_symmetry_group_IT_number 15
_symmetry_cell_setting 'monoclinic'
loop_
_space_group_symop_operation_xyz
x,y,z
-x,y,1/2-z
-x,-y,-z
x,-y,1/2+z
1/2+x,1/2+y,z
1/2-x,1/2+y,1/2-z
1/2-x,1/2-y,-z
1/2+x,1/2-y,1/2+z
loop_
_atom_site_type_symbol
_atom_site_label
_atom_site_fract_x
_atom_site_fract_y
_atom_site_fract_z
Si Si1 0.612790 0.922176 0.998142
Si Si2 0.230330 0.686110 0.159440
Si Si3 0.415044 0.742746 0.384983
Si Si4 0.053717 0.932796 0.669602
Si Si5 0.679023 0.257093 0.355276
Si Si6 0.882443 0.323407 0.586066
Si Si7 0.725531 0.143177 0.061529
Si Si8 0.672221 0.333805 0.207488
O O1 0.457174 0.850596 0.938982
O O2 0.613198 0.928319 0.943423
O O3 0.775355 0.864118 0.095621
O O4 0.605595 0.041158 0.014577
O O5 0.324326 0.595928 0.232275
O O6 0.306603 0.691593 0.145255
O O7 0.232317 0.802013 0.185335
O O8 0.398037 0.631394 0.351592
O O9 0.319399 0.728020 0.386182
O O10 0.609864 0.768031 0.483933
O O11 0.331177 0.836598 0.315493
O O12 0.867430 0.900892 0.595716
O O13 0.071725 0.056085 0.663743
O O14 0.500000 0.280301 0.250000
O O15 0.667647 0.158235 0.385750
O O16 0.750000 0.250000 0.500000
O O17 0.060767 0.265338 0.670908
#
# Coordination Sequence:
#
# PCOD8141353 Si02
#       8
#     8   8   8   8   8   8   8   8
#     4  10  21  36  60  91 122 154 195 260 313 356
#     4  10  22  39  64  93 124 156 204 270 309 359
#     4  11  24  40  59  89 128 161 200 262 302 371
#     4  11  24  41  64  86 124 171 208 244 318 372
#     4  11  20  34  60  89 125 152 199 252 317 361
#     4   9  18  33  56  87 120 148 187 249 310 356
#     4  12  23  39  62  93 124 161 211 253 305 372
#     4  10  21  41  62  87 123 164 202 253 316 370
#
# _framework density 21.166993999999999
#
# number of rings (size 3 to 8) (size 9 to 14) (size 15 to 20)
#    0.000    1.500    2.500    3.375    1.750    0.000 
#    0.000    0.625    2.750    0.000    0.000    0.000 
#    0.000    0.000    0.000    0.000    0.000    0.000 
#
# Total GULP energy -396566.621861 kJ/mol
# GULP energy per Si atom -12392.706933 kJ/mol
# Density = 2.111882 g / cm^3
# Si number density = 21.166994 Si / 1000 Ang^3
#
#
#
# Elastic Constant Matrix: (Units=GPa)
#
#
# Indices 1 2 3 4 5 6 
#
# 1 101.7729 49.4617 34.5247 0.0001 -19.8878 0.0000
# 2 49.4617 63.3851 30.3175 0.0000 -13.5465 0.0000
# 3 34.5247 30.3175 114.5484 -0.0004 -13.2289 0.0000
# 4 0.0001 0.0000 -0.0004 18.5488 -0.0001 0.8786
# 5 -19.8878 -13.5465 -13.2289 -0.0001 37.0784 0.0000
# 6 0.0000 0.0000 0.0000 0.8786 0.0000 26.2261
#
#
#
# Elastic Compliance Matrix: (Units=1/GPa)
#
#
# Indices 1 2 3 4 5 6 
#
# 1 0.016719 -0.011406 -0.001529 0.000000 0.004255 0.000000
# 2 -0.011406 0.026821 -0.003375 0.000000 0.002477 0.000000
# 3 -0.001529 -0.003375 0.010270 0.000000 0.001611 0.000000
# 4 0.000000 0.000000 0.000000 0.053998 0.000000 -0.001809
# 5 0.004255 0.002477 0.001611 0.000000 0.030732 0.000000
# 6 0.000000 0.000000 0.000000 -0.001809 0.000000 0.038191
#
#
# Mechanical properties :
#
#
# Convention : Reuss Voigt Hill
#
# Bulk Modulus (GPa) = 47.19096 56.47934 51.83515
# Shear Modulus (GPa) = 23.10396 27.39748 25.25072
#
# Velocity S-wave (km/s) = 3.30738 3.60161 3.45763
# Velocity P-wave (km/s) = 6.07684 6.63597 6.36255
#
# Compressibility (1/GPa) = 0.02119050
#
# Stress axis : x y z
#
# Youngs Moduli (GPa) = 59.81115 37.28471 97.37071
#
# Poissons Ratio (x) = 0.42527 0.14887
# Poissons Ratio (y) = 0.68221 0.32861
# Poissons Ratio (z) = 0.09145 0.12583
#
# Static dielectric constant tensor:
#      x y z
#    x 1.320210 -0.000020 -1.478620 
#    y -0.000020 3.574450 -0.000010 
#    z -1.478620 -0.000010 3.472020 
# 
# 
# High freq. dielectric constant tensor:
#      x y z
#    x 1.837460 0.000000 -0.003370 
#    y 0.000000 1.778100 0.000000 
#    z -0.003370 0.000000 1.850880 
# 
# From -- ./inp_files/316244.got.cif
#   From: 2010.06.25/outbox.cif.g09.slc.cpg/sg15_159_cif.got.tgz:316244.got - 2010.06.28 07:06:18.
