data_PCOD8141699
_publ_section_title
;
Structure prediction by ZEFSAII (Michael W. Deem and Ramdas Pophale) SiO2 
 PCOD8141699
Probable space group: C 2/C
;
_chemical_formula_sum "Si O2"
_cell_formula_units_Z 40
_cell_length_a 26.069070
_cell_length_b 8.454431
_cell_length_c 19.131858
_cell_angle_alpha 90.000000
_cell_angle_beta 153.076384
_cell_angle_gamma 90.000000
_cell_volume 1909.306480
_symmetry_space_group_name_H-M "C 2/C"
_symmetry_group_IT_number 15
_symmetry_cell_setting 'monoclinic'
loop_
_space_group_symop_operation_xyz
x,y,z
-x,y,1/2-z
-x,-y,-z
x,-y,1/2+z
1/2+x,1/2+y,z
1/2-x,1/2+y,1/2-z
1/2-x,1/2-y,-z
1/2+x,1/2-y,1/2+z
loop_
_atom_site_type_symbol
_atom_site_label
_atom_site_fract_x
_atom_site_fract_y
_atom_site_fract_z
Si Si1 0.715782 0.962010 0.163302
Si Si2 0.129404 0.083393 0.404577
Si Si3 0.745845 0.885407 0.844969
Si Si4 0.469798 0.969508 0.384210
Si Si5 0.317168 0.678664 0.176806
O O1 0.744677 0.783558 0.178403
O O2 0.737932 0.984167 0.272850
O O3 0.803108 0.074155 0.228752
O O4 0.585335 0.997631 0.981561
O O5 0.202869 0.222926 0.527404
O O6 0.165221 0.060371 0.367299
O O7 0.000000 0.134549 0.250000
O O8 0.149752 0.925021 0.476038
O O9 0.632646 0.906664 0.755928
O O10 0.427343 0.790808 0.318504
O O11 0.500000 0.000000 0.500000
#
# Coordination Sequence:
#
# PCOD8141699 Si02
#       5
#     8   8   8   8   8
#     4  11  21  39  63  87 117 152 195 251 295 337
#     4  10  21  39  57  83 121 157 194 237 291 356
#     4  10  22  38  59  86 118 153 198 242 290 353
#     4   9  19  37  58  87 119 149 192 242 292 344
#     4  10  21  37  62  87 116 157 197 239 295 354
#
# _framework density 20.950015
#
# number of rings (size 3 to 8) (size 9 to 14) (size 15 to 20)
#    0.000    2.000    0.000    4.800    0.000    4.000 
#    0.000   11.000    0.000    0.000    0.000    0.000 
#    0.000    0.000    0.000    0.000    0.000    0.000 
#
# Total GULP energy -247882.756338 kJ/mol
# GULP energy per Si atom -12394.137817 kJ/mol
# Density = 2.090233 g / cm^3
# Si number density = 20.950015 Si / 1000 Ang^3
#
#
#
# Elastic Constant Matrix: (Units=GPa)
#
#
# Indices 1 2 3 4 5 6 
#
# 1 76.9977 34.3951 31.0258 0.0000 4.2316 0.0000
# 2 34.3951 107.1330 33.9937 0.0000 9.4003 0.0000
# 3 31.0258 33.9937 100.4848 0.0000 2.5667 0.0000
# 4 0.0000 0.0000 0.0000 21.7470 0.0000 -3.1658
# 5 4.2316 9.4003 2.5667 0.0000 29.0569 0.0000
# 6 0.0000 0.0000 0.0000 -3.1658 0.0000 26.1588
#
#
#
# Elastic Compliance Matrix: (Units=1/GPa)
#
#
# Indices 1 2 3 4 5 6 
#
# 1 0.016291 -0.004004 -0.003656 0.000000 -0.000754 0.000000
# 2 -0.004004 0.011723 -0.002654 0.000000 -0.002975 0.000000
# 3 -0.003656 -0.002654 0.011970 0.000000 0.000334 0.000000
# 4 0.000000 0.000000 0.000000 0.046808 0.000000 0.005665
# 5 -0.000754 -0.002975 0.000334 0.000000 0.035458 0.000000
# 6 0.000000 0.000000 0.000000 0.005665 0.000000 0.038914
#
#
# Mechanical properties :
#
#
# Convention : Reuss Voigt Hill
#
# Bulk Modulus (GPa) = 51.66348 53.71607 52.68978
# Shear Modulus (GPa) = 26.56160 27.73926 27.15043
#
# Velocity S-wave (km/s) = 3.56456 3.64272 3.60385
# Velocity P-wave (km/s) = 6.45409 6.58698 6.52088
#
# Compressibility (1/GPa) = 0.01935603
#
# Stress axis : x y z
#
# Youngs Moduli (GPa) = 61.38514 85.30510 83.54370
#
# Poissons Ratio (x) = 0.34155 0.30545
# Poissons Ratio (y) = 0.24577 0.22169
# Poissons Ratio (z) = 0.22443 0.22636
#
# Static dielectric constant tensor:
#      x y z
#    x 4.047890 0.000000 0.247920 
#    y 0.000000 3.506970 0.000000 
#    z 0.247920 0.000000 4.315510 
# 
# 
# High freq. dielectric constant tensor:
#      x y z
#    x 1.821630 0.000000 0.005960 
#    y 0.000000 1.797000 0.000000 
#    z 0.005960 0.000000 1.824550 
# 
# From -- ./inp_files/109581.got.cif
#   From: 2010.06.25/outbox.cif.g09.slc.cpg/sg15_55_cif.got.tgz:109581.got - 2010.06.28 07:06:18.
