data_PCOD8141839
_publ_section_title
;
Structure prediction by ZEFSAII (Michael W. Deem and Ramdas Pophale) SiO2 
 PCOD8141839
Probable space group: C 2/C
;
_chemical_formula_sum "Si O2"
_cell_formula_units_Z 36
_cell_length_a 14.465442
_cell_length_b 18.135456
_cell_length_c 11.520427
_cell_angle_alpha 90.000000
_cell_angle_beta 152.373207
_cell_angle_gamma 90.000000
_cell_volume 1401.443513
_symmetry_space_group_name_H-M "C 2/C"
_symmetry_group_IT_number 15
_symmetry_cell_setting 'monoclinic'
loop_
_space_group_symop_operation_xyz
x,y,z
-x,y,1/2-z
-x,-y,-z
x,-y,1/2+z
1/2+x,1/2+y,z
1/2-x,1/2+y,1/2-z
1/2-x,1/2-y,-z
1/2+x,1/2-y,1/2+z
loop_
_atom_site_type_symbol
_atom_site_label
_atom_site_fract_x
_atom_site_fract_y
_atom_site_fract_z
Si Si1 0.053003 0.276877 0.174369
Si Si2 0.562104 0.372923 0.939341
Si Si3 0.844516 0.611342 0.293155
Si Si4 0.268564 0.970689 0.350046
Si Si5 0.000000 0.074263 0.750000
O O1 0.094633 0.189238 0.190057
O O2 0.000000 0.288628 0.250000
O O3 0.258684 0.316994 0.384273
O O4 0.900600 0.310490 0.910020
O O5 0.500000 0.412151 0.750000
O O6 0.612045 0.437688 0.082877
O O7 0.807183 0.555375 0.359536
O O8 0.026579 0.576272 0.419187
O O9 0.644119 0.623036 0.993363
O O10 0.157827 0.973386 0.350386
#
# Coordination Sequence:
#
# PCOD8141839 Si02
#       5
#     8   8   8   8   4
#     4  10  21  38  65  96 129 167 214 282 329 377
#     4  10  21  37  67  96 130 165 218 276 332 381
#     4  10  24  43  64  96 132 174 221 271 327 386
#     4  10  24  43  65  97 133 172 219 275 323 394
#     4  12  24  40  68  94 132 174 220 256 332 402
#
# _framework density 25.687801
#
# number of rings (size 3 to 8) (size 9 to 14) (size 15 to 20)
#    0.000    1.778    0.000    4.000    7.778    5.333 
#    0.000    1.111    0.000    0.000    0.000    0.000 
#    0.000    0.000    0.000    0.000    0.000    0.000 
#
# Total GULP energy -223059.393671 kJ/mol
# GULP energy per Si atom -12392.188537 kJ/mol
# Density = 2.562933 g / cm^3
# Si number density = 25.687801 Si / 1000 Ang^3
#
#
#
# Elastic Constant Matrix: (Units=GPa)
#
#
# Indices 1 2 3 4 5 6 
#
# 1 82.5392 -1.3373 22.7298 0.0000 9.2835 0.0000
# 2 -1.3373 101.2008 9.7742 0.0000 -19.5742 0.0000
# 3 22.7298 9.7742 150.2723 0.0000 -16.1095 0.0000
# 4 0.0000 0.0000 0.0000 11.7881 0.0000 1.8249
# 5 9.2835 -19.5742 -16.1095 0.0000 34.8590 0.0000
# 6 0.0000 0.0000 0.0000 1.8249 0.0000 25.4877
#
#
#
# Elastic Compliance Matrix: (Units=1/GPa)
#
#
# Indices 1 2 3 4 5 6 
#
# 1 0.013369 -0.000554 -0.002526 0.000000 -0.005039 0.000000
# 2 -0.000554 0.011109 0.000048 0.000000 0.006408 0.000000
# 3 -0.002526 0.000048 0.007479 0.000000 0.004156 0.000000
# 4 0.000000 0.000000 0.000000 0.085783 0.000000 -0.006142
# 5 -0.005039 0.006408 0.004156 0.000000 0.035548 0.000000
# 6 0.000000 0.000000 0.000000 -0.006142 0.000000 0.039674
#
#
# Mechanical properties :
#
#
# Convention : Reuss Voigt Hill
#
# Bulk Modulus (GPa) = 38.62114 44.03841 41.32977
# Shear Modulus (GPa) = 24.07823 34.61666 29.34745
#
# Velocity S-wave (km/s) = 3.06492 3.67494 3.38371
# Velocity P-wave (km/s) = 5.25285 5.93193 5.60269
#
# Compressibility (1/GPa) = 0.02589256
#
# Stress axis : x y z
#
# Youngs Moduli (GPa) = 74.80036 90.01933 133.70544
#
# Poissons Ratio (x) = 0.04987 0.33778
# Poissons Ratio (y) = 0.04144 -0.00644
# Poissons Ratio (z) = 0.18897 -0.00433
#
# Static dielectric constant tensor:
#      x y z
#    x 5.067680 0.000000 0.797080 
#    y 0.000000 5.219030 0.000000 
#    z 0.797080 0.000000 5.831210 
# 
# 
# High freq. dielectric constant tensor:
#      x y z
#    x 2.036240 0.000000 0.028400 
#    y 0.000000 2.012950 0.000000 
#    z 0.028400 0.000000 2.052800 
# 
# From -- ./inp_files/99920.got.cif
#   From: 2010.06.25/outbox.cif.g09.slc.cpg/sg15_50_cif.got.tgz:99920.got - 2010.06.28 07:06:18.
