data_PCOD8141621
_publ_section_title
;
Structure prediction by ZEFSAII (Michael W. Deem and Ramdas Pophale) SiO2 
 PCOD8141621
Probable space group: C 2/C
;
_chemical_formula_sum "Si O2"
_cell_formula_units_Z 32
_cell_length_a 13.014896
_cell_length_b 19.212555
_cell_length_c 8.610958
_cell_angle_alpha 90.000000
_cell_angle_beta 129.017160
_cell_angle_gamma 90.000000
_cell_volume 1672.917522
_symmetry_space_group_name_H-M "C 2/C"
_symmetry_group_IT_number 15
_symmetry_cell_setting 'monoclinic'
loop_
_space_group_symop_operation_xyz
x,y,z
-x,y,1/2-z
-x,-y,-z
x,-y,1/2+z
1/2+x,1/2+y,z
1/2-x,1/2+y,1/2-z
1/2-x,1/2-y,-z
1/2+x,1/2-y,1/2+z
loop_
_atom_site_type_symbol
_atom_site_label
_atom_site_fract_x
_atom_site_fract_y
_atom_site_fract_z
Si Si1 0.281976 0.096514 0.811910
Si Si2 0.349141 0.966395 0.062683
Si Si3 0.955905 0.337740 0.032484
Si Si4 0.632944 0.723608 0.779976
O O1 0.264643 0.061385 0.627440
O O2 0.416883 0.141306 0.948840
O O3 0.161593 0.147531 0.736856
O O4 0.279245 0.035028 0.934762
O O5 0.500000 0.984720 0.250000
O O6 0.356327 0.904128 0.942283
O O7 0.000000 0.317475 0.250000
O O8 0.880763 0.274603 0.880291
O O9 0.500000 0.718837 0.750000
O O10 0.750000 0.750000 0.000000
#
# Coordination Sequence:
#
# PCOD8141621 Si02
#       4
#     8   8   8   8
#     4  10  21  37  60  90 120 157 207 245 312 341
#     4   9  19  34  64  89 120 154 208 253 293 356
#     4   9  20  39  62  94 119 159 207 255 299 355
#     4  12  25  40  63  92 126 161 204 252 306 366
#
# _framework density 19.128260000000001
#
# number of rings (size 3 to 8) (size 9 to 14) (size 15 to 20)
#    0.000    2.500    2.500    3.000    7.000    4.000 
#    0.000    1.250    0.000    0.000    0.000    0.000 
#    0.000    0.000    0.000    0.000    0.000    0.000 
#
# Total GULP energy -198365.157741 kJ/mol
# GULP energy per Si atom -12397.822359 kJ/mol
# Density = 1.908472 g / cm^3
# Si number density = 19.128260 Si / 1000 Ang^3
#
#
#
# Elastic Constant Matrix: (Units=GPa)
#
#
# Indices 1 2 3 4 5 6 
#
# 1 98.9795 60.3506 44.4085 0.0000 -2.7499 0.0000
# 2 60.3506 172.1874 75.4667 0.0000 -6.0922 0.0000
# 3 44.4085 75.4667 82.9743 0.0000 -6.0316 0.0000
# 4 0.0000 0.0000 0.0000 50.9945 0.0000 1.8419
# 5 -2.7499 -6.0922 -6.0316 0.0000 16.7288 0.0000
# 6 0.0000 0.0000 0.0000 1.8419 0.0000 32.3625
#
#
#
# Elastic Compliance Matrix: (Units=1/GPa)
#
#
# Indices 1 2 3 4 5 6 
#
# 1 0.014017 -0.002705 -0.005079 0.000000 -0.000512 0.000000
# 2 -0.002705 0.010181 -0.007779 0.000000 0.000458 0.000000
# 3 -0.005079 -0.007779 0.022160 0.000000 0.004322 0.000000
# 4 0.000000 0.000000 0.000000 0.019650 0.000000 -0.001118
# 5 -0.000512 0.000458 0.004322 0.000000 0.061418 0.000000
# 6 0.000000 0.000000 0.000000 -0.001118 0.000000 0.030964
#
#
# Mechanical properties :
#
#
# Convention : Reuss Voigt Hill
#
# Bulk Modulus (GPa) = 65.65199 79.39920 72.52560
# Shear Modulus (GPa) = 25.69461 31.61153 28.65307
#
# Velocity S-wave (km/s) = 3.66905 4.06964 3.87453
# Velocity P-wave (km/s) = 7.23504 7.98007 7.61667
#
# Compressibility (1/GPa) = 0.01523183
#
# Stress axis : x y z
#
# Youngs Moduli (GPa) = 71.34240 98.21884 45.12698
#
# Poissons Ratio (x) = 0.26567 0.22920
# Poissons Ratio (y) = 0.19297 0.35105
# Poissons Ratio (z) = 0.36235 0.76406
#
# Static dielectric constant tensor:
#      x y z
#    x 3.570010 0.000000 -0.117010 
#    y 0.000000 3.671260 0.000000 
#    z -0.117010 0.000000 3.384990 
# 
# 
# High freq. dielectric constant tensor:
#      x y z
#    x 1.732580 0.000000 -0.031200 
#    y 0.000000 1.756950 0.000000 
#    z -0.031200 0.000000 1.716870 
# 
# From -- ./inp_files/28862.got.cif
#   From: 2010.06.25/outbox.cif.g09.slc.cpg/sg15_15_cif.got.tgz:28862.got - 2010.06.28 07:06:18.
