data_PCOD8141677
_publ_section_title
;
Structure prediction by ZEFSAII (Michael W. Deem and Ramdas Pophale) SiO2 
 PCOD8141677
Probable space group: C 2/C
;
_chemical_formula_sum "Si O2"
_cell_formula_units_Z 64
_cell_length_a 6.699019
_cell_length_b 17.969499
_cell_length_c 28.685897
_cell_angle_alpha 90.000000
_cell_angle_beta 75.786245
_cell_angle_gamma 90.000000
_cell_volume 3347.438059
_symmetry_space_group_name_H-M "C 2/C"
_symmetry_group_IT_number 15
_symmetry_cell_setting 'monoclinic'
loop_
_space_group_symop_operation_xyz
x,y,z
-x,y,1/2-z
-x,-y,-z
x,-y,1/2+z
1/2+x,1/2+y,z
1/2-x,1/2+y,1/2-z
1/2-x,1/2-y,-z
1/2+x,1/2-y,1/2+z
loop_
_atom_site_type_symbol
_atom_site_label
_atom_site_fract_x
_atom_site_fract_y
_atom_site_fract_z
Si Si1 0.152042 0.090381 0.378452
Si Si2 0.573572 0.577529 0.878342
Si Si3 0.468109 0.157885 0.868897
Si Si4 0.770388 0.666706 0.554373
Si Si5 0.007916 0.334813 0.694724
Si Si6 0.604745 0.668216 0.694070
Si Si7 0.626197 0.834640 0.554213
Si Si8 0.779527 0.814461 0.867178
O O1 0.349061 0.099928 0.333521
O O2 0.221372 0.109371 0.427153
O O3 0.990747 0.149329 0.369154
O O4 0.043455 0.010833 0.380838
O O5 0.815949 0.587819 0.874631
O O6 0.427707 0.614596 0.925649
O O7 0.515463 0.610650 0.831475
O O8 0.560923 0.158147 0.915204
O O9 0.651041 0.149480 0.820141
O O10 0.317354 0.226463 0.866634
O O11 0.704215 0.751575 0.556776
O O12 0.872969 0.641944 0.499871
O O13 0.093312 0.252941 0.675914
O O14 0.000000 0.346190 0.750000
O O15 0.785651 0.338893 0.681814
O O16 0.500000 0.661128 0.750000
O O17 0.395080 0.839988 0.586505
#
# Coordination Sequence:
#
# PCOD8141677 Si02
#       8
#     8   8   8   8   8   8   8   8
#     4  11  23  40  58  87 123 156 191 248 301 347
#     4  11  23  40  58  87 123 156 191 248 301 347
#     4  11  19  38  64  84 115 159 197 237 295 351
#     4  10  21  37  61  91 120 153 202 249 287 352
#     4  10  21  39  60  87 114 147 201 246 285 355
#     4  10  21  39  60  87 114 147 201 246 285 355
#     4  10  21  37  61  91 120 153 202 249 287 352
#     4  11  19  38  64  84 115 159 197 237 295 351
#
# _framework density 19.1191
#
# number of rings (size 3 to 8) (size 9 to 14) (size 15 to 20)
#    0.000    1.500    5.000    1.500    0.000    7.000 
#    4.500    1.250    0.000    0.000    0.000    0.000 
#    0.000    0.000    0.000    0.000    0.000    0.000 
#
# Total GULP energy -396775.252934 kJ/mol
# GULP energy per Si atom -12399.226654 kJ/mol
# Density = 1.907558 g / cm^3
# Si number density = 19.119100 Si / 1000 Ang^3
#
#
#
# Elastic Constant Matrix: (Units=GPa)
#
#
# Indices 1 2 3 4 5 6 
#
# 1 95.7863 1.5214 42.8728 0.0000 7.9487 0.0000
# 2 1.5214 69.4950 19.0291 0.0000 -3.8250 0.0000
# 3 42.8728 19.0291 141.0996 0.0000 -4.0892 0.0000
# 4 0.0000 0.0000 0.0000 -1.9446 0.0000 7.6591
# 5 7.9487 -3.8250 -4.0892 0.0000 13.3796 0.0000
# 6 0.0000 0.0000 0.0000 7.6591 0.0000 22.7625
#
#
#
# Elastic Compliance Matrix: (Units=1/GPa)
#
#
# Indices 1 2 3 4 5 6 
#
# 1 0.013101 0.000395 -0.004294 0.000000 -0.008983 0.000000
# 2 0.000395 0.015136 -0.002061 0.000000 0.003463 0.000000
# 3 -0.004294 -0.002061 0.008805 0.000000 0.004653 0.000000
# 4 0.000000 0.000000 0.000000 -0.221153 0.000000 0.074414
# 5 -0.008983 0.003463 0.004653 0.000000 0.082489 0.000000
# 6 0.000000 0.000000 0.000000 0.074414 0.000000 0.018893
#
#
# Mechanical properties :
#
#
# Convention : Reuss Voigt Hill
#
# Bulk Modulus (GPa) = 39.80777 48.13640 43.97209
# Shear Modulus (GPa) = -80.08350 23.03668 -28.52341
#
# Velocity S-wave (km/s) = -6.47901 3.47494 -3.86668
# Velocity P-wave (km/s) = 5.92486 6.42900 1.76467
#
# Compressibility (1/GPa) = 0.02512072
#
# Stress axis : x y z
#
# Youngs Moduli (GPa) = 76.32924 66.06871 113.57462
#
# Poissons Ratio (x) = -0.02607 0.48772
# Poissons Ratio (y) = -0.03012 0.23406
# Poissons Ratio (z) = 0.32778 0.13616
#
# Static dielectric constant tensor:
#      x y z
#    x 3.545620 0.000000 0.011680 
#    y 0.000000 3.299640 0.000000 
#    z 0.011680 0.000000 3.562240 
# 
# 
# High freq. dielectric constant tensor:
#      x y z
#    x 1.754420 0.000000 0.004160 
#    y 0.000000 1.726940 0.000000 
#    z 0.004160 0.000000 1.742430 
# 
# From -- ./inp_files/305796.got.cif
#   From: 2010.06.25/outbox.cif.g09.slc.cpg/sg15_153_cif.got.tgz:305796.got - 2010.06.28 07:06:18.
