data_PCOD8141126
_publ_section_title
;
Structure prediction by ZEFSAII (Michael W. Deem and Ramdas Pophale) SiO2 
 PCOD8141126
Probable space group: C 2/C
;
_chemical_formula_sum "Si O2"
_cell_formula_units_Z 48
_cell_length_a 9.678342
_cell_length_b 9.664348
_cell_length_c 22.770135
_cell_angle_alpha 90.000000
_cell_angle_beta 100.395231
_cell_angle_gamma 90.000000
_cell_volume 2094.843994
_symmetry_space_group_name_H-M "C 2/C"
_symmetry_group_IT_number 15
_symmetry_cell_setting 'monoclinic'
loop_
_space_group_symop_operation_xyz
x,y,z
-x,y,1/2-z
-x,-y,-z
x,-y,1/2+z
1/2+x,1/2+y,z
1/2-x,1/2+y,1/2-z
1/2-x,1/2-y,-z
1/2+x,1/2-y,1/2+z
loop_
_atom_site_type_symbol
_atom_site_label
_atom_site_fract_x
_atom_site_fract_y
_atom_site_fract_z
Si Si1 0.979470 0.811684 0.015624
Si Si2 0.165167 0.652067 0.765310
Si Si3 0.688313 0.940450 0.996791
Si Si4 0.855416 0.881993 0.580984
Si Si5 0.255069 0.396912 0.395515
Si Si6 0.356112 0.531769 0.209125
O O1 0.829317 0.859494 0.029107
O O2 0.091362 0.839670 0.075422
O O3 0.953748 0.645866 0.000614
O O4 0.021069 0.895595 0.959041
O O5 0.240670 0.572014 0.825456
O O6 0.237324 0.583350 0.713802
O O7 0.193367 0.816747 0.771690
O O8 0.000000 0.621249 0.750000
O O9 0.704793 0.080043 0.037894
O O10 0.703723 0.970696 0.928557
O O11 0.856622 0.723040 0.599063
O O12 0.883246 0.971762 0.641158
O O13 0.500000 0.485262 0.250000
#
# Coordination Sequence:
#
# PCOD8141126 Si02
#       6
#     8   8   8   8   8   8
#     4  10  21  36  57  92 125 157 201 248 311 374
#     4  10  24  45  64  94 128 166 221 273 317 380
#     4  10  21  35  58  93 123 160 198 250 311 372
#     4  10  21  37  59  85 123 160 203 253 310 376
#     4  10  21  37  61  83 123 160 200 258 308 375
#     4  10  24  42  67  93 124 174 218 267 324 377
#
# _framework density 22.913399999999999
#
# number of rings (size 3 to 8) (size 9 to 14) (size 15 to 20)
#    0.000    2.000    0.000    4.000    4.667   10.000 
#    3.000    0.000    0.000    0.000    0.000    0.000 
#    0.000    0.000    0.000    0.000    0.000    0.000 
#
# Total GULP energy -297481.620666 kJ/mol
# GULP energy per Si atom -12395.067528 kJ/mol
# Density = 2.286125 g / cm^3
# Si number density = 22.913400 Si / 1000 Ang^3
#
#
#
# Elastic Constant Matrix: (Units=GPa)
#
#
# Indices 1 2 3 4 5 6 
#
# 1 112.2558 23.9236 43.5672 0.0000 2.5269 0.0000
# 2 23.9236 62.5354 16.6748 0.0000 -5.9714 0.0000
# 3 43.5672 16.6748 114.8233 0.0000 2.7185 0.0000
# 4 0.0000 0.0000 0.0000 29.0577 0.0000 -5.7868
# 5 2.5269 -5.9714 2.7185 0.0000 26.2628 0.0000
# 6 0.0000 0.0000 0.0000 -5.7868 0.0000 39.1006
#
#
#
# Elastic Compliance Matrix: (Units=1/GPa)
#
#
# Indices 1 2 3 4 5 6 
#
# 1 0.011095 -0.003402 -0.003681 0.000000 -0.001460 0.000000
# 2 -0.003402 0.018118 -0.001449 0.000000 0.004597 0.000000
# 3 -0.003681 -0.001449 0.010341 0.000000 -0.001046 0.000000
# 4 0.000000 0.000000 0.000000 0.035459 0.000000 0.005248
# 5 -0.001460 0.004597 -0.001046 0.000000 0.039371 0.000000
# 6 0.000000 0.000000 0.000000 0.005248 0.000000 0.026352
#
#
# Mechanical properties :
#
#
# Convention : Reuss Voigt Hill
#
# Bulk Modulus (GPa) = 44.46646 50.88286 47.67466
# Shear Modulus (GPa) = 30.24869 32.58079 31.41474
#
# Velocity S-wave (km/s) = 3.63730 3.77491 3.70675
# Velocity P-wave (km/s) = 6.09002 6.42299 6.25872
#
# Compressibility (1/GPa) = 0.02248886
#
# Stress axis : x y z
#
# Youngs Moduli (GPa) = 90.13212 55.19417 96.70340
#
# Poissons Ratio (x) = 0.18779 0.35597
# Poissons Ratio (y) = 0.30666 0.14012
# Poissons Ratio (z) = 0.33178 0.07998
#
# Static dielectric constant tensor:
#      x y z
#    x 3.867030 0.000000 0.124870 
#    y 0.000000 4.524000 0.000000 
#    z 0.124870 0.000000 4.221040 
# 
# 
# High freq. dielectric constant tensor:
#      x y z
#    x 1.898540 0.000000 0.009160 
#    y 0.000000 1.911050 0.000000 
#    z 0.009160 0.000000 1.894850 
# 
# From -- ./inp_files/263238.got.cif
#   From: 2010.06.25/outbox.cif.g09.slc.cpg/sg15_132_cif.got.tgz:263238.got - 2010.06.28 07:06:18.
