data_PCOD8141775
_publ_section_title
;
Structure prediction by ZEFSAII (Michael W. Deem and Ramdas Pophale) SiO2 
 PCOD8141775
Probable space group: C 2/C
;
_chemical_formula_sum "Si O2"
_cell_formula_units_Z 40
_cell_length_a 15.912897
_cell_length_b 15.257919
_cell_length_c 13.390552
_cell_angle_alpha 90.000000
_cell_angle_beta 35.764398
_cell_angle_gamma 90.000000
_cell_volume 1900.172670
_symmetry_space_group_name_H-M "C 2/C"
_symmetry_group_IT_number 15
_symmetry_cell_setting 'monoclinic'
loop_
_space_group_symop_operation_xyz
x,y,z
-x,y,1/2-z
-x,-y,-z
x,-y,1/2+z
1/2+x,1/2+y,z
1/2-x,1/2+y,1/2-z
1/2-x,1/2-y,-z
1/2+x,1/2-y,1/2+z
loop_
_atom_site_type_symbol
_atom_site_label
_atom_site_fract_x
_atom_site_fract_y
_atom_site_fract_z
Si Si1 0.161682 0.613635 0.115765
Si Si2 0.962168 0.191468 0.478670
Si Si3 0.150906 0.044729 0.057567
Si Si4 0.884089 0.200838 0.774514
Si Si5 0.755140 0.686715 0.088884
O O1 0.159205 0.696713 0.192487
O O2 0.000000 0.580688 0.250000
O O3 0.255745 0.535945 0.075058
O O4 0.241364 0.643962 0.936211
O O5 0.879443 0.113916 0.500549
O O6 0.951075 0.169201 0.606033
O O7 0.895605 0.287273 0.516504
O O8 0.125264 0.200547 0.290249
O O9 0.247965 0.088157 0.052551
O O10 0.000000 0.011263 0.250000
O O11 0.000000 0.187652 0.750000
O O12 0.750000 0.750000 0.000000
#
# Coordination Sequence:
#
# PCOD8141775 Si02
#       5
#     8   8   8   8   8
#     4  10  22  39  62  84 124 162 199 251 302 343
#     4  10  21  37  64  92 119 162 206 243 310 360
#     4   9  19  40  60  91 123 157 196 250 309 364
#     4  10  23  42  61  84 124 165 208 243 294 372
#     4   9  19  36  62  90 122 155 197 251 305 360
#
# _framework density 21.050718
#
# number of rings (size 3 to 8) (size 9 to 14) (size 15 to 20)
#    0.000    2.400    0.000    2.400    8.400    4.000 
#    3.600    4.000    0.000    0.000    0.000    0.000 
#    0.000    0.000    0.000    0.000    0.000    0.000 
#
# Total GULP energy -247876.737852 kJ/mol
# GULP energy per Si atom -12393.836893 kJ/mol
# Density = 2.100281 g / cm^3
# Si number density = 21.050718 Si / 1000 Ang^3
#
#
#
# Elastic Constant Matrix: (Units=GPa)
#
#
# Indices 1 2 3 4 5 6 
#
# 1 73.8183 21.7653 35.8833 0.0000 14.0672 0.0000
# 2 21.7653 84.8875 35.1170 0.0000 -12.5697 0.0000
# 3 35.8833 35.1170 123.0567 -0.0001 20.2016 0.0001
# 4 0.0000 0.0000 -0.0001 33.7651 0.0001 -11.6570
# 5 14.0672 -12.5697 20.2016 0.0001 35.1610 -0.0001
# 6 0.0000 0.0000 0.0001 -11.6570 -0.0001 15.3228
#
#
#
# Elastic Compliance Matrix: (Units=1/GPa)
#
#
# Indices 1 2 3 4 5 6 
#
# 1 0.017495 -0.004416 -0.002687 0.000000 -0.007035 0.000000
# 2 -0.004416 0.016664 -0.005229 0.000000 0.010729 0.000000
# 3 -0.002687 -0.005229 0.011629 0.000000 -0.007476 0.000000
# 4 0.000000 0.000000 0.000000 0.040166 0.000000 0.030556
# 5 -0.007035 0.010729 -0.007476 0.000000 0.039386 0.000000
# 6 0.000000 0.000000 0.000000 0.030556 0.000000 0.088508
#
#
# Mechanical properties :
#
#
# Convention : Reuss Voigt Hill
#
# Bulk Modulus (GPa) = 47.33595 51.92152 49.62874
# Shear Modulus (GPa) = 20.36209 29.44957 24.90583
#
# Velocity S-wave (km/s) = 3.11350 3.74435 3.44340
# Velocity P-wave (km/s) = 5.95488 6.58879 6.27984
#
# Compressibility (1/GPa) = 0.02112559
#
# Stress axis : x y z
#
# Youngs Moduli (GPa) = 57.15794 60.00798 85.98986
#
# Poissons Ratio (x) = 0.26500 0.23102
# Poissons Ratio (y) = 0.25242 0.44965
# Poissons Ratio (z) = 0.15356 0.31379
#
# Static dielectric constant tensor:
#      x y z
#    x 3.580920 0.000000 -0.091910 
#    y 0.000000 4.249970 0.000000 
#    z -0.091910 0.000000 3.963290 
# 
# 
# High freq. dielectric constant tensor:
#      x y z
#    x 1.797340 0.000000 -0.007700 
#    y 0.000000 1.818850 0.000000 
#    z -0.007700 0.000000 1.835710 
# 
# From -- ./inp_files/162883.got.cif
#   From: 2010.06.25/outbox.cif.g09.slc.cpg/sg15_82_cif.got.tgz:162883.got - 2010.06.28 07:06:18.
