data_PCOD8141439
_publ_section_title
;
Structure prediction by ZEFSAII (Michael W. Deem and Ramdas Pophale) SiO2 
 PCOD8141439
Probable space group: C 2/C
;
_chemical_formula_sum "Si O2"
_cell_formula_units_Z 52
_cell_length_a 12.118848
_cell_length_b 18.998105
_cell_length_c 19.461772
_cell_angle_alpha 90.000000
_cell_angle_beta 34.640009
_cell_angle_gamma 90.000000
_cell_volume 2546.960005
_symmetry_space_group_name_H-M "C 2/C"
_symmetry_group_IT_number 15
_symmetry_cell_setting 'monoclinic'
loop_
_space_group_symop_operation_xyz
x,y,z
-x,y,1/2-z
-x,-y,-z
x,-y,1/2+z
1/2+x,1/2+y,z
1/2-x,1/2+y,1/2-z
1/2-x,1/2-y,-z
1/2+x,1/2-y,1/2+z
loop_
_atom_site_type_symbol
_atom_site_label
_atom_site_fract_x
_atom_site_fract_y
_atom_site_fract_z
Si Si1 0.598007 0.001575 0.769334
Si Si2 0.441375 0.421604 0.547682
Si Si3 0.665851 0.003981 0.470931
Si Si4 0.860212 0.132686 0.678345
Si Si5 0.173573 0.140328 0.053463
Si Si6 0.522533 0.777176 0.314780
Si Si7 0.500000 0.404077 0.250000
O O1 0.500000 0.030415 0.750000
O O2 0.724672 0.063550 0.739027
O O3 0.722754 0.929907 0.689927
O O4 0.424152 0.981878 0.909714
O O5 0.500000 0.500000 0.500000
O O6 0.462008 0.373787 0.467981
O O7 0.592359 0.392616 0.525453
O O8 0.770825 0.080082 0.420453
O O9 0.500000 0.000000 0.500000
O O10 0.827777 0.949676 0.367758
O O11 0.739957 0.204118 0.727209
O O12 0.931932 0.141866 0.719814
O O13 0.009509 0.192947 0.166910
O O14 0.370404 0.183534 0.941296
O O15 0.500000 0.806282 0.250000
#
# Coordination Sequence:
#
# PCOD8141439 Si02
#       7
#     8   8   8   8   8   8   4
#     4  11  20  36  60  90 124 163 209 271 331 390
#     4  10  21  36  64  92 126 164 214 273 331 389
#     4  12  23  38  58  97 138 162 208 278 344 396
#     4  11  20  39  60  91 124 171 216 266 325 393
#     4  11  23  38  61  95 126 169 221 261 327 392
#     4  11  22  39  63  88 127 172 217 272 311 382
#     4  12  24  38  62  92 132 172 210 268 352 392
#
# _framework density 20.416498000000001
#
# number of rings (size 3 to 8) (size 9 to 14) (size 15 to 20)
#    0.000    0.923    4.615    5.077    1.077    0.000 
#    0.000    0.000    1.692    0.923    0.000    0.000 
#    0.000    0.000    0.000    0.000    0.000    0.000 
#
# Total GULP energy -322307.362371 kJ/mol
# GULP energy per Si atom -12396.437014 kJ/mol
# Density = 2.037003 g / cm^3
# Si number density = 20.416498 Si / 1000 Ang^3
#
#
#
# Elastic Constant Matrix: (Units=GPa)
#
#
# Indices 1 2 3 4 5 6 
#
# 1 148.1195 43.2784 34.6301 -0.0513 17.4420 0.0100
# 2 43.2784 80.6347 35.4076 -0.0958 -4.6444 0.0329
# 3 34.6301 35.4076 115.0761 -0.1637 -3.1977 0.0416
# 4 -0.0513 -0.0958 -0.1637 27.2206 0.0481 -11.1715
# 5 17.4420 -4.6444 -3.1977 0.0481 30.8970 -0.0090
# 6 0.0100 0.0329 0.0416 -11.1715 -0.0090 22.0737
#
#
#
# Elastic Compliance Matrix: (Units=1/GPa)
#
#
# Indices 1 2 3 4 5 6 
#
# 1 0.009156 -0.004599 -0.001507 0.000005 -0.006016 0.000006
# 2 -0.004599 0.016739 -0.003635 0.000018 0.004736 -0.000005
# 3 -0.001507 -0.003635 0.010300 0.000049 0.001371 0.000012
# 4 0.000005 0.000018 0.000049 0.046368 -0.000060 0.023467
# 5 -0.006016 0.004736 0.001371 -0.000060 0.036616 -0.000023
# 6 0.000006 -0.000005 0.000012 0.023467 -0.000023 0.057179
#
#
# Mechanical properties :
#
#
# Convention : Reuss Voigt Hill
#
# Bulk Modulus (GPa) = 59.83472 63.38472 61.60972
# Shear Modulus (GPa) = 24.82493 31.40588 28.11541
#
# Velocity S-wave (km/s) = 3.49079 3.92632 3.71495
# Velocity P-wave (km/s) = 6.75412 7.18804 6.97446
#
# Compressibility (1/GPa) = 0.01671271
#
# Stress axis : x y z
#
# Youngs Moduli (GPa) = 109.21987 59.74182 97.08659
#
# Poissons Ratio (x) = 0.27473 0.14636
# Poissons Ratio (y) = 0.50227 0.35289
# Poissons Ratio (z) = 0.16465 0.21715
#
# Static dielectric constant tensor:
#      x y z
#    x 3.951230 -0.000050 0.075100 
#    y -0.000050 3.642920 0.000200 
#    z 0.075100 0.000200 4.386020 
# 
# 
# High freq. dielectric constant tensor:
#      x y z
#    x 1.798440 0.000000 0.006160 
#    y 0.000000 1.759380 0.000010 
#    z 0.006160 0.000010 1.813870 
# 
# From -- ./inp_files/200318.got.cif
#   From: 2010.06.25/outbox.cif.g09.slc.cpg/sg15_101_cif.got.tgz:200318.got - 2010.06.28 07:06:18.
