data_PCOD8141417
_publ_section_title
;
Structure prediction by ZEFSAII (Michael W. Deem and Ramdas Pophale) SiO2 
 PCOD8141417
Probable space group: C 2/C
;
_chemical_formula_sum "Si O2"
_cell_formula_units_Z 52
_cell_length_a 21.284008
_cell_length_b 27.801323
_cell_length_c 8.478300
_cell_angle_alpha 90.000000
_cell_angle_beta 150.036158
_cell_angle_gamma 90.000000
_cell_volume 2505.662693
_symmetry_space_group_name_H-M "C 2/C"
_symmetry_group_IT_number 15
_symmetry_cell_setting 'monoclinic'
loop_
_space_group_symop_operation_xyz
x,y,z
-x,y,1/2-z
-x,-y,-z
x,-y,1/2+z
1/2+x,1/2+y,z
1/2-x,1/2+y,1/2-z
1/2-x,1/2-y,-z
1/2+x,1/2-y,1/2+z
loop_
_atom_site_type_symbol
_atom_site_label
_atom_site_fract_x
_atom_site_fract_y
_atom_site_fract_z
Si Si1 0.000000 0.375809 0.750000
Si Si2 0.238234 0.263610 0.735808
Si Si3 0.753622 0.932962 0.262077
Si Si4 0.500000 0.973347 0.250000
Si Si5 0.934568 0.214817 0.907863
Si Si6 0.000000 0.129725 0.250000
Si Si7 0.613976 0.205786 0.674562
Si Si8 0.178170 0.521379 0.889282
O O1 0.879502 0.405783 0.544823
O O2 0.964509 0.342635 0.522262
O O3 0.110423 0.241863 0.530770
O O4 0.310358 0.217085 0.821609
O O5 0.204525 0.301044 0.522502
O O6 0.314335 0.293048 0.032744
O O7 0.873629 0.901565 0.478012
O O8 0.775285 0.947679 0.494798
O O9 0.749458 0.977681 0.130647
O O10 0.397838 0.946388 0.141609
O O11 0.576910 0.006983 0.536127
O O12 0.993013 0.163068 0.078442
O O13 0.031916 0.246716 0.023750
#
# Coordination Sequence:
#
# PCOD8141417 Si02
#       8
#     4   8   8   4   8   4   8   8
#     4  12  23  38  68 106 128 160 234 268 312 374
#     4  10  21  36  63  85 127 193 215 248 318 383
#     4  11  25  43  70  94 127 169 214 287 322 409
#     4   8  13  30  70  95 118 154 196 249 312 438
#     4  11  21  40  62  88 131 185 213 259 320 379
#     4  12  26  42  66  97 132 172 234 267 316 380
#     4  11  21  37  62  94 132 180 212 265 309 386
#     4   9  18  39  67  94 126 165 205 256 373 385
#
# _framework density 20.752993
#
# number of rings (size 3 to 8) (size 9 to 14) (size 15 to 20)
#    0.000    1.538    3.077    3.692    4.308    0.615 
#    0.000    4.615    3.385    0.000    0.000    0.000 
#    0.000    0.000    0.000    0.000    0.000    0.000 
#
# Total GULP energy -322092.595597 kJ/mol
# GULP energy per Si atom -12388.176754 kJ/mol
# Density = 2.070576 g / cm^3
# Si number density = 20.752993 Si / 1000 Ang^3
#
#
#
# Elastic Constant Matrix: (Units=GPa)
#
#
# Indices 1 2 3 4 5 6 
#
# 1 89.0910 22.7054 31.5494 0.0000 -7.0146 0.0000
# 2 22.7054 80.3382 40.0566 0.0000 0.8338 0.0000
# 3 31.5494 40.0566 86.7003 0.0000 6.6483 0.0000
# 4 0.0000 0.0000 0.0000 22.7283 0.0000 -9.2707
# 5 -7.0146 0.8338 6.6483 0.0000 37.3516 0.0000
# 6 0.0000 0.0000 0.0000 -9.2707 0.0000 30.2451
#
#
#
# Elastic Compliance Matrix: (Units=1/GPa)
#
#
# Indices 1 2 3 4 5 6 
#
# 1 0.013465 -0.001649 -0.004394 0.000000 0.003348 0.000000
# 2 -0.001649 0.016411 -0.007026 0.000000 0.000575 0.000000
# 3 -0.004394 -0.007026 0.016658 0.000000 -0.003633 0.000000
# 4 0.000000 0.000000 0.000000 0.050285 0.000000 0.015413
# 5 0.003348 0.000575 -0.003633 0.000000 0.028035 0.000000
# 6 0.000000 0.000000 0.000000 0.015413 0.000000 0.037788
#
#
# Mechanical properties :
#
#
# Convention : Reuss Voigt Hill
#
# Bulk Modulus (GPa) = 49.03377 49.41693 49.22535
# Shear Modulus (GPa) = 25.56533 28.85287 27.20910
#
# Velocity S-wave (km/s) = 3.51363 3.73272 3.62483
# Velocity P-wave (km/s) = 6.33557 6.51469 6.42575
#
# Compressibility (1/GPa) = 0.02039411
#
# Stress axis : x y z
#
# Youngs Moduli (GPa) = 74.26935 60.93629 60.03221
#
# Poissons Ratio (x) = 0.10049 0.26381
# Poissons Ratio (y) = 0.12247 0.42178
# Poissons Ratio (z) = 0.32637 0.42813
#
# Static dielectric constant tensor:
#      x y z
#    x 4.357440 0.000000 -0.168920 
#    y 0.000000 3.507920 0.000000 
#    z -0.168920 0.000000 4.006380 
# 
# 
# High freq. dielectric constant tensor:
#      x y z
#    x 1.829060 0.000000 -0.005930 
#    y 0.000000 1.767190 0.000000 
#    z -0.005930 0.000000 1.821550 
# 
# From -- ./inp_files/59340.got.cif
#   From: 2010.06.25/outbox.cif.g09.slc.cpg/sg15_30_cif.got.tgz:59340.got - 2010.06.28 07:06:18.
