data_PCOD8141206
_publ_section_title
;
Structure prediction by ZEFSAII (Michael W. Deem and Ramdas Pophale) SiO2 
 PCOD8141206
Probable space group: C 2/C
;
_chemical_formula_sum "Si O2"
_cell_formula_units_Z 48
_cell_length_a 30.051568
_cell_length_b 15.073711
_cell_length_c 9.581079
_cell_angle_alpha 90.000000
_cell_angle_beta 142.823937
_cell_angle_gamma 90.000000
_cell_volume 2622.588235
_symmetry_space_group_name_H-M "C 2/C"
_symmetry_group_IT_number 15
_symmetry_cell_setting 'monoclinic'
loop_
_space_group_symop_operation_xyz
x,y,z
-x,y,1/2-z
-x,-y,-z
x,-y,1/2+z
1/2+x,1/2+y,z
1/2-x,1/2+y,1/2-z
1/2-x,1/2-y,-z
1/2+x,1/2-y,1/2+z
loop_
_atom_site_type_symbol
_atom_site_label
_atom_site_fract_x
_atom_site_fract_y
_atom_site_fract_z
Si Si1 0.228386 0.497846 0.402353
Si Si2 0.762064 0.674225 0.421267
Si Si3 0.915711 0.354406 0.167869
Si Si4 0.201277 0.817653 0.469924
Si Si5 0.425512 0.802123 0.884940
Si Si6 0.871148 0.461835 0.603588
O O1 0.267279 0.416042 0.579179
O O2 0.285668 0.579719 0.537019
O O3 0.157496 0.526179 0.311438
O O4 0.198544 0.467614 0.175754
O O5 0.750000 0.750000 0.500000
O O6 0.848444 0.669167 0.600455
O O7 0.717048 0.696574 0.171422
O O8 0.930892 0.460698 0.220117
O O9 0.985999 0.294965 0.386138
O O10 0.894018 0.338699 0.953279
O O11 0.250000 0.750000 0.500000
O O12 0.114629 0.792809 0.235675
O O13 0.408079 0.864814 0.706247
#
# Coordination Sequence:
#
# PCOD8141206 Si02
#       6
#     8   8   8   8   8   8
#     4  11  21  34  58  84 118 150 198 235 283 345
#     4  11  23  38  59  89 117 150 197 248 291 344
#     4  10  21  36  52  90 117 154 194 228 301 357
#     4  12  20  38  57  85 116 158 198 232 286 353
#     4  11  21  34  60  82 122 157 188 240 287 360
#     4  11  17  36  52  85 118 154 184 233 291 346
#
# _framework density 18.302530000000001
#
# number of rings (size 3 to 8) (size 9 to 14) (size 15 to 20)
#    0.000    1.000    8.333    1.500    0.000    0.000 
#    0.000    4.167    0.000    1.000    0.000    0.000 
#    0.000    0.000    0.000    0.000    0.000    0.000 
#
# Total GULP energy -297383.414744 kJ/mol
# GULP energy per Si atom -12390.975614 kJ/mol
# Density = 1.826087 g / cm^3
# Si number density = 18.302530 Si / 1000 Ang^3
#
#
#
# Elastic Constant Matrix: (Units=GPa)
#
#
# Indices 1 2 3 4 5 6 
#
# 1 74.7324 51.8671 38.3799 0.0000 -6.9917 0.0000
# 2 51.8671 111.5562 68.1435 0.0000 -3.2404 0.0000
# 3 38.3799 68.1435 109.1314 0.0000 -3.9481 0.0000
# 4 0.0000 0.0000 0.0000 35.8879 0.0000 -0.8208
# 5 -6.9917 -3.2404 -3.9481 0.0000 28.4571 0.0000
# 6 0.0000 0.0000 0.0000 -0.8208 0.0000 30.9092
#
#
#
# Elastic Compliance Matrix: (Units=1/GPa)
#
#
# Indices 1 2 3 4 5 6 
#
# 1 0.020423 -0.008215 -0.001915 0.000000 0.003817 0.000000
# 2 -0.008215 0.017800 -0.008267 0.000000 -0.001138 0.000000
# 3 -0.001915 -0.008267 0.015023 0.000000 0.000672 0.000000
# 4 0.000000 0.000000 0.000000 0.027881 0.000000 0.000740
# 5 0.003817 -0.001138 0.000672 0.000000 0.036042 0.000000
# 6 0.000000 0.000000 0.000000 0.000740 0.000000 0.032372
#
#
# Mechanical properties :
#
#
# Convention : Reuss Voigt Hill
#
# Bulk Modulus (GPa) = 60.77951 68.02234 64.40092
# Shear Modulus (GPa) = 26.06608 28.18614 27.12611
#
# Velocity S-wave (km/s) = 3.77792 3.92856 3.85398
# Velocity P-wave (km/s) = 7.23261 7.60423 7.42075
#
# Compressibility (1/GPa) = 0.01645291
#
# Stress axis : x y z
#
# Youngs Moduli (GPa) = 48.96426 56.17872 66.56456
#
# Poissons Ratio (x) = 0.46151 0.12746
# Poissons Ratio (y) = 0.40224 0.55028
# Poissons Ratio (z) = 0.09376 0.46443
#
# Static dielectric constant tensor:
#      x y z
#    x 3.365210 0.000000 -0.427120 
#    y 0.000000 3.513130 0.000000 
#    z -0.427120 0.000000 4.128410 
# 
# 
# High freq. dielectric constant tensor:
#      x y z
#    x 1.697140 0.000000 -0.028460 
#    y 0.000000 1.697960 0.000000 
#    z -0.028460 0.000000 1.704160 
# 
# From -- ./inp_files/70012.got.cif
#   From: 2010.06.25/outbox.cif.g09.slc.cpg/sg15_36_cif.got.tgz:70012.got - 2010.06.28 07:06:18.
