data_PCOD8141097
_publ_section_title
;
Structure prediction by ZEFSAII (Michael W. Deem and Ramdas Pophale) SiO2 
 PCOD8141097
Probable space group: C 2/C
;
_chemical_formula_sum "Si O2"
_cell_formula_units_Z 60
_cell_length_a 24.030473
_cell_length_b 14.269195
_cell_length_c 8.147359
_cell_angle_alpha 90.000000
_cell_angle_beta 95.049815
_cell_angle_gamma 90.000000
_cell_volume 2782.849188
_symmetry_space_group_name_H-M "C 2/C"
_symmetry_group_IT_number 15
_symmetry_cell_setting 'monoclinic'
loop_
_space_group_symop_operation_xyz
x,y,z
-x,y,1/2-z
-x,-y,-z
x,-y,1/2+z
1/2+x,1/2+y,z
1/2-x,1/2+y,1/2-z
1/2-x,1/2-y,-z
1/2+x,1/2-y,1/2+z
loop_
_atom_site_type_symbol
_atom_site_label
_atom_site_fract_x
_atom_site_fract_y
_atom_site_fract_z
Si Si1 0.301362 0.637437 0.339573
Si Si2 0.364059 0.313535 0.383264
Si Si3 0.169893 0.639376 0.292430
Si Si4 0.516200 0.397326 0.064405
Si Si5 0.165901 0.455254 0.129935
Si Si6 0.500000 0.278829 0.750000
Si Si7 0.123420 0.286199 0.289357
Si Si8 0.295309 0.548139 0.679349
O O1 0.235907 0.666967 0.316832
O O2 0.343548 0.725413 0.340823
O O3 0.317015 0.586883 0.513495
O O4 0.314713 0.560392 0.202079
O O5 0.365820 0.234724 0.238584
O O6 0.418700 0.375438 0.423959
O O7 0.348177 0.252452 0.537888
O O8 0.317021 0.389263 0.334995
O O9 0.153493 0.566327 0.142417
O O10 0.149738 0.585104 0.449251
O O11 0.500000 0.377951 0.250000
O O12 0.500000 0.500000 0.000000
O O13 0.487584 0.334551 0.916115
O O14 0.134082 0.395476 0.261008
O O15 0.230214 0.443062 0.185788
O O16 0.443597 0.219744 0.716839
#
# Coordination Sequence:
#
# PCOD8141097 Si02
#       8
#     8   8   8   8   8   4   8   8
#     4  10  21  35  59  86 133 163 202 255 316 375
#     4  11  24  37  60  88 123 158 217 251 313 382
#     4  10  21  39  59  96 120 162 207 249 319 396
#     4  11  25  43  66  89 125 168 206 267 316 372
#     4  10  21  38  64  86 131 163 200 263 318 368
#     4  10  26  44  60  94 124 162 232 254 318 374
#     4  11  23  40  61  85 122 169 203 272 307 365
#     4  10  21  35  56  97 123 165 208 247 314 399
#
# _framework density 21.560637
#
# number of rings (size 3 to 8) (size 9 to 14) (size 15 to 20)
#    0.000    1.600    0.667    3.200    5.600    6.400 
#    0.000    0.000    1.467    2.400    0.000    0.000 
#    0.000    0.000    0.000    0.000    0.000    0.000 
#
# Total GULP energy -371755.867612 kJ/mol
# GULP energy per Si atom -12391.862254 kJ/mol
# Density = 2.151156 g / cm^3
# Si number density = 21.560637 Si / 1000 Ang^3
#
#
#
# Elastic Constant Matrix: (Units=GPa)
#
#
# Indices 1 2 3 4 5 6 
#
# 1 39.9759 25.7349 9.3031 0.0000 -1.9265 0.0000
# 2 25.7349 84.3944 -0.9718 0.0000 9.7515 0.0000
# 3 9.3031 -0.9718 73.6020 0.0000 2.4379 0.0000
# 4 0.0000 0.0000 0.0000 31.5740 0.0000 -2.6725
# 5 -1.9265 9.7515 2.4379 0.0000 28.7681 0.0000
# 6 0.0000 0.0000 0.0000 -2.6725 0.0000 24.4806
#
#
#
# Elastic Compliance Matrix: (Units=1/GPa)
#
#
# Indices 1 2 3 4 5 6 
#
# 1 0.033465 -0.010992 -0.004585 0.000000 0.006355 0.000000
# 2 -0.010992 0.015949 0.001808 0.000000 -0.006296 0.000000
# 3 -0.004585 0.001808 0.014261 0.000000 -0.002129 0.000000
# 4 0.000000 0.000000 0.000000 0.031967 0.000000 0.003490
# 5 0.006355 -0.006296 -0.002129 0.000000 0.037501 0.000000
# 6 0.000000 0.000000 0.000000 0.003490 0.000000 0.041230
#
#
# Mechanical properties :
#
#
# Convention : Reuss Voigt Hill
#
# Bulk Modulus (GPa) = 27.67264 29.56718 28.61991
# Shear Modulus (GPa) = 23.36944 27.89162 25.63053
#
# Velocity S-wave (km/s) = 3.29583 3.60062 3.45159
# Velocity P-wave (km/s) = 5.22934 5.57039 5.40255
#
# Compressibility (1/GPa) = 0.03613678
#
# Stress axis : x y z
#
# Youngs Moduli (GPa) = 29.88238 62.69921 70.12343
#
# Poissons Ratio (x) = 0.68917 0.32155
# Poissons Ratio (y) = 0.32846 -0.12681
# Poissons Ratio (z) = 0.13703 -0.11339
#
# Static dielectric constant tensor:
#      x y z
#    x 3.539480 0.000000 -0.023950 
#    y 0.000000 4.119890 0.000000 
#    z -0.023950 0.000000 4.459330 
# 
# 
# High freq. dielectric constant tensor:
#      x y z
#    x 1.809480 0.000000 0.002920 
#    y 0.000000 1.853990 0.000000 
#    z 0.002920 0.000000 1.866490 
# 
# From -- ./inp_files/61556.got.cif
#   From: 2010.06.25/outbox.cif.g09.slc.cpg/sg15_31_cif.got.tgz:61556.got - 2010.06.28 07:06:18.
