data_PCOD8141352
_publ_section_title
;
Structure prediction by ZEFSAII (Michael W. Deem and Ramdas Pophale) SiO2 
 PCOD8141352
Probable space group: C 2/C
;
_chemical_formula_sum "Si O2"
_cell_formula_units_Z 56
_cell_length_a 10.384418
_cell_length_b 23.393788
_cell_length_c 12.112418
_cell_angle_alpha 90.000000
_cell_angle_beta 108.098185
_cell_angle_gamma 90.000000
_cell_volume 2796.902754
_symmetry_space_group_name_H-M "C 2/C"
_symmetry_group_IT_number 15
_symmetry_cell_setting 'monoclinic'
loop_
_space_group_symop_operation_xyz
x,y,z
-x,y,1/2-z
-x,-y,-z
x,-y,1/2+z
1/2+x,1/2+y,z
1/2-x,1/2+y,1/2-z
1/2-x,1/2-y,-z
1/2+x,1/2-y,1/2+z
loop_
_atom_site_type_symbol
_atom_site_label
_atom_site_fract_x
_atom_site_fract_y
_atom_site_fract_z
Si Si1 0.174247 0.032126 0.551671
Si Si2 0.846261 0.397390 0.240564
Si Si3 0.476986 0.162175 0.068647
Si Si4 0.777942 0.670289 0.208816
Si Si5 0.398506 0.217814 0.823226
Si Si6 0.427719 0.434432 0.847312
Si Si7 0.126201 0.458922 0.036369
O O1 0.272743 0.083802 0.609688
O O2 0.043655 0.065570 0.471909
O O3 0.142891 0.996077 0.654786
O O4 0.243614 0.988646 0.484218
O O5 0.795877 0.335295 0.269918
O O6 0.828486 0.446285 0.327085
O O7 0.000000 0.387643 0.250000
O O8 0.373594 0.185918 0.131754
O O9 0.630502 0.160645 0.157189
O O10 0.475059 0.202028 0.958907
O O11 0.424118 0.098280 0.035453
O O12 0.683892 0.724692 0.192873
O O13 0.682232 0.615311 0.163928
O O14 0.500000 0.227723 0.750000
O O15 0.500000 0.428303 0.750000
O O16 0.000000 0.500000 0.000000
#
# Coordination Sequence:
#
# PCOD8141352 Si02
#       7
#     8   8   8   8   8   8   8
#     4  11  23  40  59  90 130 163 200 257 316 377
#     4  10  21  36  60  91 121 157 204 253 310 371
#     4  10  24  41  67  94 122 164 219 262 312 376
#     4  11  23  43  66  91 123 169 214 264 313 374
#     4  10  23  42  61  93 126 160 208 263 319 376
#     4  11  25  39  60  89 126 164 209 252 314 383
#     4  11  21  36  65  94 123 162 202 257 311 373
#
# _framework density 20.022148999999999
#
# number of rings (size 3 to 8) (size 9 to 14) (size 15 to 20)
#    0.000    1.429    2.857    1.714    4.000    1.714 
#    0.000    0.000    0.000    0.000    0.000    0.000 
#    0.000    0.000    0.000    0.000    0.000    0.000 
#
# Total GULP energy -347025.281388 kJ/mol
# GULP energy per Si atom -12393.760050 kJ/mol
# Density = 1.997658 g / cm^3
# Si number density = 20.022149 Si / 1000 Ang^3
#
#
#
# Elastic Constant Matrix: (Units=GPa)
#
#
# Indices 1 2 3 4 5 6 
#
# 1 91.3868 41.0237 49.1146 0.0000 9.5592 0.0000
# 2 41.0237 97.5524 68.6860 0.0000 23.6126 0.0000
# 3 49.1146 68.6860 110.6202 0.0000 7.2671 0.0000
# 4 0.0000 0.0000 0.0000 27.5568 0.0000 4.5014
# 5 9.5592 23.6126 7.2671 0.0000 37.6711 0.0000
# 6 0.0000 0.0000 0.0000 4.5014 0.0000 47.9296
#
#
#
# Elastic Compliance Matrix: (Units=1/GPa)
#
#
# Indices 1 2 3 4 5 6 
#
# 1 0.014853 -0.002396 -0.005021 0.000000 -0.001298 0.000000
# 2 -0.002396 0.022562 -0.012211 0.000000 -0.011178 0.000000
# 3 -0.005021 -0.012211 0.018499 0.000000 0.005359 0.000000
# 4 0.000000 0.000000 0.000000 0.036854 0.000000 -0.003461
# 5 -0.001298 -0.011178 0.005359 0.000000 0.032848 0.000000
# 6 0.000000 0.000000 0.000000 -0.003461 0.000000 0.021189
#
#
# Mechanical properties :
#
#
# Convention : Reuss Voigt Hill
#
# Bulk Modulus (GPa) = 60.03492 68.57868 64.30680
# Shear Modulus (GPa) = 26.09420 32.01385 29.05402
#
# Velocity S-wave (km/s) = 3.61400 4.00299 3.81346
# Velocity P-wave (km/s) = 6.88941 7.46264 7.18175
#
# Compressibility (1/GPa) = 0.01665697
#
# Stress axis : x y z
#
# Youngs Moduli (GPa) = 67.32821 44.32261 54.05651
#
# Poissons Ratio (x) = 0.10621 0.27143
# Poissons Ratio (y) = 0.16134 0.66007
# Poissons Ratio (z) = 0.33807 0.54121
#
# Static dielectric constant tensor:
#      x y z
#    x 3.719410 0.000000 -0.117070 
#    y 0.000000 4.011020 0.000000 
#    z -0.117070 0.000000 3.827440 
# 
# 
# High freq. dielectric constant tensor:
#      x y z
#    x 1.784160 0.000000 -0.006650 
#    y 0.000000 1.785230 0.000000 
#    z -0.006650 0.000000 1.788290 
# 
# From -- ./inp_files/90926.got.cif
#   From: 2010.06.25/outbox.cif.g09.slc.cpg/sg15_46_cif.got.tgz:90926.got - 2010.06.28 07:06:18.
