data_PCOD8141942
_publ_section_title
;
Structure prediction by ZEFSAII (Michael W. Deem and Ramdas Pophale) SiO2 
 PCOD8141942
Probable space group: C 2/C
;
_chemical_formula_sum "Si O2"
_cell_formula_units_Z 56
_cell_length_a 24.003580
_cell_length_b 23.700263
_cell_length_c 5.129252
_cell_angle_alpha 90.000000
_cell_angle_beta 71.273221
_cell_angle_gamma 90.000000
_cell_volume 2763.508880
_symmetry_space_group_name_H-M "C 2/C"
_symmetry_group_IT_number 15
_symmetry_cell_setting 'monoclinic'
loop_
_space_group_symop_operation_xyz
x,y,z
-x,y,1/2-z
-x,-y,-z
x,-y,1/2+z
1/2+x,1/2+y,z
1/2-x,1/2+y,1/2-z
1/2-x,1/2-y,-z
1/2+x,1/2-y,1/2+z
loop_
_atom_site_type_symbol
_atom_site_label
_atom_site_fract_x
_atom_site_fract_y
_atom_site_fract_z
Si Si1 0.565732 0.974306 0.380536
Si Si2 0.131779 0.630593 0.695932
Si Si3 0.668762 0.805841 0.648811
Si Si4 0.773503 0.535068 0.032955
Si Si5 0.166887 0.111743 0.143122
Si Si6 0.567696 0.464759 0.638360
Si Si7 0.195230 0.821861 0.096359
O O1 0.571322 0.906707 0.325782
O O2 0.500000 0.000000 0.500000
O O3 0.598915 0.992709 0.595615
O O4 0.129196 0.669259 0.443000
O O5 0.183989 0.586277 0.597357
O O6 0.141497 0.670958 0.924701
O O7 0.736671 0.821798 0.592621
O O8 0.664099 0.738669 0.645770
O O9 0.784014 0.515243 0.312678
O O10 0.707006 0.556316 0.101307
O O11 0.102944 0.092388 0.143316
O O12 0.161323 0.140756 0.434168
O O13 0.192626 0.154864 0.892482
O O14 0.500000 0.447192 0.750000
O O15 0.583682 0.487974 0.329083
#
# Coordination Sequence:
#
# PCOD8141942 Si02
#       7
#     8   8   8   8   8   8   8
#     4  10  21  38  59  86 114 151 195 240 293 362
#     4  12  21  37  57  85 117 153 197 238 299 341
#     4  11  22  38  57  84 118 157 196 248 282 363
#     4  12  22  32  49  80 121 150 182 223 279 352
#     4  12  21  37  57  85 117 160 186 240 288 345
#     4  10  21  38  59  86 117 152 192 230 280 350
#     4  11  22  38  57  84 118 153 204 235 296 346
#
# _framework density 20.264092999999999
#
# number of rings (size 3 to 8) (size 9 to 14) (size 15 to 20)
#    0.000    0.857    2.857    6.000    0.000    2.286 
#    0.000    0.000    0.000    0.000   37.143    0.000 
#    0.000    0.000    0.000    0.000    0.000    0.000 
#
# Total GULP energy -347214.979336 kJ/mol
# GULP energy per Si atom -12400.534976 kJ/mol
# Density = 2.021797 g / cm^3
# Si number density = 20.264093 Si / 1000 Ang^3
#
#
#
# Elastic Constant Matrix: (Units=GPa)
#
#
# Indices 1 2 3 4 5 6 
#
# 1 57.2188 23.0424 16.7278 0.0000 -1.9493 0.0000
# 2 23.0424 82.2309 33.0940 0.0000 -3.6866 0.0000
# 3 16.7278 33.0940 113.6885 0.0000 24.3019 0.0000
# 4 0.0000 0.0000 0.0000 31.7360 0.0000 4.2924
# 5 -1.9493 -3.6866 24.3019 0.0000 27.8352 0.0000
# 6 0.0000 0.0000 0.0000 4.2924 0.0000 34.2229
#
#
#
# Elastic Compliance Matrix: (Units=1/GPa)
#
#
# Indices 1 2 3 4 5 6 
#
# 1 0.020069 -0.004624 -0.002184 0.000000 0.002700 0.000000
# 2 -0.004624 0.015884 -0.005316 0.000000 0.006421 0.000000
# 3 -0.002184 -0.005316 0.013337 0.000000 -0.012501 0.000000
# 4 0.000000 0.000000 0.000000 0.032054 0.000000 -0.004020
# 5 0.002700 0.006421 -0.012501 0.000000 0.047879 0.000000
# 6 0.000000 0.000000 0.000000 -0.004020 0.000000 0.029724
#
#
# Mechanical properties :
#
#
# Convention : Reuss Voigt Hill
#
# Bulk Modulus (GPa) = 39.93201 44.31848 42.12525
# Shear Modulus (GPa) = 26.10385 30.77708 28.44047
#
# Velocity S-wave (km/s) = 3.59302 3.90140 3.75038
# Velocity P-wave (km/s) = 6.07961 6.49712 6.29183
#
# Compressibility (1/GPa) = 0.02504257
#
# Stress axis : x y z
#
# Youngs Moduli (GPa) = 49.82740 62.95739 74.97958
#
# Poissons Ratio (x) = 0.29109 0.16377
# Poissons Ratio (y) = 0.23038 0.39858
# Poissons Ratio (z) = 0.10883 0.33468
#
# Static dielectric constant tensor:
#      x y z
#    x 4.356850 0.000000 1.455730 
#    y 0.000000 3.724680 0.000000 
#    z 1.455730 0.000000 6.450790 
# 
# 
# High freq. dielectric constant tensor:
#      x y z
#    x 1.774280 0.000000 0.019890 
#    y 0.000000 1.783330 0.000000 
#    z 0.019890 0.000000 1.813710 
# 
# From -- ./inp_files/15815.got.cif
#   From: 2010.06.25/outbox.cif.g09.slc.cpg/sg15_8_cif.got.tgz:15815.got - 2010.06.28 07:06:18.
