data_PCOD8141849
_publ_section_title
;
Structure prediction by ZEFSAII (Michael W. Deem and Ramdas Pophale) SiO2 
 PCOD8141849
Probable space group: C 2/C
;
_chemical_formula_sum "Si O2"
_cell_formula_units_Z 56
_cell_length_a 6.207219
_cell_length_b 16.804028
_cell_length_c 29.207165
_cell_angle_alpha 90.000000
_cell_angle_beta 115.196903
_cell_angle_gamma 90.000000
_cell_volume 2756.617387
_symmetry_space_group_name_H-M "C 2/C"
_symmetry_group_IT_number 15
_symmetry_cell_setting 'monoclinic'
loop_
_space_group_symop_operation_xyz
x,y,z
-x,y,1/2-z
-x,-y,-z
x,-y,1/2+z
1/2+x,1/2+y,z
1/2-x,1/2+y,1/2-z
1/2-x,1/2-y,-z
1/2+x,1/2-y,1/2+z
loop_
_atom_site_type_symbol
_atom_site_label
_atom_site_fract_x
_atom_site_fract_y
_atom_site_fract_z
Si Si1 0.467482 0.183399 0.942416
Si Si2 0.485726 0.142501 0.195919
Si Si3 0.227636 0.667666 0.056320
Si Si4 0.956093 0.958567 0.873264
Si Si5 0.799572 0.003094 0.696645
Si Si6 0.453553 0.737061 0.876668
Si Si7 0.135534 0.402561 0.370989
O O1 0.574582 0.269907 0.941996
O O2 0.572087 0.117997 0.917405
O O3 0.184551 0.187422 0.912343
O O4 0.530009 0.155626 0.999317
O O5 0.500000 0.166811 0.250000
O O6 0.227875 0.106164 0.162623
O O7 0.516260 0.223219 0.170005
O O8 0.696628 0.081798 0.202825
O O9 0.355329 0.583686 0.076468
O O10 0.095985 0.694510 0.090647
O O11 0.825248 0.026101 0.890763
O O12 0.092156 0.999350 0.843853
O O13 0.593971 0.069687 0.678603
O O14 0.000000 0.031761 0.750000
O O15 0.236448 0.674927 0.854264
#
# Coordination Sequence:
#
# PCOD8141849 Si02
#       7
#     8   8   8   8   8   8   8
#     4  10  21  41  61  96 130 168 210 261 315 377
#     4  11  22  38  69  96 117 162 212 263 310 371
#     4  10  21  37  70  92 123 173 215 257 317 368
#     4  11  21  41  65  93 123 164 212 262 310 374
#     4  11  22  42  69  88 124 168 213 258 313 378
#     4  11  21  42  64  94 132 160 210 264 317 376
#     4  10  25  40  63  93 131 166 201 262 322 379
#
# _framework density 20.314751999999999
#
# number of rings (size 3 to 8) (size 9 to 14) (size 15 to 20)
#    0.000    1.429    4.286    1.286    0.000    0.571 
#    0.000    7.143    3.143    0.000    0.000    0.000 
#    0.000    0.000    0.000    0.000    0.000    0.000 
#
# Total GULP energy -347382.455420 kJ/mol
# GULP energy per Si atom -12406.516265 kJ/mol
# Density = 2.026851 g / cm^3
# Si number density = 20.314752 Si / 1000 Ang^3
#
#
#
# Elastic Constant Matrix: (Units=GPa)
#
#
# Indices 1 2 3 4 5 6 
#
# 1 109.0238 50.5922 49.5450 0.0000 8.3943 0.0000
# 2 50.5922 104.0565 67.1769 0.0000 5.4285 0.0000
# 3 49.5450 67.1769 126.7328 0.0000 4.8353 0.0000
# 4 0.0000 0.0000 0.0000 23.3474 0.0000 1.9105
# 5 8.3943 5.4285 4.8353 0.0000 27.2160 0.0000
# 6 0.0000 0.0000 0.0000 1.9105 0.0000 28.8268
#
#
#
# Elastic Compliance Matrix: (Units=1/GPa)
#
#
# Indices 1 2 3 4 5 6 
#
# 1 0.012517 -0.004343 -0.002494 0.000000 -0.002551 0.000000
# 2 -0.004343 0.016181 -0.006854 0.000000 -0.000670 0.000000
# 3 -0.002494 -0.006854 0.012502 0.000000 -0.000085 0.000000
# 4 0.000000 0.000000 0.000000 0.043065 0.000000 -0.002854
# 5 -0.002551 -0.000670 -0.000085 0.000000 0.037679 0.000000
# 6 0.000000 0.000000 0.000000 -0.002854 0.000000 0.034879
#
#
# Mechanical properties :
#
#
# Convention : Reuss Voigt Hill
#
# Bulk Modulus (GPa) = 72.36378 74.93794 73.65086
# Shear Modulus (GPa) = 26.48143 27.37796 26.92970
#
# Velocity S-wave (km/s) = 3.61440 3.67507 3.64486
# Velocity P-wave (km/s) = 7.28815 7.41463 7.35166
#
# Compressibility (1/GPa) = 0.01381907
#
# Stress axis : x y z
#
# Youngs Moduli (GPa) = 79.88835 61.80004 79.98706
#
# Poissons Ratio (x) = 0.26837 0.19952
# Poissons Ratio (y) = 0.34692 0.54822
# Poissons Ratio (z) = 0.19927 0.42357
#
# Static dielectric constant tensor:
#      x y z
#    x 3.884850 0.000000 0.057420 
#    y 0.000000 3.557250 0.000000 
#    z 0.057420 0.000000 3.649870 
# 
# 
# High freq. dielectric constant tensor:
#      x y z
#    x 1.810500 0.000000 0.002400 
#    y 0.000000 1.785950 0.000000 
#    z 0.002400 0.000000 1.786900 
# 
# From -- ./inp_files/286019.got.cif
#   From: 2010.06.25/outbox.cif.g09.slc.cpg/sg15_144_cif.got.tgz:286019.got - 2010.06.28 07:06:18.
