data_PCOD8141936
_publ_section_title
;
Structure prediction by ZEFSAII (Michael W. Deem and Ramdas Pophale) SiO2 
 PCOD8141936
Probable space group: C 2/C
;
_chemical_formula_sum "Si O2"
_cell_formula_units_Z 40
_cell_length_a 13.278479
_cell_length_b 30.482202
_cell_length_c 5.013510
_cell_angle_alpha 90.000000
_cell_angle_beta 79.576369
_cell_angle_gamma 90.000000
_cell_volume 1995.765743
_symmetry_space_group_name_H-M "C 2/C"
_symmetry_group_IT_number 15
_symmetry_cell_setting 'monoclinic'
loop_
_space_group_symop_operation_xyz
x,y,z
-x,y,1/2-z
-x,-y,-z
x,-y,1/2+z
1/2+x,1/2+y,z
1/2-x,1/2+y,1/2-z
1/2-x,1/2-y,-z
1/2+x,1/2-y,1/2+z
loop_
_atom_site_type_symbol
_atom_site_label
_atom_site_fract_x
_atom_site_fract_y
_atom_site_fract_z
Si Si1 0.429960 0.346389 0.026277
Si Si2 0.618814 0.972360 0.197510
Si Si3 0.931853 0.749682 0.030250
Si Si4 0.620719 0.162457 0.242239
Si Si5 0.212651 0.381400 0.193075
O O1 0.500000 0.349149 0.250000
O O2 0.383533 0.297306 0.985129
O O3 0.334193 0.378691 0.096689
O O4 0.500000 0.362384 0.750000
O O5 0.500000 0.958769 0.250000
O O6 0.684995 0.931396 0.270127
O O7 0.645665 0.011800 0.387453
O O8 0.851974 0.711511 0.157163
O O9 0.000000 0.760404 0.250000
O O10 0.000000 0.732015 0.750000
O O11 0.500000 0.159313 0.250000
O O12 0.653083 0.127998 0.448512
O O13 0.680318 0.152387 0.941449
#
# Coordination Sequence:
#
# PCOD8141936 Si02
#       5
#     8   8   8   8   8
#     4  10  22  40  58  79 113 155 200 241 273 317
#     4  10  21  38  59  84 116 145 172 219 286 357
#     4   9  18  34  53  76 114 157 188 228 282 326
#     4  11  21  34  54  86 122 146 182 236 283 339
#     4  12  23  36  61  87 110 151 195 232 282 338
#
# _framework density 20.042434
#
# number of rings (size 3 to 8) (size 9 to 14) (size 15 to 20)
#    0.000    1.600    0.000    6.600    0.000    3.200 
#    0.000    0.000    0.000    3.600    0.000    0.000 
#    0.000    0.000    0.000    0.000    0.000    0.000 
#
# Total GULP energy -247938.553260 kJ/mol
# GULP energy per Si atom -12396.927663 kJ/mol
# Density = 1.999682 g / cm^3
# Si number density = 20.042434 Si / 1000 Ang^3
#
#
#
# Elastic Constant Matrix: (Units=GPa)
#
#
# Indices 1 2 3 4 5 6 
#
# 1 80.5592 52.5678 50.2244 0.0000 -10.3575 0.0000
# 2 52.5678 96.0651 24.6505 0.0000 -15.8411 0.0000
# 3 50.2244 24.6505 139.0832 0.0000 -3.4958 0.0000
# 4 0.0000 0.0000 0.0000 -8.2529 0.0000 1.5398
# 5 -10.3575 -15.8411 -3.4958 0.0000 31.2011 0.0000
# 6 0.0000 0.0000 0.0000 1.5398 0.0000 21.2936
#
#
#
# Elastic Compliance Matrix: (Units=1/GPa)
#
#
# Indices 1 2 3 4 5 6 
#
# 1 0.024091 -0.011214 -0.006673 0.000000 0.001556 0.000000
# 2 -0.011214 0.017089 0.001148 0.000000 0.005083 0.000000
# 3 -0.006673 0.001148 0.009381 0.000000 -0.000581 0.000000
# 4 0.000000 0.000000 0.000000 -0.119557 0.000000 0.008645
# 5 0.001556 0.005083 -0.000581 0.000000 0.035082 0.000000
# 6 0.000000 0.000000 0.000000 0.008645 0.000000 0.046337
#
#
# Mechanical properties :
#
#
# Convention : Reuss Voigt Hill
#
# Bulk Modulus (GPa) = 58.53105 63.39922 60.96513
# Shear Modulus (GPa) = 96.90651 21.39935 59.15293
#
# Velocity S-wave (km/s) = 6.96101 3.27112 5.43856
# Velocity P-wave (km/s) = 9.68888 6.77998 8.36189
#
# Compressibility (1/GPa) = 0.01708495
#
# Stress axis : x y z
#
# Youngs Moduli (GPa) = 41.50923 58.51568 106.59321
#
# Poissons Ratio (x) = 0.65619 0.71129
# Poissons Ratio (y) = 0.46548 -0.12241
# Poissons Ratio (z) = 0.27699 -0.06720
#
# Static dielectric constant tensor:
#      x y z
#    x 3.297720 0.000000 0.124450 
#    y 0.000000 3.608100 0.000000 
#    z 0.124450 0.000000 3.752360 
# 
# 
# High freq. dielectric constant tensor:
#      x y z
#    x 1.752450 0.000000 0.018120 
#    y 0.000000 1.769620 0.000000 
#    z 0.018120 0.000000 1.802680 
# 
# From -- ./inp_files/5699.got.cif
#   From: 2010.06.25/outbox.cif.g09.slc.cpg/sg15_3_cif.got.tgz:5699.got - 2010.06.28 07:06:18.
