data_PCOD8141925
_publ_section_title
;
Structure prediction by ZEFSAII (Michael W. Deem and Ramdas Pophale) SiO2 
 PCOD8141925
Probable space group: C 2/C
;
_chemical_formula_sum "Si O2"
_cell_formula_units_Z 56
_cell_length_a 20.245518
_cell_length_b 15.676378
_cell_length_c 9.246552
_cell_angle_alpha 90.000000
_cell_angle_beta 92.436974
_cell_angle_gamma 90.000000
_cell_volume 2931.983232
_symmetry_space_group_name_H-M "C 2/C"
_symmetry_group_IT_number 15
_symmetry_cell_setting 'monoclinic'
loop_
_space_group_symop_operation_xyz
x,y,z
-x,y,1/2-z
-x,-y,-z
x,-y,1/2+z
1/2+x,1/2+y,z
1/2-x,1/2+y,1/2-z
1/2-x,1/2-y,-z
1/2+x,1/2-y,1/2+z
loop_
_atom_site_type_symbol
_atom_site_label
_atom_site_fract_x
_atom_site_fract_y
_atom_site_fract_z
Si Si1 0.737897 0.476255 0.899562
Si Si2 0.931735 0.725951 0.699669
Si Si3 0.198913 0.841622 0.327935
Si Si4 0.041860 0.459179 0.381054
Si Si5 0.337824 0.788522 0.453871
Si Si6 0.323767 0.050574 0.143492
Si Si7 0.816853 0.194471 0.996792
O O1 0.697430 0.555365 0.827352
O O2 0.800806 0.446545 0.808111
O O3 0.691908 0.395625 0.923496
O O4 0.762366 0.509692 0.055318
O O5 0.957494 0.642925 0.617053
O O6 0.897947 0.702893 0.849384
O O7 0.881186 0.770319 0.585034
O O8 0.000000 0.777209 0.750000
O O9 0.272961 0.803237 0.349355
O O10 0.159910 0.803011 0.463563
O O11 0.166956 0.813997 0.172162
O O12 0.116694 0.487257 0.374521
O O13 0.000000 0.498613 0.250000
O O14 0.000000 0.500000 0.500000
O O15 0.342210 0.857016 0.583610
O O16 0.750000 0.250000 0.000000
#
# Coordination Sequence:
#
# PCOD8141925 Si02
#       7
#     8   8   8   8   8   8   8
#     4  11  22  35  58  90 124 146 201 265 316 364
#     4  11  24  41  60  88 126 167 203 254 315 370
#     4  10  21  38  58  94 117 161 200 264 315 360
#     4  11  22  38  56  82 124 167 203 237 298 381
#     4  10  21  38  60  84 129 159 205 250 317 361
#     4  11  20  35  55  88 120 157 198 252 315 359
#     4  12  22  38  64  92 120 158 217 257 307 377
#
# _framework density 19.099699999999999
#
# number of rings (size 3 to 8) (size 9 to 14) (size 15 to 20)
#    0.000    1.143    2.857    6.000    4.000    1.143 
#    0.000    0.714    0.000    3.429    0.000    0.000 
#    0.000    0.000    0.000    0.000    0.000    0.000 
#
# Total GULP energy -346958.956517 kJ/mol
# GULP energy per Si atom -12391.391304 kJ/mol
# Density = 1.905623 g / cm^3
# Si number density = 19.099700 Si / 1000 Ang^3
#
#
#
# Elastic Constant Matrix: (Units=GPa)
#
#
# Indices 1 2 3 4 5 6 
#
# 1 85.8130 39.3278 37.4129 0.0000 9.7676 0.0000
# 2 39.3278 105.7302 52.9540 0.0000 -1.5052 0.0000
# 3 37.4129 52.9540 107.0171 0.0000 -3.7340 0.0000
# 4 0.0000 0.0000 0.0000 33.5396 0.0000 -7.3398
# 5 9.7676 -1.5052 -3.7340 0.0000 33.7583 0.0000
# 6 0.0000 0.0000 0.0000 -7.3398 0.0000 36.5532
#
#
#
# Elastic Compliance Matrix: (Units=1/GPa)
#
#
# Indices 1 2 3 4 5 6 
#
# 1 0.015699 -0.004087 -0.003645 0.000000 -0.005128 0.000000
# 2 -0.004087 0.013639 -0.005278 0.000000 0.001207 0.000000
# 3 -0.003645 -0.005278 0.013310 0.000000 0.002292 0.000000
# 4 0.000000 0.000000 0.000000 0.031186 0.000000 0.006262
# 5 -0.005128 0.001207 0.002292 0.000000 0.031413 0.000000
# 6 0.000000 0.000000 0.000000 0.006262 0.000000 0.028615
#
#
# Mechanical properties :
#
#
# Convention : Reuss Voigt Hill
#
# Bulk Modulus (GPa) = 60.13785 61.99443 61.06614
# Shear Modulus (GPa) = 30.22530 32.02790 31.12660
#
# Velocity S-wave (km/s) = 3.98238 4.09941 4.04132
# Velocity P-wave (km/s) = 7.25951 7.41186 7.33608
#
# Compressibility (1/GPa) = 0.01662846
#
# Stress axis : x y z
#
# Youngs Moduli (GPa) = 63.69791 73.32052 75.13098
#
# Poissons Ratio (x) = 0.29966 0.27385
# Poissons Ratio (y) = 0.26033 0.39653
# Poissons Ratio (z) = 0.23218 0.38697
#
# Static dielectric constant tensor:
#      x y z
#    x 3.015970 0.000000 3.293100 
#    y 0.000000 3.590590 0.000000 
#    z 3.293100 0.000000 -22.132840 
# 
# 
# High freq. dielectric constant tensor:
#      x y z
#    x 1.713670 0.000000 0.000910 
#    y 0.000000 1.737300 0.000000 
#    z 0.000910 0.000000 1.763460 
# 
# From -- ./inp_files/55612.got.cif
#   From: 2010.06.25/outbox.cif.g09.slc.cpg/sg15_28_cif.got.tgz:55612.got - 2010.06.28 07:06:18.
