data_PCOD8141784
_publ_section_title
;
Structure prediction by ZEFSAII (Michael W. Deem and Ramdas Pophale) SiO2 
 PCOD8141784
Probable space group: C 2/C
;
_chemical_formula_sum "Si O2"
_cell_formula_units_Z 64
_cell_length_a 26.280274
_cell_length_b 9.944259
_cell_length_c 16.771129
_cell_angle_alpha 90.000000
_cell_angle_beta 137.817283
_cell_angle_gamma 90.000000
_cell_volume 2943.125326
_symmetry_space_group_name_H-M "C 2/C"
_symmetry_group_IT_number 15
_symmetry_cell_setting 'monoclinic'
loop_
_space_group_symop_operation_xyz
x,y,z
-x,y,1/2-z
-x,-y,-z
x,-y,1/2+z
1/2+x,1/2+y,z
1/2-x,1/2+y,1/2-z
1/2-x,1/2-y,-z
1/2+x,1/2-y,1/2+z
loop_
_atom_site_type_symbol
_atom_site_label
_atom_site_fract_x
_atom_site_fract_y
_atom_site_fract_z
Si Si1 0.313751 0.989369 0.741331
Si Si2 0.826763 0.710162 0.494458
Si Si3 0.582977 0.521551 0.127955
Si Si4 0.654147 0.754965 0.300908
Si Si5 0.913986 0.215977 0.626794
Si Si6 0.144633 0.019489 0.533551
Si Si7 0.664635 0.292609 0.301260
Si Si8 0.322158 0.923340 0.433578
O O1 0.364642 0.093316 0.749334
O O2 0.311912 0.042461 0.829226
O O3 0.230218 0.988896 0.605386
O O4 0.344152 0.838363 0.765522
O O5 0.737845 0.713009 0.368680
O O6 0.847853 0.756971 0.607087
O O7 0.853188 0.558268 0.511840
O O8 0.870734 0.819692 0.490599
O O9 0.592017 0.656359 0.190341
O O10 0.598441 0.394127 0.201063
O O11 0.500000 0.500000 0.000000
O O12 0.639041 0.527849 0.118057
O O13 0.910248 0.063336 0.589357
O O14 0.853473 0.242616 0.627796
O O15 0.887652 0.313031 0.523669
O O16 0.000000 0.250032 0.750000
O O17 0.744567 0.367897 0.382190
#
# Coordination Sequence:
#
# PCOD8141784 Si02
#       8
#     8   8   8   8   8   8   8   8
#     4  11  23  39  69  99 126 163 225 283 325 381
#     4  10  21  37  64  94 124 162 220 276 320 377
#     4  12  24  41  64  95 135 177 217 271 336 398
#     4  10  21  38  60  93 130 164 212 272 330 382
#     4  12  27  45  65  98 140 181 220 271 336 402
#     4  11  22  40  65  95 130 168 222 274 328 388
#     4  12  24  43  69  99 131 175 231 268 330 405
#     4  12  23  41  69  99 133 171 226 281 326 396
#
# _framework density 21.74559
#
# number of rings (size 3 to 8) (size 9 to 14) (size 15 to 20)
#    0.000    0.750    3.750    4.125    5.250    0.000 
#    0.000    6.875    0.000    0.000    0.000    0.000 
#    0.000    0.000    0.000    0.000    0.000    0.000 
#
# Total GULP energy -396824.799738 kJ/mol
# GULP energy per Si atom -12400.774992 kJ/mol
# Density = 2.169610 g / cm^3
# Si number density = 21.745590 Si / 1000 Ang^3
#
#
#
# Elastic Constant Matrix: (Units=GPa)
#
#
# Indices 1 2 3 4 5 6 
#
# 1 45.8950 23.8511 19.7266 0.0000 -16.8456 0.0000
# 2 23.8511 163.1416 54.5613 0.0000 3.6914 0.0000
# 3 19.7266 54.5613 113.2648 0.0000 1.3636 0.0000
# 4 0.0000 0.0000 0.0000 42.9956 0.0000 -8.6140
# 5 -16.8456 3.6914 1.3636 0.0000 28.6425 0.0000
# 6 0.0000 0.0000 0.0000 -8.6140 0.0000 24.0836
#
#
#
# Elastic Compliance Matrix: (Units=1/GPa)
#
#
# Indices 1 2 3 4 5 6 
#
# 1 0.032947 -0.003899 -0.004101 0.000000 0.020075 0.000000
# 2 -0.003899 0.007786 -0.003033 0.000000 -0.003152 0.000000
# 3 -0.004101 -0.003033 0.011035 0.000000 -0.002547 0.000000
# 4 0.000000 0.000000 0.000000 0.025053 0.000000 0.008961
# 5 0.020075 -0.003152 -0.002547 0.000000 0.047247 0.000000
# 6 0.000000 0.000000 0.000000 0.008961 0.000000 0.044727
#
#
# Mechanical properties :
#
#
# Convention : Reuss Voigt Hill
#
# Bulk Modulus (GPa) = 33.67114 57.61991 45.64552
# Shear Modulus (GPa) = 24.90503 34.08851 29.49677
#
# Velocity S-wave (km/s) = 3.38789 3.96360 3.68700
# Velocity P-wave (km/s) = 5.55171 6.89214 6.25792
#
# Compressibility (1/GPa) = 0.02969903
#
# Stress axis : x y z
#
# Youngs Moduli (GPa) = 30.35220 128.44370 90.62038
#
# Poissons Ratio (x) = 0.50084 0.37167
# Poissons Ratio (y) = 0.11835 0.27488
# Poissons Ratio (z) = 0.12449 0.38961
#
# Static dielectric constant tensor:
#      x y z
#    x 4.030350 0.000000 -0.160920 
#    y 0.000000 4.309470 0.000000 
#    z -0.160920 0.000000 3.943400 
# 
# 
# High freq. dielectric constant tensor:
#      x y z
#    x 1.828830 0.000000 -0.026580 
#    y 0.000000 1.872630 0.000000 
#    z -0.026580 0.000000 1.850380 
# 
# From -- ./inp_files/224639.got.cif
#   From: 2010.06.25/outbox.cif.g09.slc.cpg/sg15_113_cif.got.tgz:224639.got - 2010.06.28 07:06:18.
