data_PCOD8141508
_publ_section_title
;
Structure prediction by ZEFSAII (Michael W. Deem and Ramdas Pophale) SiO2 
 PCOD8141508
Probable space group: C 2/C
;
_chemical_formula_sum "Si O2"
_cell_formula_units_Z 40
_cell_length_a 9.480360
_cell_length_b 13.682340
_cell_length_c 22.887766
_cell_angle_alpha 90.000000
_cell_angle_beta 42.976415
_cell_angle_gamma 90.000000
_cell_volume 2023.858545
_symmetry_space_group_name_H-M "C 2/C"
_symmetry_group_IT_number 15
_symmetry_cell_setting 'monoclinic'
loop_
_space_group_symop_operation_xyz
x,y,z
-x,y,1/2-z
-x,-y,-z
x,-y,1/2+z
1/2+x,1/2+y,z
1/2-x,1/2+y,1/2-z
1/2-x,1/2-y,-z
1/2+x,1/2-y,1/2+z
loop_
_atom_site_type_symbol
_atom_site_label
_atom_site_fract_x
_atom_site_fract_y
_atom_site_fract_z
Si Si1 0.798353 0.353086 0.458757
Si Si2 0.232281 0.647554 0.667666
Si Si3 0.285157 0.351888 0.782408
Si Si4 0.494368 0.525244 0.371652
Si Si5 0.367173 0.982457 0.097102
O O1 0.750000 0.250000 0.500000
O O2 0.745597 0.335136 0.407745
O O3 0.652574 0.433341 0.533259
O O4 0.038520 0.387839 0.397345
O O5 0.304108 0.741690 0.685037
O O6 0.380078 0.560331 0.638085
O O7 0.000000 0.614503 0.750000
O O8 0.500000 0.343833 0.750000
O O9 0.345467 0.390385 0.699296
O O10 0.121809 0.425802 0.861758
O O11 0.369796 0.476678 0.354270
O O12 0.500000 0.000000 0.000000
#
# Coordination Sequence:
#
# PCOD8141508 Si02
#       5
#     8   8   8   8   8
#     4  11  21  37  58  83 113 149 186 227 280 334
#     4  11  21  36  58  85 113 145 182 233 283 328
#     4   9  18  35  57  78 108 150 187 220 274 335
#     4  10  21  37  57  82 111 146 189 231 273 332
#     4   9  18  35  56  78 107 148 187 221 265 329
#
# _framework density 19.764227000000002
#
# number of rings (size 3 to 8) (size 9 to 14) (size 15 to 20)
#    0.000    2.000    0.000    6.600    0.000    0.000 
#    0.000   13.000    0.000    0.000    0.000    0.000 
#    0.000    0.000    0.000    0.000    0.000    0.000 
#
# Total GULP energy -247776.308209 kJ/mol
# GULP energy per Si atom -12388.815410 kJ/mol
# Density = 1.971924 g / cm^3
# Si number density = 19.764227 Si / 1000 Ang^3
#
#
#
# Elastic Constant Matrix: (Units=GPa)
#
#
# Indices 1 2 3 4 5 6 
#
# 1 72.0803 60.0193 25.4014 0.0001 5.4930 -0.0002
# 2 60.0193 133.1448 36.3321 -0.0002 -8.4209 0.0000
# 3 25.4014 36.3321 99.4348 -0.0004 9.1897 -0.0001
# 4 0.0001 -0.0002 -0.0004 41.5522 -0.0001 -0.5403
# 5 5.4930 -8.4209 9.1897 -0.0001 25.1152 0.0002
# 6 -0.0002 0.0000 -0.0001 -0.5403 0.0002 18.8415
#
#
#
# Elastic Compliance Matrix: (Units=1/GPa)
#
#
# Indices 1 2 3 4 5 6 
#
# 1 0.024240 -0.011098 -0.001349 0.000000 -0.008529 0.000000
# 2 -0.011098 0.013842 -0.002976 0.000000 0.008157 0.000000
# 3 -0.001349 -0.002976 0.011958 0.000000 -0.005078 0.000000
# 4 0.000000 0.000000 0.000000 0.024075 0.000000 0.000690
# 5 -0.008529 0.008157 -0.005078 0.000000 0.046275 -0.000001
# 6 0.000000 0.000000 0.000000 0.000690 -0.000001 0.053094
#
#
# Mechanical properties :
#
#
# Convention : Reuss Voigt Hill
#
# Bulk Modulus (GPa) = 52.10246 60.90727 56.50486
# Shear Modulus (GPa) = 23.72716 29.29560 26.51138
#
# Velocity S-wave (km/s) = 3.46860 3.85418 3.66646
# Velocity P-wave (km/s) = 6.51619 7.11970 6.82462
#
# Compressibility (1/GPa) = 0.01919295
#
# Stress axis : x y z
#
# Youngs Moduli (GPa) = 41.25402 72.24574 83.62426
#
# Poissons Ratio (x) = 0.80181 0.11280
# Poissons Ratio (y) = 0.45785 0.24889
# Poissons Ratio (z) = 0.05565 0.21502
#
# Static dielectric constant tensor:
#      x y z
#    x 3.482070 0.000000 -0.455050 
#    y 0.000000 3.962020 0.000010 
#    z -0.455050 0.000010 2.563790 
# 
# 
# High freq. dielectric constant tensor:
#      x y z
#    x 1.740070 0.000000 0.009840 
#    y 0.000000 1.770750 0.000000 
#    z 0.009840 0.000000 1.788610 
# 
# From -- ./inp_files/133084.got.cif
#   From: 2010.06.25/outbox.cif.g09.slc.cpg/sg15_67_cif.got.tgz:133084.got - 2010.06.28 07:06:18.
