data_PCOD8141612
_publ_section_title
;
Structure prediction by ZEFSAII (Michael W. Deem and Ramdas Pophale) SiO2 
 PCOD8141612
Probable space group: C 2/C
;
_chemical_formula_sum "Si O2"
_cell_formula_units_Z 60
_cell_length_a 22.203587
_cell_length_b 11.850358
_cell_length_c 12.842626
_cell_angle_alpha 90.000000
_cell_angle_beta 65.124804
_cell_angle_gamma 90.000000
_cell_volume 3065.660305
_symmetry_space_group_name_H-M "C 2/C"
_symmetry_group_IT_number 15
_symmetry_cell_setting 'monoclinic'
loop_
_space_group_symop_operation_xyz
x,y,z
-x,y,1/2-z
-x,-y,-z
x,-y,1/2+z
1/2+x,1/2+y,z
1/2-x,1/2+y,1/2-z
1/2-x,1/2-y,-z
1/2+x,1/2-y,1/2+z
loop_
_atom_site_type_symbol
_atom_site_label
_atom_site_fract_x
_atom_site_fract_y
_atom_site_fract_z
Si Si1 0.613652 0.601410 0.787533
Si Si2 0.223779 0.924607 0.702446
Si Si3 0.339273 0.152020 0.270795
Si Si4 0.322580 0.750366 0.403188
Si Si5 0.562185 0.322729 0.539015
Si Si6 0.000000 0.979583 0.750000
Si Si7 0.329581 0.012246 0.959620
Si Si8 0.439146 0.920265 0.530381
O O1 0.672457 0.517537 0.779572
O O2 0.651184 0.714287 0.722099
O O3 0.564575 0.555578 0.731738
O O4 0.569515 0.619821 0.921661
O O5 0.273867 0.881357 0.753703
O O6 0.177647 0.817159 0.704918
O O7 0.261156 0.973784 0.573326
O O8 0.330374 0.101218 0.392035
O O9 0.404808 0.105889 0.165936
O O10 0.250000 0.750000 0.500000
O O11 0.367208 0.686145 0.455471
O O12 0.342946 0.880953 0.372644
O O13 0.512349 0.398248 0.642516
O O14 0.535612 0.195063 0.542840
O O15 0.389002 0.007587 0.997596
O O16 0.500000 0.000000 0.500000
#
# Coordination Sequence:
#
# PCOD8141612 Si02
#       8
#     8   8   8   8   8   4   8   8
#     4  11  24  41  60  87 126 163 202 249 314 361
#     4  10  21  37  60  89 116 157 202 251 306 367
#     4  10  23  37  59  89 121 161 198 255 316 364
#     4   9  17  35  62  84 113 150 196 252 299 349
#     4  10  22  40  60  90 118 158 209 246 298 363
#     4  12  24  42  62  88 122 166 212 248 294 370
#     4   9  20  36  59  89 118 151 203 250 307 361
#     4   9  20  39  59  86 123 157 204 253 299 366
#
# _framework density 19.571641
#
# number of rings (size 3 to 8) (size 9 to 14) (size 15 to 20)
#    0.000    2.133    1.333    2.800    5.600    5.333 
#    0.000    0.000    0.000    0.000    0.000    0.000 
#    0.000    0.000    0.000    0.000    0.000    0.000 
#
# Total GULP energy -371875.185703 kJ/mol
# GULP energy per Si atom -12395.839523 kJ/mol
# Density = 1.952709 g / cm^3
# Si number density = 19.571641 Si / 1000 Ang^3
#
#
#
# Elastic Constant Matrix: (Units=GPa)
#
#
# Indices 1 2 3 4 5 6 
#
# 1 89.8626 45.4478 14.4896 0.0000 -11.0331 0.0000
# 2 45.4478 97.8165 34.4137 0.0000 -3.9148 0.0000
# 3 14.4896 34.4137 56.6015 0.0000 9.0891 0.0000
# 4 0.0000 0.0000 0.0000 31.9016 0.0000 -0.4728
# 5 -11.0331 -3.9148 9.0891 0.0000 21.0630 0.0000
# 6 0.0000 0.0000 0.0000 -0.4728 0.0000 39.7843
#
#
#
# Elastic Compliance Matrix: (Units=1/GPa)
#
#
# Indices 1 2 3 4 5 6 
#
# 1 0.015519 -0.006479 -0.001231 0.000000 0.007456 0.000000
# 2 -0.006479 0.016527 -0.008959 0.000000 0.003544 0.000000
# 3 -0.001231 -0.008959 0.025573 0.000000 -0.013345 0.000000
# 4 0.000000 0.000000 0.000000 0.031352 0.000000 0.000373
# 5 0.007456 0.003544 -0.013345 0.000000 0.057799 0.000000
# 6 0.000000 0.000000 0.000000 0.000373 0.000000 0.025140
#
#
# Mechanical properties :
#
#
# Convention : Reuss Voigt Hill
#
# Bulk Modulus (GPa) = 41.18474 48.10922 44.64698
# Shear Modulus (GPa) = 23.43665 28.54507 25.99086
#
# Velocity S-wave (km/s) = 3.46422 3.82316 3.64811
# Velocity P-wave (km/s) = 6.09014 6.64253 6.37232
#
# Compressibility (1/GPa) = 0.02428084
#
# Stress axis : x y z
#
# Youngs Moduli (GPa) = 64.43851 60.50583 39.10450
#
# Poissons Ratio (x) = 0.39201 0.04813
# Poissons Ratio (y) = 0.41749 0.35034
# Poissons Ratio (z) = 0.07931 0.54208
#
# Static dielectric constant tensor:
#      x y z
#    x 3.796080 0.000000 0.158690 
#    y 0.000000 3.859120 0.000000 
#    z 0.158690 0.000000 3.409470 
# 
# 
# High freq. dielectric constant tensor:
#      x y z
#    x 1.767390 0.000000 0.001560 
#    y 0.000000 1.770170 0.000000 
#    z 0.001560 0.000000 1.739480 
# 
# From -- ./inp_files/167595.got.cif
#   From: 2010.06.25/outbox.cif.g09.slc.cpg/sg15_84_cif.got.tgz:167595.got - 2010.06.28 07:06:18.
