data_PCOD8141280
_publ_section_title
;
Structure prediction by ZEFSAII (Michael W. Deem and Ramdas Pophale) SiO2 
 PCOD8141280
Probable space group: C 2/C
;
_chemical_formula_sum "Si O2"
_cell_formula_units_Z 40
_cell_length_a 11.026468
_cell_length_b 20.452880
_cell_length_c 8.970711
_cell_angle_alpha 90.000000
_cell_angle_beta 93.517595
_cell_angle_gamma 90.000000
_cell_volume 2019.290381
_symmetry_space_group_name_H-M "C 2/C"
_symmetry_group_IT_number 15
_symmetry_cell_setting 'monoclinic'
loop_
_space_group_symop_operation_xyz
x,y,z
-x,y,1/2-z
-x,-y,-z
x,-y,1/2+z
1/2+x,1/2+y,z
1/2-x,1/2+y,1/2-z
1/2-x,1/2-y,-z
1/2+x,1/2-y,1/2+z
loop_
_atom_site_type_symbol
_atom_site_label
_atom_site_fract_x
_atom_site_fract_y
_atom_site_fract_z
Si Si1 0.347834 0.934590 0.075768
Si Si2 0.000000 0.768695 0.250000
Si Si3 0.639825 0.204344 0.514702
Si Si4 0.000000 0.772219 0.750000
Si Si5 0.630139 0.064872 0.576980
Si Si6 0.829305 0.814544 0.483710
O O1 0.337814 0.943682 0.249725
O O2 0.486626 0.922917 0.036199
O O3 0.258942 0.877195 0.012866
O O4 0.309487 0.003695 0.001412
O O5 0.046743 0.718267 0.376251
O O6 0.101142 0.813398 0.172270
O O7 0.750000 0.250000 0.500000
O O8 0.586042 0.220986 0.672231
O O9 0.689932 0.130478 0.515702
O O10 0.926571 0.817996 0.627442
O O11 0.750000 0.750000 0.500000
#
# Coordination Sequence:
#
# PCOD8141280 Si02
#       6
#     8   4   8   4   8   8
#     4  10  21  37  58  83 116 150 183 242 299 340
#     4  10  22  34  58  90 114 150 198 232 286 360
#     4  11  21  36  58  83 113 147 187 239 285 335
#     4  10  22  36  58  90 118 150 198 236 286 358
#     4  10  21  36  57  87 113 143 193 237 292 355
#     4  11  21  38  61  87 122 157 193 244 295 344
#
# _framework density 19.808938999999999
#
# number of rings (size 3 to 8) (size 9 to 14) (size 15 to 20)
#    0.000    1.600    0.000    7.200    0.000    6.400 
#    0.000    0.000    0.000   20.400    0.000    0.000 
#    0.000    0.000    0.000    0.000    0.000    0.000 
#
# Total GULP energy -247941.365793 kJ/mol
# GULP energy per Si atom -12397.068290 kJ/mol
# Density = 1.976385 g / cm^3
# Si number density = 19.808939 Si / 1000 Ang^3
#
#
#
# Elastic Constant Matrix: (Units=GPa)
#
#
# Indices 1 2 3 4 5 6 
#
# 1 80.4052 64.0669 38.3023 0.0000 -9.7618 0.0000
# 2 64.0669 195.1607 59.9559 0.0000 -5.0696 0.0000
# 3 38.3023 59.9559 101.7166 0.0000 -6.2890 0.0000
# 4 0.0000 0.0000 0.0000 24.3908 0.0000 -1.8940
# 5 -9.7618 -5.0696 -6.2890 0.0000 27.7783 0.0000
# 6 0.0000 0.0000 0.0000 -1.8940 0.0000 37.4567
#
#
#
# Elastic Compliance Matrix: (Units=1/GPa)
#
#
# Indices 1 2 3 4 5 6 
#
# 1 0.018726 -0.004820 -0.003913 0.000000 0.004815 0.000000
# 2 -0.004820 0.007501 -0.002663 0.000000 -0.000928 0.000000
# 3 -0.003913 -0.002663 0.012940 0.000000 0.001069 0.000000
# 4 0.000000 0.000000 0.000000 0.041161 0.000000 0.002081
# 5 0.004815 -0.000928 0.001069 0.000000 0.037764 0.000000
# 6 0.000000 0.000000 0.000000 0.002081 0.000000 0.026803
#
#
# Mechanical properties :
#
#
# Convention : Reuss Voigt Hill
#
# Bulk Modulus (GPa) = 61.06928 77.99254 69.53091
# Shear Modulus (GPa) = 28.87747 32.25566 30.56657
#
# Velocity S-wave (km/s) = 3.82226 4.03965 3.93245
# Velocity P-wave (km/s) = 7.09758 7.82408 7.46967
#
# Compressibility (1/GPa) = 0.01637485
#
# Stress axis : x y z
#
# Youngs Moduli (GPa) = 53.40088 133.32436 77.27687
#
# Poissons Ratio (x) = 0.64267 0.30235
# Poissons Ratio (y) = 0.25741 0.20581
# Poissons Ratio (z) = 0.20893 0.35509
#
# Static dielectric constant tensor:
#      x y z
#    x 3.617000 0.000000 0.005170 
#    y 0.000000 3.577090 0.000000 
#    z 0.005170 0.000000 3.811430 
# 
# 
# High freq. dielectric constant tensor:
#      x y z
#    x 1.757900 0.000000 0.004890 
#    y 0.000000 1.763220 0.000000 
#    z 0.004890 0.000000 1.790800 
# 
# From -- ./inp_files/29173.got.cif
#   From: 2010.06.25/outbox.cif.g09.slc.cpg/sg15_15_cif.got.tgz:29173.got - 2010.06.28 07:06:18.
