data_PCOD8141543
_publ_section_title
;
Structure prediction by ZEFSAII (Michael W. Deem and Ramdas Pophale) SiO2 
 PCOD8141543
Probable space group: C 2/C
;
_chemical_formula_sum "Si O2"
_cell_formula_units_Z 56
_cell_length_a 16.438013
_cell_length_b 21.912143
_cell_length_c 11.017951
_cell_angle_alpha 90.000000
_cell_angle_beta 132.094517
_cell_angle_gamma 90.000000
_cell_volume 2944.844204
_symmetry_space_group_name_H-M "C 2/C"
_symmetry_group_IT_number 15
_symmetry_cell_setting 'monoclinic'
loop_
_space_group_symop_operation_xyz
x,y,z
-x,y,1/2-z
-x,-y,-z
x,-y,1/2+z
1/2+x,1/2+y,z
1/2-x,1/2+y,1/2-z
1/2-x,1/2-y,-z
1/2+x,1/2-y,1/2+z
loop_
_atom_site_type_symbol
_atom_site_label
_atom_site_fract_x
_atom_site_fract_y
_atom_site_fract_z
Si Si1 0.807384 0.468452 0.190167
Si Si2 0.749959 0.750016 0.193549
Si Si3 0.192672 0.531585 0.075427
Si Si4 0.375193 0.836587 0.261978
Si Si5 0.372392 0.328258 0.122407
Si Si6 0.373270 0.527301 0.623281
Si Si7 0.375021 0.163454 0.488416
O O1 0.865603 0.500057 0.365600
O O2 0.800533 0.396374 0.208279
O O3 0.868482 0.479200 0.118484
O O4 0.685101 0.497529 0.054140
O O5 0.659700 0.782949 0.184517
O O6 0.814455 0.800295 0.181670
O O7 0.840043 0.717150 0.365222
O O8 0.685640 0.699677 0.052811
O O9 0.314918 0.502459 0.183987
O O10 0.199669 0.603676 0.107232
O O11 0.500113 0.855172 0.415293
O O12 0.362274 0.811977 0.112386
O O13 0.500000 0.310685 0.250000
O O14 0.354709 0.400424 0.104729
O O15 0.500000 0.509200 0.750000
#
# Coordination Sequence:
#
# PCOD8141543 Si02
#       7
#     8   8   8   8   8   8   8
#     4   9  19  35  56  80 114 146 190 236 292 337
#     4  11  21  36  62  82 117 153 198 232 280 353
#     4   9  19  35  56  80 114 146 190 236 292 337
#     4  10  21  38  58  82 116 152 189 239 288 338
#     4  10  21  37  58  87 118 153 188 241 292 333
#     4   9  19  35  56  81 114 147 190 240 292 346
#     4  10  21  38  58  82 116 152 189 239 288 338
#
# _framework density 19.016286000000001
#
# number of rings (size 3 to 8) (size 9 to 14) (size 15 to 20)
#    0.857    1.429    0.000    3.000    0.000    1.143 
#    0.000    2.857    0.000    0.000    0.000    0.000 
#    0.000    0.000    0.000    0.000    0.000    0.000 
#
# Total GULP energy -346926.217094 kJ/mol
# GULP energy per Si atom -12390.222039 kJ/mol
# Density = 1.897300 g / cm^3
# Si number density = 19.016286 Si / 1000 Ang^3
#
#
#
# Elastic Constant Matrix: (Units=GPa)
#
#
# Indices 1 2 3 4 5 6 
#
# 1 75.1261 53.5538 61.0666 0.0000 -2.9261 0.0000
# 2 53.5538 105.4396 52.3714 0.0000 2.2343 0.0000
# 3 61.0666 52.3714 78.3302 0.0000 -12.2927 0.0000
# 4 0.0000 0.0000 0.0000 139.9988 0.0000 -99.4061
# 5 -2.9261 2.2343 -12.2927 0.0000 40.1787 0.0000
# 6 0.0000 0.0000 0.0000 -99.4061 0.0000 112.4039
#
#
#
# Elastic Compliance Matrix: (Units=1/GPa)
#
#
# Indices 1 2 3 4 5 6 
#
# 1 0.040651 -0.006561 -0.028134 0.000000 -0.005282 0.000000
# 2 -0.006561 0.015859 -0.005989 0.000000 -0.003192 0.000000
# 3 -0.028134 -0.005989 0.040373 0.000000 0.010636 0.000000
# 4 0.000000 0.000000 0.000000 0.019198 0.000000 0.016978
# 5 -0.005282 -0.003192 0.010636 0.000000 0.027936 0.000000
# 6 0.000000 0.000000 0.000000 0.016978 0.000000 0.023912
#
#
# Mechanical properties :
#
#
# Convention : Reuss Voigt Hill
#
# Bulk Modulus (GPa) = 64.45394 65.87550 65.16472
# Shear Modulus (GPa) = 19.64868 64.64323 42.14595
#
# Velocity S-wave (km/s) = 3.21792 5.83673 4.71288
# Velocity P-wave (km/s) = 6.91190 8.95210 7.99732
#
# Compressibility (1/GPa) = 0.01551495
#
# Stress axis : x y z
#
# Youngs Moduli (GPa) = 24.59945 63.05569 24.76875
#
# Poissons Ratio (x) = 0.41372 0.69685
# Poissons Ratio (y) = 0.16140 0.14834
# Poissons Ratio (z) = 0.69208 0.37765
#
# Static dielectric constant tensor:
#      x y z
#    x 3.399010 0.000000 -0.175980 
#    y 0.000000 3.405400 0.000000 
#    z -0.175980 0.000000 3.448860 
# 
# 
# High freq. dielectric constant tensor:
#      x y z
#    x 1.730890 0.000000 -0.016750 
#    y 0.000000 1.742170 0.000000 
#    z -0.016750 0.000000 1.735680 
# 
# From -- ./inp_files/106746.got.cif
#   From: 2010.06.25/outbox.cif.g09.slc.cpg/sg15_54_cif.got.tgz:106746.got - 2010.06.28 07:06:18.
