data_PCOD8141606
_publ_section_title
;
Structure prediction by ZEFSAII (Michael W. Deem and Ramdas Pophale) SiO2 
 PCOD8141606
Probable space group: C 2/C
;
_chemical_formula_sum "Si O2"
_cell_formula_units_Z 64
_cell_length_a 33.083298
_cell_length_b 5.175286
_cell_length_c 15.582307
_cell_angle_alpha 90.000000
_cell_angle_beta 89.364195
_cell_angle_gamma 90.000000
_cell_volume 2667.768671
_symmetry_space_group_name_H-M "C 2/C"
_symmetry_group_IT_number 15
_symmetry_cell_setting 'monoclinic'
loop_
_space_group_symop_operation_xyz
x,y,z
-x,y,1/2-z
-x,-y,-z
x,-y,1/2+z
1/2+x,1/2+y,z
1/2-x,1/2+y,1/2-z
1/2-x,1/2-y,-z
1/2+x,1/2-y,1/2+z
loop_
_atom_site_type_symbol
_atom_site_label
_atom_site_fract_x
_atom_site_fract_y
_atom_site_fract_z
Si Si1 0.042659 0.614048 0.977027
Si Si2 0.256003 0.651909 0.143855
Si Si3 0.953317 0.363713 0.224185
Si Si4 0.906195 0.137970 0.718764
Si Si5 0.669568 0.515990 0.043863
Si Si6 0.685234 0.592723 0.728331
Si Si7 0.415491 0.615203 0.514977
Si Si8 0.712288 0.996106 0.988216
O O1 0.048912 0.621700 0.876659
O O2 0.073405 0.402859 0.016807
O O3 0.049687 0.904761 0.011156
O O4 0.000000 0.500000 0.000000
O O5 0.295742 0.569553 0.194396
O O6 0.246396 0.460932 0.062795
O O7 0.216800 0.671948 0.207251
O O8 0.265723 0.935940 0.102279
O O9 0.932469 0.627125 0.258133
O O10 0.000000 0.339651 0.250000
O O11 0.926521 0.121076 0.258127
O O12 0.907141 0.117353 0.616389
O O13 0.859485 0.186772 0.745812
O O14 0.681757 0.577557 0.141812
O O15 0.684044 0.235482 0.014677
O O16 0.686099 0.738820 0.980217
O O17 0.621808 0.514040 0.038356
#
# Coordination Sequence:
#
# PCOD8141606 Si02
#       8
#     8   8   8   8   8   8   8   8
#     4  10  21  37  60  87 115 153 199 245 298 369
#     4  10  23  41  63  91 128 170 214 263 314 369
#     4  10  22  41  64  90 122 159 199 248 316 381
#     4  10  23  40  61  91 125 163 202 251 312 375
#     4  11  23  40  63  91 120 160 213 262 308 364
#     4  11  24  39  63  96 129 164 215 268 313 362
#     4  10  21  38  58  84 120 158 197 245 307 370
#     4  10  23  42  64  87 120 169 213 253 312 372
#
# _framework density 23.990085000000001
#
# number of rings (size 3 to 8) (size 9 to 14) (size 15 to 20)
#    0.000    1.750    0.000    3.000    0.000   13.500 
#    0.000    0.000    0.000    0.000    0.000    0.000 
#    0.000    0.000    0.000    0.000    0.000    0.000 
#
# Total GULP energy -396636.330150 kJ/mol
# GULP energy per Si atom -12394.885317 kJ/mol
# Density = 2.393548 g / cm^3
# Si number density = 23.990085 Si / 1000 Ang^3
#
#
#
# Elastic Constant Matrix: (Units=GPa)
#
#
# Indices 1 2 3 4 5 6 
#
# 1 152.9797 33.6719 22.8603 0.0000 6.5354 0.0000
# 2 33.6719 108.7192 15.4632 0.0000 4.7619 0.0000
# 3 22.8603 15.4632 45.1430 0.0000 7.5840 0.0000
# 4 0.0000 0.0000 0.0000 29.0744 0.0000 4.4764
# 5 6.5354 4.7619 7.5840 0.0000 43.6896 0.0000
# 6 0.0000 0.0000 0.0000 4.4764 0.0000 47.9184
#
#
#
# Elastic Compliance Matrix: (Units=1/GPa)
#
#
# Indices 1 2 3 4 5 6 
#
# 1 0.007416 -0.001845 -0.003060 0.000000 -0.000377 0.000000
# 2 -0.001845 0.010138 -0.002471 0.000000 -0.000400 0.000000
# 3 -0.003060 -0.002471 0.025160 0.000000 -0.003640 0.000000
# 4 0.000000 0.000000 0.000000 0.034896 0.000000 -0.003260
# 5 -0.000377 -0.000400 -0.003640 0.000000 0.023621 0.000000
# 6 0.000000 0.000000 0.000000 -0.003260 0.000000 0.021173
#
#
# Mechanical properties :
#
#
# Convention : Reuss Voigt Hill
#
# Bulk Modulus (GPa) = 35.76392 50.09253 42.92823
# Shear Modulus (GPa) = 34.13472 39.79293 36.96383
#
# Velocity S-wave (km/s) = 3.77618 4.07716 3.92956
# Velocity P-wave (km/s) = 5.82691 6.56431 6.20657
#
# Compressibility (1/GPa) = 0.02796114
#
# Stress axis : x y z
#
# Youngs Moduli (GPa) = 134.83703 98.63400 39.74634
#
# Poissons Ratio (x) = 0.18200 0.12163
# Poissons Ratio (y) = 0.24880 0.09822
# Poissons Ratio (z) = 0.41263 0.24375
#
# Static dielectric constant tensor:
#      x y z
#    x 4.399870 0.000000 -0.012160 
#    y 0.000000 4.471690 0.000000 
#    z -0.012160 0.000000 4.277780 
# 
# 
# High freq. dielectric constant tensor:
#      x y z
#    x 1.962620 0.000000 -0.000130 
#    y 0.000000 1.953680 0.000000 
#    z -0.000130 0.000000 1.940800 
# 
# From -- ./inp_files/223901.got.cif
#   From: 2010.06.25/outbox.cif.g09.slc.cpg/sg15_112_cif.got.tgz:223901.got - 2010.06.28 07:06:18.
