data_PCOD8141629
_publ_section_title
;
Structure prediction by ZEFSAII (Michael W. Deem and Ramdas Pophale) SiO2 
 PCOD8141629
Probable space group: C 2/C
;
_chemical_formula_sum "Si O2"
_cell_formula_units_Z 56
_cell_length_a 17.912631
_cell_length_b 17.934142
_cell_length_c 8.783732
_cell_angle_alpha 90.000000
_cell_angle_beta 67.170393
_cell_angle_gamma 90.000000
_cell_volume 2600.705113
_symmetry_space_group_name_H-M "C 2/C"
_symmetry_group_IT_number 15
_symmetry_cell_setting 'monoclinic'
loop_
_space_group_symop_operation_xyz
x,y,z
-x,y,1/2-z
-x,-y,-z
x,-y,1/2+z
1/2+x,1/2+y,z
1/2-x,1/2+y,1/2-z
1/2-x,1/2-y,-z
1/2+x,1/2-y,1/2+z
loop_
_atom_site_type_symbol
_atom_site_label
_atom_site_fract_x
_atom_site_fract_y
_atom_site_fract_z
Si Si1 0.782997 0.188305 0.759853
Si Si2 0.060892 0.593565 0.010866
Si Si3 0.000000 0.013847 0.750000
Si Si4 0.118356 0.435472 0.911665
Si Si5 0.374596 0.171322 0.814034
Si Si6 0.184262 0.344020 0.621148
Si Si7 0.567868 0.400980 0.476384
Si Si8 0.000000 0.793608 0.750000
O O1 0.707413 0.193127 0.706644
O O2 0.816570 0.270567 0.771663
O O3 0.845909 0.137557 0.618626
O O4 0.758225 0.152432 0.943029
O O5 0.099046 0.654293 0.095204
O O6 0.966625 0.577102 0.113854
O O7 0.118276 0.519553 0.973403
O O8 0.063328 0.625187 0.838772
O O9 0.956362 0.067175 0.666269
O O10 0.068700 0.965441 0.606193
O O11 0.186402 0.417149 0.729502
O O12 0.139579 0.378469 0.027669
O O13 0.416939 0.248333 0.823108
O O14 0.501568 0.342167 0.593067
#
# Coordination Sequence:
#
# PCOD8141629 Si02
#       8
#     8   8   4   8   8   8   8   4
#     4  10  24  43  61  92 136 163 210 264 328 374
#     4  10  21  37  60  91 130 170 214 259 304 377
#     4   9  22  46  74  94 123 154 226 266 317 390
#     4  11  20  37  63  90 128 173 216 257 305 375
#     4  11  22  40  60  97 129 167 217 260 311 392
#     4  10  22  39  58  90 129 172 207 260 316 380
#     4  10  22  45  68  97 120 165 206 276 325 375
#     4  11  22  38  70  94 121 164 220 256 325 378
#
# _framework density 21.532623000000001
#
# number of rings (size 3 to 8) (size 9 to 14) (size 15 to 20)
#    0.000    1.714    1.429    2.143    0.000    8.000 
#   10.286    1.429    0.000    0.000    0.000    0.000 
#    0.000    0.000    0.000    0.000    0.000    0.000 
#
# Total GULP energy -346986.739875 kJ/mol
# GULP energy per Si atom -12392.383567 kJ/mol
# Density = 2.148361 g / cm^3
# Si number density = 21.532623 Si / 1000 Ang^3
#
#
#
# Elastic Constant Matrix: (Units=GPa)
#
#
# Indices 1 2 3 4 5 6 
#
# 1 74.4129 43.8084 23.3279 0.0000 12.5856 0.0000
# 2 43.8084 108.0914 49.1221 0.0000 10.9981 0.0000
# 3 23.3279 49.1221 108.0588 0.0000 5.7720 0.0000
# 4 0.0000 0.0000 0.0000 0.3323 0.0000 -39.3308
# 5 12.5856 10.9981 5.7720 0.0000 27.6641 0.0000
# 6 0.0000 0.0000 0.0000 -39.3308 0.0000 -19.2575
#
#
#
# Elastic Compliance Matrix: (Units=1/GPa)
#
#
# Indices 1 2 3 4 5 6 
#
# 1 0.018501 -0.006612 -0.000687 0.000000 -0.005645 0.000000
# 2 -0.006612 0.014382 -0.005022 0.000000 -0.001662 0.000000
# 3 -0.000687 -0.005022 0.011692 0.000000 -0.000131 0.000000
# 4 0.000000 0.000000 0.000000 0.012398 0.000000 -0.025321
# 5 -0.005645 -0.001662 -0.000131 0.000000 0.039404 0.000000
# 6 0.000000 0.000000 0.000000 -0.025321 0.000000 -0.000214
#
#
# Mechanical properties :
#
#
# Convention : Reuss Voigt Hill
#
# Bulk Modulus (GPa) = 50.16364 58.11998 54.14181
# Shear Modulus (GPa) = 39.23104 13.36808 26.29956
#
# Velocity S-wave (km/s) = 4.27304 2.49435 3.49862
# Velocity P-wave (km/s) = 6.90597 5.94524 6.44353
#
# Compressibility (1/GPa) = 0.01993476
#
# Stress axis : x y z
#
# Youngs Moduli (GPa) = 54.05071 69.52913 85.52569
#
# Poissons Ratio (x) = 0.45971 0.05875
# Poissons Ratio (y) = 0.35737 0.42950
# Poissons Ratio (z) = 0.03713 0.34917
#
# Static dielectric constant tensor:
#      x y z
#    x 3.540060 0.000000 0.018390 
#    y 0.000000 4.048370 0.000000 
#    z 0.018390 0.000000 4.316300 
# 
# 
# High freq. dielectric constant tensor:
#      x y z
#    x 1.811740 0.000000 0.009680 
#    y 0.000000 1.847910 0.000000 
#    z 0.009680 0.000000 1.874280 
# 
# From -- ./inp_files/49069.got.cif
#   From: 2010.06.25/outbox.cif.g09.slc.cpg/sg15_25_cif.got.tgz:49069.got - 2010.06.28 07:06:18.
