data_PCOD8141526
_publ_section_title
;
Structure prediction by ZEFSAII (Michael W. Deem and Ramdas Pophale) SiO2 
 PCOD8141526
Probable space group: C 2/C
;
_chemical_formula_sum "Si O2"
_cell_formula_units_Z 60
_cell_length_a 5.000981
_cell_length_b 22.607688
_cell_length_c 23.290123
_cell_angle_alpha 90.000000
_cell_angle_beta 76.994891
_cell_angle_gamma 90.000000
_cell_volume 2565.654239
_symmetry_space_group_name_H-M "C 2/C"
_symmetry_group_IT_number 15
_symmetry_cell_setting 'monoclinic'
loop_
_space_group_symop_operation_xyz
x,y,z
-x,y,1/2-z
-x,-y,-z
x,-y,1/2+z
1/2+x,1/2+y,z
1/2-x,1/2+y,1/2-z
1/2-x,1/2-y,-z
1/2+x,1/2-y,1/2+z
loop_
_atom_site_type_symbol
_atom_site_label
_atom_site_fract_x
_atom_site_fract_y
_atom_site_fract_z
Si Si1 0.239282 0.884818 0.537434
Si Si2 0.147449 0.953710 0.651970
Si Si3 0.186327 0.316209 0.576760
Si Si4 0.894237 0.611959 0.313690
Si Si5 0.300608 0.688599 0.878714
Si Si6 0.000000 0.155073 0.750000
Si Si7 0.276845 0.883374 0.407744
Si Si8 0.273383 0.051462 0.800574
O O1 0.212513 0.941901 0.581059
O O2 0.511378 0.845273 0.534002
O O3 0.247548 0.910926 0.472702
O O4 0.995382 0.837971 0.555755
O O5 0.426660 0.945807 0.675291
O O6 0.922724 0.904319 0.679265
O O7 0.013057 0.016142 0.676332
O O8 0.053053 0.338143 0.642312
O O9 0.163582 0.245749 0.582314
O O10 0.000000 0.639561 0.250000
O O11 0.374066 0.696326 0.807116
O O12 0.481417 0.637026 0.898427
O O13 0.981885 0.671863 0.897814
O O14 0.224030 0.112729 0.768944
O O15 0.389027 0.934414 0.359154
O O16 0.500000 0.017142 0.750000
#
# Coordination Sequence:
#
# PCOD8141526 Si02
#       8
#     8   8   8   8   8   4   8   8
#     4  10  22  43  59  93 127 159 210 267 302 388
#     4  10  23  37  62  88 123 161 206 255 317 368
#     4  10  22  39  63  89 127 163 209 256 319 371
#     4  10  21  37  57  91 122 159 205 260 308 376
#     4  11  23  40  63  94 119 174 204 258 319 373
#     4  10  24  40  60  88 136 150 214 258 306 382
#     4  11  24  40  64  89 127 164 212 259 315 366
#     4  11  23  41  63  91 124 167 210 265 318 380
#
# _framework density 23.385849
#
# number of rings (size 3 to 8) (size 9 to 14) (size 15 to 20)
#    0.000    1.600    1.333    2.400    4.667    3.733 
#    0.000    0.000    0.000    7.200    0.000    0.000 
#    0.000    0.000    0.000    0.000    0.000    0.000 
#
# Total GULP energy -371885.041012 kJ/mol
# GULP energy per Si atom -12396.168034 kJ/mol
# Density = 2.333262 g / cm^3
# Si number density = 23.385849 Si / 1000 Ang^3
#
#
#
# Elastic Constant Matrix: (Units=GPa)
#
#
# Indices 1 2 3 4 5 6 
#
# 1 73.5320 -0.1768 9.3141 0.0000 0.5975 0.0000
# 2 -0.1768 49.1263 2.4507 0.0000 -7.8010 0.0000
# 3 9.3141 2.4507 136.9039 0.0000 5.8497 0.0000
# 4 0.0000 0.0000 0.0000 23.5059 0.0000 -0.9277
# 5 0.5975 -7.8010 5.8497 0.0000 27.3291 0.0000
# 6 0.0000 0.0000 0.0000 -0.9277 0.0000 29.2942
#
#
#
# Elastic Compliance Matrix: (Units=1/GPa)
#
#
# Indices 1 2 3 4 5 6 
#
# 1 0.013718 0.000084 -0.000932 0.000000 -0.000077 0.000000
# 2 0.000084 0.021380 -0.000655 0.000000 0.006241 0.000000
# 3 -0.000932 -0.000655 0.007455 0.000000 -0.001762 0.000000
# 4 0.000000 0.000000 0.000000 0.042596 0.000000 0.001349
# 5 -0.000077 0.006241 -0.001762 0.000000 0.038751 0.000000
# 6 0.000000 0.000000 0.000000 0.001349 0.000000 0.034179
#
#
# Mechanical properties :
#
#
# Convention : Reuss Voigt Hill
#
# Bulk Modulus (GPa) = 25.28639 31.41536 28.35088
# Shear Modulus (GPa) = 28.69153 32.55745 30.62449
#
# Velocity S-wave (km/s) = 3.50648 3.73525 3.62267
# Velocity P-wave (km/s) = 5.21824 5.66263 5.44497
#
# Compressibility (1/GPa) = 0.03954696
#
# Stress axis : x y z
#
# Youngs Moduli (GPa) = 72.89514 46.77328 134.14178
#
# Poissons Ratio (x) = -0.00391 0.12496
# Poissons Ratio (y) = -0.00610 0.08787
# Poissons Ratio (z) = 0.06790 0.03064
#
# Static dielectric constant tensor:
#      x y z
#    x 4.221670 0.000000 0.018750 
#    y 0.000000 3.758050 0.000000 
#    z 0.018750 0.000000 4.632460 
# 
# 
# High freq. dielectric constant tensor:
#      x y z
#    x 1.935110 0.000000 0.001840 
#    y 0.000000 1.885890 0.000000 
#    z 0.001840 0.000000 1.945150 
# 
# From -- ./inp_files/261662.got.cif
#   From: 2010.06.25/outbox.cif.g09.slc.cpg/sg15_131_cif.got.tgz:261662.got - 2010.06.28 07:06:18.
