data_PCOD8141648
_publ_section_title
;
Structure prediction by ZEFSAII (Michael W. Deem and Ramdas Pophale) SiO2 
 PCOD8141648
Probable space group: C 2/C
;
_chemical_formula_sum "Si O2"
_cell_formula_units_Z 36
_cell_length_a 6.812060
_cell_length_b 13.804335
_cell_length_c 21.212306
_cell_angle_alpha 90.000000
_cell_angle_beta 54.240421
_cell_angle_gamma 90.000000
_cell_volume 1618.667603
_symmetry_space_group_name_H-M "C 2/C"
_symmetry_group_IT_number 15
_symmetry_cell_setting 'monoclinic'
loop_
_space_group_symop_operation_xyz
x,y,z
-x,y,1/2-z
-x,-y,-z
x,-y,1/2+z
1/2+x,1/2+y,z
1/2-x,1/2+y,1/2-z
1/2-x,1/2-y,-z
1/2+x,1/2-y,1/2+z
loop_
_atom_site_type_symbol
_atom_site_label
_atom_site_fract_x
_atom_site_fract_y
_atom_site_fract_z
Si Si1 0.516445 0.282213 0.124413
Si Si2 0.233337 0.605941 0.513618
Si Si3 0.649327 0.105021 0.025768
Si Si4 0.556254 0.730961 0.376181
Si Si5 0.500000 0.753761 0.250000
O O1 0.520025 0.169444 0.103120
O O2 0.692899 0.283618 0.152273
O O3 0.245952 0.316484 0.194405
O O4 0.606298 0.347444 0.049031
O O5 0.239787 0.496651 0.539493
O O6 0.491367 0.642598 0.436204
O O7 0.042731 0.597682 0.493313
O O8 0.150926 0.685364 0.580552
O O9 0.551261 0.692443 0.304667
#
# Coordination Sequence:
#
# PCOD8141648 Si02
#       5
#     8   8   8   8   4
#     4  10  21  37  61  86 113 154 192 233 289 338
#     4   9  18  37  64  88 113 148 195 241 279 336
#     4   9  18  37  64  88 113 148 195 241 279 336
#     4  10  21  37  61  86 113 154 192 233 289 338
#     4  12  22  40  56  82 124 156 178 248 284 346
#
# _framework density 22.240514000000001
#
# number of rings (size 3 to 8) (size 9 to 14) (size 15 to 20)
#    0.000    2.222    2.222    0.667    3.111    0.889 
#    0.000    2.222    0.000    0.000    0.000    0.000 
#    0.000    0.000    0.000    0.000    0.000    0.000 
#
# Total GULP energy -222989.419657 kJ/mol
# GULP energy per Si atom -12388.301092 kJ/mol
# Density = 2.218989 g / cm^3
# Si number density = 22.240514 Si / 1000 Ang^3
#
#
#
# Elastic Constant Matrix: (Units=GPa)
#
#
# Indices 1 2 3 4 5 6 
#
# 1 49.9437 -7.9896 42.5367 -0.0005 -16.9626 0.0003
# 2 -7.9896 118.0185 21.7487 -0.0001 3.0733 0.0000
# 3 42.5367 21.7487 114.6341 -0.0001 -9.6604 -0.0001
# 4 -0.0005 -0.0001 -0.0001 11.4975 0.0004 0.5038
# 5 -16.9626 3.0733 -9.6604 0.0004 54.6793 -0.0003
# 6 0.0003 0.0000 -0.0001 0.5038 -0.0003 17.1257
#
#
#
# Elastic Compliance Matrix: (Units=1/GPa)
#
#
# Indices 1 2 3 4 5 6 
#
# 1 0.034607 0.004527 -0.013011 0.000001 0.008183 -0.000001
# 2 0.004527 0.009407 -0.003442 0.000000 0.000268 0.000000
# 3 -0.013011 -0.003442 0.014090 0.000000 -0.001353 0.000000
# 4 0.000001 0.000000 0.000000 0.087088 0.000000 -0.002562
# 5 0.008183 0.000268 -0.001353 0.000000 0.020573 0.000000
# 6 -0.000001 0.000000 0.000000 -0.002562 0.000000 0.058467
#
#
# Mechanical properties :
#
#
# Convention : Reuss Voigt Hill
#
# Bulk Modulus (GPa) = 29.19418 43.90976 36.55197
# Shear Modulus (GPa) = 19.26769 31.74719 25.50744
#
# Velocity S-wave (km/s) = 2.94655 3.78226 3.39025
# Velocity P-wave (km/s) = 4.97305 6.23378 5.63876
#
# Compressibility (1/GPa) = 0.03425340
#
# Stress axis : x y z
#
# Youngs Moduli (GPa) = 28.89564 106.30255 70.97067
#
# Poissons Ratio (x) = -0.48128 0.92340
# Poissons Ratio (y) = -0.13082 0.24429
# Poissons Ratio (z) = 0.37596 0.36591
#
# Static dielectric constant tensor:
#      x y z
#    x 4.224250 0.000000 -0.148180 
#    y 0.000000 4.083690 0.000000 
#    z -0.148180 0.000000 3.868420 
# 
# 
# High freq. dielectric constant tensor:
#      x y z
#    x 1.913860 0.000000 -0.006560 
#    y 0.000000 1.828350 0.000000 
#    z -0.006560 0.000000 1.850210 
# 
# From -- ./inp_files/230399.got.cif
#   From: 2010.06.25/outbox.cif.g09.slc.cpg/sg15_116_cif.got.tgz:230399.got - 2010.06.28 07:06:18.
