data_PCOD8141981
_publ_section_title
;
Structure prediction by ZEFSAII (Michael W. Deem and Ramdas Pophale) SiO2 
 PCOD8141981
Probable space group: C 2/C
;
_chemical_formula_sum "Si O2"
_cell_formula_units_Z 52
_cell_length_a 20.259039
_cell_length_b 8.917456
_cell_length_c 17.984581
_cell_angle_alpha 90.000000
_cell_angle_beta 49.051300
_cell_angle_gamma 90.000000
_cell_volume 2454.017848
_symmetry_space_group_name_H-M "C 2/C"
_symmetry_group_IT_number 15
_symmetry_cell_setting 'monoclinic'
loop_
_space_group_symop_operation_xyz
x,y,z
-x,y,1/2-z
-x,-y,-z
x,-y,1/2+z
1/2+x,1/2+y,z
1/2-x,1/2+y,1/2-z
1/2-x,1/2-y,-z
1/2+x,1/2-y,1/2+z
loop_
_atom_site_type_symbol
_atom_site_label
_atom_site_fract_x
_atom_site_fract_y
_atom_site_fract_z
Si Si1 0.000000 0.597473 0.750000
Si Si2 0.185556 0.268981 0.118611
Si Si3 0.813649 0.032959 0.609436
Si Si4 0.233434 0.014792 0.188411
Si Si5 0.477472 0.936593 0.906272
Si Si6 0.301413 0.229762 0.538024
Si Si7 0.913072 0.682613 0.055698
O O1 0.086694 0.694044 0.665383
O O2 0.973131 0.485176 0.704246
O O3 0.223023 0.398680 0.145120
O O4 0.178567 0.116012 0.171118
O O5 0.250000 0.250000 0.000000
O O6 0.892041 0.152618 0.539285
O O7 0.812624 0.000810 0.698150
O O8 0.836112 0.885498 0.546024
O O9 0.325634 0.090969 0.135964
O O10 0.242700 0.850744 0.144405
O O11 0.533744 0.808868 0.906101
O O12 0.381731 0.876597 0.958182
O O13 0.473996 0.092744 0.954114
O O14 0.250000 0.250000 0.500000
#
# Coordination Sequence:
#
# PCOD8141981 Si02
#       7
#     4   8   8   8   8   8   8
#     4  12  22  38  68  94 120 166 218 260 316 390
#     4  11  23  42  65  91 125 168 213 259 316 384
#     4  11  21  37  63  88 119 165 211 256 316 379
#     4  10  21  38  60  87 118 159 208 254 309 375
#     4  10  22  38  59  86 119 157 206 260 311 376
#     4  11  22  37  58  88 127 164 199 257 328 378
#     4   9  20  39  59  83 117 159 206 253 308 369
#
# _framework density 21.18974
#
# number of rings (size 3 to 8) (size 9 to 14) (size 15 to 20)
#    0.000    1.538    0.000    7.385    0.000    4.308 
#    0.000    3.077    0.000    1.846    0.000    0.000 
#    0.000    0.000    0.000    0.000    0.000    0.000 
#
# Total GULP energy -322371.254223 kJ/mol
# GULP energy per Si atom -12398.894393 kJ/mol
# Density = 2.114151 g / cm^3
# Si number density = 21.189740 Si / 1000 Ang^3
#
#
#
# Elastic Constant Matrix: (Units=GPa)
#
#
# Indices 1 2 3 4 5 6 
#
# 1 126.5470 39.0818 42.6416 0.0000 14.9800 -0.0001
# 2 39.0818 122.0513 37.2242 0.0003 15.4967 0.0001
# 3 42.6416 37.2242 93.0828 0.0001 17.2853 0.0000
# 4 0.0000 0.0003 0.0001 24.6026 -0.0001 8.8533
# 5 14.9800 15.4967 17.2853 -0.0001 34.6495 0.0001
# 6 -0.0001 0.0001 0.0000 8.8533 0.0001 38.6455
#
#
#
# Elastic Compliance Matrix: (Units=1/GPa)
#
#
# Indices 1 2 3 4 5 6 
#
# 1 0.009845 -0.001888 -0.003440 0.000000 -0.001696 0.000000
# 2 -0.001888 0.009902 -0.002672 0.000000 -0.002280 0.000000
# 3 -0.003440 -0.002672 0.014205 0.000000 -0.004404 0.000000
# 4 0.000000 0.000000 0.000000 0.044298 0.000000 -0.010148
# 5 -0.001696 -0.002280 -0.004404 0.000000 0.032810 0.000000
# 6 0.000000 0.000000 0.000000 -0.010148 0.000000 0.028201
#
#
# Mechanical properties :
#
#
# Convention : Reuss Voigt Hill
#
# Bulk Modulus (GPa) = 55.70114 64.39737 60.04925
# Shear Modulus (GPa) = 31.00847 34.42841 32.71844
#
# Velocity S-wave (km/s) = 3.82955 4.03521 3.93373
# Velocity P-wave (km/s) = 6.77480 7.22270 7.00233
#
# Compressibility (1/GPa) = 0.01795295
#
# Stress axis : x y z
#
# Youngs Moduli (GPa) = 101.57195 100.98873 70.39582
#
# Poissons Ratio (x) = 0.19067 0.24218
# Poissons Ratio (y) = 0.19177 0.18808
# Poissons Ratio (z) = 0.34943 0.26981
#
# Static dielectric constant tensor:
#      x y z
#    x 3.968110 0.000000 0.231920 
#    y 0.000000 3.991670 0.000000 
#    z 0.231920 0.000000 3.628940 
# 
# 
# High freq. dielectric constant tensor:
#      x y z
#    x 1.838970 0.000000 0.020440 
#    y 0.000000 1.829320 0.000000 
#    z 0.020440 0.000000 1.816940 
# 
# From -- ./inp_files/214248.got.cif
#   From: 2010.06.25/outbox.cif.g09.slc.cpg/sg15_108_cif.got.tgz:214248.got - 2010.06.28 07:06:18.
