data_PCOD8141801
_publ_section_title
;
Structure prediction by ZEFSAII (Michael W. Deem and Ramdas Pophale) SiO2 
 PCOD8141801
Probable space group: C 2/C
;
_chemical_formula_sum "Si O2"
_cell_formula_units_Z 64
_cell_length_a 26.586740
_cell_length_b 8.737751
_cell_length_c 14.016123
_cell_angle_alpha 90.000000
_cell_angle_beta 110.770403
_cell_angle_gamma 90.000000
_cell_volume 3044.447143
_symmetry_space_group_name_H-M "C 2/C"
_symmetry_group_IT_number 15
_symmetry_cell_setting 'monoclinic'
loop_
_space_group_symop_operation_xyz
x,y,z
-x,y,1/2-z
-x,-y,-z
x,-y,1/2+z
1/2+x,1/2+y,z
1/2-x,1/2+y,1/2-z
1/2-x,1/2-y,-z
1/2+x,1/2-y,1/2+z
loop_
_atom_site_type_symbol
_atom_site_label
_atom_site_fract_x
_atom_site_fract_y
_atom_site_fract_z
Si Si1 0.179528 0.229684 0.175076
Si Si2 0.596950 0.730415 0.961586
Si Si3 0.862931 0.547223 0.163068
Si Si4 0.900517 0.132135 0.045501
Si Si5 0.799114 0.671186 0.480022
Si Si6 0.221148 0.451183 0.741659
Si Si7 0.496098 0.677638 0.475100
Si Si8 0.415018 0.252826 0.758075
O O1 0.216491 0.365923 0.241172
O O2 0.220500 0.093361 0.175588
O O3 0.138317 0.174799 0.229064
O O4 0.144324 0.291625 0.062556
O O5 0.604513 0.813521 0.865277
O O6 0.603224 0.549131 0.966520
O O7 0.536734 0.767079 0.963224
O O8 0.826313 0.618134 0.223303
O O9 0.906448 0.429713 0.236537
O O10 0.824508 0.461640 0.061992
O O11 0.924016 0.162072 0.165611
O O12 0.940995 0.219585 0.997896
O O13 0.842227 0.197987 0.987983
O O14 0.750000 0.750000 0.500000
O O15 0.780359 0.604117 0.367585
O O16 0.500000 0.500000 0.500000
O O17 0.466745 0.713736 0.356084
#
# Coordination Sequence:
#
# PCOD8141801 Si02
#       8
#     8   8   8   8   8   8   8   8
#     4  10  22  37  58  85 122 167 201 262 305 375
#     4  10  21  40  60  91 127 153 209 266 315 363
#     4  10  22  39  61  90 124 165 208 263 313 371
#     4  10  21  37  65  91 116 164 208 249 316 380
#     4  11  23  41  61  86 128 167 207 256 311 382
#     4  11  22  38  59  86 124 164 213 250 314 370
#     4   9  19  39  67  89 121 158 202 262 311 376
#     4   9  19  39  63  85 121 160 206 248 321 372
#
# _framework density 21.021878000000001
#
# number of rings (size 3 to 8) (size 9 to 14) (size 15 to 20)
#    0.000    2.000    1.250    2.625    3.500    2.500 
#    4.500    2.500    8.250    0.000    0.000    0.000 
#    0.000    0.000    0.000    0.000    0.000    0.000 
#
# Total GULP energy -396596.673435 kJ/mol
# GULP energy per Si atom -12393.646045 kJ/mol
# Density = 2.097403 g / cm^3
# Si number density = 21.021878 Si / 1000 Ang^3
#
#
#
# Elastic Constant Matrix: (Units=GPa)
#
#
# Indices 1 2 3 4 5 6 
#
# 1 160.2740 42.6789 27.9080 0.0000 -5.8472 0.0000
# 2 42.6789 46.9160 9.4226 0.0000 4.4015 0.0000
# 3 27.9080 9.4226 51.3062 0.0000 -8.7119 0.0000
# 4 0.0000 0.0000 0.0000 27.9719 0.0000 -6.4841
# 5 -5.8472 4.4015 -8.7119 0.0000 32.8022 0.0000
# 6 0.0000 0.0000 0.0000 -6.4841 0.0000 29.9065
#
#
#
# Elastic Compliance Matrix: (Units=1/GPa)
#
#
# Indices 1 2 3 4 5 6 
#
# 1 0.008876 -0.007612 -0.003129 0.000000 0.001773 0.000000
# 2 -0.007612 0.029237 -0.002226 0.000000 -0.005871 0.000000
# 3 -0.003129 -0.002226 0.022576 0.000000 0.005737 0.000000
# 4 0.000000 0.000000 0.000000 0.037642 0.000000 0.008161
# 5 0.001773 -0.005871 0.005737 0.000000 0.033113 0.000000
# 6 0.000000 0.000000 0.000000 0.008161 0.000000 0.035207
#
#
# Mechanical properties :
#
#
# Convention : Reuss Voigt Hill
#
# Bulk Modulus (GPa) = 28.77298 46.50168 37.63733
# Shear Modulus (GPa) = 24.48942 30.03524 27.26233
#
# Velocity S-wave (km/s) = 3.41684 3.78400 3.60509
# Velocity P-wave (km/s) = 5.41140 6.42341 5.93900
#
# Compressibility (1/GPa) = 0.03475482
#
# Stress axis : x y z
#
# Youngs Moduli (GPa) = 112.66550 34.20302 44.29527
#
# Poissons Ratio (x) = 0.26036 0.13860
# Poissons Ratio (y) = 0.85762 0.09859
# Poissons Ratio (z) = 0.35254 0.07613
#
# Static dielectric constant tensor:
#      x y z
#    x 4.306180 0.000000 -0.162200 
#    y 0.000000 3.627060 0.000000 
#    z -0.162200 0.000000 3.823410 
# 
# 
# High freq. dielectric constant tensor:
#      x y z
#    x 1.842400 0.000000 -0.012510 
#    y 0.000000 1.802490 0.000000 
#    z -0.012510 0.000000 1.818270 
# 
# From -- ./inp_files/176643.got.cif
#   From: 2010.06.25/outbox.cif.g09.slc.cpg/sg15_89_cif.got.tgz:176643.got - 2010.06.28 07:06:18.
