data_PCOD8141168
_publ_section_title
;
Structure prediction by ZEFSAII (Michael W. Deem and Ramdas Pophale) SiO2 
 PCOD8141168
Probable space group: C 2/C
;
_chemical_formula_sum "Si O2"
_cell_formula_units_Z 40
_cell_length_a 28.145495
_cell_length_b 15.003259
_cell_length_c 14.906722
_cell_angle_alpha 90.000000
_cell_angle_beta 163.171663
_cell_angle_gamma 90.000000
_cell_volume 1822.355320
_symmetry_space_group_name_H-M "C 2/C"
_symmetry_group_IT_number 15
_symmetry_cell_setting 'monoclinic'
loop_
_space_group_symop_operation_xyz
x,y,z
-x,y,1/2-z
-x,-y,-z
x,-y,1/2+z
1/2+x,1/2+y,z
1/2-x,1/2+y,1/2-z
1/2-x,1/2-y,-z
1/2+x,1/2-y,1/2+z
loop_
_atom_site_type_symbol
_atom_site_label
_atom_site_fract_x
_atom_site_fract_y
_atom_site_fract_z
Si Si1 0.127653 0.500404 0.116983
Si Si2 0.488569 0.686055 0.957433
Si Si3 0.571198 0.387613 0.785732
Si Si4 0.128944 0.379124 0.786978
Si Si5 0.386681 0.561465 0.460715
O O1 0.245813 0.423402 0.370087
O O2 0.109551 0.581980 0.152579
O O3 0.199645 0.542599 0.155429
O O4 0.953641 0.448645 0.791041
O O5 0.317854 0.632519 0.653173
O O6 0.464972 0.785282 0.879433
O O7 0.613600 0.637976 0.114686
O O8 0.566927 0.685533 0.198856
O O9 0.500000 0.346421 0.750000
O O10 0.459124 0.470537 0.551400
O O11 0.500000 0.591221 0.750000
#
# Coordination Sequence:
#
# PCOD8141168 Si02
#       5
#     8   8   8   8   8
#     4   9  19  40  58  79 127 157 194 240 306 353
#     4  11  20  36  64  91 118 152 204 246 302 348
#     4   9  19  37  62  81 113 167 203 231 289 371
#     4  10  21  35  61  92 119 151 193 258 300 349
#     4   9  17  35  57  84 113 162 192 235 292 363
#
# _framework density 21.949617
#
# number of rings (size 3 to 8) (size 9 to 14) (size 15 to 20)
#    0.000    2.800    4.000    0.600    0.000    0.800 
#    7.200    4.000    0.000    0.000    0.000    0.000 
#    0.000    0.000    0.000    0.000    0.000    0.000 
#
# Total GULP energy -247901.123748 kJ/mol
# GULP energy per Si atom -12395.056187 kJ/mol
# Density = 2.189966 g / cm^3
# Si number density = 21.949617 Si / 1000 Ang^3
#
#
#
# Elastic Constant Matrix: (Units=GPa)
#
#
# Indices 1 2 3 4 5 6 
#
# 1 119.9249 45.0126 28.4427 0.0000 10.4566 0.0000
# 2 45.0126 54.4153 31.8185 0.0000 8.5632 0.0000
# 3 28.4427 31.8185 43.8694 0.0000 25.0128 0.0000
# 4 0.0000 0.0000 0.0000 28.8066 0.0000 6.0370
# 5 10.4566 8.5632 25.0128 0.0000 38.2025 0.0000
# 6 0.0000 0.0000 0.0000 6.0370 0.0000 14.4847
#
#
#
# Elastic Compliance Matrix: (Units=1/GPa)
#
#
# Indices 1 2 3 4 5 6 
#
# 1 0.012140 -0.009744 -0.000245 0.000000 -0.000978 0.000000
# 2 -0.009744 0.044179 -0.034466 0.000000 0.015331 0.000000
# 3 -0.000245 -0.034466 0.069427 0.000000 -0.037664 0.000000
# 4 0.000000 0.000000 0.000000 0.038037 0.000000 -0.015853
# 5 -0.000978 0.015331 -0.037664 0.000000 0.047668 0.000000
# 6 0.000000 0.000000 0.000000 -0.015853 0.000000 0.075646
#
#
# Mechanical properties :
#
#
# Convention : Reuss Voigt Hill
#
# Bulk Modulus (GPa) = 27.14949 47.63968 37.39459
# Shear Modulus (GPa) = 12.87709 23.82780 18.35245
#
# Velocity S-wave (km/s) = 2.42475 3.29837 2.89471
# Velocity P-wave (km/s) = 4.49834 6.02137 5.31469
#
# Compressibility (1/GPa) = 0.03683310
#
# Stress axis : x y z
#
# Youngs Moduli (GPa) = 82.37569 22.63519 14.40353
#
# Poissons Ratio (x) = 0.22057 0.00354
# Poissons Ratio (y) = 0.80270 0.49644
# Poissons Ratio (z) = 0.02022 0.78016
#
# Static dielectric constant tensor:
#      x y z
#    x 3.878440 0.000000 0.358190 
#    y 0.000000 3.669560 0.000000 
#    z 0.358190 0.000000 3.845260 
# 
# 
# High freq. dielectric constant tensor:
#      x y z
#    x 1.858510 0.000000 0.023320 
#    y 0.000000 1.842850 0.000000 
#    z 0.023320 0.000000 1.846910 
# 
# From -- ./inp_files/178496.got.cif
#   From: 2010.06.25/outbox.cif.g09.slc.cpg/sg15_90_cif.got.tgz:178496.got - 2010.06.28 07:06:18.
