data_PCOD8141959
_publ_section_title
;
Structure prediction by ZEFSAII (Michael W. Deem and Ramdas Pophale) SiO2 
 PCOD8141959
Probable space group: C 2/C
;
_chemical_formula_sum "Si O2"
_cell_formula_units_Z 60
_cell_length_a 20.771373
_cell_length_b 23.573860
_cell_length_c 9.179409
_cell_angle_alpha 90.000000
_cell_angle_beta 142.509862
_cell_angle_gamma 90.000000
_cell_volume 2735.648636
_symmetry_space_group_name_H-M "C 2/C"
_symmetry_group_IT_number 15
_symmetry_cell_setting 'monoclinic'
loop_
_space_group_symop_operation_xyz
x,y,z
-x,y,1/2-z
-x,-y,-z
x,-y,1/2+z
1/2+x,1/2+y,z
1/2-x,1/2+y,1/2-z
1/2-x,1/2-y,-z
1/2+x,1/2-y,1/2+z
loop_
_atom_site_type_symbol
_atom_site_label
_atom_site_fract_x
_atom_site_fract_y
_atom_site_fract_z
Si Si1 0.697596 0.874202 0.403774
Si Si2 0.323487 0.875482 0.676297
Si Si3 0.787065 0.801408 0.811797
Si Si4 0.188479 0.960540 0.073572
Si Si5 0.113251 0.684655 0.494254
Si Si6 0.000000 0.132562 0.750000
Si Si7 0.113582 0.057614 0.749071
Si Si8 0.885016 0.460918 0.007354
O O1 0.749387 0.822959 0.586862
O O2 0.785084 0.900381 0.452158
O O3 0.606129 0.846785 0.137700
O O4 0.653490 0.924295 0.424287
O O5 0.303029 0.817863 0.731567
O O6 0.359481 0.862134 0.578650
O O7 0.214312 0.908272 0.482881
O O8 0.403242 0.918227 0.903127
O O9 0.798023 0.733500 0.837062
O O10 0.899662 0.828313 0.048035
O O11 0.111188 0.949313 0.071307
O O12 0.298801 0.990334 0.322910
O O13 0.120269 0.996087 0.835747
O O14 0.000000 0.711347 0.250000
O O15 0.987632 0.092023 0.870878
O O16 0.000000 0.488310 0.250000
#
# Coordination Sequence:
#
# PCOD8141959 Si02
#       8
#     8   8   8   8   8   4   8   8
#     4  11  23  39  61  88 129 165 201 257 315 368
#     4   9  20  38  61  84 121 164 199 251 314 372
#     4  10  22  43  62  85 120 167 207 261 320 359
#     4  11  21  39  60  88 126 165 203 249 316 385
#     4  12  22  37  64  96 120 158 217 255 305 375
#     4  10  22  42  68  86 122 158 216 274 300 370
#     4  10  21  39  61  88 121 162 205 249 318 372
#     4  10  21  38  59  89 126 166 204 249 308 374
#
# _framework density 21.932642000000001
#
# number of rings (size 3 to 8) (size 9 to 14) (size 15 to 20)
#    0.000    1.600    3.333    2.400    0.000    1.600 
#    0.000    0.000    0.000    3.200    0.000    0.000 
#    0.000    0.000    0.000    0.000    0.000    0.000 
#
# Total GULP energy -371944.996286 kJ/mol
# GULP energy per Si atom -12398.166543 kJ/mol
# Density = 2.188272 g / cm^3
# Si number density = 21.932642 Si / 1000 Ang^3
#
#
#
# Elastic Constant Matrix: (Units=GPa)
#
#
# Indices 1 2 3 4 5 6 
#
# 1 84.9601 10.1377 17.0355 0.0000 -30.2448 0.0000
# 2 10.1377 57.0188 5.3547 0.0000 -16.1541 0.0000
# 3 17.0355 5.3547 52.1798 0.0000 -24.3550 0.0000
# 4 0.0000 0.0000 0.0000 13.4665 0.0000 -8.5503
# 5 -30.2448 -16.1541 -24.3550 0.0000 38.5866 0.0000
# 6 0.0000 0.0000 0.0000 -8.5503 0.0000 25.9686
#
#
#
# Elastic Compliance Matrix: (Units=1/GPa)
#
#
# Indices 1 2 3 4 5 6 
#
# 1 0.016398 0.000924 0.001037 0.000000 0.013894 0.000000
# 2 0.000924 0.020206 0.002709 0.000000 0.010893 0.000000
# 3 0.001037 0.002709 0.027583 0.000000 0.019356 0.000000
# 4 0.000000 0.000000 0.000000 0.093886 0.000000 0.030912
# 5 0.013894 0.010893 0.019356 0.000000 0.053584 0.000000
# 6 0.000000 0.000000 0.000000 0.030912 0.000000 0.048686
#
#
# Mechanical properties :
#
#
# Convention : Reuss Voigt Hill
#
# Bulk Modulus (GPa) = 13.60073 28.80160 21.20116
# Shear Modulus (GPa) = 18.14805 26.37973 22.26389
#
# Velocity S-wave (km/s) = 2.87965 3.47185 3.18952
# Velocity P-wave (km/s) = 4.15586 5.40666 4.82199
#
# Compressibility (1/GPa) = 0.07352547
#
# Stress axis : x y z
#
# Youngs Moduli (GPa) = 60.98171 49.49143 36.25472
#
# Poissons Ratio (x) = -0.04571 -0.03759
# Poissons Ratio (y) = -0.05632 -0.09822
# Poissons Ratio (z) = -0.06322 -0.13409
#
# Static dielectric constant tensor:
#      x y z
#    x 4.050360 0.000000 -0.170590 
#    y 0.000000 3.899900 0.000000 
#    z -0.170590 0.000000 3.925570 
# 
# 
# High freq. dielectric constant tensor:
#      x y z
#    x 1.860010 0.000000 -0.016500 
#    y 0.000000 1.857040 0.000000 
#    z -0.016500 0.000000 1.858240 
# 
# From -- ./inp_files/58765.got.cif
#   From: 2010.06.25/outbox.cif.g09.slc.cpg/sg15_30_cif.got.tgz:58765.got - 2010.06.28 07:06:18.
