data_PCOD8141990
_publ_section_title
;
Structure prediction by ZEFSAII (Michael W. Deem and Ramdas Pophale) SiO2 
 PCOD8141990
Probable space group: C 2/C
;
_chemical_formula_sum "Si O2"
_cell_formula_units_Z 48
_cell_length_a 13.821935
_cell_length_b 6.936534
_cell_length_c 25.580952
_cell_angle_alpha 90.000000
_cell_angle_beta 115.942600
_cell_angle_gamma 90.000000
_cell_volume 2205.465104
_symmetry_space_group_name_H-M "C 2/C"
_symmetry_group_IT_number 15
_symmetry_cell_setting 'monoclinic'
loop_
_space_group_symop_operation_xyz
x,y,z
-x,y,1/2-z
-x,-y,-z
x,-y,1/2+z
1/2+x,1/2+y,z
1/2-x,1/2+y,1/2-z
1/2-x,1/2-y,-z
1/2+x,1/2-y,1/2+z
loop_
_atom_site_type_symbol
_atom_site_label
_atom_site_fract_x
_atom_site_fract_y
_atom_site_fract_z
Si Si1 0.628071 0.913603 0.102021
Si Si2 0.411043 0.232775 0.573249
Si Si3 0.887615 0.717132 0.318005
Si Si4 0.231945 0.090402 0.193021
Si Si5 0.438256 0.963978 0.185883
Si Si6 0.253668 0.960442 0.478210
O O1 0.515836 0.803976 0.061957
O O2 0.692405 0.788152 0.159105
O O3 0.691247 0.955291 0.064676
O O4 0.607899 0.120093 0.123901
O O5 0.444551 0.191283 0.641048
O O6 0.366608 0.450717 0.556637
O O7 0.317547 0.086401 0.535088
O O8 0.869163 0.945656 0.321850
O O9 0.787327 0.634093 0.261315
O O10 0.999880 0.664711 0.315131
O O11 0.314826 0.000321 0.170909
O O12 0.500000 0.870787 0.250000
O O13 0.250000 0.750000 0.500000
#
# Coordination Sequence:
#
# PCOD8141990 Si02
#       6
#     8   8   8   8   8   8
#     4  11  23  38  64  92 123 168 211 260 321 378
#     4  10  23  43  62  92 126 161 212 261 320 376
#     4  10  21  38  60  88 127 164 209 259 314 386
#     4  11  20  37  61  88 127 166 205 259 320 377
#     4   9  20  38  64  90 124 163 202 260 317 380
#     4  11  24  42  65  89 124 165 214 265 312 379
#
# _framework density 21.764119000000001
#
# number of rings (size 3 to 8) (size 9 to 14) (size 15 to 20)
#    0.000    1.667    1.667    2.500    0.000    6.000 
#    0.000    0.000    0.000    0.000    0.000    0.000 
#    0.000    0.000    0.000    0.000    0.000    0.000 
#
# Total GULP energy -297608.683516 kJ/mol
# GULP energy per Si atom -12400.361813 kJ/mol
# Density = 2.171458 g / cm^3
# Si number density = 21.764119 Si / 1000 Ang^3
#
#
#
# Elastic Constant Matrix: (Units=GPa)
#
#
# Indices 1 2 3 4 5 6 
#
# 1 67.7937 5.8043 15.9172 0.0000 1.9186 0.0000
# 2 5.8043 77.1808 20.5236 0.0000 -4.6142 0.0000
# 3 15.9172 20.5236 80.1042 0.0000 -10.2110 0.0000
# 4 0.0000 0.0000 0.0000 16.1290 0.0000 7.7501
# 5 1.9186 -4.6142 -10.2110 0.0000 36.6421 0.0000
# 6 0.0000 0.0000 0.0000 7.7501 0.0000 29.5428
#
#
#
# Elastic Compliance Matrix: (Units=1/GPa)
#
#
# Indices 1 2 3 4 5 6 
#
# 1 0.015592 -0.000423 -0.003215 0.000000 -0.001766 0.000000
# 2 -0.000423 0.013937 -0.003380 0.000000 0.000835 0.000000
# 3 -0.003215 -0.003380 0.014470 0.000000 0.003775 0.000000
# 4 0.000000 0.000000 0.000000 0.070943 0.000000 -0.018611
# 5 -0.001766 0.000835 0.003775 0.000000 0.028541 0.000000
# 6 0.000000 0.000000 0.000000 -0.018611 0.000000 0.038731
#
#
# Mechanical properties :
#
#
# Convention : Reuss Voigt Hill
#
# Bulk Modulus (GPa) = 33.37560 34.39657 33.88608
# Shear Modulus (GPa) = 24.24390 28.65168 26.44779
#
# Velocity S-wave (km/s) = 3.34119 3.63225 3.48976
# Velocity P-wave (km/s) = 5.50029 5.78183 5.64282
#
# Compressibility (1/GPa) = 0.02996201
#
# Stress axis : x y z
#
# Youngs Moduli (GPa) = 64.13694 71.75023 69.10943
#
# Poissons Ratio (x) = 0.03037 0.22217
# Poissons Ratio (y) = 0.02715 0.23361
# Poissons Ratio (z) = 0.20619 0.24254
#
# Static dielectric constant tensor:
#      x y z
#    x 3.687380 0.000000 0.594400 
#    y 0.000000 3.769460 0.000000 
#    z 0.594400 0.000000 3.488810 
# 
# 
# High freq. dielectric constant tensor:
#      x y z
#    x 1.858060 0.000000 0.001030 
#    y 0.000000 1.839170 0.000000 
#    z 0.001030 0.000000 1.863310 
# 
# From -- ./inp_files/312443.got.cif
#   From: 2010.06.25/outbox.cif.g09.slc.cpg/sg15_157_cif.got.tgz:312443.got - 2010.06.28 07:06:18.
