data_PCOD8141208
_publ_section_title
;
Structure prediction by ZEFSAII (Michael W. Deem and Ramdas Pophale) SiO2 
 PCOD8141208
Probable space group: C 2/C
;
_chemical_formula_sum "Si O2"
_cell_formula_units_Z 48
_cell_length_a 28.388698
_cell_length_b 8.943677
_cell_length_c 10.149688
_cell_angle_alpha 90.000000
_cell_angle_beta 90.000000
_cell_angle_gamma 90.000000
_cell_volume 2576.999139
_symmetry_space_group_name_H-M "C 2/C"
_symmetry_group_IT_number 15
_symmetry_cell_setting 'monoclinic'
loop_
_space_group_symop_operation_xyz
x,y,z
-x,y,1/2-z
-x,-y,-z
x,-y,1/2+z
1/2+x,1/2+y,z
1/2-x,1/2+y,1/2-z
1/2-x,1/2-y,-z
1/2+x,1/2-y,1/2+z
loop_
_atom_site_type_symbol
_atom_site_label
_atom_site_fract_x
_atom_site_fract_y
_atom_site_fract_z
Si Si1 0.792520 0.636341 0.152279
Si Si2 0.707480 0.136341 0.652279
Si Si3 0.607290 0.822605 0.238855
Si Si4 0.046864 0.322131 0.000000
Si Si5 0.940481 0.678471 0.500000
Si Si6 0.107290 0.322605 0.761145
O O1 0.750000 0.750000 0.161673
O O2 0.781395 0.500000 0.250000
O O3 0.839344 0.722940 0.202223
O O4 0.799532 0.581129 1.000000
O O5 0.660656 0.222940 0.702223
O O6 0.589149 0.757439 0.377107
O O7 0.605037 1.000000 0.250000
O O8 0.572190 0.757814 0.129129
O O9 0.053201 0.500449 0.000000
O O10 0.072190 0.257814 0.870871
O O11 0.993731 0.260248 0.000000
O O12 0.910851 0.742561 0.377106
#
# Coordination Sequence:
#
# PCOD8141208 Si02
#       6
#     8   8   8   8   8   8
#     4  10  21  36  53  74 101 133 169 208 251 297
#     4  10  21  36  53  74 101 133 169 208 251 297
#     4   9  16  26  40  62  91 127 157 195 242 287
#     4   9  14  24  37  58  89 127 157 191 234 291
#     4   9  16  22  37  60  91 123 161 191 230 297
#     4   9  16  26  40  62  91 127 157 195 242 287
#
# _framework density 18.626315999999999
#
# number of rings (size 3 to 8) (size 9 to 14) (size 15 to 20)
#    0.000    2.667    1.667    1.000    7.000    4.667 
#    0.000    0.000    0.000    0.000    0.000    0.000 
#    0.000    8.000    0.000    0.000    0.000    0.000 
#
# Total GULP energy -297424.817216 kJ/mol
# GULP energy per Si atom -12392.700717 kJ/mol
# Density = 1.858392 g / cm^3
# Si number density = 18.626316 Si / 1000 Ang^3
#
#
#
# Elastic Constant Matrix: (Units=GPa)
#
#
# Indices 1 2 3 4 5 6 
#
# 1 171.3833 21.9734 101.8264 0.0000 0.0001 0.0000
# 2 21.9734 14.2031 21.6850 0.0000 0.0000 0.0000
# 3 101.8264 21.6850 196.6101 0.0000 0.0000 0.0000
# 4 0.0000 0.0000 0.0000 10.8845 0.0000 0.0000
# 5 0.0001 0.0000 0.0000 0.0000 39.9598 0.0000
# 6 0.0000 0.0000 0.0000 0.0000 0.0000 15.8205
#
#
#
# Elastic Compliance Matrix: (Units=1/GPa)
#
#
# Indices 1 2 3 4 5 6 
#
# 1 0.009185 -0.008354 -0.003836 0.000000 0.000000 0.000000
# 2 -0.008354 0.092262 -0.005850 0.000000 0.000000 0.000000
# 3 -0.003836 -0.005850 0.007718 0.000000 0.000000 0.000000
# 4 0.000000 0.000000 0.000000 0.091874 0.000000 0.000000
# 5 0.000000 0.000000 0.000000 0.000000 0.025025 0.000000
# 6 0.000000 0.000000 0.000000 0.000000 0.000000 0.063209
#
#
# Mechanical properties :
#
#
# Convention : Reuss Voigt Hill
#
# Bulk Modulus (GPa) = 13.68231 74.79625 44.23928
# Shear Modulus (GPa) = 14.29746 29.11373 21.70560
#
# Velocity S-wave (km/s) = 2.77356 3.95782 3.41738
# Velocity P-wave (km/s) = 4.19743 7.81852 6.27486
#
# Compressibility (1/GPa) = 0.07308705
#
# Stress axis : x y z
#
# Youngs Moduli (GPa) = 108.87588 10.83872 129.56988
#
# Poissons Ratio (x) = 0.09054 0.49697
# Poissons Ratio (y) = 0.90951 0.75793
# Poissons Ratio (z) = 0.41760 0.06340
#
# Static dielectric constant tensor:
#      x y z
#    x 3.733400 0.000000 0.000000 
#    y 0.000000 2.527220 0.000000 
#    z 0.000000 0.000000 3.928410 
# 
# 
# High freq. dielectric constant tensor:
#      x y z
#    x 1.745750 0.000000 0.000000 
#    y 0.000000 1.624100 0.000000 
#    z 0.000000 0.000000 1.749450 
# 
# From -- ./inp_files/32008.got.cif
#   From: 2010.06.25/outbox.cif.g09.slc.cpg/sg15_17_cif.got.tgz:32008.got - 2010.06.28 07:06:18.
