data_PCOD8141282
_publ_section_title
;
Structure prediction by ZEFSAII (Michael W. Deem and Ramdas Pophale) SiO2 
 PCOD8141282
Probable space group: C 2/C
;
_chemical_formula_sum "Si O2"
_cell_formula_units_Z 36
_cell_length_a 7.500170
_cell_length_b 29.929814
_cell_length_c 12.905411
_cell_angle_alpha 90.000000
_cell_angle_beta 38.865481
_cell_angle_gamma 90.000000
_cell_volume 1817.843933
_symmetry_space_group_name_H-M "C 2/C"
_symmetry_group_IT_number 15
_symmetry_cell_setting 'monoclinic'
loop_
_space_group_symop_operation_xyz
x,y,z
-x,y,1/2-z
-x,-y,-z
x,-y,1/2+z
1/2+x,1/2+y,z
1/2-x,1/2+y,1/2-z
1/2-x,1/2-y,-z
1/2+x,1/2-y,1/2+z
loop_
_atom_site_type_symbol
_atom_site_label
_atom_site_fract_x
_atom_site_fract_y
_atom_site_fract_z
Si Si1 0.904882 0.853254 0.959831
Si Si2 0.436411 0.133168 0.082146
Si Si3 0.248382 0.203665 0.442159
Si Si4 0.000000 0.579901 0.750000
Si Si5 0.668008 0.042687 0.886229
O O1 0.693462 0.842238 0.960695
O O2 0.200361 0.872185 0.779070
O O3 0.965144 0.809094 0.003740
O O4 0.768680 0.890339 0.095087
O O5 0.697105 0.163765 0.001164
O O6 0.559630 0.084950 0.000437
O O7 0.500000 0.207980 0.250000
O O8 0.250000 0.250000 0.500000
O O9 0.103844 0.548291 0.794532
O O10 0.000000 0.034806 0.750000
O O11 0.500000 0.000000 0.000000
#
# Coordination Sequence:
#
# PCOD8141282 Si02
#       5
#     8   8   8   4   8
#     4   9  19  37  61  84 114 162 195 243 304 357
#     4   9  20  40  60  79 122 156 196 247 304 360
#     4  10  21  36  57  87 115 154 199 245 300 363
#     4  10  22  40  64  88 120 158 210 248 312 364
#     4  11  25  41  62  93 123 160 207 256 307 367
#
# _framework density 19.80368
#
# number of rings (size 3 to 8) (size 9 to 14) (size 15 to 20)
#    0.000    2.222    0.000    1.333    6.222    6.222 
#    6.000    2.222    0.000    0.000    0.000    0.000 
#    0.000    0.000    0.000    0.000    0.000    0.000 
#
# Total GULP energy -223145.081420 kJ/mol
# GULP energy per Si atom -12396.948968 kJ/mol
# Density = 1.975861 g / cm^3
# Si number density = 19.803680 Si / 1000 Ang^3
#
#
#
# Elastic Constant Matrix: (Units=GPa)
#
#
# Indices 1 2 3 4 5 6 
#
# 1 136.1635 90.9199 66.9181 0.0000 2.7900 0.0000
# 2 90.9199 151.7854 57.9187 0.0000 7.0846 0.0000
# 3 66.9181 57.9187 83.6951 0.0000 3.8495 0.0000
# 4 0.0000 0.0000 0.0000 19.5795 0.0000 5.2994
# 5 2.7900 7.0846 3.8495 0.0000 33.3555 0.0000
# 6 0.0000 0.0000 0.0000 5.2994 0.0000 17.6112
#
#
#
# Elastic Compliance Matrix: (Units=1/GPa)
#
#
# Indices 1 2 3 4 5 6 
#
# 1 0.015452 -0.006209 -0.008102 0.000000 0.000961 0.000000
# 2 -0.006209 0.011495 -0.002917 0.000000 -0.001585 0.000000
# 3 -0.008102 -0.002917 0.020494 0.000000 -0.001068 0.000000
# 4 0.000000 0.000000 0.000000 0.055602 0.000000 -0.016731
# 5 0.000961 -0.001585 -0.001068 0.000000 0.030360 0.000000
# 6 0.000000 0.000000 0.000000 -0.016731 0.000000 0.061817
#
#
# Mechanical properties :
#
#
# Convention : Reuss Voigt Hill
#
# Bulk Modulus (GPa) = 77.01745 89.23971 83.12858
# Shear Modulus (GPa) = 21.36711 24.50172 22.93442
#
# Velocity S-wave (km/s) = 3.28830 3.52125 3.40676
# Velocity P-wave (km/s) = 7.30699 7.85444 7.58565
#
# Compressibility (1/GPa) = 0.01298407
#
# Stress axis : x y z
#
# Youngs Moduli (GPa) = 64.71531 86.99676 48.79482
#
# Poissons Ratio (x) = 0.54018 0.39534
# Poissons Ratio (y) = 0.40183 0.14234
# Poissons Ratio (z) = 0.52433 0.25378
#
# Static dielectric constant tensor:
#      x y z
#    x 7.473990 0.000000 -0.148900 
#    y 0.000000 3.242040 0.000000 
#    z -0.148900 0.000000 3.715280 
# 
# 
# High freq. dielectric constant tensor:
#      x y z
#    x 1.791760 0.000000 0.008480 
#    y 0.000000 1.754940 0.000000 
#    z 0.008480 0.000000 1.778740 
# 
# From -- ./inp_files/25177.got.cif
#   From: 2010.06.25/outbox.cif.g09.slc.cpg/sg15_13_cif.got.tgz:25177.got - 2010.06.28 07:06:18.
