data_PCOD8141465
_publ_section_title
;
Structure prediction by ZEFSAII (Michael W. Deem and Ramdas Pophale) SiO2 
 PCOD8141465
Probable space group: C 2/C
;
_chemical_formula_sum "Si O2"
_cell_formula_units_Z 48
_cell_length_a 22.854590
_cell_length_b 22.149960
_cell_length_c 5.115120
_cell_angle_alpha 90.000000
_cell_angle_beta 96.497319
_cell_angle_gamma 90.000000
_cell_volume 2572.786827
_symmetry_space_group_name_H-M "C 2/C"
_symmetry_group_IT_number 15
_symmetry_cell_setting 'monoclinic'
loop_
_space_group_symop_operation_xyz
x,y,z
-x,y,1/2-z
-x,-y,-z
x,-y,1/2+z
1/2+x,1/2+y,z
1/2-x,1/2+y,1/2-z
1/2-x,1/2-y,-z
1/2+x,1/2-y,1/2+z
loop_
_atom_site_type_symbol
_atom_site_label
_atom_site_fract_x
_atom_site_fract_y
_atom_site_fract_z
Si Si1 0.121781 0.740507 0.173238
Si Si2 0.713484 0.839191 0.528695
Si Si3 0.768067 0.961897 0.538092
Si Si4 0.500000 0.637445 0.250000
Si Si5 0.500000 0.281990 0.250000
Si Si6 0.403492 0.539499 0.086062
Si Si7 0.182852 0.228660 0.215054
O O1 0.151278 0.673720 0.150521
O O2 0.052901 0.736646 0.200386
O O3 0.153865 0.776614 0.419762
O O4 0.132810 0.779728 0.915211
O O5 0.721575 0.908478 0.453149
O O6 0.767987 0.823015 0.746308
O O7 0.714814 0.794291 0.277083
O O8 0.835536 0.939183 0.557062
O O9 0.755392 0.013510 0.320482
O O10 0.482987 0.677375 0.492870
O O11 0.443539 0.597757 0.146334
O O12 0.417970 0.490107 0.314475
#
# Coordination Sequence:
#
# PCOD8141465 Si02
#       7
#     8   8   8   4   4   8   8
#     4  10  21  37  51  83 109 143 174 229 270 339
#     4   9  21  35  60  79 111 145 178 227 284 339
#     4  10  23  35  54  84 112 142 184 235 275 323
#     4  12  24  37  56  76 104 159 182 240 260 328
#     4  12  26  35  54  86 116 133 194 224 284 322
#     4  10  21  39  53  73 104 147 196 232 265 308
#     4   9  20  34  59  81 104 144 185 220 280 340
#
# _framework density 18.656811999999999
#
# number of rings (size 3 to 8) (size 9 to 14) (size 15 to 20)
#    1.000    1.000    0.000    3.000    7.000    0.000 
#    0.000    0.000    0.000    0.000    0.000    1.167 
#    0.000    0.000    0.000    0.000    0.000    0.000 
#
# Total GULP energy -297448.668027 kJ/mol
# GULP energy per Si atom -12393.694501 kJ/mol
# Density = 1.861435 g / cm^3
# Si number density = 18.656812 Si / 1000 Ang^3
#
#
#
# Elastic Constant Matrix: (Units=GPa)
#
#
# Indices 1 2 3 4 5 6 
#
# 1 90.2092 36.6474 -2.8166 0.0000 -22.6190 0.0000
# 2 36.6474 65.2121 1.7563 0.0000 -8.7594 0.0000
# 3 -2.8166 1.7563 71.2651 0.0000 -9.4058 0.0000
# 4 0.0000 0.0000 0.0000 11.6650 0.0000 -3.0618
# 5 -22.6190 -8.7594 -9.4058 0.0000 21.6920 0.0000
# 6 0.0000 0.0000 0.0000 -3.0618 0.0000 23.1548
#
#
#
# Elastic Compliance Matrix: (Units=1/GPa)
#
#
# Indices 1 2 3 4 5 6 
#
# 1 0.019118 -0.008418 0.003337 0.000000 0.017983 0.000000
# 2 -0.008418 0.019937 -0.000976 0.000000 -0.001151 0.000000
# 3 0.003337 -0.000976 0.015481 0.000000 0.009798 0.000000
# 4 0.000000 0.000000 0.000000 0.088809 0.000000 0.011743
# 5 0.017983 -0.001151 0.009798 0.000000 0.068635 0.000000
# 6 0.000000 0.000000 0.000000 0.011743 0.000000 0.044740
#
#
# Mechanical properties :
#
#
# Convention : Reuss Voigt Hill
#
# Bulk Modulus (GPa) = 23.57311 33.09563 28.33437
# Shear Modulus (GPa) = 17.66924 24.04230 20.85577
#
# Velocity S-wave (km/s) = 3.08078 3.59369 3.34707
# Velocity P-wave (km/s) = 5.03165 5.91584 5.49157
#
# Compressibility (1/GPa) = 0.04242121
#
# Stress axis : x y z
#
# Youngs Moduli (GPa) = 52.30540 50.15739 64.59462
#
# Poissons Ratio (x) = 0.42225 -0.21552
# Poissons Ratio (y) = 0.44033 0.06304
# Poissons Ratio (z) = -0.17452 0.04895
#
# Static dielectric constant tensor:
#      x y z
#    x 3.422520 0.000000 -0.066840 
#    y 0.000000 3.036860 0.000000 
#    z -0.066840 0.000000 3.507520 
# 
# 
# High freq. dielectric constant tensor:
#      x y z
#    x 1.710030 0.000000 -0.003760 
#    y 0.000000 1.683170 0.000000 
#    z -0.003760 0.000000 1.740240 
# 
# From -- ./inp_files/13222.got.cif
#   From: 2010.06.25/outbox.cif.g09.slc.cpg/sg15_7_cif.got.tgz:13222.got - 2010.06.28 07:06:18.
