data_PCOD8141566
_publ_section_title
;
Structure prediction by ZEFSAII (Michael W. Deem and Ramdas Pophale) SiO2 
 PCOD8141566
Probable space group: C 2/C
;
_chemical_formula_sum "Si O2"
_cell_formula_units_Z 48
_cell_length_a 17.820380
_cell_length_b 14.025578
_cell_length_c 17.274371
_cell_angle_alpha 90.000000
_cell_angle_beta 147.887418
_cell_angle_gamma 90.000000
_cell_volume 2295.156773
_symmetry_space_group_name_H-M "C 2/C"
_symmetry_group_IT_number 15
_symmetry_cell_setting 'monoclinic'
loop_
_space_group_symop_operation_xyz
x,y,z
-x,y,1/2-z
-x,-y,-z
x,-y,1/2+z
1/2+x,1/2+y,z
1/2-x,1/2+y,1/2-z
1/2-x,1/2-y,-z
1/2+x,1/2-y,1/2+z
loop_
_atom_site_type_symbol
_atom_site_label
_atom_site_fract_x
_atom_site_fract_y
_atom_site_fract_z
Si Si1 0.424121 0.482163 0.103651
Si Si2 0.059034 0.654539 0.214743
Si Si3 0.370426 0.044793 0.689451
Si Si4 0.546435 0.659110 0.130462
Si Si5 0.258193 0.262007 0.415138
Si Si6 0.372133 0.702230 0.471192
O O1 0.500000 0.497494 0.250000
O O2 0.488428 0.553298 0.095603
O O3 0.259445 0.504494 0.975251
O O4 0.441901 0.374760 0.089623
O O5 0.085042 0.542636 0.214512
O O6 0.204764 0.713521 0.337542
O O7 0.000000 0.659334 0.250000
O O8 0.946691 0.697370 0.055931
O O9 0.500000 0.076208 0.750000
O O10 0.316298 0.141163 0.683021
O O11 0.677616 0.675826 0.303274
O O12 0.601721 0.667909 0.092482
O O13 0.422559 0.736753 0.035867
O O14 0.250000 0.250000 0.500000
#
# Coordination Sequence:
#
# PCOD8141566 Si02
#       6
#     8   8   8   8   8   8
#     4  10  21  37  59  83 110 150 195 233 280 342
#     4  10  21  38  59  81 112 153 195 233 279 343
#     4   9  19  35  55  82 110 141 186 238 276 323
#     4  11  22  37  57  86 117 147 187 239 289 336
#     4  11  21  37  60  84 113 152 191 231 282 342
#     4  11  22  38  57  84 116 149 186 238 290 336
#
# _framework density 20.913602999999998
#
# number of rings (size 3 to 8) (size 9 to 14) (size 15 to 20)
#    0.000    1.667    0.000    6.000    0.000    2.667 
#    0.000    0.833    0.000    0.000    0.000    0.000 
#    0.000    0.000    0.000    0.000    0.000    0.000 
#
# Total GULP energy -297549.757779 kJ/mol
# GULP energy per Si atom -12397.906574 kJ/mol
# Density = 2.086600 g / cm^3
# Si number density = 20.913603 Si / 1000 Ang^3
#
#
#
# Elastic Constant Matrix: (Units=GPa)
#
#
# Indices 1 2 3 4 5 6 
#
# 1 105.1116 9.8204 35.8083 0.0000 3.6690 0.0000
# 2 9.8204 66.4242 17.8178 0.0000 -0.6824 0.0000
# 3 35.8083 17.8178 70.9452 -0.0001 8.7627 -0.0001
# 4 0.0000 0.0000 -0.0001 38.0118 -0.0001 1.2464
# 5 3.6690 -0.6824 8.7627 -0.0001 33.9058 0.0000
# 6 0.0000 0.0000 -0.0001 1.2464 0.0000 13.9909
#
#
#
# Elastic Compliance Matrix: (Units=1/GPa)
#
#
# Indices 1 2 3 4 5 6 
#
# 1 0.011493 -0.000142 -0.005796 0.000000 0.000251 0.000000
# 2 -0.000142 0.016210 -0.004175 0.000000 0.001421 0.000000
# 3 -0.005796 -0.004175 0.018596 0.000000 -0.004263 0.000000
# 4 0.000000 0.000000 0.000000 0.026385 0.000000 -0.002351
# 5 0.000251 0.001421 -0.004263 0.000000 0.030597 0.000000
# 6 0.000000 0.000000 0.000000 -0.002351 0.000000 0.071685
#
#
# Mechanical properties :
#
#
# Convention : Reuss Voigt Hill
#
# Bulk Modulus (GPa) = 38.35405 41.04154 39.69780
# Shear Modulus (GPa) = 24.52400 29.11733 26.82066
#
# Velocity S-wave (km/s) = 3.42809 3.73536 3.58502
# Velocity P-wave (km/s) = 5.83508 6.18634 6.01327
#
# Compressibility (1/GPa) = 0.02607287
#
# Stress axis : x y z
#
# Youngs Moduli (GPa) = 87.01128 61.68940 53.77496
#
# Poissons Ratio (x) = 0.00874 0.31169
# Poissons Ratio (y) = 0.01233 0.22452
# Poissons Ratio (z) = 0.50434 0.25756
#
# Static dielectric constant tensor:
#      x y z
#    x 3.602940 0.000000 0.349780 
#    y 0.000000 4.125550 0.000000 
#    z 0.349780 0.000000 3.881770 
# 
# 
# High freq. dielectric constant tensor:
#      x y z
#    x 1.801540 0.000000 0.026420 
#    y 0.000000 1.822650 0.000000 
#    z 0.026420 0.000000 1.824100 
# 
# From -- ./inp_files/211305.got.cif
#   From: 2010.06.25/outbox.cif.g09.slc.cpg/sg15_106_cif.got.tgz:211305.got - 2010.06.28 07:06:18.
