data_PCOD8141716
_publ_section_title
;
Structure prediction by ZEFSAII (Michael W. Deem and Ramdas Pophale) SiO2 
 PCOD8141716
Probable space group: C 2/C
;
_chemical_formula_sum "Si O2"
_cell_formula_units_Z 52
_cell_length_a 9.033943
_cell_length_b 15.315091
_cell_length_c 30.977749
_cell_angle_alpha 90.000000
_cell_angle_beta 35.820065
_cell_angle_gamma 90.000000
_cell_volume 2508.314727
_symmetry_space_group_name_H-M "C 2/C"
_symmetry_group_IT_number 15
_symmetry_cell_setting 'monoclinic'
loop_
_space_group_symop_operation_xyz
x,y,z
-x,y,1/2-z
-x,-y,-z
x,-y,1/2+z
1/2+x,1/2+y,z
1/2-x,1/2+y,1/2-z
1/2-x,1/2-y,-z
1/2+x,1/2-y,1/2+z
loop_
_atom_site_type_symbol
_atom_site_label
_atom_site_fract_x
_atom_site_fract_y
_atom_site_fract_z
Si Si1 0.345009 0.430386 0.981498
Si Si2 0.083049 0.093006 0.134945
Si Si3 0.315209 0.951153 0.130434
Si Si4 0.234288 0.040168 0.746641
Si Si5 0.657619 0.626647 0.486162
Si Si6 0.000000 0.656478 0.750000
Si Si7 0.863637 0.263899 0.612670
O O1 0.428915 0.408046 0.913618
O O2 0.544825 0.382916 0.964967
O O3 0.340919 0.534165 0.989939
O O4 0.058517 0.393714 0.058769
O O5 0.136491 0.190533 0.139225
O O6 0.316557 0.034932 0.098073
O O7 0.821435 0.052912 0.216410
O O8 0.349130 0.980241 0.172414
O O9 0.036431 0.906386 0.191778
O O10 0.439789 0.096118 0.723241
O O11 0.487524 0.692697 0.552934
O O12 0.937569 0.666248 0.415882
O O13 0.758436 0.715618 0.817600
#
# Coordination Sequence:
#
# PCOD8141716 Si02
#       7
#     8   8   8   8   8   4   8
#     4  11  20  38  67  90 119 164 216 243 297 375
#     4  10  21  37  62  91 116 162 200 256 305 365
#     4   9  19  36  63  87 113 156 208 255 289 361
#     4   9  21  39  60  87 116 160 213 249 296 374
#     4  10  23  39  60  94 126 158 202 260 304 369
#     4  12  24  40  64  90 118 168 206 258 308 378
#     4  11  24  39  59  91 130 160 196 258 333 350
#
# _framework density 20.73105
#
# number of rings (size 3 to 8) (size 9 to 14) (size 15 to 20)
#    0.923    0.923    1.538    2.308    2.154    3.077 
#    0.000    3.077    0.000    0.000    0.000    0.000 
#    0.000    0.000    0.000    0.000    0.000    0.000 
#
# Total GULP energy -322161.120214 kJ/mol
# GULP energy per Si atom -12390.812316 kJ/mol
# Density = 2.068386 g / cm^3
# Si number density = 20.731050 Si / 1000 Ang^3
#
#
#
# Elastic Constant Matrix: (Units=GPa)
#
#
# Indices 1 2 3 4 5 6 
#
# 1 109.5981 34.1152 26.1653 0.0050 18.1916 0.1292
# 2 34.1152 55.3794 12.9206 -0.0489 -9.5880 -0.3304
# 3 26.1653 12.9206 65.7524 0.0545 11.9237 0.3130
# 4 0.0050 -0.0489 0.0545 22.9916 -0.0501 16.4846
# 5 18.1916 -9.5880 11.9237 -0.0501 33.0842 -0.3576
# 6 0.1292 -0.3304 0.3130 16.4846 -0.3576 160.3539
#
#
#
# Elastic Compliance Matrix: (Units=1/GPa)
#
#
# Indices 1 2 3 4 5 6 
#
# 1 0.014463 -0.010243 -0.001885 -0.000006 -0.010242 -0.000051
# 2 -0.010243 0.027987 -0.004190 0.000030 0.015254 0.000105
# 3 -0.001885 -0.004190 0.017990 -0.000027 -0.006662 -0.000054
# 4 -0.000006 0.000030 -0.000027 0.046955 0.000041 -0.004827
# 5 -0.010242 0.015254 -0.006662 0.000041 0.042681 0.000144
# 6 -0.000051 0.000105 -0.000054 -0.004827 0.000144 0.006733
#
#
# Mechanical properties :
#
#
# Convention : Reuss Voigt Hill
#
# Bulk Modulus (GPa) = 35.96672 41.90356 38.93514
# Shear Modulus (GPa) = 25.16178 53.78786 39.47482
#
# Velocity S-wave (km/s) = 3.48763 5.09920 4.36838
# Velocity P-wave (km/s) = 5.79698 7.41121 6.65323
#
# Compressibility (1/GPa) = 0.02780348
#
# Stress axis : x y z
#
# Youngs Moduli (GPa) = 69.14261 35.73119 55.58509
#
# Poissons Ratio (x) = 0.36601 0.10477
# Poissons Ratio (y) = 0.70825 0.23291
# Poissons Ratio (z) = 0.13032 0.14972
#
# Static dielectric constant tensor:
#      x y z
#    x 3.759710 -0.000020 -0.113430 
#    y -0.000020 3.528600 0.000010 
#    z -0.113430 0.000010 3.697200 
# 
# 
# High freq. dielectric constant tensor:
#      x y z
#    x 1.815750 0.000000 0.000920 
#    y 0.000000 1.778950 0.000000 
#    z 0.000920 0.000000 1.814270 
# 
# From -- ./inp_files/308202.got.cif
#   From: 2010.06.25/outbox.cif.g09.slc.cpg/sg15_155_cif.got.tgz:308202.got - 2010.06.28 07:06:18.
