data_PCOD8141958
_publ_section_title
;
Structure prediction by ZEFSAII (Michael W. Deem and Ramdas Pophale) SiO2 
 PCOD8141958
Probable space group: C 2/C
;
_chemical_formula_sum "Si O2"
_cell_formula_units_Z 60
_cell_length_a 8.743664
_cell_length_b 30.625930
_cell_length_c 11.084949
_cell_angle_alpha 90.000000
_cell_angle_beta 80.845934
_cell_angle_gamma 90.000000
_cell_volume 2930.554490
_symmetry_space_group_name_H-M "C 2/C"
_symmetry_group_IT_number 15
_symmetry_cell_setting 'monoclinic'
loop_
_space_group_symop_operation_xyz
x,y,z
-x,y,1/2-z
-x,-y,-z
x,-y,1/2+z
1/2+x,1/2+y,z
1/2-x,1/2+y,1/2-z
1/2-x,1/2-y,-z
1/2+x,1/2-y,1/2+z
loop_
_atom_site_type_symbol
_atom_site_label
_atom_site_fract_x
_atom_site_fract_y
_atom_site_fract_z
Si Si1 0.680943 0.489938 0.479333
Si Si2 0.725914 0.391008 0.532413
Si Si3 0.684818 0.465094 0.221074
Si Si4 0.170567 0.867219 0.277226
Si Si5 0.879353 0.712317 0.666887
Si Si6 0.500000 0.354754 0.750000
Si Si7 0.761881 0.300814 0.803493
Si Si8 0.534362 0.825984 0.926772
O O1 0.500000 0.500000 0.500000
O O2 0.728997 0.441759 0.509280
O O3 0.744047 0.494255 0.331215
O O4 0.751117 0.519179 0.581284
O O5 0.664981 0.365005 0.422870
O O6 0.610035 0.385212 0.657932
O O7 0.898209 0.373524 0.544636
O O8 0.500000 0.467421 0.250000
O O9 0.734805 0.414537 0.227231
O O10 0.288963 0.831488 0.212734
O O11 0.000000 0.857126 0.250000
O O12 0.757244 0.750786 0.650527
O O13 0.000000 0.729571 0.750000
O O14 0.993430 0.703709 0.543533
O O15 0.597318 0.324631 0.829061
O O16 0.830005 0.299837 0.659622
O O17 0.877973 0.330151 0.868526
#
# Coordination Sequence:
#
# PCOD8141958 Si02
#       8
#     8   8   8   8   8   4   8   8
#     4   9  17  31  56  86 121 156 199 255 306 353
#     4  10  21  38  59  89 125 158 203 255 308 368
#     4   8  16  32  51  85 119 150 198 258 301 352
#     4  10  22  37  57  91 122 154 207 260 302 367
#     4  12  23  39  64  87 115 168 203 248 326 373
#     4  10  22  36  60  88 114 156 206 250 304 362
#     4  10  23  42  59  86 122 156 206 263 302 369
#     4  10  23  42  58  87 125 162 198 255 317 374
#
# _framework density 20.473941
#
# number of rings (size 3 to 8) (size 9 to 14) (size 15 to 20)
#    0.000    2.133    2.000    1.200    6.533    1.600 
#    0.000    0.000    0.000    0.800    6.933    0.000 
#    0.000    0.000    0.000    0.000    0.000    0.000 
#
# Total GULP energy -371687.422673 kJ/mol
# GULP energy per Si atom -12389.580756 kJ/mol
# Density = 2.042734 g / cm^3
# Si number density = 20.473941 Si / 1000 Ang^3
#
#
#
# Elastic Constant Matrix: (Units=GPa)
#
#
# Indices 1 2 3 4 5 6 
#
# 1 90.2804 37.1709 25.8604 0.0000 16.3077 0.0000
# 2 37.1709 86.4721 28.4027 0.0000 13.7990 0.0000
# 3 25.8604 28.4027 100.1877 0.0000 22.4940 0.0000
# 4 0.0000 0.0000 0.0000 42.4648 0.0000 11.9963
# 5 16.3077 13.7990 22.4940 0.0000 22.3723 0.0000
# 6 0.0000 0.0000 0.0000 11.9963 0.0000 32.4242
#
#
#
# Elastic Compliance Matrix: (Units=1/GPa)
#
#
# Indices 1 2 3 4 5 6 
#
# 1 0.014555 -0.004902 -0.000858 0.000000 -0.006724 0.000000
# 2 -0.004902 0.014942 -0.002200 0.000000 -0.003430 0.000000
# 3 -0.000858 -0.002200 0.013408 0.000000 -0.011499 0.000000
# 4 0.000000 0.000000 0.000000 0.026297 0.000000 -0.009730
# 5 -0.006724 -0.003430 -0.011499 0.000000 0.063276 0.000000
# 6 0.000000 0.000000 0.000000 -0.009730 0.000000 0.034441
#
#
# Mechanical properties :
#
#
# Convention : Reuss Voigt Hill
#
# Bulk Modulus (GPa) = 37.05791 51.08980 44.07386
# Shear Modulus (GPa) = 26.06408 31.81933 28.94170
#
# Velocity S-wave (km/s) = 3.57183 3.94653 3.76385
# Velocity P-wave (km/s) = 5.92874 6.76569 6.36100
#
# Compressibility (1/GPa) = 0.02698479
#
# Stress axis : x y z
#
# Youngs Moduli (GPa) = 68.70442 66.92654 74.58159
#
# Poissons Ratio (x) = 0.32807 0.06397
# Poissons Ratio (y) = 0.33679 0.16411
# Poissons Ratio (z) = 0.05893 0.14727
#
# Static dielectric constant tensor:
#      x y z
#    x 3.548100 0.000000 0.262980 
#    y 0.000000 3.639640 0.000000 
#    z 0.262980 0.000000 4.498280 
# 
# 
# High freq. dielectric constant tensor:
#      x y z
#    x 1.779440 0.000000 0.014520 
#    y 0.000000 1.786820 0.000000 
#    z 0.014520 0.000000 1.817490 
# 
# From -- ./inp_files/82186.got.cif
#   From: 2010.06.25/outbox.cif.g09.slc.cpg/sg15_42_cif.got.tgz:82186.got - 2010.06.28 07:06:18.
