data_PCOD8141409
_publ_section_title
;
Structure prediction by ZEFSAII (Michael W. Deem and Ramdas Pophale) SiO2 
 PCOD8141409
Probable space group: C 2/C
;
_chemical_formula_sum "Si O2"
_cell_formula_units_Z 44
_cell_length_a 9.522812
_cell_length_b 20.181689
_cell_length_c 19.219094
_cell_angle_alpha 90.000000
_cell_angle_beta 40.899464
_cell_angle_gamma 90.000000
_cell_volume 2418.356678
_symmetry_space_group_name_H-M "C 2/C"
_symmetry_group_IT_number 15
_symmetry_cell_setting 'monoclinic'
loop_
_space_group_symop_operation_xyz
x,y,z
-x,y,1/2-z
-x,-y,-z
x,-y,1/2+z
1/2+x,1/2+y,z
1/2-x,1/2+y,1/2-z
1/2-x,1/2-y,-z
1/2+x,1/2-y,1/2+z
loop_
_atom_site_type_symbol
_atom_site_label
_atom_site_fract_x
_atom_site_fract_y
_atom_site_fract_z
Si Si1 0.755793 0.826417 0.024563
Si Si2 0.385652 0.833723 0.003159
Si Si3 0.980041 0.811103 0.080961
Si Si4 0.276385 0.142958 0.695724
Si Si5 0.320306 0.401557 0.867685
Si Si6 0.000000 0.028023 0.750000
O O1 0.877092 0.841691 0.050660
O O2 0.524499 0.859082 0.122690
O O3 0.750000 0.750000 0.000000
O O4 0.872638 0.869858 0.922390
O O5 0.258075 0.826888 0.124533
O O6 0.205581 0.848858 0.012087
O O7 0.495977 0.765477 0.943982
O O8 0.574428 0.888170 0.935237
O O9 0.831694 0.812881 0.204544
O O10 0.162049 0.071075 0.736655
O O11 0.500000 0.368778 0.750000
O O12 0.356321 0.481362 0.854880
#
# Coordination Sequence:
#
# PCOD8141409 Si02
#       6
#     8   8   8   8   8   4
#     4  11  22  37  62  96 121 157 197 255 322 355
#     4  10  21  36  62  93 119 160 193 250 317 356
#     4  11  21  36  60  96 125 149 197 256 313 365
#     4  11  21  39  61  87 121 164 204 243 304 360
#     4   9  22  40  64  85 117 165 211 244 290 368
#     4  10  22  42  66  82 118 172 222 234 286 374
#
# _framework density 18.194174
#
# number of rings (size 3 to 8) (size 9 to 14) (size 15 to 20)
#    0.545    1.091    5.455    0.545    2.545    2.909 
#    0.000    1.818    4.000    0.000    0.000    0.000 
#    0.000    0.000    0.000    0.000    0.000    0.000 
#
# Total GULP energy -272541.540141 kJ/mol
# GULP energy per Si atom -12388.251825 kJ/mol
# Density = 1.815276 g / cm^3
# Si number density = 18.194174 Si / 1000 Ang^3
#
#
#
# Elastic Constant Matrix: (Units=GPa)
#
#
# Indices 1 2 3 4 5 6 
#
# 1 168.6588 47.9344 45.9368 0.0004 0.1046 -0.0035
# 2 47.9344 100.1152 65.0655 0.0002 4.6462 -0.0006
# 3 45.9368 65.0655 101.3515 -0.0007 3.1777 -0.0006
# 4 0.0004 0.0002 -0.0007 37.7423 0.0003 -4.6964
# 5 0.1046 4.6462 3.1777 0.0003 25.4081 0.0006
# 6 -0.0035 -0.0006 -0.0006 -4.6964 0.0006 23.8581
#
#
#
# Elastic Compliance Matrix: (Units=1/GPa)
#
#
# Indices 1 2 3 4 5 6 
#
# 1 0.007051 -0.002256 -0.001766 0.000000 0.000604 0.000001
# 2 -0.002256 0.017941 -0.010433 0.000000 -0.001967 0.000000
# 3 -0.001766 -0.010433 0.017373 0.000000 -0.000258 0.000000
# 4 0.000000 0.000000 0.000000 0.027161 0.000000 0.005346
# 5 0.000604 -0.001967 -0.000258 0.000000 0.039747 -0.000001
# 6 0.000001 0.000000 0.000000 0.005346 -0.000001 0.042967
#
#
# Mechanical properties :
#
#
# Convention : Reuss Voigt Hill
#
# Bulk Modulus (GPa) = 74.33061 76.44433 75.38747
# Shear Modulus (GPa) = 26.93449 31.48094 29.20771
#
# Velocity S-wave (km/s) = 3.85176 4.16417 4.01101
# Velocity P-wave (km/s) = 7.79257 8.07635 7.93573
#
# Compressibility (1/GPa) = 0.01345341
#
# Stress axis : x y z
#
# Youngs Moduli (GPa) = 141.82263 55.73958 57.55950
#
# Poissons Ratio (x) = 0.12575 0.10168
# Poissons Ratio (y) = 0.31995 0.60053
# Poissons Ratio (z) = 0.25053 0.58155
#
# Static dielectric constant tensor:
#      x y z
#    x 3.616510 0.000000 -0.047600 
#    y 0.000000 3.128160 0.000000 
#    z -0.047600 0.000000 3.553340 
# 
# 
# High freq. dielectric constant tensor:
#      x y z
#    x 1.712670 0.000000 -0.009690 
#    y 0.000000 1.678160 0.000000 
#    z -0.009690 0.000000 1.715480 
# 
# From -- ./inp_files/191469.got.cif
#   From: 2010.06.25/outbox.cif.g09.slc.cpg/sg15_96_cif.got.tgz:191469.got - 2010.06.28 07:06:18.
