data_PCOD8141530
_publ_section_title
;
Structure prediction by ZEFSAII (Michael W. Deem and Ramdas Pophale) SiO2 
 PCOD8141530
Probable space group: C 2/C
;
_chemical_formula_sum "Si O2"
_cell_formula_units_Z 40
_cell_length_a 18.816765
_cell_length_b 17.938105
_cell_length_c 8.977824
_cell_angle_alpha 90.000000
_cell_angle_beta 134.774936
_cell_angle_gamma 90.000000
_cell_volume 2151.180657
_symmetry_space_group_name_H-M "C 2/C"
_symmetry_group_IT_number 15
_symmetry_cell_setting 'monoclinic'
loop_
_space_group_symop_operation_xyz
x,y,z
-x,y,1/2-z
-x,-y,-z
x,-y,1/2+z
1/2+x,1/2+y,z
1/2-x,1/2+y,1/2-z
1/2-x,1/2-y,-z
1/2+x,1/2-y,1/2+z
loop_
_atom_site_type_symbol
_atom_site_label
_atom_site_fract_x
_atom_site_fract_y
_atom_site_fract_z
Si Si1 0.845231 0.584645 0.709418
Si Si2 0.976392 0.732732 0.884301
Si Si3 0.791207 0.181975 0.155679
Si Si4 0.113213 0.437892 0.899830
Si Si5 0.315242 0.193361 0.189170
O O1 0.921786 0.653339 0.814320
O O2 0.736734 0.607806 0.480583
O O3 0.892021 0.519045 0.680670
O O4 0.831702 0.558621 0.859375
O O5 0.909354 0.801465 0.850190
O O6 0.000000 0.752107 0.750000
O O7 0.076929 0.730879 0.128539
O O8 0.737253 0.175036 0.233468
O O9 0.750000 0.250000 0.000000
O O10 0.175910 0.383305 0.887478
O O11 0.000000 0.408112 0.750000
O O12 0.250000 0.250000 0.000000
#
# Coordination Sequence:
#
# PCOD8141530 Si02
#       5
#     8   8   8   8   8
#     4  11  22  38  57  90 123 153 195 241 307 358
#     4  11  21  38  63  85 124 160 200 243 294 357
#     4  10  21  37  58  85 119 159 197 240 293 353
#     4  12  24  35  60  87 126 156 192 250 306 361
#     4  12  24  37  59  91 122 157 202 245 298 351
#
# _framework density 18.594439999999999
#
# number of rings (size 3 to 8) (size 9 to 14) (size 15 to 20)
#    0.000    0.800    6.000    4.800    0.000    0.000 
#    0.000    0.000    0.000    1.200    0.000    0.000 
#    0.000    0.000    0.000    0.000    0.000    0.000 
#
# Total GULP energy -247994.823760 kJ/mol
# GULP energy per Si atom -12399.741188 kJ/mol
# Density = 1.855212 g / cm^3
# Si number density = 18.594440 Si / 1000 Ang^3
#
#
#
# Elastic Constant Matrix: (Units=GPa)
#
#
# Indices 1 2 3 4 5 6 
#
# 1 122.9398 51.7686 58.0465 0.0000 -14.7464 0.0000
# 2 51.7686 81.2781 51.0298 0.0000 -0.6735 0.0000
# 3 58.0465 51.0298 133.9825 0.0000 -3.6931 0.0000
# 4 0.0000 0.0000 0.0000 28.4830 0.0000 -5.4552
# 5 -14.7464 -0.6735 -3.6931 0.0000 41.8070 0.0000
# 6 0.0000 0.0000 0.0000 -5.4552 0.0000 38.2841
#
#
#
# Elastic Compliance Matrix: (Units=1/GPa)
#
#
# Indices 1 2 3 4 5 6 
#
# 1 0.012627 -0.006104 -0.003033 0.000000 0.004088 0.000000
# 2 -0.006104 0.019125 -0.004702 0.000000 -0.002260 0.000000
# 3 -0.003033 -0.004702 0.010562 0.000000 -0.000212 0.000000
# 4 0.000000 0.000000 0.000000 0.036094 0.000000 0.005143
# 5 0.004088 -0.002260 -0.000212 0.000000 0.025306 0.000000
# 6 0.000000 0.000000 0.000000 0.005143 0.000000 0.026853
#
#
# Mechanical properties :
#
#
# Convention : Reuss Voigt Hill
#
# Bulk Modulus (GPa) = 68.32349 73.32112 70.82231
# Shear Modulus (GPa) = 30.65164 33.53852 32.09508
#
# Velocity S-wave (km/s) = 4.06449 4.25159 4.15909
# Velocity P-wave (km/s) = 7.67141 7.97613 7.82526
#
# Compressibility (1/GPa) = 0.01463625
#
# Stress axis : x y z
#
# Youngs Moduli (GPa) = 79.19661 52.28842 94.67528
#
# Poissons Ratio (x) = 0.31919 0.28713
# Poissons Ratio (y) = 0.48345 0.44513
# Poissons Ratio (z) = 0.24018 0.24584
#
# Static dielectric constant tensor:
#      x y z
#    x 3.257120 0.000000 0.083600 
#    y 0.000000 3.531740 0.000000 
#    z 0.083600 0.000000 3.864990 
# 
# 
# High freq. dielectric constant tensor:
#      x y z
#    x 1.724370 0.000000 -0.018850 
#    y 0.000000 1.703170 0.000000 
#    z -0.018850 0.000000 1.728370 
# 
# From -- ./inp_files/30183.got.cif
#   From: 2010.06.25/outbox.cif.g09.slc.cpg/sg15_16_cif.got.tgz:30183.got - 2010.06.28 07:06:18.
