data_PCOD8141148
_publ_section_title
;
Structure prediction by ZEFSAII (Michael W. Deem and Ramdas Pophale) SiO2 
 PCOD8141148
Probable space group: C 2/C
;
_chemical_formula_sum "Si O2"
_cell_formula_units_Z 60
_cell_length_a 18.639725
_cell_length_b 24.587357
_cell_length_c 8.106659
_cell_angle_alpha 90.000000
_cell_angle_beta 46.213621
_cell_angle_gamma 90.000000
_cell_volume 2682.163111
_symmetry_space_group_name_H-M "C 2/C"
_symmetry_group_IT_number 15
_symmetry_cell_setting 'monoclinic'
loop_
_space_group_symop_operation_xyz
x,y,z
-x,y,1/2-z
-x,-y,-z
x,-y,1/2+z
1/2+x,1/2+y,z
1/2-x,1/2+y,1/2-z
1/2-x,1/2-y,-z
1/2+x,1/2-y,1/2+z
loop_
_atom_site_type_symbol
_atom_site_label
_atom_site_fract_x
_atom_site_fract_y
_atom_site_fract_z
Si Si1 0.532568 0.157484 0.016633
Si Si2 0.895352 0.750640 0.158307
Si Si3 0.829901 0.428294 0.304684
Si Si4 0.387840 0.444950 0.460946
Si Si5 0.159271 0.141154 0.219198
Si Si6 0.500000 0.327219 0.750000
Si Si7 0.822202 0.750189 0.631586
Si Si8 0.242413 0.975211 0.125022
O O1 0.562144 0.101647 0.872619
O O2 0.631239 0.195422 0.866982
O O3 0.500000 0.139840 0.250000
O O4 0.441864 0.189448 0.070911
O O5 0.883588 0.766190 0.369318
O O6 0.792835 0.757622 0.226447
O O7 0.972904 0.791552 0.953285
O O8 0.761693 0.387769 0.516463
O O9 0.795026 0.435261 0.170321
O O10 0.826970 0.486837 0.401271
O O11 0.500000 0.464217 0.250000
O O12 0.391381 0.386349 0.541485
O O13 0.317459 0.439351 0.412652
O O14 0.341713 0.488916 0.656493
O O15 0.089793 0.134716 0.167889
O O16 0.174125 0.204316 0.234324
#
# Coordination Sequence:
#
# PCOD8141148 Si02
#       8
#     8   8   8   8   8   4   8   8
#     4  10  21  40  66  94 124 169 213 259 313 386
#     4  10  23  38  63  87 128 178 209 258 311 368
#     4  10  22  42  65  92 124 164 214 266 326 389
#     4  10  21  35  60  86 120 164 212 262 316 399
#     4  11  25  35  61  93 129 173 207 257 315 378
#     4  12  24  36  56  94 134 168 214 256 300 378
#     4  10  22  43  60  90 136 172 205 259 316 370
#     4   9  21  42  61  86 122 166 205 273 341 365
#
# _framework density 22.370006
#
# number of rings (size 3 to 8) (size 9 to 14) (size 15 to 20)
#    0.000    1.867    1.333    1.200    5.600    4.267 
#    2.400    0.667    0.000    0.000    0.000    0.000 
#    0.000    0.000    0.000    0.000    0.000    0.000 
#
# Total GULP energy -371953.026475 kJ/mol
# GULP energy per Si atom -12398.434216 kJ/mol
# Density = 2.231909 g / cm^3
# Si number density = 22.370006 Si / 1000 Ang^3
#
#
#
# Elastic Constant Matrix: (Units=GPa)
#
#
# Indices 1 2 3 4 5 6 
#
# 1 48.8092 8.3520 7.1768 0.0000 6.2663 0.0000
# 2 8.3520 61.3989 24.2378 0.0000 0.3990 0.0000
# 3 7.1768 24.2378 72.7491 0.0000 -1.9550 0.0000
# 4 0.0000 0.0000 0.0000 27.3073 0.0000 2.2259
# 5 6.2663 0.3990 -1.9550 0.0000 33.3618 0.0000
# 6 0.0000 0.0000 0.0000 2.2259 0.0000 27.6533
#
#
#
# Elastic Compliance Matrix: (Units=1/GPa)
#
#
# Indices 1 2 3 4 5 6 
#
# 1 0.021633 -0.002337 -0.001466 0.000000 -0.004121 0.000000
# 2 -0.002337 0.019018 -0.006109 0.000000 -0.000146 0.000000
# 3 -0.001466 -0.006109 0.015961 0.000000 0.001284 0.000000
# 4 0.000000 0.000000 0.000000 0.036862 0.000000 -0.002967
# 5 -0.004121 -0.000146 0.001284 0.000000 0.030825 0.000000
# 6 0.000000 0.000000 0.000000 -0.002967 0.000000 0.036401
#
#
# Mechanical properties :
#
#
# Convention : Reuss Voigt Hill
#
# Bulk Modulus (GPa) = 27.18490 29.16562 28.17526
# Shear Modulus (GPa) = 25.93546 27.21051 26.57298
#
# Velocity S-wave (km/s) = 3.40867 3.49145 3.45031
# Velocity P-wave (km/s) = 5.26030 5.41477 5.33810
#
# Compressibility (1/GPa) = 0.03678513
#
# Stress axis : x y z
#
# Youngs Moduli (GPa) = 46.22669 52.58297 62.65468
#
# Poissons Ratio (x) = 0.12289 0.09186
# Poissons Ratio (y) = 0.10804 0.38279
# Poissons Ratio (z) = 0.06778 0.32125
#
# Static dielectric constant tensor:
#      x y z
#    x 3.915480 0.000000 0.080470 
#    y 0.000000 3.899240 0.000000 
#    z 0.080470 0.000000 4.230410 
# 
# 
# High freq. dielectric constant tensor:
#      x y z
#    x 1.869590 0.000000 0.007750 
#    y 0.000000 1.864680 0.000000 
#    z 0.007750 0.000000 1.894330 
# 
# From -- ./inp_files/58743.got.cif
#   From: 2010.06.25/outbox.cif.g09.slc.cpg/sg15_30_cif.got.tgz:58743.got - 2010.06.28 07:06:18.
