data_PCOD8141859
_publ_section_title
;
Structure prediction by ZEFSAII (Michael W. Deem and Ramdas Pophale) SiO2 
 PCOD8141859
Probable space group: C 2/C
;
_chemical_formula_sum "Si O2"
_cell_formula_units_Z 48
_cell_length_a 11.940644
_cell_length_b 15.791020
_cell_length_c 14.034123
_cell_angle_alpha 90.000000
_cell_angle_beta 84.945002
_cell_angle_gamma 90.000000
_cell_volume 2635.911136
_symmetry_space_group_name_H-M "C 2/C"
_symmetry_group_IT_number 15
_symmetry_cell_setting 'monoclinic'
loop_
_space_group_symop_operation_xyz
x,y,z
-x,y,1/2-z
-x,-y,-z
x,-y,1/2+z
1/2+x,1/2+y,z
1/2-x,1/2+y,1/2-z
1/2-x,1/2-y,-z
1/2+x,1/2-y,1/2+z
loop_
_atom_site_type_symbol
_atom_site_label
_atom_site_fract_x
_atom_site_fract_y
_atom_site_fract_z
Si Si1 0.130763 0.653988 0.760165
Si Si2 0.282528 0.121772 0.427788
Si Si3 0.868671 0.464494 0.738092
Si Si4 0.850967 0.288179 0.435011
Si Si5 0.125092 0.465957 0.978182
Si Si6 0.900498 0.253106 0.047770
O O1 0.181700 0.559483 0.750721
O O2 0.180591 0.716181 0.674796
O O3 0.154062 0.693988 0.861097
O O4 0.000000 0.646405 0.750000
O O5 0.304792 0.097707 0.315782
O O6 0.157702 0.160829 0.449298
O O7 0.373203 0.193043 0.454414
O O8 0.289334 0.038507 0.493394
O O9 0.848256 0.435140 0.630846
O O10 0.000000 0.461875 0.750000
O O11 0.750000 0.250000 0.500000
O O12 0.865504 0.387111 0.453255
O O13 0.966080 0.238772 0.451820
O O14 0.000000 0.500000 0.000000
#
# Coordination Sequence:
#
# PCOD8141859 Si02
#       6
#     8   8   8   8   8   8
#     4   9  17  33  56  78 110 145 186 232 279 335
#     4  11  21  34  58  83 114 152 186 236 289 345
#     4  11  18  30  56  84 107 143 193 238 272 334
#     4  11  22  36  57  86 114 145 189 242 281 336
#     4  12  19  36  57  85 112 144 196 236 281 336
#     4  10  21  38  54  84 119 153 185 230 304 341
#
# _framework density 18.210021999999999
#
# number of rings (size 3 to 8) (size 9 to 14) (size 15 to 20)
#    0.000    1.333    6.667    1.000    2.333    0.000 
#    0.000    0.833    0.000    0.000    0.000    0.000 
#    0.000    0.000    0.000    0.000    0.000    0.000 
#
# Total GULP energy -297538.202719 kJ/mol
# GULP energy per Si atom -12397.425113 kJ/mol
# Density = 1.816858 g / cm^3
# Si number density = 18.210022 Si / 1000 Ang^3
#
#
#
# Elastic Constant Matrix: (Units=GPa)
#
#
# Indices 1 2 3 4 5 6 
#
# 1 75.0042 41.5963 27.5825 0.0000 -9.8244 0.0000
# 2 41.5963 82.6508 28.3263 0.0000 -7.2771 0.0000
# 3 27.5825 28.3263 132.2434 0.0000 -5.8716 0.0000
# 4 0.0000 0.0000 0.0000 34.4561 0.0000 -2.2788
# 5 -9.8244 -7.2771 -5.8716 0.0000 23.4204 0.0000
# 6 0.0000 0.0000 0.0000 -2.2788 0.0000 28.1645
#
#
#
# Elastic Compliance Matrix: (Units=1/GPa)
#
#
# Indices 1 2 3 4 5 6 
#
# 1 0.019554 -0.008720 -0.001989 0.000000 0.004995 0.000000
# 2 -0.008720 0.017218 -0.001814 0.000000 0.001237 0.000000
# 3 -0.001989 -0.001814 0.008397 0.000000 0.000707 0.000000
# 4 0.000000 0.000000 0.000000 0.029179 0.000000 0.002361
# 5 0.004995 0.001237 0.000707 0.000000 0.045355 0.000000
# 6 0.000000 0.000000 0.000000 0.002361 0.000000 0.035697
#
#
# Mechanical properties :
#
#
# Convention : Reuss Voigt Hill
#
# Bulk Modulus (GPa) = 49.69490 53.87874 51.78682
# Shear Modulus (GPa) = 26.71610 30.03441 28.37526
#
# Velocity S-wave (km/s) = 3.83444 4.06561 3.95171
# Velocity P-wave (km/s) = 6.85223 7.18961 7.02295
#
# Compressibility (1/GPa) = 0.02012279
#
# Stress axis : x y z
#
# Youngs Moduli (GPa) = 51.14030 58.07766 119.09430
#
# Poissons Ratio (x) = 0.50642 0.23687
# Poissons Ratio (y) = 0.44593 0.21610
# Poissons Ratio (z) = 0.10172 0.10538
#
# Static dielectric constant tensor:
#      x y z
#    x 3.023330 0.000000 0.182300 
#    y 0.000000 3.307680 0.000000 
#    z 0.182300 0.000000 4.004770 
# 
# 
# High freq. dielectric constant tensor:
#      x y z
#    x 1.660920 0.000000 0.013180 
#    y 0.000000 1.697290 0.000000 
#    z 0.013180 0.000000 1.727940 
# 
# From -- ./inp_files/143445.got.cif
#   From: 2010.06.25/outbox.cif.g09.slc.cpg/sg15_72_cif.got.tgz:143445.got - 2010.06.28 07:06:18.
