data_PCOD8141180
_publ_section_title
;
Structure prediction by ZEFSAII (Michael W. Deem and Ramdas Pophale) SiO2 
 PCOD8141180
Probable space group: C 2/C
;
_chemical_formula_sum "Si O2"
_cell_formula_units_Z 56
_cell_length_a 14.663852
_cell_length_b 12.120827
_cell_length_c 12.822061
_cell_angle_alpha 90.000000
_cell_angle_beta 66.678811
_cell_angle_gamma 90.000000
_cell_volume 2092.776079
_symmetry_space_group_name_H-M "C 2/C"
_symmetry_group_IT_number 15
_symmetry_cell_setting 'monoclinic'
loop_
_space_group_symop_operation_xyz
x,y,z
-x,y,1/2-z
-x,-y,-z
x,-y,1/2+z
1/2+x,1/2+y,z
1/2-x,1/2+y,1/2-z
1/2-x,1/2-y,-z
1/2+x,1/2-y,1/2+z
loop_
_atom_site_type_symbol
_atom_site_label
_atom_site_fract_x
_atom_site_fract_y
_atom_site_fract_z
Si Si1 0.734931 0.617310 0.852589
Si Si2 0.437183 0.199121 0.373298
Si Si3 0.231382 0.877112 0.932504
Si Si4 0.054424 0.241697 0.028146
Si Si5 0.303023 0.467013 0.350578
Si Si6 0.090632 0.518025 0.532175
Si Si7 0.626437 0.313446 0.767760
O O1 0.774739 0.503770 0.888763
O O2 0.645189 0.661607 0.963706
O O3 0.684059 0.597461 0.763263
O O4 0.825599 0.703441 0.802685
O O5 0.500000 0.251784 0.250000
O O6 0.316725 0.215440 0.419934
O O7 0.481947 0.241420 0.461900
O O8 0.437550 0.065334 0.361228
O O9 0.176264 0.836983 0.856419
O O10 0.155160 0.897432 0.066909
O O11 0.102879 0.353468 0.051774
O O12 0.991056 0.197039 0.155292
O O13 0.186153 0.475320 0.425394
O O14 0.355643 0.585949 0.319538
O O15 0.000000 0.500000 0.500000
#
# Coordination Sequence:
#
# PCOD8141180 Si02
#       7
#     8   8   8   8   8   8   8
#     4  11  23  41  69  93 134 175 216 271 339 387
#     4  10  21  35  62  93 128 159 217 280 323 373
#     4  10  24  41  62  96 130 174 222 269 327 401
#     4  11  23  39  62  96 125 169 223 265 319 404
#     4  10  22  42  62  89 131 173 208 270 330 388
#     4   9  18  36  59  85 120 159 212 265 318 372
#     4  11  23  41  66  90 133 174 216 268 339 384
#
# _framework density 26.758717000000001
#
# number of rings (size 3 to 8) (size 9 to 14) (size 15 to 20)
#    0.000    1.714    1.429    3.429    8.000    6.286 
#    0.000    2.143    0.000    0.000    0.000    0.000 
#    0.000    0.000    0.000    0.000    0.000    0.000 
#
# Total GULP energy -346890.703061 kJ/mol
# GULP energy per Si atom -12388.953681 kJ/mol
# Density = 2.669781 g / cm^3
# Si number density = 26.758717 Si / 1000 Ang^3
#
#
#
# Elastic Constant Matrix: (Units=GPa)
#
#
# Indices 1 2 3 4 5 6 
#
# 1 38.0597 -4.8320 19.8118 0.0000 -23.7378 0.0000
# 2 -4.8320 81.8404 15.4217 0.0000 -7.8873 0.0000
# 3 19.8118 15.4217 151.8736 0.0000 -14.2077 0.0000
# 4 0.0000 0.0000 0.0000 39.6399 0.0000 -1.3215
# 5 -23.7378 -7.8873 -14.2077 0.0000 57.4573 0.0000
# 6 0.0000 0.0000 0.0000 -1.3215 0.0000 34.2162
#
#
#
# Elastic Compliance Matrix: (Units=1/GPa)
#
#
# Indices 1 2 3 4 5 6 
#
# 1 0.038697 0.004552 -0.004050 0.000000 0.015611 0.000000
# 2 0.004552 0.013109 -0.001618 0.000000 0.003280 0.000000
# 3 -0.004050 -0.001618 0.007268 0.000000 -0.000098 0.000000
# 4 0.000000 0.000000 0.000000 0.025260 0.000000 0.000976
# 5 0.015611 0.003280 -0.000098 0.000000 0.024280 0.000000
# 6 0.000000 0.000000 0.000000 0.000976 0.000000 0.029264
#
#
# Mechanical properties :
#
#
# Convention : Reuss Voigt Hill
#
# Bulk Modulus (GPa) = 17.59253 36.95298 27.27276
# Shear Modulus (GPa) = 31.43563 42.35415 36.89489
#
# Velocity S-wave (km/s) = 3.43123 3.98278 3.71725
# Velocity P-wave (km/s) = 4.72086 5.91521 5.35146
#
# Compressibility (1/GPa) = 0.05684231
#
# Stress axis : x y z
#
# Youngs Moduli (GPa) = 25.84176 76.28524 137.59226
#
# Poissons Ratio (x) = -0.34728 0.55723
# Poissons Ratio (y) = -0.11764 0.22264
# Poissons Ratio (z) = 0.10466 0.12344
#
# Static dielectric constant tensor:
#      x y z
#    x 5.864290 0.000000 0.248700 
#    y 0.000000 2.814860 0.000000 
#    z 0.248700 0.000000 5.010560 
# 
# 
# High freq. dielectric constant tensor:
#      x y z
#    x 2.081280 0.000000 0.014450 
#    y 0.000000 2.097600 0.000000 
#    z 0.014450 0.000000 2.083680 
# 
# From -- ./inp_files/161245.got.cif
#   From: 2010.06.25/outbox.cif.g09.slc.cpg/sg15_81_cif.got.tgz:161245.got - 2010.06.28 07:06:18.
