data_PCOD8141448
_publ_section_title
;
Structure prediction by ZEFSAII (Michael W. Deem and Ramdas Pophale) SiO2 
 PCOD8141448
Probable space group: C 2/C
;
_chemical_formula_sum "Si O2"
_cell_formula_units_Z 64
_cell_length_a 25.393892
_cell_length_b 19.074735
_cell_length_c 9.193131
_cell_angle_alpha 90.000000
_cell_angle_beta 135.925519
_cell_angle_gamma 90.000000
_cell_volume 3097.464650
_symmetry_space_group_name_H-M "C 2/C"
_symmetry_group_IT_number 15
_symmetry_cell_setting 'monoclinic'
loop_
_space_group_symop_operation_xyz
x,y,z
-x,y,1/2-z
-x,-y,-z
x,-y,1/2+z
1/2+x,1/2+y,z
1/2-x,1/2+y,1/2-z
1/2-x,1/2-y,-z
1/2+x,1/2-y,1/2+z
loop_
_atom_site_type_symbol
_atom_site_label
_atom_site_fract_x
_atom_site_fract_y
_atom_site_fract_z
Si Si1 0.567843 0.837805 0.481539
Si Si2 0.149544 0.211691 0.796740
Si Si3 0.449165 0.584252 0.929732
Si Si4 0.647650 0.961831 0.481523
Si Si5 0.265341 0.067259 0.633088
Si Si6 0.794172 0.674752 0.913055
Si Si7 0.942084 0.411764 0.761595
Si Si8 0.405502 0.458106 0.658500
O O1 0.500000 0.806770 0.250000
O O2 0.621408 0.774220 0.636761
O O3 0.621751 0.891453 0.506161
O O4 0.524026 0.881803 0.521630
O O5 0.081249 0.158802 0.684169
O O6 0.219271 0.168879 0.864742
O O7 0.174825 0.245382 0.003644
O O8 0.438332 0.534105 0.769065
O O9 0.537173 0.596219 0.147781
O O10 0.405687 0.552556 0.984917
O O11 0.701176 0.936650 0.459441
O O12 0.693911 0.010381 0.684457
O O13 0.573869 0.004614 0.274593
O O14 0.274301 0.147619 0.711408
O O15 0.177563 0.050413 0.443985
O O16 0.859038 0.622422 0.094562
O O17 0.000000 0.389006 0.750000
#
# Coordination Sequence:
#
# PCOD8141448 Si02
#       8
#     8   8   8   8   8   8   8   8
#     4  11  25  38  62  95 122 172 216 259 321 391
#     4  10  21  42  65  87 127 174 211 250 324 407
#     4  10  21  39  67  92 127 163 206 272 325 388
#     4  11  23  38  62  92 129 167 216 268 325 375
#     4  11  21  37  64  96 127 167 215 277 315 377
#     4   9  21  38  64  89 118 169 215 246 312 391
#     4  10  22  41  65  91 124 163 211 266 319 379
#     4  10  21  36  65  98 120 158 213 266 327 371
#
# _framework density 20.662061000000001
#
# number of rings (size 3 to 8) (size 9 to 14) (size 15 to 20)
#    0.000    1.750    2.500    1.125    7.000    2.000 
#    0.000    0.625   30.250    0.000    0.000    0.000 
#    0.000    0.000    0.000    0.000    0.000    0.000 
#
# Total GULP energy -396521.510916 kJ/mol
# GULP energy per Si atom -12391.297216 kJ/mol
# Density = 2.061503 g / cm^3
# Si number density = 20.662061 Si / 1000 Ang^3
#
#
#
# Elastic Constant Matrix: (Units=GPa)
#
#
# Indices 1 2 3 4 5 6 
#
# 1 88.8554 13.2645 11.9705 0.0000 1.0302 0.0000
# 2 13.2645 73.2316 14.1920 0.0000 9.8832 0.0000
# 3 11.9705 14.1920 59.3470 0.0000 14.2838 0.0000
# 4 0.0000 0.0000 0.0000 24.2573 0.0000 3.2640
# 5 1.0302 9.8832 14.2838 0.0000 32.1164 0.0000
# 6 0.0000 0.0000 0.0000 3.2640 0.0000 34.2515
#
#
#
# Elastic Compliance Matrix: (Units=1/GPa)
#
#
# Indices 1 2 3 4 5 6 
#
# 1 0.011819 -0.001870 -0.002222 0.000000 0.001185 0.000000
# 2 -0.001870 0.014920 -0.002352 0.000000 -0.003485 0.000000
# 3 -0.002222 -0.002352 0.019787 0.000000 -0.008005 0.000000
# 4 0.000000 0.000000 0.000000 0.041760 0.000000 -0.003980
# 5 0.001185 -0.003485 -0.008005 0.000000 0.035732 0.000000
# 6 0.000000 0.000000 0.000000 -0.003980 0.000000 0.029575
#
#
# Mechanical properties :
#
#
# Convention : Reuss Voigt Hill
#
# Bulk Modulus (GPa) = 29.72734 33.36534 31.54634
# Shear Modulus (GPa) = 28.13822 30.25883 29.19853
#
# Velocity S-wave (km/s) = 3.69430 3.83098 3.76326
# Velocity P-wave (km/s) = 5.71102 5.97928 5.84669
#
# Compressibility (1/GPa) = 0.03363907
#
# Stress axis : x y z
#
# Youngs Moduli (GPa) = 84.60960 67.02320 50.53713
#
# Poissons Ratio (x) = 0.12534 0.11229
# Poissons Ratio (y) = 0.15822 0.11886
# Poissons Ratio (z) = 0.18799 0.15763
#
# Static dielectric constant tensor:
#      x y z
#    x 3.677400 0.000000 0.037130 
#    y 0.000000 3.800360 0.000000 
#    z 0.037130 0.000000 4.109750 
# 
# 
# High freq. dielectric constant tensor:
#      x y z
#    x 1.801680 0.000000 0.014290 
#    y 0.000000 1.795960 0.000000 
#    z 0.014290 0.000000 1.819180 
# 
# From -- ./inp_files/63432.got.cif
#   From: 2010.06.25/outbox.cif.g09.slc.cpg/sg15_32_cif.got.tgz:63432.got - 2010.06.28 07:06:18.
