data_PCOD8141092
_publ_section_title
;
Structure prediction by ZEFSAII (Michael W. Deem and Ramdas Pophale) SiO2 
 PCOD8141092
Probable space group: C 2/C
;
_chemical_formula_sum "Si O2"
_cell_formula_units_Z 64
_cell_length_a 15.749562
_cell_length_b 8.878907
_cell_length_c 27.497698
_cell_angle_alpha 90.000000
_cell_angle_beta 56.299411
_cell_angle_gamma 90.000000
_cell_volume 3199.047774
_symmetry_space_group_name_H-M "C 2/C"
_symmetry_group_IT_number 15
_symmetry_cell_setting 'monoclinic'
loop_
_space_group_symop_operation_xyz
x,y,z
-x,y,1/2-z
-x,-y,-z
x,-y,1/2+z
1/2+x,1/2+y,z
1/2-x,1/2+y,1/2-z
1/2-x,1/2-y,-z
1/2+x,1/2-y,1/2+z
loop_
_atom_site_type_symbol
_atom_site_label
_atom_site_fract_x
_atom_site_fract_y
_atom_site_fract_z
Si Si1 0.115650 0.836052 0.998632
Si Si2 0.114951 0.879426 0.432581
Si Si3 0.817537 0.180525 0.257622
Si Si4 0.198369 0.859926 0.080341
Si Si5 0.997628 0.381046 0.308461
Si Si6 0.475099 0.217664 0.314344
Si Si7 0.136428 0.100854 0.816955
Si Si8 0.689420 0.680249 0.129676
O O1 0.184797 0.698788 0.956624
O O2 0.139941 0.994073 0.964498
O O3 0.140880 0.847449 0.047355
O O4 0.996331 0.801414 0.026073
O O5 0.119182 0.953295 0.377605
O O6 0.199259 0.751289 0.410559
O O7 0.707860 0.254918 0.290814
O O8 0.842408 0.136456 0.305276
O O9 0.902846 0.289114 0.206596
O O10 0.809045 0.032851 0.228391
O O11 0.143388 0.753929 0.137980
O O12 0.192180 0.033809 0.095986
O O13 0.000556 0.551930 0.327751
O O14 0.896785 0.298056 0.361226
O O15 0.000000 0.393304 0.250000
O O16 0.500000 0.230358 0.250000
O O17 0.531625 0.350964 0.325234
#
# Coordination Sequence:
#
# PCOD8141092 Si02
#       8
#     8   8   8   8   8   8   8   8
#     4  10  23  42  63  84 120 162 208 248 297 354
#     4  10  22  42  61  83 121 163 199 253 301 350
#     4  10  21  35  56  89 127 155 197 242 302 368
#     4  11  22  39  65  92 116 159 204 254 296 355
#     4   9  19  35  54  85 120 158 190 237 294 367
#     4  11  21  36  61  88 120 156 200 244 308 366
#     4  11  21  36  58  86 121 164 197 248 304 362
#     4  10  21  37  62  89 122 152 199 250 303 352
#
# _framework density 20.005953999999999
#
# number of rings (size 3 to 8) (size 9 to 14) (size 15 to 20)
#    0.000    1.750    1.250    3.000    0.000    6.000 
#    0.000    0.000    0.000    0.000    0.000    0.000 
#    0.000    0.000    0.000    0.000    0.000    0.000 
#
# Total GULP energy -396792.796716 kJ/mol
# GULP energy per Si atom -12399.774897 kJ/mol
# Density = 1.996042 g / cm^3
# Si number density = 20.005954 Si / 1000 Ang^3
#
#
#
# Elastic Constant Matrix: (Units=GPa)
#
#
# Indices 1 2 3 4 5 6 
#
# 1 54.7900 13.8527 34.0492 0.0000 -12.2645 0.0000
# 2 13.8527 84.0701 48.9370 0.0001 -0.0308 0.0001
# 3 34.0492 48.9370 115.1093 0.0000 -11.9669 0.0000
# 4 0.0000 0.0001 0.0000 36.3578 0.0000 -1.5849
# 5 -12.2645 -0.0308 -11.9669 0.0000 29.6966 0.0000
# 6 0.0000 0.0001 0.0000 -1.5849 0.0000 28.1478
#
#
#
# Elastic Compliance Matrix: (Units=1/GPa)
#
#
# Indices 1 2 3 4 5 6 
#
# 1 0.023793 -0.000354 -0.006122 0.000000 0.007359 0.000000
# 2 -0.000354 0.016040 -0.007022 0.000000 -0.002959 0.000000
# 3 -0.006122 -0.007022 0.013798 0.000000 0.003024 0.000000
# 4 0.000000 0.000000 0.000000 0.027572 0.000000 0.001552
# 5 0.007359 -0.002959 0.003024 0.000000 0.037929 0.000000
# 6 0.000000 0.000000 0.000000 0.001552 0.000000 0.035614
#
#
# Mechanical properties :
#
#
# Convention : Reuss Voigt Hill
#
# Bulk Modulus (GPa) = 37.54594 49.73858 43.64226
# Shear Modulus (GPa) = 26.23017 29.31582 27.77299
#
# Velocity S-wave (km/s) = 3.62487 3.83215 3.72995
# Velocity P-wave (km/s) = 6.02724 6.67056 6.35704
#
# Compressibility (1/GPa) = 0.02663404
#
# Stress axis : x y z
#
# Youngs Moduli (GPa) = 42.02911 62.34606 72.47379
#
# Poissons Ratio (x) = 0.02207 0.44372
# Poissons Ratio (y) = 0.01488 0.50890
# Poissons Ratio (z) = 0.25732 0.43779
#
# Static dielectric constant tensor:
#      x y z
#    x 3.560330 0.000000 -0.130850 
#    y 0.000000 3.545030 0.000000 
#    z -0.130850 0.000000 3.808470 
# 
# 
# High freq. dielectric constant tensor:
#      x y z
#    x 1.774150 0.000000 -0.016430 
#    y 0.000000 1.777540 0.000000 
#    z -0.016430 0.000000 1.788150 
# 
# From -- ./inp_files/313121.got.cif
#   From: 2010.06.25/outbox.cif.g09.slc.cpg/sg15_157_cif.got.tgz:313121.got - 2010.06.28 07:06:18.
