data_PCOD8141064
_publ_section_title
;
Structure prediction by ZEFSAII (Michael W. Deem and Ramdas Pophale) SiO2 
 PCOD8141064
Probable space group: C 2/C
;
_chemical_formula_sum "Si O2"
_cell_formula_units_Z 56
_cell_length_a 13.096296
_cell_length_b 7.891755
_cell_length_c 28.217177
_cell_angle_alpha 90.000000
_cell_angle_beta 63.681813
_cell_angle_gamma 90.000000
_cell_volume 2614.033805
_symmetry_space_group_name_H-M "C 2/C"
_symmetry_group_IT_number 15
_symmetry_cell_setting 'monoclinic'
loop_
_space_group_symop_operation_xyz
x,y,z
-x,y,1/2-z
-x,-y,-z
x,-y,1/2+z
1/2+x,1/2+y,z
1/2-x,1/2+y,1/2-z
1/2-x,1/2-y,-z
1/2+x,1/2-y,1/2+z
loop_
_atom_site_type_symbol
_atom_site_label
_atom_site_fract_x
_atom_site_fract_y
_atom_site_fract_z
Si Si1 0.288002 0.756723 0.938603
Si Si2 0.429624 0.546317 0.375064
Si Si3 0.712170 0.097933 0.205025
Si Si4 0.477383 0.946286 0.622204
Si Si5 0.118926 0.827091 0.300950
Si Si6 0.608957 0.736500 0.397406
Si Si7 0.943201 0.644896 0.811669
O O1 0.325430 0.567970 0.914492
O O2 0.392636 0.887885 0.913032
O O3 0.176762 0.815442 0.931190
O O4 0.250000 0.750000 0.000000
O O5 0.505783 0.439770 0.322115
O O6 0.503413 0.610631 0.405847
O O7 0.382984 0.698427 0.351490
O O8 0.624497 0.203047 0.255006
O O9 0.803179 0.225676 0.164409
O O10 0.770634 0.945212 0.222104
O O11 0.645258 0.007718 0.176531
O O12 0.393692 0.786054 0.648024
O O13 0.434645 0.068086 0.588336
O O14 0.464763 0.067637 0.671170
O O15 0.000000 0.700449 0.750000
#
# Coordination Sequence:
#
# PCOD8141064 Si02
#       7
#     8   8   8   8   8   8   8
#     4  11  24  44  68  92 118 164 218 269 332 377
#     4   9  24  42  59  93 128 159 216 262 310 378
#     4  11  21  34  59  88 125 172 208 244 312 380
#     4  10  21  42  60  88 129 159 211 259 308 376
#     4  10  21  35  54  89 125 164 207 252 299 378
#     4  10  22  41  64  89 127 163 200 268 317 369
#     4  11  21  37  58  90 127 167 204 249 301 375
#
# _framework density 21.422829
#
# number of rings (size 3 to 8) (size 9 to 14) (size 15 to 20)
#    0.000    1.714    2.857    0.857    6.000    2.286 
#    0.000    2.857    0.000    0.000    0.000    0.000 
#    0.000    0.000    0.000    0.000    0.000    0.000 
#
# Total GULP energy -346952.609395 kJ/mol
# GULP energy per Si atom -12391.164621 kJ/mol
# Density = 2.137407 g / cm^3
# Si number density = 21.422829 Si / 1000 Ang^3
#
#
#
# Elastic Constant Matrix: (Units=GPa)
#
#
# Indices 1 2 3 4 5 6 
#
# 1 81.4070 32.9397 30.2938 0.0000 8.4567 0.0000
# 2 32.9397 110.9634 34.8049 0.0000 1.9965 0.0000
# 3 30.2938 34.8049 92.5866 0.0000 8.3810 0.0000
# 4 0.0000 0.0000 0.0000 22.2528 0.0000 0.1846
# 5 8.4567 1.9965 8.3810 0.0000 15.9588 0.0000
# 6 0.0000 0.0000 0.0000 0.1846 0.0000 34.6009
#
#
#
# Elastic Compliance Matrix: (Units=1/GPa)
#
#
# Indices 1 2 3 4 5 6 
#
# 1 0.015527 -0.003491 -0.003216 0.000000 -0.006102 0.000000
# 2 -0.003491 0.011011 -0.003191 0.000000 0.002148 0.000000
# 3 -0.003216 -0.003191 0.013504 0.000000 -0.004989 0.000000
# 4 0.000000 0.000000 0.000000 0.044940 0.000000 -0.000240
# 5 -0.006102 0.002148 -0.004989 0.000000 0.068246 0.000000
# 6 0.000000 0.000000 0.000000 -0.000240 0.000000 0.028902
#
#
# Mechanical properties :
#
#
# Convention : Reuss Voigt Hill
#
# Bulk Modulus (GPa) = 49.39249 53.44820 51.42035
# Shear Modulus (GPa) = 23.96072 27.02374 25.49223
#
# Velocity S-wave (km/s) = 3.34798 3.55554 3.45332
# Velocity P-wave (km/s) = 6.16858 6.46986 6.32101
#
# Compressibility (1/GPa) = 0.02024599
#
# Stress axis : x y z
#
# Youngs Moduli (GPa) = 64.40384 90.82170 74.05149
#
# Poissons Ratio (x) = 0.31704 0.23813
# Poissons Ratio (y) = 0.22482 0.23633
# Poissons Ratio (z) = 0.20710 0.28985
#
# Static dielectric constant tensor:
#      x y z
#    x 3.925810 0.000000 0.033670 
#    y 0.000000 4.236700 0.000000 
#    z 0.033670 0.000000 3.432770 
# 
# 
# High freq. dielectric constant tensor:
#      x y z
#    x 1.832770 0.000000 -0.001590 
#    y 0.000000 1.856860 0.000000 
#    z -0.001590 0.000000 1.800970 
# 
# From -- ./inp_files/295060.got.cif
#   From: 2010.06.25/outbox.cif.g09.slc.cpg/sg15_148_cif.got.tgz:295060.got - 2010.06.28 07:06:18.
