data_PCOD8141826
_publ_section_title
;
Structure prediction by ZEFSAII (Michael W. Deem and Ramdas Pophale) SiO2 
 PCOD8141826
Probable space group: C 2/C
;
_chemical_formula_sum "Si O2"
_cell_formula_units_Z 48
_cell_length_a 13.918945
_cell_length_b 12.338612
_cell_length_c 24.637603
_cell_angle_alpha 90.000000
_cell_angle_beta 30.046942
_cell_angle_gamma 90.000000
_cell_volume 2118.638155
_symmetry_space_group_name_H-M "C 2/C"
_symmetry_group_IT_number 15
_symmetry_cell_setting 'monoclinic'
loop_
_space_group_symop_operation_xyz
x,y,z
-x,y,1/2-z
-x,-y,-z
x,-y,1/2+z
1/2+x,1/2+y,z
1/2-x,1/2+y,1/2-z
1/2-x,1/2-y,-z
1/2+x,1/2-y,1/2+z
loop_
_atom_site_type_symbol
_atom_site_label
_atom_site_fract_x
_atom_site_fract_y
_atom_site_fract_z
Si Si1 0.582456 0.283738 0.040943
Si Si2 0.259001 0.448507 0.225774
Si Si3 0.170987 0.853001 0.601223
Si Si4 0.799280 0.055820 0.099638
Si Si5 0.762254 0.607679 0.173003
Si Si6 0.140375 0.615700 0.599655
O O1 0.460850 0.384893 0.124652
O O2 0.441358 0.184245 0.099175
O O3 0.750000 0.250000 0.000000
O O4 0.684811 0.323803 0.934411
O O5 0.243313 0.551022 0.190832
O O6 0.217511 0.493926 0.305973
O O7 0.086854 0.365141 0.297550
O O8 0.253626 0.916178 0.612860
O O9 0.238131 0.726920 0.573025
O O10 0.254709 0.914813 0.508092
O O11 0.942035 0.844549 0.709061
O O12 0.656840 0.982137 0.133779
O O13 0.000000 0.000000 0.000000
#
# Coordination Sequence:
#
# PCOD8141826 Si02
#       6
#     8   8   8   8   8   8
#     4  11  23  43  65  97 137 176 222 285 340 396
#     4  11  23  41  68  99 131 176 228 273 337 403
#     4  10  22  39  65  95 131 169 225 271 332 397
#     4  10  21  37  66  93 129 168 227 272 331 390
#     4  11  23  40  66  95 136 173 221 276 338 405
#     4  11  21  39  67  96 125 178 227 275 326 405
#
# _framework density 22.656063
#
# number of rings (size 3 to 8) (size 9 to 14) (size 15 to 20)
#    0.000    1.333    1.667    5.500    2.333    2.000 
#    0.000    1.667    3.667    0.000    0.000    0.000 
#    0.000    0.000    0.000    0.000    0.000    0.000 
#
# Total GULP energy -297429.093037 kJ/mol
# GULP energy per Si atom -12392.878877 kJ/mol
# Density = 2.260450 g / cm^3
# Si number density = 22.656063 Si / 1000 Ang^3
#
#
#
# Elastic Constant Matrix: (Units=GPa)
#
#
# Indices 1 2 3 4 5 6 
#
# 1 140.3654 35.8570 53.4104 0.0014 -5.2243 -0.0005
# 2 35.8570 61.5247 2.0465 0.0004 -1.7607 -0.0003
# 3 53.4104 2.0465 72.0863 0.0079 -4.6311 -0.0027
# 4 0.0014 0.0004 0.0079 33.6768 -0.0005 2.0114
# 5 -5.2243 -1.7607 -4.6311 -0.0005 46.3987 0.0008
# 6 -0.0005 -0.0003 -0.0027 2.0114 0.0008 21.3646
#
#
#
# Elastic Compliance Matrix: (Units=1/GPa)
#
#
# Indices 1 2 3 4 5 6 
#
# 1 0.012256 -0.006841 -0.008872 0.000002 0.000235 -0.000001
# 2 -0.006841 0.020103 0.004527 -0.000001 0.000444 0.000001
# 3 -0.008872 0.004527 0.020395 -0.000005 0.001208 0.000003
# 4 0.000002 -0.000001 -0.000005 0.029862 0.000000 -0.002811
# 5 0.000235 0.000444 0.001208 0.000000 0.021716 -0.000001
# 6 -0.000001 0.000001 0.000003 -0.002811 -0.000001 0.047071
#
#
# Mechanical properties :
#
#
# Convention : Reuss Voigt Hill
#
# Bulk Modulus (GPa) = 32.91494 50.73381 41.82437
# Shear Modulus (GPa) = 27.18822 32.46552 29.82687
#
# Velocity S-wave (km/s) = 3.46792 3.78957 3.63231
# Velocity P-wave (km/s) = 5.53127 6.44899 6.00768
#
# Compressibility (1/GPa) = 0.03038134
#
# Stress axis : x y z
#
# Youngs Moduli (GPa) = 81.58975 49.74399 49.03240
#
# Poissons Ratio (x) = 0.34031 0.43500
# Poissons Ratio (y) = 0.55818 -0.22196
# Poissons Ratio (z) = 0.72385 -0.22518
#
# Static dielectric constant tensor:
#      x y z
#    x 4.434070 0.000010 0.404030 
#    y 0.000010 3.984460 -0.000030 
#    z 0.404030 -0.000030 4.400650 
# 
# 
# High freq. dielectric constant tensor:
#      x y z
#    x 1.900970 0.000000 -0.004820 
#    y 0.000000 1.859400 0.000000 
#    z -0.004820 0.000000 1.902260 
# 
# From -- ./inp_files/296367.got.cif
#   From: 2010.06.25/outbox.cif.g09.slc.cpg/sg15_149_cif.got.tgz:296367.got - 2010.06.28 07:06:18.
