data_PCOD8141978
_publ_section_title
;
Structure prediction by ZEFSAII (Michael W. Deem and Ramdas Pophale) SiO2 
 PCOD8141978
Probable space group: C 2/C
;
_chemical_formula_sum "Si O2"
_cell_formula_units_Z 64
_cell_length_a 13.564547
_cell_length_b 25.602356
_cell_length_c 9.639658
_cell_angle_alpha 90.000000
_cell_angle_beta 70.284594
_cell_angle_gamma 90.000000
_cell_volume 3151.459720
_symmetry_space_group_name_H-M "C 2/C"
_symmetry_group_IT_number 15
_symmetry_cell_setting 'monoclinic'
loop_
_space_group_symop_operation_xyz
x,y,z
-x,y,1/2-z
-x,-y,-z
x,-y,1/2+z
1/2+x,1/2+y,z
1/2-x,1/2+y,1/2-z
1/2-x,1/2-y,-z
1/2+x,1/2-y,1/2+z
loop_
_atom_site_type_symbol
_atom_site_label
_atom_site_fract_x
_atom_site_fract_y
_atom_site_fract_z
Si Si1 0.047267 0.714770 0.877139
Si Si2 0.903439 0.132046 0.701101
Si Si3 0.713396 0.950629 0.977979
Si Si4 0.719101 0.050878 0.799566
Si Si5 0.076499 0.750132 0.326874
Si Si6 0.995010 0.400272 0.088213
Si Si7 0.716649 0.272608 0.663182
Si Si8 0.100761 0.127342 0.120841
O O1 0.168415 0.729022 0.791059
O O2 0.000000 0.719182 0.750000
O O3 0.025110 0.658446 0.958177
O O4 0.992299 0.757647 0.000916
O O5 0.801467 0.097634 0.786268
O O6 0.882842 0.193088 0.743808
O O7 0.929622 0.128101 0.526060
O O8 0.000000 0.111588 0.750000
O O9 0.799627 0.908353 0.901083
O O10 0.749517 0.000792 0.874441
O O11 0.712769 0.964371 0.140925
O O12 0.601145 0.927125 0.981448
O O13 0.604874 0.066442 0.911065
O O14 0.175188 0.711786 0.309915
O O15 0.000000 0.723973 0.250000
O O16 0.000000 0.395880 0.250000
O O17 0.750000 0.250000 0.500000
O O18 0.633911 0.318064 0.675206
O O19 0.000000 0.105635 0.250000
#
# Coordination Sequence:
#
# PCOD8141978 Si02
#       8
#     8   8   8   8   8   8   8   8
#     4  11  20  35  61  91 118 160 205 242 297 366
#     4  10  21  38  60  86 120 159 199 246 303 356
#     4  10  22  39  61  86 119 153 200 256 308 354
#     4  10  21  39  61  87 114 155 202 251 304 361
#     4  11  23  38  56  88 130 160 197 249 298 359
#     4   9  19  35  62  90 117 153 201 249 301 362
#     4  12  21  35  65  90 119 159 206 245 296 361
#     4  11  23  40  61  91 119 157 203 254 297 362
#
# _framework density 20.308050000000001
#
# number of rings (size 3 to 8) (size 9 to 14) (size 15 to 20)
#    0.000    1.500    2.500    3.000    3.500    2.000 
#    0.000    6.250    0.000    0.750    0.000    0.000 
#    0.000    0.000    0.000    0.000    0.000    0.000 
#
# Total GULP energy -396602.494927 kJ/mol
# GULP energy per Si atom -12393.827966 kJ/mol
# Density = 2.026183 g / cm^3
# Si number density = 20.308050 Si / 1000 Ang^3
#
#
#
# Elastic Constant Matrix: (Units=GPa)
#
#
# Indices 1 2 3 4 5 6 
#
# 1 128.8645 19.3392 51.1742 0.0000 -0.8474 0.0000
# 2 19.3392 78.0769 31.9315 0.0000 0.1521 0.0000
# 3 51.1742 31.9315 71.3771 0.0000 -9.7572 0.0000
# 4 0.0000 0.0000 0.0000 31.6014 0.0000 -3.8714
# 5 -0.8474 0.1521 -9.7572 0.0000 35.7624 0.0000
# 6 0.0000 0.0000 0.0000 -3.8714 0.0000 25.4134
#
#
#
# Elastic Compliance Matrix: (Units=1/GPa)
#
#
# Indices 1 2 3 4 5 6 
#
# 1 0.011016 0.000760 -0.008521 0.000000 -0.002067 0.000000
# 2 0.000760 0.015875 -0.007950 0.000000 -0.002219 0.000000
# 3 -0.008521 -0.007950 0.024569 0.000000 0.006535 0.000000
# 4 0.000000 0.000000 0.000000 0.032246 0.000000 0.004912
# 5 -0.002067 -0.002219 0.006535 0.000000 0.029706 0.000000
# 6 0.000000 0.000000 0.000000 0.004912 0.000000 0.040098
#
#
# Mechanical properties :
#
#
# Convention : Reuss Voigt Hill
#
# Bulk Modulus (GPa) = 49.90304 53.68982 51.79643
# Shear Modulus (GPa) = 26.09447 30.28034 28.18741
#
# Velocity S-wave (km/s) = 3.58848 3.86560 3.72962
# Velocity P-wave (km/s) = 6.46498 6.81314 6.64135
#
# Compressibility (1/GPa) = 0.02003886
#
# Stress axis : x y z
#
# Youngs Moduli (GPa) = 90.77605 62.99049 40.70151
#
# Poissons Ratio (x) = -0.04788 0.34680
# Poissons Ratio (y) = -0.06900 0.32359
# Poissons Ratio (z) = 0.77347 0.50080
#
# Static dielectric constant tensor:
#      x y z
#    x 4.006390 0.000000 0.034290 
#    y 0.000000 3.724720 0.000000 
#    z 0.034290 0.000000 3.435340 
# 
# 
# High freq. dielectric constant tensor:
#      x y z
#    x 1.809620 0.000000 -0.009480 
#    y 0.000000 1.777920 0.000000 
#    z -0.009480 0.000000 1.777660 
# 
# From -- ./inp_files/43509.got.cif
#   From: 2010.06.25/outbox.cif.g09.slc.cpg/sg15_22_cif.got.tgz:43509.got - 2010.06.28 07:06:18.
