data_PCOD8141006
_publ_section_title
;
Structure prediction by ZEFSAII (Michael W. Deem and Ramdas Pophale) SiO2 
 PCOD8141006
Probable space group: C 2/C
;
_chemical_formula_sum "Si O2"
_cell_formula_units_Z 40
_cell_length_a 19.426171
_cell_length_b 17.429874
_cell_length_c 7.332531
_cell_angle_alpha 90.000000
_cell_angle_beta 48.814106
_cell_angle_gamma 90.000000
_cell_volume 1868.470884
_symmetry_space_group_name_H-M "C 2/C"
_symmetry_group_IT_number 15
_symmetry_cell_setting 'monoclinic'
loop_
_space_group_symop_operation_xyz
x,y,z
-x,y,1/2-z
-x,-y,-z
x,-y,1/2+z
1/2+x,1/2+y,z
1/2-x,1/2+y,1/2-z
1/2-x,1/2-y,-z
1/2+x,1/2-y,1/2+z
loop_
_atom_site_type_symbol
_atom_site_label
_atom_site_fract_x
_atom_site_fract_y
_atom_site_fract_z
Si Si1 0.392783 0.087116 0.098581
Si Si2 0.382770 0.576910 0.322391
Si Si3 0.500000 0.212142 0.750000
Si Si4 0.000000 0.548114 0.250000
Si Si5 0.439107 0.347524 0.067586
Si Si6 0.315485 0.587256 0.059852
O O1 0.455732 0.100716 0.169008
O O2 0.286957 0.089430 0.338066
O O3 0.412793 0.154667 0.915625
O O4 0.417550 0.004534 0.970975
O O5 0.371916 0.635617 0.511421
O O6 0.312885 0.599342 0.282101
O O7 0.363775 0.491894 0.424102
O O8 0.485698 0.584182 0.060137
O O9 0.507449 0.266738 0.557250
O O10 0.377217 0.346174 0.357151
#
# Coordination Sequence:
#
# PCOD8141006 Si02
#       6
#     8   8   4   4   8   8
#     4  10  21  39  64  86 117 148 200 244 294 350
#     4  10  21  34  57  92 124 151 188 246 301 337
#     4   9  22  46  54  78 127 162 188 238 291 360
#     4   9  20  40  62  88 111 156 188 250 305 334
#     4  10  23  39  57  83 129 163 190 231 298 358
#     4  12  20  34  63  93 114 151 201 252 285 343
#
# _framework density 21.407878
#
# number of rings (size 3 to 8) (size 9 to 14) (size 15 to 20)
#    0.000    2.000    2.000    2.400    2.800    0.800 
#    7.200    4.000    0.000    0.000    0.000    0.000 
#    0.000    0.000    0.000    0.000    0.000    0.000 
#
# Total GULP energy -247813.506019 kJ/mol
# GULP energy per Si atom -12390.675301 kJ/mol
# Density = 2.135915 g / cm^3
# Si number density = 21.407878 Si / 1000 Ang^3
#
#
#
# Elastic Constant Matrix: (Units=GPa)
#
#
# Indices 1 2 3 4 5 6 
#
# 1 105.7706 30.3171 23.3564 0.0000 8.1700 0.0000
# 2 30.3171 92.4373 35.4399 0.0000 -9.1353 0.0000
# 3 23.3564 35.4399 79.0589 0.0000 -12.7226 0.0000
# 4 0.0000 0.0000 0.0000 17.0226 0.0000 5.5288
# 5 8.1700 -9.1353 -12.7226 0.0000 38.7199 0.0000
# 6 0.0000 0.0000 0.0000 5.5288 0.0000 11.5046
#
#
#
# Elastic Compliance Matrix: (Units=1/GPa)
#
#
# Indices 1 2 3 4 5 6 
#
# 1 0.011208 -0.003082 -0.002563 0.000000 -0.003934 0.000000
# 2 -0.003082 0.013966 -0.004978 0.000000 0.002310 0.000000
# 3 -0.002563 -0.004978 0.016403 0.000000 0.004756 0.000000
# 4 0.000000 0.000000 0.000000 0.069611 0.000000 -0.033453
# 5 -0.003934 0.002310 0.004756 0.000000 0.028764 0.000000
# 6 0.000000 0.000000 0.000000 -0.033453 0.000000 0.102998
#
#
# Mechanical properties :
#
#
# Convention : Reuss Voigt Hill
#
# Bulk Modulus (GPa) = 49.18742 50.61041 49.89891
# Shear Modulus (GPa) = 18.45208 25.99298 22.22253
#
# Velocity S-wave (km/s) = 2.93905 3.48829 3.22538
# Velocity P-wave (km/s) = 5.87738 6.31795 6.10164
#
# Compressibility (1/GPa) = 0.02033040
#
# Stress axis : x y z
#
# Youngs Moduli (GPa) = 89.22529 71.60302 60.96519
#
# Poissons Ratio (x) = 0.22069 0.15622
# Poissons Ratio (y) = 0.27500 0.30350
# Poissons Ratio (z) = 0.22864 0.35646
#
# Static dielectric constant tensor:
#      x y z
#    x 3.838720 0.000000 0.254340 
#    y 0.000000 3.671720 0.000000 
#    z 0.254340 0.000000 3.918470 
# 
# 
# High freq. dielectric constant tensor:
#      x y z
#    x 1.820510 0.000000 0.012980 
#    y 0.000000 1.812910 0.000000 
#    z 0.012980 0.000000 1.842140 
# 
# From -- ./inp_files/56392.got.cif
#   From: 2010.06.25/outbox.cif.g09.slc.cpg/sg15_29_cif.got.tgz:56392.got - 2010.06.28 07:06:18.
