data_PCOD8141906
_publ_section_title
;
Structure prediction by ZEFSAII (Michael W. Deem and Ramdas Pophale) SiO2 
 PCOD8141906
Probable space group: C 2/C
;
_chemical_formula_sum "Si O2"
_cell_formula_units_Z 64
_cell_length_a 30.339248
_cell_length_b 11.819453
_cell_length_c 9.177585
_cell_angle_alpha 90.000000
_cell_angle_beta 92.756813
_cell_angle_gamma 90.000000
_cell_volume 3287.211854
_symmetry_space_group_name_H-M "C 2/C"
_symmetry_group_IT_number 15
_symmetry_cell_setting 'monoclinic'
loop_
_space_group_symop_operation_xyz
x,y,z
-x,y,1/2-z
-x,-y,-z
x,-y,1/2+z
1/2+x,1/2+y,z
1/2-x,1/2+y,1/2-z
1/2-x,1/2-y,-z
1/2+x,1/2-y,1/2+z
loop_
_atom_site_type_symbol
_atom_site_label
_atom_site_fract_x
_atom_site_fract_y
_atom_site_fract_z
Si Si1 0.275115 0.280887 0.151385
Si Si2 0.131146 0.174750 0.280578
Si Si3 0.320373 0.899878 0.857369
Si Si4 0.066396 0.901887 0.528168
Si Si5 0.893804 0.235861 0.913681
Si Si6 0.357733 0.578910 0.685208
Si Si7 0.196425 0.626146 0.803119
Si Si8 0.522311 0.369412 0.106390
O O1 0.288394 0.169878 0.244971
O O2 0.317082 0.354916 0.105226
O O3 0.246370 0.357734 0.256458
O O4 0.250000 0.250000 0.000000
O O5 0.093110 0.163631 0.155169
O O6 0.105678 0.223940 0.413989
O O7 0.169831 0.262267 0.248307
O O8 0.154075 0.053150 0.308668
O O9 0.370122 0.850926 0.859697
O O10 0.324509 0.024562 0.793252
O O11 0.303314 0.896399 0.022615
O O12 0.096084 0.898003 0.388630
O O13 0.018819 0.839863 0.505504
O O14 0.055396 0.032982 0.556209
O O15 0.865323 0.129699 0.847378
O O16 0.945203 0.238496 0.869701
O O17 0.500000 0.412482 0.250000
#
# Coordination Sequence:
#
# PCOD8141906 Si02
#       8
#     8   8   8   8   8   8   8   8
#     4  11  24  40  65  94 126 162 207 256 309 375
#     4  11  21  37  59  89 121 161 199 247 310 359
#     4  10  24  45  63  87 123 162 212 260 312 367
#     4  11  21  32  57  90 130 158 198 240 304 377
#     4  10  21  38  58  85 121 162 194 246 310 360
#     4  11  20  38  57  86 130 159 196 247 306 372
#     4  11  24  43  65  89 118 168 213 261 306 365
#     4  11  20  33  56  90 126 163 194 245 302 372
#
# _framework density 19.469387000000001
#
# number of rings (size 3 to 8) (size 9 to 14) (size 15 to 20)
#    0.000    1.250    3.750    1.875    3.500    1.000 
#    6.750    0.000    0.000    0.750    0.000    0.000 
#    0.000    0.000    0.000    0.000    0.000    0.000 
#
# Total GULP energy -396669.234247 kJ/mol
# GULP energy per Si atom -12395.913570 kJ/mol
# Density = 1.942507 g / cm^3
# Si number density = 19.469387 Si / 1000 Ang^3
#
#
#
# Elastic Constant Matrix: (Units=GPa)
#
#
# Indices 1 2 3 4 5 6 
#
# 1 97.0658 37.1023 22.2337 0.0000 -8.8805 0.0000
# 2 37.1023 98.6490 25.8206 0.0000 0.1089 0.0000
# 3 22.2337 25.8206 89.0144 0.0000 6.9687 0.0000
# 4 0.0000 0.0000 0.0000 28.4726 0.0000 1.8592
# 5 -8.8805 0.1089 6.9687 0.0000 32.4021 0.0000
# 6 0.0000 0.0000 0.0000 1.8592 0.0000 26.3882
#
#
#
# Elastic Compliance Matrix: (Units=1/GPa)
#
#
# Indices 1 2 3 4 5 6 
#
# 1 0.012808 -0.004223 -0.002289 0.000000 0.004017 0.000000
# 2 -0.004223 0.012376 -0.002483 0.000000 -0.000665 0.000000
# 3 -0.002289 -0.002483 0.012790 0.000000 -0.003370 0.000000
# 4 0.000000 0.000000 0.000000 0.035284 0.000000 -0.002486
# 5 0.004017 -0.000665 -0.003370 0.000000 0.032690 0.000000
# 6 0.000000 0.000000 0.000000 -0.002486 0.000000 0.038071
#
#
# Mechanical properties :
#
#
# Convention : Reuss Voigt Hill
#
# Bulk Modulus (GPa) = 50.03791 50.56026 50.29909
# Shear Modulus (GPa) = 29.64385 30.75740 30.20063
#
# Velocity S-wave (km/s) = 3.90627 3.97896 3.94278
# Velocity P-wave (km/s) = 6.78983 6.86549 6.82777
#
# Compressibility (1/GPa) = 0.01998485
#
# Stress axis : x y z
#
# Youngs Moduli (GPa) = 78.07585 80.80330 78.18667
#
# Poissons Ratio (x) = 0.34119 0.17895
# Poissons Ratio (y) = 0.32968 0.19415
# Poissons Ratio (z) = 0.17870 0.20064
#
# Static dielectric constant tensor:
#      x y z
#    x 3.811050 0.000000 0.056460 
#    y 0.000000 3.394860 0.000000 
#    z 0.056460 0.000000 3.675500 
# 
# 
# High freq. dielectric constant tensor:
#      x y z
#    x 1.768930 0.000000 0.004940 
#    y 0.000000 1.725830 0.000000 
#    z 0.004940 0.000000 1.773320 
# 
# From -- ./inp_files/69387.got.cif
#   From: 2010.06.25/outbox.cif.g09.slc.cpg/sg15_35_cif.got.tgz:69387.got - 2010.06.28 07:06:18.
