data_PCOD8141111
_publ_section_title
;
Structure prediction by ZEFSAII (Michael W. Deem and Ramdas Pophale) SiO2 
 PCOD8141111
Probable space group: C 2/C
;
_chemical_formula_sum "Si O2"
_cell_formula_units_Z 56
_cell_length_a 26.541878
_cell_length_b 10.554688
_cell_length_c 19.630403
_cell_angle_alpha 90.000000
_cell_angle_beta 29.669127
_cell_angle_gamma 90.000000
_cell_volume 2722.094319
_symmetry_space_group_name_H-M "C 2/C"
_symmetry_group_IT_number 15
_symmetry_cell_setting 'monoclinic'
loop_
_space_group_symop_operation_xyz
x,y,z
-x,y,1/2-z
-x,-y,-z
x,-y,1/2+z
1/2+x,1/2+y,z
1/2-x,1/2+y,1/2-z
1/2-x,1/2-y,-z
1/2+x,1/2-y,1/2+z
loop_
_atom_site_type_symbol
_atom_site_label
_atom_site_fract_x
_atom_site_fract_y
_atom_site_fract_z
Si Si1 0.737720 0.131584 0.866660
Si Si2 0.022195 0.915171 0.604153
Si Si3 0.286890 0.402383 0.899555
Si Si4 0.066820 0.250599 0.919219
Si Si5 0.721447 0.360197 0.437808
Si Si6 0.203181 0.522033 0.275566
Si Si7 0.395888 0.675658 0.027372
O O1 0.849261 0.191438 0.729743
O O2 0.650561 0.239834 0.980823
O O3 0.741201 0.031163 0.922865
O O4 0.699481 0.077885 0.839812
O O5 0.055860 0.839922 0.497182
O O6 0.099942 0.875030 0.572140
O O7 0.907961 0.887089 0.759096
O O8 0.029643 0.066219 0.586345
O O9 0.246396 0.288234 0.899948
O O10 0.244928 0.399837 0.025670
O O11 0.100342 0.393889 0.897939
O O12 0.958981 0.259467 0.007419
O O13 0.782975 0.447614 0.312295
O O14 0.298898 0.613432 0.178960
#
# Coordination Sequence:
#
# PCOD8141111 Si02
#       7
#     8   8   8   8   8   8   8
#     4  11  21  36  61  90 120 157 201 250 309 363
#     4  11  20  38  65  88 120 156 209 251 306 374
#     4  11  23  40  67  87 120 169 202 257 316 371
#     4  11  20  35  59  92 117 157 201 253 311 358
#     4  10  23  42  60  92 122 159 210 254 309 381
#     4  10  22  37  58  87 126 154 199 261 308 360
#     4  10  21  35  57  91 118 154 202 247 305 368
#
# _framework density 20.572396000000001
#
# number of rings (size 3 to 8) (size 9 to 14) (size 15 to 20)
#    0.000    1.429    4.286    2.571    4.000    0.571 
#    2.571    6.429    0.000    0.000    0.000    0.000 
#    0.000    0.000    0.000    0.000    0.000    0.000 
#
# Total GULP energy -347122.759383 kJ/mol
# GULP energy per Si atom -12397.241407 kJ/mol
# Density = 2.052557 g / cm^3
# Si number density = 20.572396 Si / 1000 Ang^3
#
#
#
# Elastic Constant Matrix: (Units=GPa)
#
#
# Indices 1 2 3 4 5 6 
#
# 1 84.3045 28.5390 17.1002 0.0000 -8.4857 0.0000
# 2 28.5390 71.0537 17.0870 0.0002 -8.1919 0.0000
# 3 17.1002 17.0870 33.1698 0.0001 -3.3898 0.0000
# 4 0.0000 0.0002 0.0001 22.4906 0.0000 -9.4280
# 5 -8.4857 -8.1919 -3.3898 0.0000 26.6872 0.0000
# 6 0.0000 0.0000 0.0000 -9.4280 0.0000 44.2361
#
#
#
# Elastic Compliance Matrix: (Units=1/GPa)
#
#
# Indices 1 2 3 4 5 6 
#
# 1 0.014625 -0.004358 -0.005021 0.000000 0.002675 0.000000
# 2 -0.004358 0.017780 -0.006582 0.000000 0.003236 0.000000
# 3 -0.005021 -0.006582 0.036228 0.000000 0.000985 0.000000
# 4 0.000000 0.000000 0.000000 0.048825 0.000000 0.010406
# 5 0.002675 0.003236 0.000985 0.000000 0.039440 0.000000
# 6 0.000000 0.000000 0.000000 0.010406 0.000000 0.024824
#
#
# Mechanical properties :
#
#
# Convention : Reuss Voigt Hill
#
# Bulk Modulus (GPa) = 27.24021 34.88670 31.06345
# Shear Modulus (GPa) = 22.13556 27.06956 24.60256
#
# Velocity S-wave (km/s) = 3.28378 3.63136 3.46193
# Velocity P-wave (km/s) = 5.25809 5.88024 5.57784
#
# Compressibility (1/GPa) = 0.03671043
#
# Stress axis : x y z
#
# Youngs Moduli (GPa) = 68.37689 56.24228 27.60322
#
# Poissons Ratio (x) = 0.24512 0.13860
# Poissons Ratio (y) = 0.29800 0.18168
# Poissons Ratio (z) = 0.34333 0.37017
#
# Static dielectric constant tensor:
#      x y z
#    x 3.657930 0.000000 -0.273570 
#    y 0.000000 4.004530 0.000000 
#    z -0.273570 0.000000 3.491810 
# 
# 
# High freq. dielectric constant tensor:
#      x y z
#    x 1.801600 0.000000 -0.025130 
#    y 0.000000 1.819330 0.000000 
#    z -0.025130 0.000000 1.780550 
# 
# From -- ./inp_files/257377.got.cif
#   From: 2010.06.25/outbox.cif.g09.slc.cpg/sg15_129_cif.got.tgz:257377.got - 2010.06.28 07:06:18.
