data_PCOD8141696
_publ_section_title
;
Structure prediction by ZEFSAII (Michael W. Deem and Ramdas Pophale) SiO2 
 PCOD8141696
Probable space group: C 2/C
;
_chemical_formula_sum "Si O2"
_cell_formula_units_Z 48
_cell_length_a 15.531232
_cell_length_b 9.926739
_cell_length_c 18.668494
_cell_angle_alpha 90.000000
_cell_angle_beta 67.534942
_cell_angle_gamma 90.000000
_cell_volume 2659.786351
_symmetry_space_group_name_H-M "C 2/C"
_symmetry_group_IT_number 15
_symmetry_cell_setting 'monoclinic'
loop_
_space_group_symop_operation_xyz
x,y,z
-x,y,1/2-z
-x,-y,-z
x,-y,1/2+z
1/2+x,1/2+y,z
1/2-x,1/2+y,1/2-z
1/2-x,1/2-y,-z
1/2+x,1/2-y,1/2+z
loop_
_atom_site_type_symbol
_atom_site_label
_atom_site_fract_x
_atom_site_fract_y
_atom_site_fract_z
Si Si1 0.738484 0.431113 0.812755
Si Si2 0.972709 0.402783 0.073916
Si Si3 0.259849 0.878792 0.180477
Si Si4 0.336291 0.298196 0.426240
Si Si5 0.421651 0.038064 0.333770
Si Si6 0.569610 0.615963 0.469474
O O1 0.754151 0.274377 0.786501
O O2 0.713753 0.517539 0.750665
O O3 0.826480 0.504320 0.823338
O O4 0.653578 0.432664 0.893839
O O5 0.866299 0.424436 0.133183
O O6 0.980813 0.249580 0.044295
O O7 0.042735 0.428998 0.118637
O O8 0.000000 0.500000 0.000000
O O9 0.202045 0.891750 0.125333
O O10 0.250000 0.250000 0.500000
O O11 0.400628 0.380007 0.457888
O O12 0.400595 0.177386 0.379052
O O13 0.500000 0.061567 0.250000
O O14 0.500000 0.500000 0.500000
#
# Coordination Sequence:
#
# PCOD8141696 Si02
#       6
#     8   8   8   8   8   8
#     4  10  22  40  59  87 125 154 194 254 297 354
#     4  11  20  36  63  89 115 157 207 240 285 358
#     4  10  21  37  62  86 120 159 194 247 300 351
#     4  11  19  40  63  84 119 164 199 240 302 357
#     4  11  20  34  64  93 114 151 212 247 287 351
#     4  11  24  41  59  88 126 157 195 251 304 350
#
# _framework density 18.046561000000001
#
# number of rings (size 3 to 8) (size 9 to 14) (size 15 to 20)
#    0.000    1.333    8.333    0.000    0.000    4.000 
#    3.000    0.833    0.000    0.000    0.000    0.000 
#    0.000    0.000    0.000    0.000    0.000    0.000 
#
# Total GULP energy -297409.002421 kJ/mol
# GULP energy per Si atom -12392.041768 kJ/mol
# Density = 1.800549 g / cm^3
# Si number density = 18.046561 Si / 1000 Ang^3
#
#
#
# Elastic Constant Matrix: (Units=GPa)
#
#
# Indices 1 2 3 4 5 6 
#
# 1 119.0492 66.9474 60.3458 0.0000 18.6481 0.0000
# 2 66.9474 95.8183 75.4427 0.0000 4.6844 0.0000
# 3 60.3458 75.4427 122.8041 0.0000 22.9868 0.0000
# 4 0.0000 0.0000 0.0000 44.5697 0.0000 4.4484
# 5 18.6481 4.6844 22.9868 0.0000 32.5401 0.0000
# 6 0.0000 0.0000 0.0000 4.4484 0.0000 36.7454
#
#
#
# Elastic Compliance Matrix: (Units=1/GPa)
#
#
# Indices 1 2 3 4 5 6 
#
# 1 0.015406 -0.010754 0.000460 0.000000 -0.007605 0.000000
# 2 -0.010754 0.029097 -0.014935 0.000000 0.012525 0.000000
# 3 0.000460 -0.014935 0.019290 0.000000 -0.011740 0.000000
# 4 0.000000 0.000000 0.000000 0.022711 0.000000 -0.002749
# 5 -0.007605 0.012525 -0.011740 0.000000 0.041580 0.000000
# 6 0.000000 0.000000 0.000000 -0.002749 0.000000 0.027547
#
#
# Mechanical properties :
#
#
# Convention : Reuss Voigt Hill
#
# Bulk Modulus (GPa) = 74.99742 82.57150 78.78446
# Shear Modulus (GPa) = 23.74908 31.76676 27.75792
#
# Velocity S-wave (km/s) = 3.63159 4.20010 3.92615
# Velocity P-wave (km/s) = 7.69627 8.32918 8.01897
#
# Compressibility (1/GPa) = 0.01333379
#
# Stress axis : x y z
#
# Youngs Moduli (GPa) = 64.91115 34.36768 51.84087
#
# Poissons Ratio (x) = 0.36959 -0.02384
# Poissons Ratio (y) = 0.69806 0.77425
# Poissons Ratio (z) = -0.02985 0.51329
#
# Static dielectric constant tensor:
#      x y z
#    x 3.244330 0.000000 -0.107810 
#    y 0.000000 1.347010 0.000000 
#    z -0.107810 0.000000 3.295110 
# 
# 
# High freq. dielectric constant tensor:
#      x y z
#    x 1.706870 0.000000 0.005600 
#    y 0.000000 1.679780 0.000000 
#    z 0.005600 0.000000 1.717480 
# 
# From -- ./inp_files/242340.got.cif
#   From: 2010.06.25/outbox.cif.g09.slc.cpg/sg15_122_cif.got.tgz:242340.got - 2010.06.28 07:06:18.
