data_PCOD8141852
_publ_section_title
;
Structure prediction by ZEFSAII (Michael W. Deem and Ramdas Pophale) SiO2 
 PCOD8141852
Probable space group: C 2/C
;
_chemical_formula_sum "Si O2"
_cell_formula_units_Z 64
_cell_length_a 9.088846
_cell_length_b 30.915870
_cell_length_c 18.876179
_cell_angle_alpha 90.000000
_cell_angle_beta 36.502544
_cell_angle_gamma 90.000000
_cell_volume 3155.135101
_symmetry_space_group_name_H-M "C 2/C"
_symmetry_group_IT_number 15
_symmetry_cell_setting 'monoclinic'
loop_
_space_group_symop_operation_xyz
x,y,z
-x,y,1/2-z
-x,-y,-z
x,-y,1/2+z
1/2+x,1/2+y,z
1/2-x,1/2+y,1/2-z
1/2-x,1/2-y,-z
1/2+x,1/2-y,1/2+z
loop_
_atom_site_type_symbol
_atom_site_label
_atom_site_fract_x
_atom_site_fract_y
_atom_site_fract_z
Si Si1 0.651539 0.377854 0.068825
Si Si2 0.638258 0.336696 0.767971
Si Si3 0.766205 0.476684 0.653171
Si Si4 0.165924 0.297366 0.013927
Si Si5 0.587487 0.790338 0.536888
Si Si6 0.415850 0.932996 0.084575
Si Si7 0.573652 0.869143 0.302695
Si Si8 0.510107 0.085048 0.327799
O O1 0.790576 0.397032 0.083316
O O2 0.364016 0.378030 0.195295
O O3 0.725949 0.329182 0.024855
O O4 0.738684 0.403402 0.964460
O O5 0.500000 0.350400 0.750000
O O6 0.791765 0.377094 0.736629
O O7 0.833068 0.296920 0.680480
O O8 0.421251 0.323790 0.905592
O O9 0.500000 0.455389 0.750000
O O10 0.732868 0.528473 0.679114
O O11 0.909377 0.458701 0.665371
O O12 0.880427 0.461311 0.534700
O O13 0.011242 0.321971 0.135578
O O14 0.250000 0.250000 0.000000
O O15 0.989144 0.290419 0.015363
O O16 0.750000 0.750000 0.500000
O O17 0.537992 0.906953 0.103482
O O18 0.500000 0.874569 0.250000
O O19 0.500000 0.074326 0.250000
#
# Coordination Sequence:
#
# PCOD8141852 Si02
#       8
#     8   8   8   8   8   8   8   8
#     4  10  22  43  63  89 125 169 218 251 317 388
#     4   9  21  41  62  86 125 163 213 259 316 384
#     4  10  21  37  70  96 128 167 218 264 317 387
#     4  11  26  41  61  92 127 164 211 270 319 383
#     4  10  22  40  67  91 117 160 209 267 317 378
#     4  10  22  44  64  97 126 173 219 261 316 386
#     4  12  27  40  65  90 131 174 212 263 322 387
#     4  10  22  36  64  98 128 164 206 270 319 378
#
# _framework density 20.284393000000001
#
# number of rings (size 3 to 8) (size 9 to 14) (size 15 to 20)
#    0.000    1.750    1.250    1.500    8.750    2.000 
#    0.000    0.000    0.000    6.000    0.000    0.000 
#    0.000    0.000    0.000    0.000    0.000    0.000 
#
# Total GULP energy -396522.502356 kJ/mol
# GULP energy per Si atom -12391.328199 kJ/mol
# Density = 2.023822 g / cm^3
# Si number density = 20.284393 Si / 1000 Ang^3
#
#
#
# Elastic Constant Matrix: (Units=GPa)
#
#
# Indices 1 2 3 4 5 6 
#
# 1 75.1272 34.3808 39.7211 0.0000 22.0612 0.0000
# 2 34.3808 116.4075 40.2126 0.0000 11.6900 0.0000
# 3 39.7211 40.2126 87.6260 -0.0001 11.1062 0.0001
# 4 0.0000 0.0000 -0.0001 17.9727 0.0000 4.8523
# 5 22.0612 11.6900 11.1062 0.0000 37.8961 0.0000
# 6 0.0000 0.0000 0.0001 4.8523 0.0000 21.4909
#
#
#
# Elastic Compliance Matrix: (Units=1/GPa)
#
#
# Indices 1 2 3 4 5 6 
#
# 1 0.021093 -0.002850 -0.007071 0.000000 -0.009328 0.000000
# 2 -0.002850 0.010720 -0.003550 0.000000 -0.000607 0.000000
# 3 -0.007071 -0.003550 0.016188 0.000000 0.000468 0.000000
# 4 0.000000 0.000000 0.000000 0.059252 0.000000 -0.013378
# 5 -0.009328 -0.000607 0.000468 0.000000 0.031868 0.000000
# 6 0.000000 0.000000 0.000000 -0.013378 0.000000 0.049552
#
#
# Mechanical properties :
#
#
# Convention : Reuss Voigt Hill
#
# Bulk Modulus (GPa) = 47.49156 56.42107 51.95632
# Shear Modulus (GPa) = 22.45832 26.46169 24.46001
#
# Velocity S-wave (km/s) = 3.33103 3.61575 3.47631
# Velocity P-wave (km/s) = 6.18531 6.73104 6.46394
#
# Compressibility (1/GPa) = 0.02105637
#
# Stress axis : x y z
#
# Youngs Moduli (GPa) = 47.40940 93.28537 61.77568
#
# Poissons Ratio (x) = 0.26589 0.43683
# Poissons Ratio (y) = 0.13513 0.21933
# Poissons Ratio (z) = 0.33524 0.33121
#
# Static dielectric constant tensor:
#      x y z
#    x 3.618560 0.000000 -0.134830 
#    y 0.000000 3.520360 0.000000 
#    z -0.134830 0.000000 3.759460 
# 
# 
# High freq. dielectric constant tensor:
#      x y z
#    x 1.777530 0.000000 -0.004900 
#    y 0.000000 1.798530 0.000000 
#    z -0.004900 0.000000 1.805290 
# 
# From -- ./inp_files/194208.got.cif
#   From: 2010.06.25/outbox.cif.g09.slc.cpg/sg15_98_cif.got.tgz:194208.got - 2010.06.28 07:06:18.
