data_PCOD8141294
_publ_section_title
;
Structure prediction by ZEFSAII (Michael W. Deem and Ramdas Pophale) SiO2 
 PCOD8141294
Probable space group: C 2/C
;
_chemical_formula_sum "Si O2"
_cell_formula_units_Z 48
_cell_length_a 9.756772
_cell_length_b 9.989160
_cell_length_c 28.256352
_cell_angle_alpha 90.000000
_cell_angle_beta 121.588981
_cell_angle_gamma 90.000000
_cell_volume 2345.864761
_symmetry_space_group_name_H-M "C 2/C"
_symmetry_group_IT_number 15
_symmetry_cell_setting 'monoclinic'
loop_
_space_group_symop_operation_xyz
x,y,z
-x,y,1/2-z
-x,-y,-z
x,-y,1/2+z
1/2+x,1/2+y,z
1/2-x,1/2+y,1/2-z
1/2-x,1/2-y,-z
1/2+x,1/2-y,1/2+z
loop_
_atom_site_type_symbol
_atom_site_label
_atom_site_fract_x
_atom_site_fract_y
_atom_site_fract_z
Si Si1 0.971959 0.673239 0.567135
Si Si2 0.274267 0.869022 0.940995
Si Si3 0.684792 0.648054 0.902381
Si Si4 0.912144 0.932799 0.280523
Si Si5 0.012132 0.388406 0.608578
Si Si6 0.364415 0.134739 0.263692
O O1 0.163711 0.697689 0.601720
O O2 0.928335 0.527657 0.579715
O O3 0.889956 0.784668 0.585258
O O4 0.905554 0.685460 0.501620
O O5 0.339718 0.855163 0.899486
O O6 0.240042 0.025763 0.946079
O O7 0.544561 0.592580 0.844031
O O8 0.620909 0.772216 0.921410
O O9 0.820769 0.792610 0.252500
O O10 0.000000 0.989214 0.250000
O O11 0.789565 0.044957 0.276780
O O12 0.074960 0.401086 0.673113
O O13 0.500000 0.098706 0.250000
#
# Coordination Sequence:
#
# PCOD8141294 Si02
#       6
#     8   8   8   8   8   8
#     4  10  22  39  58  85 118 149 189 238 282 336
#     4  10  22  38  58  85 116 152 191 232 284 339
#     4  10  21  36  58  84 114 151 189 233 283 335
#     4  10  21  38  58  83 113 149 189 232 283 335
#     4  10  21  38  59  84 114 150 190 233 282 339
#     4  10  23  39  57  85 116 147 188 235 281 337
#
# _framework density 20.461538000000001
#
# number of rings (size 3 to 8) (size 9 to 14) (size 15 to 20)
#    0.000    2.000    0.000    4.000    0.000   12.667 
#    0.000    3.333    0.000    0.000    0.000    0.000 
#    0.000    0.000    0.000    0.000    0.000    0.000 
#
# Total GULP energy -297630.959179 kJ/mol
# GULP energy per Si atom -12401.289966 kJ/mol
# Density = 2.041497 g / cm^3
# Si number density = 20.461538 Si / 1000 Ang^3
#
#
#
# Elastic Constant Matrix: (Units=GPa)
#
#
# Indices 1 2 3 4 5 6 
#
# 1 139.9325 83.2694 33.7548 0.0000 3.4755 0.0000
# 2 83.2694 105.4444 2.7249 0.0000 6.3524 0.0000
# 3 33.7548 2.7249 58.4164 0.0000 -6.4250 0.0000
# 4 0.0000 0.0000 0.0000 26.7730 0.0000 8.4795
# 5 3.4755 6.3524 -6.4250 0.0000 36.4349 0.0000
# 6 0.0000 0.0000 0.0000 8.4795 0.0000 42.6200
#
#
#
# Elastic Compliance Matrix: (Units=1/GPa)
#
#
# Indices 1 2 3 4 5 6 
#
# 1 0.017562 -0.013559 -0.009626 0.000000 -0.001009 0.000000
# 2 -0.013559 0.020077 0.006787 0.000000 -0.001010 0.000000
# 3 -0.009626 0.006787 0.022777 0.000000 0.003751 0.000000
# 4 0.000000 0.000000 0.000000 0.039863 0.000000 -0.007931
# 5 -0.001009 -0.001010 0.003751 0.000000 0.028380 0.000000
# 6 0.000000 0.000000 0.000000 -0.007931 0.000000 0.025041
#
#
# Mechanical properties :
#
#
# Convention : Reuss Voigt Hill
#
# Bulk Modulus (GPa) = 36.20657 60.36570 48.28614
# Shear Modulus (GPa) = 25.54889 33.43518 29.49203
#
# Velocity S-wave (km/s) = 3.53743 4.04672 3.80062
# Velocity P-wave (km/s) = 5.86668 7.16943 6.55052
#
# Compressibility (1/GPa) = 0.02761930
#
# Stress axis : x y z
#
# Youngs Moduli (GPa) = 56.94065 49.80853 43.90413
#
# Poissons Ratio (x) = 0.67537 0.42264
# Poissons Ratio (y) = 0.77207 -0.29799
# Poissons Ratio (z) = 0.54813 -0.33807
#
# Static dielectric constant tensor:
#      x y z
#    x 3.761500 0.000000 0.004500 
#    y 0.000000 4.004050 0.000000 
#    z 0.004500 0.000000 3.525630 
# 
# 
# High freq. dielectric constant tensor:
#      x y z
#    x 1.799300 0.000000 -0.000070 
#    y 0.000000 1.805580 0.000000 
#    z -0.000070 0.000000 1.794930 
# 
# From -- ./inp_files/287783.got.cif
#   From: 2010.06.25/outbox.cif.g09.slc.cpg/sg15_144_cif.got.tgz:287783.got - 2010.06.28 07:06:18.
