data_PCOD8141662
_publ_section_title
;
Structure prediction by ZEFSAII (Michael W. Deem and Ramdas Pophale) SiO2 
 PCOD8141662
Probable space group: C 2/C
;
_chemical_formula_sum "Si O2"
_cell_formula_units_Z 64
_cell_length_a 21.370836
_cell_length_b 22.229237
_cell_length_c 8.126055
_cell_angle_alpha 90.000000
_cell_angle_beta 125.782126
_cell_angle_gamma 90.000000
_cell_volume 3131.688333
_symmetry_space_group_name_H-M "C 2/C"
_symmetry_group_IT_number 15
_symmetry_cell_setting 'monoclinic'
loop_
_space_group_symop_operation_xyz
x,y,z
-x,y,1/2-z
-x,-y,-z
x,-y,1/2+z
1/2+x,1/2+y,z
1/2-x,1/2+y,1/2-z
1/2-x,1/2-y,-z
1/2+x,1/2-y,1/2+z
loop_
_atom_site_type_symbol
_atom_site_label
_atom_site_fract_x
_atom_site_fract_y
_atom_site_fract_z
Si Si1 0.691614 0.833092 0.329885
Si Si2 0.896137 0.757556 0.004169
Si Si3 0.416331 0.369480 0.568814
Si Si4 0.416512 0.119466 0.584040
Si Si5 0.059773 0.742837 0.080087
Si Si6 0.224204 0.449182 0.784016
Si Si7 0.271335 0.425907 0.226194
Si Si8 0.179400 0.140960 0.254027
O O1 0.666446 0.771510 0.210664
O O2 0.618689 0.869776 0.289303
O O3 0.734209 0.867590 0.249600
O O4 0.746759 0.820030 0.570964
O O5 0.870470 0.827347 0.965383
O O6 0.885851 0.735594 0.175962
O O7 0.977329 0.748392 0.040657
O O8 0.500000 0.395197 0.750000
O O9 0.422754 0.302590 0.499299
O O10 0.365298 0.415566 0.376781
O O11 0.374599 0.369119 0.676691
O O12 0.500000 0.089430 0.750000
O O13 0.429922 0.183904 0.514622
O O14 0.362333 0.073996 0.395615
O O15 0.236847 0.519902 0.782323
O O16 0.288872 0.421652 0.764604
O O17 0.241009 0.431216 0.995745
#
# Coordination Sequence:
#
# PCOD8141662 Si02
#       8
#     8   8   8   8   8   8   8   8
#     4  10  21  37  61  88 123 163 206 250 305 363
#     4  11  20  35  56  93 130 162 202 245 309 364
#     4  11  21  40  65  93 125 165 204 248 309 364
#     4  11  21  40  65  93 125 165 204 248 309 364
#     4  11  22  34  60  92 134 160 195 256 304 368
#     4  11  24  45  65  88 123 160 208 260 304 359
#     4  11  24  45  65  88 123 160 208 260 304 359
#     4  10  21  37  61  88 123 163 206 250 305 363
#
# _framework density 20.436261999999999
#
# number of rings (size 3 to 8) (size 9 to 14) (size 15 to 20)
#    0.000    1.250    2.500    5.250    0.000    3.000 
#    0.000   11.250    0.000    0.000    0.000    0.000 
#    0.000    0.000    0.000    0.000    0.000    0.000 
#
# Total GULP energy -396438.497019 kJ/mol
# GULP energy per Si atom -12388.703032 kJ/mol
# Density = 2.038975 g / cm^3
# Si number density = 20.436262 Si / 1000 Ang^3
#
#
#
# Elastic Constant Matrix: (Units=GPa)
#
#
# Indices 1 2 3 4 5 6 
#
# 1 87.7509 6.0670 27.3739 0.0000 5.7802 0.0000
# 2 6.0670 56.1735 25.0267 0.0000 11.3056 0.0000
# 3 27.3739 25.0267 100.0290 0.0000 7.7198 0.0000
# 4 0.0000 0.0000 0.0000 315.7994 0.0000 361.8423
# 5 5.7802 11.3056 7.7198 0.0000 36.9065 0.0000
# 6 0.0000 0.0000 0.0000 361.8423 0.0000 478.8857
#
#
#
# Elastic Compliance Matrix: (Units=1/GPa)
#
#
# Indices 1 2 3 4 5 6 
#
# 1 0.012527 0.000456 -0.003436 0.000000 -0.001383 0.000000
# 2 0.000456 0.021073 -0.004974 0.000000 -0.005486 0.000000
# 3 -0.003436 -0.004974 0.012220 0.000000 -0.000494 0.000000
# 4 0.000000 0.000000 0.000000 0.023588 0.000000 -0.017823
# 5 -0.001383 -0.005486 -0.000494 0.000000 0.029096 0.000000
# 6 0.000000 0.000000 0.000000 -0.017823 0.000000 0.015555
#
#
# Mechanical properties :
#
#
# Convention : Reuss Voigt Hill
#
# Bulk Modulus (GPa) = 33.42991 40.09875 36.76433
# Shear Modulus (GPa) = 35.73043 178.68404 107.20723
#
# Velocity S-wave (km/s) = 4.18590 9.36080 7.25074
# Velocity P-wave (km/s) = 6.30524 11.68318 9.38757
#
# Compressibility (1/GPa) = 0.02991333
#
# Stress axis : x y z
#
# Youngs Moduli (GPa) = 79.82644 47.45451 81.83442
#
# Poissons Ratio (x) = -0.02164 0.28114
# Poissons Ratio (y) = -0.03640 0.40702
# Poissons Ratio (z) = 0.27425 0.23602
#
# Static dielectric constant tensor:
#      x y z
#    x 4.034550 0.000000 0.363670 
#    y 0.000000 3.708980 0.000000 
#    z 0.363670 0.000000 4.546410 
# 
# 
# High freq. dielectric constant tensor:
#      x y z
#    x 1.807140 0.000000 -0.000230 
#    y 0.000000 1.775260 0.000000 
#    z -0.000230 0.000000 1.817210 
# 
# From -- ./inp_files/58647.got.cif
#   From: 2010.06.25/outbox.cif.g09.slc.cpg/sg15_30_cif.got.tgz:58647.got - 2010.06.28 07:06:18.
