data_PCOD8141306
_publ_section_title
;
Structure prediction by ZEFSAII (Michael W. Deem and Ramdas Pophale) SiO2 
 PCOD8141306
Probable space group: C 2/C
;
_chemical_formula_sum "Si O2"
_cell_formula_units_Z 64
_cell_length_a 20.581833
_cell_length_b 20.807712
_cell_length_c 11.451950
_cell_angle_alpha 90.000000
_cell_angle_beta 40.253971
_cell_angle_gamma 90.000000
_cell_volume 3169.124007
_symmetry_space_group_name_H-M "C 2/C"
_symmetry_group_IT_number 15
_symmetry_cell_setting 'monoclinic'
loop_
_space_group_symop_operation_xyz
x,y,z
-x,y,1/2-z
-x,-y,-z
x,-y,1/2+z
1/2+x,1/2+y,z
1/2-x,1/2+y,1/2-z
1/2-x,1/2-y,-z
1/2+x,1/2-y,1/2+z
loop_
_atom_site_type_symbol
_atom_site_label
_atom_site_fract_x
_atom_site_fract_y
_atom_site_fract_z
Si Si1 0.045660 0.266069 0.865552
Si Si2 0.888723 0.917670 0.949450
Si Si3 0.839529 0.720085 0.518469
Si Si4 0.851110 0.862854 0.239410
Si Si5 0.157579 0.796562 0.611453
Si Si6 0.118787 0.937978 0.076420
Si Si7 0.413147 0.814305 0.439035
Si Si8 0.696076 0.341044 0.795027
O O1 0.134502 0.284749 0.653635
O O2 0.060241 0.189367 0.861858
O O3 0.056122 0.305047 0.969598
O O4 0.939106 0.287891 0.959582
O O5 0.817519 0.863050 0.990122
O O6 0.000000 0.904506 0.750000
O O7 0.849021 0.987680 0.967346
O O8 0.888523 0.912262 0.089616
O O9 0.753039 0.668537 0.663707
O O10 0.794000 0.789752 0.613661
O O11 0.828973 0.903173 0.386386
O O12 0.250000 0.750000 0.500000
O O13 0.082966 0.754645 0.634429
O O14 0.121503 0.814776 0.793620
O O15 0.000000 0.929864 0.250000
O O16 0.155251 0.907324 0.903962
O O17 0.500000 0.854929 0.250000
O O18 0.305938 0.850797 0.583835
#
# Coordination Sequence:
#
# PCOD8141306 Si02
#       8
#     8   8   8   8   8   8   8   8
#     4  11  21  36  60  92 127 155 208 262 322 377
#     4  11  26  40  58  90 128 171 208 252 314 379
#     4  11  22  36  62  96 121 166 206 266 325 372
#     4  12  22  42  62  88 133 166 209 260 315 379
#     4  10  21  36  58  89 125 164 202 255 314 376
#     4  11  26  40  62  90 123 179 212 254 307 383
#     4  11  21  35  56  90 126 162 197 263 323 369
#     4  11  21  37  58  87 128 161 215 255 313 377
#
# _framework density 20.194853999999999
#
# number of rings (size 3 to 8) (size 9 to 14) (size 15 to 20)
#    0.000    1.000    3.750    3.750    5.250    2.000 
#    0.000    0.000    0.000    0.000    3.250    7.875 
#    0.000    0.000    0.000    0.000    0.000    0.000 
#
# Total GULP energy -396608.534265 kJ/mol
# GULP energy per Si atom -12394.016696 kJ/mol
# Density = 2.014889 g / cm^3
# Si number density = 20.194854 Si / 1000 Ang^3
#
#
#
# Elastic Constant Matrix: (Units=GPa)
#
#
# Indices 1 2 3 4 5 6 
#
# 1 95.9425 34.9512 35.2790 0.0000 16.4955 0.0000
# 2 34.9512 97.8081 32.3748 0.0000 -2.5215 0.0000
# 3 35.2790 32.3748 123.3594 0.0000 9.5222 0.0000
# 4 0.0000 0.0000 0.0000 20.6498 0.0000 3.0100
# 5 16.4955 -2.5215 9.5222 0.0000 37.7574 0.0000
# 6 0.0000 0.0000 0.0000 3.0100 0.0000 24.7599
#
#
#
# Elastic Compliance Matrix: (Units=1/GPa)
#
#
# Indices 1 2 3 4 5 6 
#
# 1 0.013858 -0.004309 -0.002389 0.000000 -0.005740 0.000000
# 2 -0.004309 0.012623 -0.002336 0.000000 0.003315 0.000000
# 3 -0.002389 -0.002336 0.009520 0.000000 -0.001513 0.000000
# 4 0.000000 0.000000 0.000000 0.049300 0.000000 -0.005993
# 5 -0.005740 0.003315 -0.001513 0.000000 0.029595 0.000000
# 6 0.000000 0.000000 0.000000 -0.005993 0.000000 0.041116
#
#
# Mechanical properties :
#
#
# Convention : Reuss Voigt Hill
#
# Bulk Modulus (GPa) = 55.76931 58.03553 56.90242
# Shear Modulus (GPa) = 27.76869 30.93376 29.35122
#
# Velocity S-wave (km/s) = 3.71217 3.91802 3.81649
# Velocity P-wave (km/s) = 6.78596 7.01912 6.90352
#
# Compressibility (1/GPa) = 0.01793101
#
# Stress axis : x y z
#
# Youngs Moduli (GPa) = 72.16004 79.22207 105.04639
#
# Poissons Ratio (x) = 0.34139 0.25098
# Poissons Ratio (y) = 0.31095 0.24541
# Poissons Ratio (z) = 0.17241 0.18508
#
# Static dielectric constant tensor:
#      x y z
#    x 4.054610 0.000000 0.213630 
#    y 0.000000 3.387670 0.000000 
#    z 0.213630 0.000000 3.964760 
# 
# 
# High freq. dielectric constant tensor:
#      x y z
#    x 1.802230 0.000000 0.016350 
#    y 0.000000 1.739100 0.000000 
#    z 0.016350 0.000000 1.804850 
# 
# From -- ./inp_files/114258.got.cif
#   From: 2010.06.25/outbox.cif.g09.slc.cpg/sg15_58_cif.got.tgz:114258.got - 2010.06.28 07:06:18.
