data_PCOD8141021
_publ_section_title
;
Structure prediction by ZEFSAII (Michael W. Deem and Ramdas Pophale) SiO2 
 PCOD8141021
Probable space group: C 2/C
;
_chemical_formula_sum "Si O2"
_cell_formula_units_Z 48
_cell_length_a 19.450479
_cell_length_b 9.872909
_cell_length_c 18.760872
_cell_angle_alpha 90.000000
_cell_angle_beta 47.979353
_cell_angle_gamma 90.000000
_cell_volume 2676.461176
_symmetry_space_group_name_H-M "C 2/C"
_symmetry_group_IT_number 15
_symmetry_cell_setting 'monoclinic'
loop_
_space_group_symop_operation_xyz
x,y,z
-x,y,1/2-z
-x,-y,-z
x,-y,1/2+z
1/2+x,1/2+y,z
1/2-x,1/2+y,1/2-z
1/2-x,1/2-y,-z
1/2+x,1/2-y,1/2+z
loop_
_atom_site_type_symbol
_atom_site_label
_atom_site_fract_x
_atom_site_fract_y
_atom_site_fract_z
Si Si1 0.170723 0.761358 0.317483
Si Si2 0.738178 0.495585 0.693894
Si Si3 0.507944 0.650223 0.025077
Si Si4 0.011950 0.272280 0.823364
Si Si5 0.467507 0.533214 0.198530
Si Si6 0.426786 0.102639 0.514037
O O1 0.245486 0.649071 0.282659
O O2 0.103143 0.782520 0.432053
O O3 0.115614 0.716149 0.283930
O O4 0.226301 0.899332 0.266779
O O5 0.642798 0.486574 0.716861
O O6 0.824232 0.540372 0.585358
O O7 0.499808 0.638801 0.115821
O O8 0.427570 0.752192 0.054184
O O9 0.500000 0.500000 0.000000
O O10 0.000000 0.321901 0.750000
O O11 0.984048 0.113233 0.848796
O O12 0.948075 0.369257 0.916082
O O13 0.500000 0.597516 0.250000
O O14 0.500000 0.000000 0.500000
#
# Coordination Sequence:
#
# PCOD8141021 Si02
#       6
#     8   8   8   8   8   8
#     4  10  21  34  59  86 112 148 197 234 276 345
#     4  11  20  36  58  88 112 148 197 241 273 343
#     4  11  18  38  59  85 113 157 188 228 287 349
#     4   9  18  36  56  83 116 148 184 234 288 334
#     4  10  21  38  60  82 115 153 194 237 289 337
#     4  11  20  35  61  85 118 148 188 241 282 336
#
# _framework density 17.934128999999999
#
# number of rings (size 3 to 8) (size 9 to 14) (size 15 to 20)
#    0.000    1.667    8.333    1.000    0.000    0.000 
#    0.000   10.833    0.000    0.000    0.000    0.000 
#    0.000    0.000    0.000    0.000    0.000    0.000 
#
# Total GULP energy -297420.407569 kJ/mol
# GULP energy per Si atom -12392.516982 kJ/mol
# Density = 1.789331 g / cm^3
# Si number density = 17.934129 Si / 1000 Ang^3
#
#
#
# Elastic Constant Matrix: (Units=GPa)
#
#
# Indices 1 2 3 4 5 6 
#
# 1 89.8398 46.8252 70.0690 0.0000 11.1226 0.0000
# 2 46.8252 90.6890 39.0036 0.0000 5.3151 0.0000
# 3 70.0690 39.0036 122.5896 0.0000 14.1426 0.0000
# 4 0.0000 0.0000 0.0000 35.9670 0.0000 -4.1709
# 5 11.1226 5.3151 14.1426 0.0000 37.7459 0.0000
# 6 0.0000 0.0000 0.0000 -4.1709 0.0000 23.5047
#
#
#
# Elastic Compliance Matrix: (Units=1/GPa)
#
#
# Indices 1 2 3 4 5 6 
#
# 1 0.023873 -0.007462 -0.011059 0.000000 -0.001840 0.000000
# 2 -0.007462 0.015110 -0.000575 0.000000 0.000287 0.000000
# 3 -0.011059 -0.000575 0.014921 0.000000 -0.002251 0.000000
# 4 0.000000 0.000000 0.000000 0.028387 0.000000 0.005037
# 5 -0.001840 0.000287 -0.002251 0.000000 0.027838 0.000000
# 6 0.000000 0.000000 0.000000 0.005037 0.000000 0.043439
#
#
# Mechanical properties :
#
#
# Convention : Reuss Voigt Hill
#
# Bulk Modulus (GPa) = 63.64735 68.32377 65.98556
# Shear Modulus (GPa) = 25.38079 29.25821 27.31950
#
# Velocity S-wave (km/s) = 3.76603 4.04347 3.90721
# Velocity P-wave (km/s) = 7.38086 7.74463 7.56494
#
# Compressibility (1/GPa) = 0.01571157
#
# Stress axis : x y z
#
# Youngs Moduli (GPa) = 41.88762 66.17959 67.01996
#
# Poissons Ratio (x) = 0.49386 0.74116
# Poissons Ratio (y) = 0.31258 0.03856
# Poissons Ratio (z) = 0.46323 0.03807
#
# Static dielectric constant tensor:
#      x y z
#    x 3.239590 0.000000 0.075870 
#    y 0.000000 3.517060 0.000000 
#    z 0.075870 0.000000 3.566470 
# 
# 
# High freq. dielectric constant tensor:
#      x y z
#    x 1.668900 0.000000 -0.005420 
#    y 0.000000 1.699710 0.000000 
#    z -0.005420 0.000000 1.691260 
# 
# From -- ./inp_files/213729.got.cif
#   From: 2010.06.25/outbox.cif.g09.slc.cpg/sg15_107_cif.got.tgz:213729.got - 2010.06.28 07:06:18.
