data_PCOD8141741
_publ_section_title
;
Structure prediction by ZEFSAII (Michael W. Deem and Ramdas Pophale) SiO2 
 PCOD8141741
Probable space group: C 2/C
;
_chemical_formula_sum "Si O2"
_cell_formula_units_Z 56
_cell_length_a 19.298138
_cell_length_b 20.218904
_cell_length_c 14.868051
_cell_angle_alpha 90.000000
_cell_angle_beta 30.131694
_cell_angle_gamma 90.000000
_cell_volume 2912.201767
_symmetry_space_group_name_H-M "C 2/C"
_symmetry_group_IT_number 15
_symmetry_cell_setting 'monoclinic'
loop_
_space_group_symop_operation_xyz
x,y,z
-x,y,1/2-z
-x,-y,-z
x,-y,1/2+z
1/2+x,1/2+y,z
1/2-x,1/2+y,1/2-z
1/2-x,1/2-y,-z
1/2+x,1/2-y,1/2+z
loop_
_atom_site_type_symbol
_atom_site_label
_atom_site_fract_x
_atom_site_fract_y
_atom_site_fract_z
Si Si1 0.382614 0.795332 0.114567
Si Si2 0.622162 0.050856 0.881665
Si Si3 0.906665 0.245611 0.487902
Si Si4 0.845300 0.706730 0.455518
Si Si5 0.342690 0.057910 0.458032
Si Si6 0.500000 0.145269 0.750000
Si Si7 0.736586 0.942164 0.067510
Si Si8 0.500000 0.358013 0.750000
O O1 0.424552 0.872486 0.062009
O O2 0.250740 0.779497 0.325506
O O3 0.518422 0.759337 0.001156
O O4 0.343880 0.767753 0.059836
O O5 0.736816 0.044046 0.674620
O O6 0.680480 0.031795 0.914125
O O7 0.500000 0.000000 0.000000
O O8 0.992582 0.186658 0.346877
O O9 0.911051 0.310150 0.418833
O O10 0.750000 0.750000 0.500000
O O11 0.787440 0.632379 0.512511
O O12 0.000000 0.711533 0.250000
O O13 0.500000 0.053131 0.250000
O O14 0.253044 0.012247 0.493738
O O15 0.400833 0.098737 0.802967
O O16 0.867179 0.902629 0.887834
#
# Coordination Sequence:
#
# PCOD8141741 Si02
#       8
#     8   8   8   8   8   4   8   4
#     4  11  22  37  64  89 126 153 204 251 300 364
#     4  11  20  37  63  89 116 156 206 255 296 355
#     4  11  21  38  57  98 123 164 195 245 304 373
#     4  10  22  42  62  87 116 158 201 260 309 349
#     4  10  21  37  63  88 114 151 208 255 293 357
#     4  11  20  34  66  88 125 162 206 236 299 374
#     4  12  21  41  60  92 123 167 200 256 303 365
#     4  11  24  38  60  86 139 160 190 242 323 364
#
# _framework density 19.229437000000001
#
# number of rings (size 3 to 8) (size 9 to 14) (size 15 to 20)
#    0.000    1.143    5.000    1.714    0.000    2.286 
#    1.286    0.714    0.000    0.000    0.000    0.000 
#    0.000    0.000    0.000    0.000    0.000    0.000 
#
# Total GULP energy -347199.517022 kJ/mol
# GULP energy per Si atom -12399.982751 kJ/mol
# Density = 1.918567 g / cm^3
# Si number density = 19.229437 Si / 1000 Ang^3
#
#
#
# Elastic Constant Matrix: (Units=GPa)
#
#
# Indices 1 2 3 4 5 6 
#
# 1 113.3208 48.3064 18.6261 -0.0338 19.4311 -0.0023
# 2 48.3064 93.4117 22.2126 -0.0477 -0.1132 -0.0013
# 3 18.6261 22.2126 67.2513 -0.0874 7.6208 -0.0034
# 4 -0.0338 -0.0477 -0.0874 -26.3898 0.0538 -2.3090
# 5 19.4311 -0.1132 7.6208 0.0538 33.5767 0.0030
# 6 -0.0023 -0.0013 -0.0034 -2.3090 0.0030 30.3311
#
#
#
# Elastic Compliance Matrix: (Units=1/GPa)
#
#
# Indices 1 2 3 4 5 6 
#
# 1 0.013003 -0.006595 -0.000583 -0.000018 -0.007415 0.000000
# 2 -0.006595 0.014991 -0.003657 0.000003 0.004697 0.000000
# 3 -0.000583 -0.003657 0.016630 -0.000055 -0.003449 -0.000002
# 4 -0.000018 0.000003 -0.000055 -0.037642 0.000083 -0.002866
# 5 -0.007415 0.004697 -0.003449 0.000083 0.034872 0.000002
# 6 0.000000 0.000000 -0.000002 -0.002866 0.000002 0.032751
#
#
# Mechanical properties :
#
#
# Convention : Reuss Voigt Hill
#
# Bulk Modulus (GPa) = 43.56516 50.25267 46.90892
# Shear Modulus (GPa) = 48.11136 19.82618 33.96877
#
# Velocity S-wave (km/s) = 5.00739 3.21445 4.20753
# Velocity P-wave (km/s) = 7.49243 6.32194 6.93194
#
# Compressibility (1/GPa) = 0.02295412
#
# Stress axis : x y z
#
# Youngs Moduli (GPa) = 76.90604 66.70695 60.13298
#
# Poissons Ratio (x) = 0.43991 0.03505
# Poissons Ratio (y) = 0.50717 0.21992
# Poissons Ratio (z) = 0.04483 0.24396
#
# Static dielectric constant tensor:
#      x y z
#    x 3.597850 -0.000010 0.387580 
#    y -0.000010 3.751290 0.000020 
#    z 0.387580 0.000020 3.432060 
# 
# 
# High freq. dielectric constant tensor:
#      x y z
#    x 1.751970 0.000000 0.024290 
#    y 0.000000 1.754700 0.000000 
#    z 0.024290 0.000000 1.733780 
# 
# From -- ./inp_files/50147.got.cif
#   From: 2010.06.25/outbox.cif.g09.slc.cpg/sg15_26_cif.got.tgz:50147.got - 2010.06.28 07:06:18.
