data_PCOD8141971
_publ_section_title
;
Structure prediction by ZEFSAII (Michael W. Deem and Ramdas Pophale) SiO2 
 PCOD8141971
Probable space group: C 2/C
;
_chemical_formula_sum "Si O2"
_cell_formula_units_Z 44
_cell_length_a 27.441698
_cell_length_b 9.736734
_cell_length_c 7.976417
_cell_angle_alpha 90.000000
_cell_angle_beta 76.385320
_cell_angle_gamma 90.000000
_cell_volume 2071.352636
_symmetry_space_group_name_H-M "C 2/C"
_symmetry_group_IT_number 15
_symmetry_cell_setting 'monoclinic'
loop_
_space_group_symop_operation_xyz
x,y,z
-x,y,1/2-z
-x,-y,-z
x,-y,1/2+z
1/2+x,1/2+y,z
1/2-x,1/2+y,1/2-z
1/2-x,1/2-y,-z
1/2+x,1/2-y,1/2+z
loop_
_atom_site_type_symbol
_atom_site_label
_atom_site_fract_x
_atom_site_fract_y
_atom_site_fract_z
Si Si1 0.048823 0.593001 0.933786
Si Si2 0.694347 0.302307 0.026154
Si Si3 0.000000 0.814865 0.750000
Si Si4 0.154621 0.932441 0.734425
Si Si5 0.909555 0.878099 0.011838
Si Si6 0.102019 0.642068 0.224516
O O1 0.095270 0.508578 0.812070
O O2 0.037652 0.719844 0.824094
O O3 0.065509 0.655286 0.096333
O O4 0.000000 0.500000 0.000000
O O5 0.687746 0.438261 0.145121
O O6 0.658411 0.179823 0.121584
O O7 0.750000 0.250000 0.000000
O O8 0.685209 0.334982 0.836309
O O9 0.963919 0.911536 0.889272
O O10 0.134219 0.848528 0.590941
O O11 0.105420 0.988304 0.870462
O O12 0.916926 0.745845 0.119420
#
# Coordination Sequence:
#
# PCOD8141971 Si02
#       6
#     8   8   4   8   8   8
#     4  12  21  36  57  91 126 163 200 256 302 384
#     4  10  22  41  68  92 117 166 205 262 318 370
#     4  12  22  34  60  86 122 160 212 232 314 356
#     4   9  21  44  60  85 128 150 209 256 309 365
#     4  10  21  38  60  84 115 170 192 254 298 368
#     4  11  22  38  59  87 129 160 202 251 321 354
#
# _framework density 21.242156999999999
#
# number of rings (size 3 to 8) (size 9 to 14) (size 15 to 20)
#    0.000    1.455    3.636    1.091    0.000    2.182 
#    0.000    8.182    0.000    0.000    0.000    0.000 
#    0.000    0.000    0.000    0.000    0.000    0.000 
#
# Total GULP energy -272779.688372 kJ/mol
# GULP energy per Si atom -12399.076744 kJ/mol
# Density = 2.119381 g / cm^3
# Si number density = 21.242157 Si / 1000 Ang^3
#
#
#
# Elastic Constant Matrix: (Units=GPa)
#
#
# Indices 1 2 3 4 5 6 
#
# 1 131.0944 52.6274 68.5766 0.0000 -9.4905 0.0000
# 2 52.6274 62.8954 40.3042 0.0000 6.7138 0.0000
# 3 68.5766 40.3042 130.9489 0.0000 15.8773 0.0000
# 4 0.0000 0.0000 0.0000 35.4940 0.0000 3.5513
# 5 -9.4905 6.7138 15.8773 0.0000 41.1117 0.0000
# 6 0.0000 0.0000 0.0000 3.5513 0.0000 37.0882
#
#
#
# Elastic Compliance Matrix: (Units=1/GPa)
#
#
# Indices 1 2 3 4 5 6 
#
# 1 0.015077 -0.009676 -0.005802 0.000000 0.007301 0.000000
# 2 -0.009676 0.026050 -0.002270 0.000000 -0.005611 0.000000
# 3 -0.005802 -0.002270 0.012056 0.000000 -0.005625 0.000000
# 4 0.000000 0.000000 0.000000 0.028446 0.000000 -0.002724
# 5 0.007301 -0.005611 -0.005625 0.000000 0.029098 0.000000
# 6 0.000000 0.000000 0.000000 -0.002724 0.000000 0.027224
#
#
# Mechanical properties :
#
#
# Convention : Reuss Voigt Hill
#
# Bulk Modulus (GPa) = 56.54657 71.99503 64.27080
# Shear Modulus (GPa) = 27.87964 33.63416 30.75690
#
# Velocity S-wave (km/s) = 3.62673 3.98347 3.80928
# Velocity P-wave (km/s) = 6.64946 7.42452 7.04765
#
# Compressibility (1/GPa) = 0.01768454
#
# Stress axis : x y z
#
# Youngs Moduli (GPa) = 66.32828 38.38831 82.94671
#
# Poissons Ratio (x) = 0.37146 0.48130
# Poissons Ratio (y) = 0.64181 0.18829
# Poissons Ratio (z) = 0.38487 0.08714
#
# Static dielectric constant tensor:
#      x y z
#    x 3.700930 0.000000 0.121470 
#    y 0.000000 3.770500 0.000000 
#    z 0.121470 0.000000 4.425660 
# 
# 
# High freq. dielectric constant tensor:
#      x y z
#    x 1.814730 0.000000 0.009430 
#    y 0.000000 1.816820 0.000000 
#    z 0.009430 0.000000 1.859650 
# 
# From -- ./inp_files/54441.got.cif
#   From: 2010.06.25/outbox.cif.g09.slc.cpg/sg15_28_cif.got.tgz:54441.got - 2010.06.28 07:06:18.
