data_PCOD8141771
_publ_section_title
;
Structure prediction by ZEFSAII (Michael W. Deem and Ramdas Pophale) SiO2 
 PCOD8141771
Probable space group: C 2/C
;
_chemical_formula_sum "Si O2"
_cell_formula_units_Z 48
_cell_length_a 22.125545
_cell_length_b 8.593187
_cell_length_c 21.690634
_cell_angle_alpha 90.000000
_cell_angle_beta 37.378004
_cell_angle_gamma 90.000000
_cell_volume 2503.570597
_symmetry_space_group_name_H-M "C 2/C"
_symmetry_group_IT_number 15
_symmetry_cell_setting 'monoclinic'
loop_
_space_group_symop_operation_xyz
x,y,z
-x,y,1/2-z
-x,-y,-z
x,-y,1/2+z
1/2+x,1/2+y,z
1/2-x,1/2+y,1/2-z
1/2-x,1/2-y,-z
1/2+x,1/2-y,1/2+z
loop_
_atom_site_type_symbol
_atom_site_label
_atom_site_fract_x
_atom_site_fract_y
_atom_site_fract_z
Si Si1 0.000000 0.024577 0.750000
Si Si2 0.584137 0.434312 0.476373
Si Si3 0.958165 0.783943 0.684009
Si Si4 0.223514 0.648643 0.737622
Si Si5 0.255797 0.330994 0.661450
Si Si6 0.000000 0.532998 0.750000
Si Si7 0.343585 0.770278 0.881408
O O1 0.085722 0.132498 0.653060
O O2 0.052159 0.925601 0.760750
O O3 0.500000 0.500000 0.500000
O O4 0.540077 0.330585 0.566867
O O5 0.661799 0.322572 0.376720
O O6 0.647132 0.586129 0.448731
O O7 0.850841 0.757672 0.740735
O O8 0.992269 0.632775 0.693965
O O9 0.196988 0.465623 0.748356
O O10 0.212412 0.692453 0.818387
O O11 0.186840 0.254922 0.665482
O O12 0.099803 0.434047 0.657447
O O13 0.250000 0.750000 0.000000
#
# Coordination Sequence:
#
# PCOD8141771 Si02
#       7
#     4   8   8   8   8   4   8
#     4  10  26  34  70  86 122 174 202 256 324 368
#     4  10  21  37  64  90 124 162 208 249 319 376
#     4  11  20  43  62  93 123 164 214 255 312 381
#     4  10  22  39  65  91 129 162 204 266 311 369
#     4  10  22  41  64  91 129 162 208 263 316 369
#     4  10  22  42  62  88 126 162 210 260 306 376
#     4  11  23  43  60  92 126 162 211 262 315 376
#
# _framework density 19.172618
#
# number of rings (size 3 to 8) (size 9 to 14) (size 15 to 20)
#    1.000    0.667    3.333    1.000    4.667    1.333 
#    0.000    5.000    0.000    0.000    0.000    0.000 
#    0.000    0.000    0.000    0.000    0.000    0.000 
#
# Total GULP energy -297424.256049 kJ/mol
# GULP energy per Si atom -12392.677335 kJ/mol
# Density = 1.912898 g / cm^3
# Si number density = 19.172618 Si / 1000 Ang^3
#
#
#
# Elastic Constant Matrix: (Units=GPa)
#
#
# Indices 1 2 3 4 5 6 
#
# 1 121.9278 43.5798 41.0963 0.0001 -1.1144 0.0000
# 2 43.5798 83.4895 41.4049 0.0002 6.2030 0.0001
# 3 41.0963 41.4049 117.0057 0.0003 -5.8557 -0.0001
# 4 0.0001 0.0002 0.0003 16.4129 -0.0001 3.5425
# 5 -1.1144 6.2030 -5.8557 -0.0001 32.3327 0.0000
# 6 0.0000 0.0001 -0.0001 3.5425 0.0000 26.3323
#
#
#
# Elastic Compliance Matrix: (Units=1/GPa)
#
#
# Indices 1 2 3 4 5 6 
#
# 1 0.010522 -0.004542 -0.002045 0.000000 0.000864 0.000000
# 2 -0.004542 0.016953 -0.004616 0.000000 -0.004245 0.000000
# 3 -0.002045 -0.004616 0.011039 0.000000 0.002814 0.000000
# 4 0.000000 0.000000 0.000000 0.062750 0.000000 -0.008442
# 5 0.000864 -0.004245 0.002814 0.000000 0.032282 0.000000
# 6 0.000000 0.000000 0.000000 -0.008442 0.000000 0.039112
#
#
# Mechanical properties :
#
#
# Convention : Reuss Voigt Hill
#
# Bulk Modulus (GPa) = 62.08344 63.84278 62.96311
# Shear Modulus (GPa) = 24.94565 28.10504 26.52534
#
# Velocity S-wave (km/s) = 3.61100 3.83285 3.72358
# Velocity P-wave (km/s) = 7.05956 7.27729 7.16925
#
# Compressibility (1/GPa) = 0.01610735
#
# Stress axis : x y z
#
# Youngs Moduli (GPa) = 95.03578 58.98546 90.58505
#
# Poissons Ratio (x) = 0.26793 0.18526
# Poissons Ratio (y) = 0.43169 0.41817
# Poissons Ratio (z) = 0.19436 0.27229
#
# Static dielectric constant tensor:
#      x y z
#    x 3.599700 0.000000 0.020720 
#    y 0.000000 3.498390 0.000000 
#    z 0.020720 0.000000 3.196080 
# 
# 
# High freq. dielectric constant tensor:
#      x y z
#    x 1.761390 0.000000 -0.005480 
#    y 0.000000 1.742990 0.000000 
#    z -0.005480 0.000000 1.729350 
# 
# From -- ./inp_files/251796.got.cif
#   From: 2010.06.25/outbox.cif.g09.slc.cpg/sg15_126_cif.got.tgz:251796.got - 2010.06.28 07:06:18.
