data_PCOD8141552
_publ_section_title
;
Structure prediction by ZEFSAII (Michael W. Deem and Ramdas Pophale) SiO2 
 PCOD8141552
Probable space group: C 2/C
;
_chemical_formula_sum "Si O2"
_cell_formula_units_Z 52
_cell_length_a 18.192742
_cell_length_b 17.041140
_cell_length_c 9.593763
_cell_angle_alpha 90.000000
_cell_angle_beta 127.203220
_cell_angle_gamma 90.000000
_cell_volume 2369.023431
_symmetry_space_group_name_H-M "C 2/C"
_symmetry_group_IT_number 15
_symmetry_cell_setting 'monoclinic'
loop_
_space_group_symop_operation_xyz
x,y,z
-x,y,1/2-z
-x,-y,-z
x,-y,1/2+z
1/2+x,1/2+y,z
1/2-x,1/2+y,1/2-z
1/2-x,1/2-y,-z
1/2+x,1/2-y,1/2+z
loop_
_atom_site_type_symbol
_atom_site_label
_atom_site_fract_x
_atom_site_fract_y
_atom_site_fract_z
Si Si1 0.885201 0.951361 0.463061
Si Si2 0.154895 0.250763 0.969705
Si Si3 0.338069 0.229237 0.697270
Si Si4 0.127935 0.913424 0.362072
Si Si5 0.829813 0.555860 0.746796
Si Si6 0.500000 0.325605 0.750000
Si Si7 0.843029 0.580431 0.073954
O O1 0.898913 0.954716 0.313435
O O2 0.780802 0.940400 0.394839
O O3 0.944754 0.878087 0.578302
O O4 0.918148 0.033908 0.568593
O O5 0.092834 0.176386 0.847709
O O6 0.250000 0.250000 0.000000
O O7 0.180014 0.247349 0.162714
O O8 0.106444 0.334000 0.869345
O O9 0.250000 0.250000 0.500000
O O10 0.363236 0.137239 0.718045
O O11 0.429037 0.272932 0.752753
O O12 0.237530 0.907977 0.497370
O O13 0.855770 0.543518 0.936573
O O14 0.881286 0.483836 0.726548
#
# Coordination Sequence:
#
# PCOD8141552 Si02
#       7
#     8   8   8   8   8   4   8
#     4  10  21  37  58  88 129 169 211 255 312 394
#     4   9  19  36  62  93 124 167 219 259 309 375
#     4  11  23  40  66  88 127 170 211 267 322 378
#     4   9  19  35  58  88 132 168 206 255 314 368
#     4   9  17  35  58  88 118 158 205 258 316 361
#     4  12  26  40  60  96 128 164 226 256 318 396
#     4   8  16  30  55  91 116 152 211 254 300 376
#
# _framework density 21.949973
#
# number of rings (size 3 to 8) (size 9 to 14) (size 15 to 20)
#    0.000    2.462    1.538    0.923    2.154    4.308 
#    0.000    0.000    0.000    3.692    0.000    0.000 
#    0.000    0.000    0.000    0.000    0.000    0.000 
#
# Total GULP energy -322152.799525 kJ/mol
# GULP energy per Si atom -12390.492289 kJ/mol
# Density = 2.190001 g / cm^3
# Si number density = 21.949973 Si / 1000 Ang^3
#
#
#
# Elastic Constant Matrix: (Units=GPa)
#
#
# Indices 1 2 3 4 5 6 
#
# 1 78.7044 63.7997 42.7172 0.0000 -18.1954 0.0000
# 2 63.7997 215.2249 77.2278 0.0000 -38.2891 0.0000
# 3 42.7172 77.2278 81.0911 0.0000 -34.0671 0.0000
# 4 0.0000 0.0000 0.0000 35.7122 0.0000 -14.3436
# 5 -18.1954 -38.2891 -34.0671 0.0000 20.6466 0.0000
# 6 0.0000 0.0000 0.0000 -14.3436 0.0000 24.3265
#
#
#
# Elastic Compliance Matrix: (Units=1/GPa)
#
#
# Indices 1 2 3 4 5 6 
#
# 1 0.019103 -0.003208 -0.007935 0.000000 -0.002208 0.000000
# 2 -0.003208 0.007876 -0.002811 0.000000 0.007141 0.000000
# 3 -0.007935 -0.002811 0.045829 0.000000 0.063412 0.000000
# 4 0.000000 0.000000 0.000000 0.036691 0.000000 0.021634
# 5 -0.002208 0.007141 0.063412 0.000000 0.164363 0.000000
# 6 0.000000 0.000000 0.000000 0.021634 0.000000 0.053863
#
#
# Mechanical properties :
#
#
# Convention : Reuss Voigt Hill
#
# Bulk Modulus (GPa) = 22.27194 82.50111 52.38652
# Shear Modulus (GPa) = 13.49158 28.88876 21.19017
#
# Velocity S-wave (km/s) = 2.48191 3.63177 3.11044
# Velocity P-wave (km/s) = 4.28741 7.43330 6.06777
#
# Compressibility (1/GPa) = 0.04489954
#
# Stress axis : x y z
#
# Youngs Moduli (GPa) = 52.34823 126.96090 21.82013
#
# Poissons Ratio (x) = 0.40731 0.17315
# Poissons Ratio (y) = 0.16794 0.06134
# Poissons Ratio (z) = 0.41540 0.35690
#
# Static dielectric constant tensor:
#      x y z
#    x 3.700090 0.000000 -0.224370 
#    y 0.000000 5.081430 0.000000 
#    z -0.224370 0.000000 3.782000 
# 
# 
# High freq. dielectric constant tensor:
#      x y z
#    x 1.850320 0.000000 -0.023960 
#    y 0.000000 1.885220 0.000000 
#    z -0.023960 0.000000 1.843610 
# 
# From -- ./inp_files/49234.got.cif
#   From: 2010.06.25/outbox.cif.g09.slc.cpg/sg15_25_cif.got.tgz:49234.got - 2010.06.28 07:06:18.
