data_PCOD8141894
_publ_section_title
;
Structure prediction by ZEFSAII (Michael W. Deem and Ramdas Pophale) SiO2 
 PCOD8141894
Probable space group: C 2/C
;
_chemical_formula_sum "Si O2"
_cell_formula_units_Z 36
_cell_length_a 13.846709
_cell_length_b 8.912151
_cell_length_c 21.152051
_cell_angle_alpha 90.000000
_cell_angle_beta 136.863297
_cell_angle_gamma 90.000000
_cell_volume 1784.733774
_symmetry_space_group_name_H-M "C 2/C"
_symmetry_group_IT_number 15
_symmetry_cell_setting 'monoclinic'
loop_
_space_group_symop_operation_xyz
x,y,z
-x,y,1/2-z
-x,-y,-z
x,-y,1/2+z
1/2+x,1/2+y,z
1/2-x,1/2+y,1/2-z
1/2-x,1/2-y,-z
1/2+x,1/2-y,1/2+z
loop_
_atom_site_type_symbol
_atom_site_label
_atom_site_fract_x
_atom_site_fract_y
_atom_site_fract_z
Si Si1 0.771468 0.333443 0.605046
Si Si2 0.990760 0.660928 0.465843
Si Si3 0.000000 0.649795 0.750000
Si Si4 0.267987 0.319864 0.439769
Si Si5 0.065015 0.375101 0.699358
O O1 0.648281 0.220172 0.526998
O O2 0.731830 0.499805 0.561251
O O3 0.798946 0.323911 0.694322
O O4 0.920121 0.282499 0.644736
O O5 0.914263 0.770775 0.478100
O O6 0.901463 0.646157 0.358325
O O7 0.000000 0.500000 0.500000
O O8 0.862885 0.746314 0.664973
O O9 0.965485 0.547167 0.795010
O O10 0.250000 0.250000 0.500000
#
# Coordination Sequence:
#
# PCOD8141894 Si02
#       5
#     8   8   4   8   8
#     4   9  20  39  57  78 112 148 180 227 284 334
#     4  12  22  33  56  87 111 143 189 231 273 335
#     4   8  18  40  56  74 112 148 176 224 282 330
#     4  10  21  38  58  80 109 150 187 228 279 332
#     4   8  18  36  58  78 107 145 180 228 283 326
#
# _framework density 20.171074000000001
#
# number of rings (size 3 to 8) (size 9 to 14) (size 15 to 20)
#    0.000    3.111    0.000    4.000    0.000    5.333 
#    0.000    4.444    0.000    0.000    0.000    0.000 
#    0.000    0.000    0.000    0.000    0.000    0.000 
#
# Total GULP energy -222998.053572 kJ/mol
# GULP energy per Si atom -12388.780754 kJ/mol
# Density = 2.012516 g / cm^3
# Si number density = 20.171074 Si / 1000 Ang^3
#
#
#
# Elastic Constant Matrix: (Units=GPa)
#
#
# Indices 1 2 3 4 5 6 
#
# 1 71.9880 20.7841 36.3298 0.0000 -19.2222 0.0000
# 2 20.7841 74.6477 38.0605 0.0000 -2.6092 0.0000
# 3 36.3298 38.0605 122.8916 0.0000 -15.3439 0.0000
# 4 0.0000 0.0000 0.0000 31.6023 0.0000 2.8732
# 5 -19.2222 -2.6092 -15.3439 0.0000 44.7161 0.0000
# 6 0.0000 0.0000 0.0000 2.8732 0.0000 14.2691
#
#
#
# Elastic Compliance Matrix: (Units=1/GPa)
#
#
# Indices 1 2 3 4 5 6 
#
# 1 0.018339 -0.003001 -0.003688 0.000000 0.006443 0.000000
# 2 -0.003001 0.016427 -0.004432 0.000000 -0.001852 0.000000
# 3 -0.003688 -0.004432 0.010834 0.000000 0.001874 0.000000
# 4 0.000000 0.000000 0.000000 0.032233 0.000000 -0.006491
# 5 0.006443 -0.001852 0.001874 0.000000 0.025668 0.000000
# 6 0.000000 0.000000 0.000000 -0.006491 0.000000 0.071389
#
#
# Mechanical properties :
#
#
# Convention : Reuss Voigt Hill
#
# Bulk Modulus (GPa) = 42.80918 51.09735 46.95327
# Shear Modulus (GPa) = 24.40028 29.74101 27.07064
#
# Velocity S-wave (km/s) = 3.48180 3.84401 3.66738
# Velocity P-wave (km/s) = 6.11825 6.71482 6.42347
#
# Compressibility (1/GPa) = 0.02335948
#
# Stress axis : x y z
#
# Youngs Moduli (GPa) = 54.52860 60.87713 92.30314
#
# Poissons Ratio (x) = 0.18267 0.34038
# Poissons Ratio (y) = 0.16362 0.40905
# Poissons Ratio (z) = 0.20108 0.26978
#
# Static dielectric constant tensor:
#      x y z
#    x 3.828530 0.000000 0.123140 
#    y 0.000000 3.259860 0.000000 
#    z 0.123140 0.000000 4.141820 
# 
# 
# High freq. dielectric constant tensor:
#      x y z
#    x 1.777210 0.000000 -0.002080 
#    y 0.000000 1.747250 0.000000 
#    z -0.002080 0.000000 1.808930 
# 
# From -- ./inp_files/242868.got.cif
#   From: 2010.06.25/outbox.cif.g09.slc.cpg/sg15_122_cif.got.tgz:242868.got - 2010.06.28 07:06:18.
