data_PCOD8141428
_publ_section_title
;
Structure prediction by ZEFSAII (Michael W. Deem and Ramdas Pophale) SiO2 
 PCOD8141428
Probable space group: C 2/C
;
_chemical_formula_sum "Si O2"
_cell_formula_units_Z 60
_cell_length_a 22.568891
_cell_length_b 20.140551
_cell_length_c 9.005980
_cell_angle_alpha 90.000000
_cell_angle_beta 133.378869
_cell_angle_gamma 90.000000
_cell_volume 2975.392119
_symmetry_space_group_name_H-M "C 2/C"
_symmetry_group_IT_number 15
_symmetry_cell_setting 'monoclinic'
loop_
_space_group_symop_operation_xyz
x,y,z
-x,y,1/2-z
-x,-y,-z
x,-y,1/2+z
1/2+x,1/2+y,z
1/2-x,1/2+y,1/2-z
1/2-x,1/2-y,-z
1/2+x,1/2-y,1/2+z
loop_
_atom_site_type_symbol
_atom_site_label
_atom_site_fract_x
_atom_site_fract_y
_atom_site_fract_z
Si Si1 0.908779 0.585145 0.584793
Si Si2 0.500000 0.336604 0.750000
Si Si3 0.516232 0.575399 0.558187
Si Si4 0.821926 0.187339 0.969707
Si Si5 0.268612 0.552120 0.752423
Si Si6 0.659587 0.988638 0.803207
Si Si7 0.364430 0.578343 0.487818
Si Si8 0.741325 0.173295 0.144738
O O1 0.902089 0.523960 0.688738
O O2 0.889294 0.564065 0.381499
O O3 0.847448 0.641940 0.533316
O O4 0.000000 0.613546 0.750000
O O5 0.475641 0.383588 0.574772
O O6 0.418580 0.293728 0.642270
O O7 0.500000 0.500000 0.500000
O O8 0.440519 0.603809 0.521662
O O9 0.604329 0.579049 0.789615
O O10 0.807083 0.124852 0.837016
O O11 0.771131 0.250879 0.822985
O O12 0.793252 0.169009 0.084689
O O13 0.201270 0.541830 0.765118
O O14 0.229396 0.547828 0.520616
O O15 0.337017 0.494972 0.887895
O O16 0.289518 0.629951 0.349216
#
# Coordination Sequence:
#
# PCOD8141428 Si02
#       8
#     8   4   8   8   8   8   8   8
#     4  11  22  39  63  92 121 158 208 265 313 361
#     4  12  24  38  60  94 122 160 216 256 298 380
#     4  11  23  36  59  98 130 161 197 260 311 373
#     4  11  24  40  63  90 128 167 208 253 317 374
#     4  11  20  38  63  93 123 163 208 249 315 382
#     4  10  21  36  63  92 121 156 206 261 315 367
#     4  11  22  39  63  90 130 166 204 249 321 370
#     4  11  23  43  64  87 126 175 205 252 318 378
#
# _framework density 20.165409
#
# number of rings (size 3 to 8) (size 9 to 14) (size 15 to 20)
#    0.000    1.067    5.333    2.800    4.667    0.000 
#    0.000    2.667    0.000    0.000    0.000    0.000 
#    0.000    0.000    0.000    0.000    0.000    0.000 
#
# Total GULP energy -371975.060866 kJ/mol
# GULP energy per Si atom -12399.168696 kJ/mol
# Density = 2.011951 g / cm^3
# Si number density = 20.165409 Si / 1000 Ang^3
#
#
#
# Elastic Constant Matrix: (Units=GPa)
#
#
# Indices 1 2 3 4 5 6 
#
# 1 76.0885 15.8674 48.3215 0.0000 15.4366 0.0000
# 2 15.8674 102.8679 47.2209 0.0000 6.3157 0.0000
# 3 48.3215 47.2209 139.3169 0.0000 7.2036 0.0000
# 4 0.0000 0.0000 0.0000 24.5252 0.0000 -0.1086
# 5 15.4366 6.3157 7.2036 0.0000 43.7452 0.0000
# 6 0.0000 0.0000 0.0000 -0.1086 0.0000 18.4478
#
#
#
# Elastic Compliance Matrix: (Units=1/GPa)
#
#
# Indices 1 2 3 4 5 6 
#
# 1 0.018039 0.000347 -0.006095 0.000000 -0.005412 0.000000
# 2 0.000347 0.011565 -0.003982 0.000000 -0.001137 0.000000
# 3 -0.006095 -0.003982 0.010591 0.000000 0.000981 0.000000
# 4 0.000000 0.000000 0.000000 0.040775 0.000000 0.000240
# 5 -0.005412 -0.001137 0.000981 0.000000 0.024772 0.000000
# 6 0.000000 0.000000 0.000000 0.000240 0.000000 0.054208
#
#
# Mechanical properties :
#
#
# Convention : Reuss Voigt Hill
#
# Bulk Modulus (GPa) = 48.22356 60.12143 54.17250
# Shear Modulus (GPa) = 26.83559 31.13454 28.98506
#
# Velocity S-wave (km/s) = 3.65193 3.93359 3.79537
# Velocity P-wave (km/s) = 6.46128 7.10701 6.79182
#
# Compressibility (1/GPa) = 0.02073675
#
# Stress axis : x y z
#
# Youngs Moduli (GPa) = 55.43690 86.46643 94.42344
#
# Poissons Ratio (x) = -0.03005 0.57547
# Poissons Ratio (y) = -0.01926 0.37597
# Poissons Ratio (z) = 0.33786 0.34429
#
# Static dielectric constant tensor:
#      x y z
#    x 3.867580 0.000000 0.067660 
#    y 0.000000 3.367580 0.000000 
#    z 0.067660 0.000000 3.755170 
# 
# 
# High freq. dielectric constant tensor:
#      x y z
#    x 1.805910 0.000000 0.005720 
#    y 0.000000 1.756370 0.000000 
#    z 0.005720 0.000000 1.789700 
# 
# From -- ./inp_files/63521.got.cif
#   From: 2010.06.25/outbox.cif.g09.slc.cpg/sg15_32_cif.got.tgz:63521.got - 2010.06.28 07:06:18.
