data_PCOD8141671
_publ_section_title
;
Structure prediction by ZEFSAII (Michael W. Deem and Ramdas Pophale) SiO2 
 PCOD8141671
Probable space group: C 2/C
;
_chemical_formula_sum "Si O2"
_cell_formula_units_Z 48
_cell_length_a 15.894629
_cell_length_b 19.418318
_cell_length_c 12.563170
_cell_angle_alpha 90.000000
_cell_angle_beta 39.058491
_cell_angle_gamma 90.000000
_cell_volume 2443.317865
_symmetry_space_group_name_H-M "C 2/C"
_symmetry_group_IT_number 15
_symmetry_cell_setting 'monoclinic'
loop_
_space_group_symop_operation_xyz
x,y,z
-x,y,1/2-z
-x,-y,-z
x,-y,1/2+z
1/2+x,1/2+y,z
1/2-x,1/2+y,1/2-z
1/2-x,1/2-y,-z
1/2+x,1/2-y,1/2+z
loop_
_atom_site_type_symbol
_atom_site_label
_atom_site_fract_x
_atom_site_fract_y
_atom_site_fract_z
Si Si1 0.258172 0.754079 0.235591
Si Si2 0.653166 0.122551 0.224184
Si Si3 0.725482 0.504070 0.777613
Si Si4 0.156832 0.378882 0.475331
Si Si5 0.992034 0.225939 0.377154
Si Si6 0.493019 0.434245 0.874580
O O1 0.241783 0.684070 0.185101
O O2 0.248683 0.818644 0.164453
O O3 0.151896 0.757731 0.434257
O O4 0.400946 0.760839 0.151169
O O5 0.497736 0.141512 0.386118
O O6 0.680297 0.052157 0.260279
O O7 0.695773 0.111924 0.060155
O O8 0.816677 0.549549 0.610685
O O9 0.607653 0.468527 0.829922
O O10 0.655400 0.552275 0.934690
O O11 0.000000 0.257299 0.250000
O O12 0.024008 0.145854 0.341721
O O13 0.500000 0.466078 0.750000
#
# Coordination Sequence:
#
# PCOD8141671 Si02
#       6
#     8   8   8   8   8   8
#     4  12  22  44  64  94 126 164 206 254 310 366
#     4  11  24  41  63  90 123 163 206 255 309 368
#     4  11  21  40  62  88 121 161 202 254 304 368
#     4  11  24  41  63  90 123 163 206 255 309 368
#     4  11  23  41  65  92 125 163 204 252 309 368
#     4  10  21  37  61  90 119 154 200 252 307 367
#
# _framework density 19.645417999999999
#
# number of rings (size 3 to 8) (size 9 to 14) (size 15 to 20)
#    0.000    1.000    5.000    2.500    0.000    0.000 
#    0.000    1.667    0.000    0.000    0.000    0.000 
#    0.000    0.000    0.000    0.000    0.000    0.000 
#
# Total GULP energy -297712.941917 kJ/mol
# GULP energy per Si atom -12404.705913 kJ/mol
# Density = 1.960070 g / cm^3
# Si number density = 19.645418 Si / 1000 Ang^3
#
#
#
# Elastic Constant Matrix: (Units=GPa)
#
#
# Indices 1 2 3 4 5 6 
#
# 1 89.0974 31.0194 34.4746 -0.0003 20.8069 0.0001
# 2 31.0194 89.2931 27.5026 -0.0001 20.1783 0.0000
# 3 34.4746 27.5026 109.2018 -0.0005 25.4718 -0.0003
# 4 -0.0003 -0.0001 -0.0005 31.9215 0.0005 4.3676
# 5 20.8069 20.1783 25.4718 0.0005 37.3920 0.0000
# 6 0.0001 0.0000 -0.0003 4.3676 0.0000 -6.8016
#
#
#
# Elastic Compliance Matrix: (Units=1/GPa)
#
#
# Indices 1 2 3 4 5 6 
#
# 1 0.014418 -0.003163 -0.002713 0.000000 -0.004468 0.000000
# 2 -0.003163 0.013793 -0.001367 0.000000 -0.004752 0.000000
# 3 -0.002713 -0.001367 0.011692 0.000000 -0.005717 0.000000
# 4 0.000000 0.000000 0.000000 0.028797 -0.000001 0.018492
# 5 -0.004468 -0.004752 -0.005717 -0.000001 0.035689 0.000000
# 6 0.000000 0.000000 0.000000 0.018492 0.000000 -0.135150
#
#
# Mechanical properties :
#
#
# Convention : Reuss Voigt Hill
#
# Bulk Modulus (GPa) = 39.34455 52.62061 45.98258
# Shear Modulus (GPa) = -640.70810 25.47544 -307.61633
#
# Velocity S-wave (km/s) = -18.07883 3.60497 -12.52694
# Velocity P-wave (km/s) = 20.38925 6.64613 13.62994
#
# Compressibility (1/GPa) = 0.02541648
#
# Stress axis : x y z
#
# Youngs Moduli (GPa) = 69.35722 72.50177 85.53162
#
# Poissons Ratio (x) = 0.22936 0.23204
# Poissons Ratio (y) = 0.21941 0.11689
# Poissons Ratio (z) = 0.18816 0.09908
#
# Static dielectric constant tensor:
#      x y z
#    x 3.623630 0.000000 0.217590 
#    y 0.000000 3.486840 0.000000 
#    z 0.217590 0.000000 3.703100 
# 
# 
# High freq. dielectric constant tensor:
#      x y z
#    x 1.770990 0.000000 0.009510 
#    y 0.000000 1.765290 0.000000 
#    z 0.009510 0.000000 1.776310 
# 
# From -- ./inp_files/99980.got.cif
#   From: 2010.06.25/outbox.cif.g09.slc.cpg/sg15_50_cif.got.tgz:99980.got - 2010.06.28 07:06:18.
