data_PCOD8141039
_publ_section_title
;
Structure prediction by ZEFSAII (Michael W. Deem and Ramdas Pophale) SiO2 
 PCOD8141039
Probable space group: C 2/C
;
_chemical_formula_sum "Si O2"
_cell_formula_units_Z 36
_cell_length_a 9.342748
_cell_length_b 18.350848
_cell_length_c 9.940016
_cell_angle_alpha 90.000000
_cell_angle_beta 113.581129
_cell_angle_gamma 90.000000
_cell_volume 1561.880267
_symmetry_space_group_name_H-M "C 2/C"
_symmetry_group_IT_number 15
_symmetry_cell_setting 'monoclinic'
loop_
_space_group_symop_operation_xyz
x,y,z
-x,y,1/2-z
-x,-y,-z
x,-y,1/2+z
1/2+x,1/2+y,z
1/2-x,1/2+y,1/2-z
1/2-x,1/2-y,-z
1/2+x,1/2-y,1/2+z
loop_
_atom_site_type_symbol
_atom_site_label
_atom_site_fract_x
_atom_site_fract_y
_atom_site_fract_z
Si Si1 0.581940 0.412285 0.910003
Si Si2 0.500000 0.724431 0.250000
Si Si3 0.582987 0.654582 0.914754
Si Si4 0.925618 0.557358 0.572846
Si Si5 0.418664 0.805242 0.462456
O O1 0.500000 0.452342 0.750000
O O2 0.615881 0.327746 0.880432
O O3 0.461449 0.406162 0.990095
O O4 0.738900 0.454023 0.013083
O O5 0.385967 0.772825 0.300709
O O6 0.500000 0.627441 0.750000
O O7 0.769167 0.653903 0.967211
O O8 0.527677 0.737793 0.924247
O O9 0.000000 0.552323 0.750000
O O10 0.000000 0.500000 0.500000
O O11 0.947199 0.635144 0.507777
#
# Coordination Sequence:
#
# PCOD8141039 Si02
#       5
#     8   4   8   8   8
#     4   9  22  44  69  97 133 177 224 274 347 396
#     4   8  18  38  72  98 126 174 212 282 344 392
#     4  10  21  34  63 103 131 167 213 283 339 391
#     4  12  27  46  67  94 134 186 231 274 330 405
#     4  10  21  37  63  96 136 166 224 266 340 397
#
# _framework density 23.049140999999999
#
# number of rings (size 3 to 8) (size 9 to 14) (size 15 to 20)
#    0.667    1.333    1.111    1.333    3.111    4.444 
#    0.000    5.556    0.000    0.000    0.000    0.000 
#    0.000    0.000    0.000    0.000    0.000    0.000 
#
# Total GULP energy -222985.390281 kJ/mol
# GULP energy per Si atom -12388.077238 kJ/mol
# Density = 2.299668 g / cm^3
# Si number density = 23.049141 Si / 1000 Ang^3
#
#
#
# Elastic Constant Matrix: (Units=GPa)
#
#
# Indices 1 2 3 4 5 6 
#
# 1 137.4637 18.3172 64.5028 0.0000 -8.6880 0.0000
# 2 18.3172 25.5458 12.6213 0.0000 -3.3950 0.0000
# 3 64.5028 12.6213 147.8461 0.0000 -7.8870 0.0000
# 4 0.0000 0.0000 0.0000 8.2573 0.0000 0.1374
# 5 -8.6880 -3.3950 -7.8870 0.0000 43.1621 0.0000
# 6 0.0000 0.0000 0.0000 0.1374 0.0000 21.1292
#
#
#
# Elastic Compliance Matrix: (Units=1/GPa)
#
#
# Indices 1 2 3 4 5 6 
#
# 1 0.009778 -0.005021 -0.003790 0.000000 0.000881 0.000000
# 2 -0.005021 0.043739 -0.001427 0.000000 0.002169 0.000000
# 3 -0.003790 -0.001427 0.008576 0.000000 0.000692 0.000000
# 4 0.000000 0.000000 0.000000 0.121118 0.000000 -0.000788
# 5 0.000881 0.002169 0.000692 0.000000 0.023643 0.000000
# 6 0.000000 0.000000 0.000000 -0.000788 0.000000 0.047333
#
#
# Mechanical properties :
#
#
# Convention : Reuss Voigt Hill
#
# Bulk Modulus (GPa) = 24.02973 55.74868 39.88920
# Shear Modulus (GPa) = 17.32876 28.87068 23.09972
#
# Velocity S-wave (km/s) = 2.74490 3.54301 3.16918
# Velocity P-wave (km/s) = 4.52704 6.40130 5.54394
#
# Compressibility (1/GPa) = 0.04161512
#
# Stress axis : x y z
#
# Youngs Moduli (GPa) = 102.27076 22.86270 116.60157
#
# Poissons Ratio (x) = 0.11480 0.44196
# Poissons Ratio (y) = 0.51355 0.16644
# Poissons Ratio (z) = 0.38764 0.03264
#
# Static dielectric constant tensor:
#      x y z
#    x 4.083820 0.000000 -0.446790 
#    y 0.000000 3.914840 0.000000 
#    z -0.446790 0.000000 4.028680 
# 
# 
# High freq. dielectric constant tensor:
#      x y z
#    x 1.909260 0.000000 -0.031750 
#    y 0.000000 1.898170 0.000000 
#    z -0.031750 0.000000 1.898220 
# 
# From -- ./inp_files/77418.got.cif
#   From: 2010.06.25/outbox.cif.g09.slc.cpg/sg15_39_cif.got.tgz:77418.got - 2010.06.28 07:06:18.
