data_PCOD8141770
_publ_section_title
;
Structure prediction by ZEFSAII (Michael W. Deem and Ramdas Pophale) SiO2 
 PCOD8141770
Probable space group: C 2/C
;
_chemical_formula_sum "Si O2"
_cell_formula_units_Z 32
_cell_length_a 23.608186
_cell_length_b 14.844570
_cell_length_c 8.953226
_cell_angle_alpha 90.000000
_cell_angle_beta 151.996828
_cell_angle_gamma 90.000000
_cell_volume 1473.208766
_symmetry_space_group_name_H-M "C 2/C"
_symmetry_group_IT_number 15
_symmetry_cell_setting 'monoclinic'
loop_
_space_group_symop_operation_xyz
x,y,z
-x,y,1/2-z
-x,-y,-z
x,-y,1/2+z
1/2+x,1/2+y,z
1/2-x,1/2+y,1/2-z
1/2-x,1/2-y,-z
1/2+x,1/2-y,1/2+z
loop_
_atom_site_type_symbol
_atom_site_label
_atom_site_fract_x
_atom_site_fract_y
_atom_site_fract_z
Si Si1 0.261164 0.577486 0.878708
Si Si2 0.041834 0.402153 0.055417
Si Si3 0.813297 0.277581 0.495965
Si Si4 0.781214 0.895659 0.752364
O O1 0.114905 0.587145 0.567585
O O2 0.284305 0.659298 0.817910
O O3 0.301170 0.483782 0.899481
O O4 0.332440 0.587632 0.202543
O O5 0.138965 0.372312 0.408328
O O6 0.000000 0.500000 0.000000
O O7 0.936714 0.329603 0.815494
O O8 0.750000 0.250000 0.500000
O O9 0.847963 0.189089 0.481266
#
# Coordination Sequence:
#
# PCOD8141770 Si02
#       4
#     8   8   8   8
#     4  10  21  39  58  91 125 157 204 255 303 364
#     4  10  21  37  64  89 125 158 207 252 307 357
#     4  12  22  35  57  93 129 162 201 257 307 358
#     4  10  22  36  63  92 124 155 208 253 309 358
#
# _framework density 21.721292999999999
#
# number of rings (size 3 to 8) (size 9 to 14) (size 15 to 20)
#    1.500    0.000    2.500    4.500    0.000    3.000 
#    0.000    0.000    0.000    1.500    6.500    0.000 
#    0.000    0.000    0.000    0.000    0.000    0.000 
#
# Total GULP energy -198244.455034 kJ/mol
# GULP energy per Si atom -12390.278440 kJ/mol
# Density = 2.167185 g / cm^3
# Si number density = 21.721293 Si / 1000 Ang^3
#
#
#
# Elastic Constant Matrix: (Units=GPa)
#
#
# Indices 1 2 3 4 5 6 
#
# 1 104.7840 61.9502 33.9449 0.0000 -34.8540 0.0000
# 2 61.9502 194.3364 43.7136 0.0000 -29.3396 0.0000
# 3 33.9449 43.7136 41.2446 0.0000 -17.9368 0.0000
# 4 0.0000 0.0000 0.0000 52.2517 0.0000 -10.1772
# 5 -34.8540 -29.3396 -17.9368 0.0000 33.7526 0.0000
# 6 0.0000 0.0000 0.0000 -10.1772 0.0000 48.9738
#
#
#
# Elastic Compliance Matrix: (Units=1/GPa)
#
#
# Indices 1 2 3 4 5 6 
#
# 1 0.016936 -0.002116 -0.006360 0.000000 0.012269 0.000000
# 2 -0.002116 0.007214 -0.005368 0.000000 0.001233 0.000000
# 3 -0.006360 -0.005368 0.039387 0.000000 0.009697 0.000000
# 4 0.000000 0.000000 0.000000 0.019945 0.000000 0.004145
# 5 0.012269 0.001233 0.009697 0.000000 0.048522 0.000000
# 6 0.000000 0.000000 0.000000 0.004145 0.000000 0.021280
#
#
# Mechanical properties :
#
#
# Convention : Reuss Voigt Hill
#
# Bulk Modulus (GPa) = 27.89548 68.84249 48.36899
# Shear Modulus (GPa) = 25.91728 40.37937 33.14832
#
# Velocity S-wave (km/s) = 3.45798 4.31626 3.91074
# Velocity P-wave (km/s) = 5.36785 7.52346 6.53515
#
# Compressibility (1/GPa) = 0.03584810
#
# Stress axis : x y z
#
# Youngs Moduli (GPa) = 59.04636 138.62254 25.38940
#
# Poissons Ratio (x) = 0.29330 0.16148
# Poissons Ratio (y) = 0.12493 0.13629
# Poissons Ratio (z) = 0.37555 0.74414
#
# Static dielectric constant tensor:
#      x y z
#    x 3.932550 0.000000 -0.365490 
#    y 0.000000 3.961050 0.000000 
#    z -0.365490 0.000000 3.536550 
# 
# 
# High freq. dielectric constant tensor:
#      x y z
#    x 1.847920 0.000000 -0.036220 
#    y 0.000000 1.865260 0.000000 
#    z -0.036220 0.000000 1.825260 
# 
# From -- ./inp_files/60240.got.cif
#   From: 2010.06.25/outbox.cif.g09.slc.cpg/sg15_31_cif.got.tgz:60240.got - 2010.06.28 07:06:18.
