data_PCOD8141069
_publ_section_title
;
Structure prediction by ZEFSAII (Michael W. Deem and Ramdas Pophale) SiO2 
 PCOD8141069
Probable space group: C 2/C
;
_chemical_formula_sum "Si O2"
_cell_formula_units_Z 52
_cell_length_a 19.666060
_cell_length_b 18.491133
_cell_length_c 13.821432
_cell_angle_alpha 90.000000
_cell_angle_beta 29.806205
_cell_angle_gamma 90.000000
_cell_volume 2498.329247
_symmetry_space_group_name_H-M "C 2/C"
_symmetry_group_IT_number 15
_symmetry_cell_setting 'monoclinic'
loop_
_space_group_symop_operation_xyz
x,y,z
-x,y,1/2-z
-x,-y,-z
x,-y,1/2+z
1/2+x,1/2+y,z
1/2-x,1/2+y,1/2-z
1/2-x,1/2-y,-z
1/2+x,1/2-y,1/2+z
loop_
_atom_site_type_symbol
_atom_site_label
_atom_site_fract_x
_atom_site_fract_y
_atom_site_fract_z
Si Si1 0.482511 0.917775 0.985596
Si Si2 0.238693 0.618613 0.279878
Si Si3 0.000000 0.560305 0.250000
Si Si4 0.349946 0.238418 0.966351
Si Si5 0.740804 0.474767 0.565862
Si Si6 0.959376 0.024552 0.945459
Si Si7 0.289533 0.391232 0.074796
O O1 0.618121 0.875842 0.851256
O O2 0.456811 0.899751 0.902655
O O3 0.355125 0.881030 0.195111
O O4 0.500000 0.000000 0.000000
O O5 0.230323 0.689412 0.356404
O O6 0.231060 0.546657 0.357278
O O7 0.382095 0.603126 0.044271
O O8 0.873203 0.515599 0.364249
O O9 0.500000 0.207019 0.750000
O O10 0.250000 0.250000 0.000000
O O11 0.374842 0.317398 0.985014
O O12 0.607156 0.525959 0.709077
O O13 0.731300 0.401220 0.515202
O O14 0.864427 0.962479 0.018918
O O15 0.000000 0.000000 0.000000
#
# Coordination Sequence:
#
# PCOD8141069 Si02
#       7
#     8   8   4   8   8   8   8
#     4  12  21  38  62  93 126 166 219 274 328 381
#     4  11  22  39  58  93 135 167 215 263 325 398
#     4  12  22  36  64  96 124 166 212 276 326 382
#     4  12  26  41  64 100 141 182 210 264 346 416
#     4  11  19  33  61  90 130 164 210 264 322 391
#     4  10  21  35  55  84 127 173 216 261 308 381
#     4  12  22  39  61  95 135 173 215 269 336 397
#
# _framework density 20.81391
#
# number of rings (size 3 to 8) (size 9 to 14) (size 15 to 20)
#    0.000    0.615    6.154    3.231    3.231    0.000 
#    0.000    0.000    0.000    0.923    4.000    0.000 
#    0.000    0.000    0.000    0.000    0.000    0.000 
#
# Total GULP energy -322110.729361 kJ/mol
# GULP energy per Si atom -12388.874206 kJ/mol
# Density = 2.076654 g / cm^3
# Si number density = 20.813910 Si / 1000 Ang^3
#
#
#
# Elastic Constant Matrix: (Units=GPa)
#
#
# Indices 1 2 3 4 5 6 
#
# 1 104.3709 21.1238 29.5237 -0.0003 -0.6693 0.0001
# 2 21.1238 79.6959 40.9348 -0.0005 -1.1536 0.0001
# 3 29.5237 40.9348 140.9389 -0.0012 -18.0639 0.0003
# 4 -0.0003 -0.0005 -0.0012 28.7029 0.0002 6.3788
# 5 -0.6693 -1.1536 -18.0639 0.0002 41.4593 0.0000
# 6 0.0001 0.0001 0.0003 6.3788 0.0000 23.5333
#
#
#
# Elastic Compliance Matrix: (Units=1/GPa)
#
#
# Indices 1 2 3 4 5 6 
#
# 1 0.010447 -0.001895 -0.001719 0.000000 -0.000633 0.000000
# 2 -0.001895 0.015185 -0.004198 0.000000 -0.001437 0.000000
# 3 -0.001719 -0.004198 0.009168 0.000000 0.003850 0.000000
# 4 0.000000 0.000000 0.000000 0.037073 0.000000 -0.010049
# 5 -0.000633 -0.001437 0.003850 0.000000 0.025747 0.000000
# 6 0.000000 0.000000 0.000000 -0.010049 0.000000 0.045217
#
#
# Mechanical properties :
#
#
# Convention : Reuss Voigt Hill
#
# Bulk Modulus (GPa) = 52.14739 56.46335 54.30537
# Shear Modulus (GPa) = 30.33000 34.30066 32.31533
#
# Velocity S-wave (km/s) = 3.82147 4.06392 3.94456
# Velocity P-wave (km/s) = 6.67683 7.01478 6.84789
#
# Compressibility (1/GPa) = 0.01917641
#
# Stress axis : x y z
#
# Youngs Moduli (GPa) = 95.72107 65.85311 109.07484
#
# Poissons Ratio (x) = 0.12480 0.18751
# Poissons Ratio (y) = 0.18141 0.45786
# Poissons Ratio (z) = 0.16456 0.27643
#
# Static dielectric constant tensor:
#      x y z
#    x 3.695770 0.000000 -0.179270 
#    y 0.000000 3.537530 0.000000 
#    z -0.179270 0.000000 4.504990 
# 
# 
# High freq. dielectric constant tensor:
#      x y z
#    x 1.829290 0.000000 -0.008460 
#    y 0.000000 1.757810 0.000000 
#    z -0.008460 0.000000 1.829750 
# 
# From -- ./inp_files/168974.got.cif
#   From: 2010.06.25/outbox.cif.g09.slc.cpg/sg15_85_cif.got.tgz:168974.got - 2010.06.28 07:06:18.
