data_PCOD8141322
_publ_section_title
;
Structure prediction by ZEFSAII (Michael W. Deem and Ramdas Pophale) SiO2 
 PCOD8141322
Probable space group: C 2/C
;
_chemical_formula_sum "Si O2"
_cell_formula_units_Z 48
_cell_length_a 16.638769
_cell_length_b 8.882182
_cell_length_c 14.898081
_cell_angle_alpha 90.000000
_cell_angle_beta 90.027673
_cell_angle_gamma 90.000000
_cell_volume 2201.765897
_symmetry_space_group_name_H-M "C 2/C"
_symmetry_group_IT_number 15
_symmetry_cell_setting 'monoclinic'
loop_
_space_group_symop_operation_xyz
x,y,z
-x,y,1/2-z
-x,-y,-z
x,-y,1/2+z
1/2+x,1/2+y,z
1/2-x,1/2+y,1/2-z
1/2-x,1/2-y,-z
1/2+x,1/2-y,1/2+z
loop_
_atom_site_type_symbol
_atom_site_label
_atom_site_fract_x
_atom_site_fract_y
_atom_site_fract_z
Si Si1 0.014986 0.724100 0.055093
Si Si2 0.500000 0.795236 0.250000
Si Si3 0.365922 0.450273 0.757647
Si Si4 0.265222 0.925792 0.892836
Si Si5 0.335349 0.397122 0.432169
Si Si6 0.000000 0.191758 0.750000
Si Si7 0.921223 0.417219 0.418360
O O1 0.071777 0.868899 0.035874
O O2 0.062904 0.572852 0.028008
O O3 0.996916 0.708040 0.160807
O O4 0.935983 0.721711 0.989748
O O5 0.580764 0.696928 0.259448
O O6 0.484705 0.897358 0.337017
O O7 0.291076 0.446315 0.692161
O O8 0.333212 0.466706 0.859848
O O9 0.419543 0.595959 0.741025
O O10 0.303826 0.759237 0.888269
O O11 0.329395 0.063671 0.885376
O O12 0.216751 0.949561 0.984401
#
# Coordination Sequence:
#
# PCOD8141322 Si02
#       7
#     8   4   8   8   8   4   8
#     4   9  18  38  59  84 114 158 200 240 289 361
#     4  11  23  38  58  88 123 159 198 248 294 355
#     4  10  22  38  60  86 118 161 200 241 300 357
#     4  10  21  39  60  91 120 158 196 254 299 351
#     4   9  20  40  61  83 122 163 197 240 307 356
#     4   9  19  38  60  82 115 161 198 236 296 355
#     4  10  21  36  59  90 115 154 201 243 298 347
#
# _framework density 21.800681999999998
#
# number of rings (size 3 to 8) (size 9 to 14) (size 15 to 20)
#    0.000    2.333    0.000    1.500    2.333    2.667 
#    9.000    6.667    0.000    0.000    0.000    0.000 
#    0.000    0.000    0.000    0.000    0.000    0.000 
#
# Total GULP energy -297410.349619 kJ/mol
# GULP energy per Si atom -12392.097901 kJ/mol
# Density = 2.175106 g / cm^3
# Si number density = 21.800682 Si / 1000 Ang^3
#
#
#
# Elastic Constant Matrix: (Units=GPa)
#
#
# Indices 1 2 3 4 5 6 
#
# 1 99.3065 30.7488 51.9289 0.0000 8.9465 0.0000
# 2 30.7488 49.1531 33.1066 0.0000 2.4011 0.0000
# 3 51.9289 33.1066 114.4355 0.0000 -6.9208 0.0000
# 4 0.0000 0.0000 0.0000 31.3390 0.0000 -5.5597
# 5 8.9465 2.4011 -6.9208 0.0000 46.6979 0.0000
# 6 0.0000 0.0000 0.0000 -5.5597 0.0000 32.2708
#
#
#
# Elastic Compliance Matrix: (Units=1/GPa)
#
#
# Indices 1 2 3 4 5 6 
#
# 1 0.014890 -0.005543 -0.005357 0.000000 -0.003362 0.000000
# 2 -0.005543 0.027602 -0.005541 0.000000 -0.001179 0.000000
# 3 -0.005357 -0.005541 0.012968 0.000000 0.003233 0.000000
# 4 0.000000 0.000000 0.000000 0.032915 0.000000 0.005671
# 5 -0.003362 -0.001179 0.003233 0.000000 0.022598 0.000000
# 6 0.000000 0.000000 0.000000 0.005671 0.000000 0.031965
#
#
# Mechanical properties :
#
#
# Convention : Reuss Voigt Hill
#
# Bulk Modulus (GPa) = 44.29008 54.94040 49.61524
# Shear Modulus (GPa) = 27.27101 31.86896 29.56998
#
# Velocity S-wave (km/s) = 3.54068 3.82754 3.68690
# Velocity P-wave (km/s) = 6.08894 6.69249 6.39783
#
# Compressibility (1/GPa) = 0.02257842
#
# Stress axis : x y z
#
# Youngs Moduli (GPa) = 67.15962 36.22948 77.11310
#
# Poissons Ratio (x) = 0.20081 0.41306
# Poissons Ratio (y) = 0.37224 0.42732
# Poissons Ratio (z) = 0.35975 0.20076
#
# Static dielectric constant tensor:
#      x y z
#    x 4.088000 0.000000 0.027410 
#    y 0.000000 3.751290 0.000000 
#    z 0.027410 0.000000 3.965590 
# 
# 
# High freq. dielectric constant tensor:
#      x y z
#    x 1.853710 0.000000 0.002460 
#    y 0.000000 1.841560 0.000000 
#    z 0.002460 0.000000 1.860180 
# 
# From -- ./inp_files/159773.got.cif
#   From: 2010.06.25/outbox.cif.g09.slc.cpg/sg15_80_cif.got.tgz:159773.got - 2010.06.28 07:06:18.
