data_PCOD8141580
_publ_section_title
;
Structure prediction by ZEFSAII (Michael W. Deem and Ramdas Pophale) SiO2 
 PCOD8141580
Probable space group: C 2/C
;
_chemical_formula_sum "Si O2"
_cell_formula_units_Z 40
_cell_length_a 8.948646
_cell_length_b 8.942520
_cell_length_c 22.761742
_cell_angle_alpha 90.000000
_cell_angle_beta 87.121421
_cell_angle_gamma 90.000000
_cell_volume 1819.174698
_symmetry_space_group_name_H-M "C 2/C"
_symmetry_group_IT_number 15
_symmetry_cell_setting 'monoclinic'
loop_
_space_group_symop_operation_xyz
x,y,z
-x,y,1/2-z
-x,-y,-z
x,-y,1/2+z
1/2+x,1/2+y,z
1/2-x,1/2+y,1/2-z
1/2-x,1/2-y,-z
1/2+x,1/2-y,1/2+z
loop_
_atom_site_type_symbol
_atom_site_label
_atom_site_fract_x
_atom_site_fract_y
_atom_site_fract_z
Si Si1 0.138866 0.233285 0.867010
Si Si2 0.128304 0.549154 0.927861
Si Si3 0.697763 0.108049 0.536296
Si Si4 0.823520 0.830858 0.322796
Si Si5 0.327949 0.639418 0.264295
O O1 0.097185 0.384488 0.902392
O O2 0.190273 0.098957 0.909957
O O3 0.276594 0.262879 0.820778
O O4 0.998866 0.177740 0.832189
O O5 0.236821 0.647718 0.885691
O O6 0.970624 0.633074 0.936778
O O7 0.203347 0.533864 0.991742
O O8 0.750000 0.250000 0.500000
O O9 0.766134 0.680662 0.292291
O O10 0.795788 0.966144 0.278128
O O11 0.500000 0.676638 0.250000
#
# Coordination Sequence:
#
# PCOD8141580 Si02
#       5
#     8   8   8   8   8
#     4  10  21  37  59  87 119 154 199 249 297 356
#     4   9  20  38  61  88 121 159 195 241 301 357
#     4   9  18  38  62  87 121 157 195 242 297 359
#     4  11  24  40  61  90 120 159 206 251 302 358
#     4  11  23  39  59  85 119 158 202 251 305 361
#
# _framework density 21.987994
#
# number of rings (size 3 to 8) (size 9 to 14) (size 15 to 20)
#    0.000    2.000    0.000    3.000    0.000    7.200 
#    0.000    9.000    0.000    0.000    0.000    0.000 
#    0.000    0.000    0.000    0.000    0.000    0.000 
#
# Total GULP energy -247972.998330 kJ/mol
# GULP energy per Si atom -12398.649917 kJ/mol
# Density = 2.193795 g / cm^3
# Si number density = 21.987994 Si / 1000 Ang^3
#
#
#
# Elastic Constant Matrix: (Units=GPa)
#
#
# Indices 1 2 3 4 5 6 
#
# 1 144.5651 32.4906 59.1398 0.0000 -10.6850 0.0000
# 2 32.4906 42.7800 27.6108 0.0000 -5.9338 0.0000
# 3 59.1398 27.6108 90.7607 0.0000 -11.2603 0.0000
# 4 0.0000 0.0000 0.0000 31.6802 0.0000 0.2102
# 5 -10.6850 -5.9338 -11.2603 0.0000 50.7073 0.0000
# 6 0.0000 0.0000 0.0000 0.2102 0.0000 31.6189
#
#
#
# Elastic Compliance Matrix: (Units=1/GPa)
#
#
# Indices 1 2 3 4 5 6 
#
# 1 0.010019 -0.004191 -0.005196 0.000000 0.000467 0.000000
# 2 -0.004191 0.030948 -0.006524 0.000000 0.001290 0.000000
# 3 -0.005196 -0.006524 0.016615 0.000000 0.001831 0.000000
# 4 0.000000 0.000000 0.000000 0.031567 0.000000 -0.000210
# 5 0.000467 0.001290 0.001831 0.000000 0.020377 0.000000
# 6 0.000000 0.000000 0.000000 -0.000210 0.000000 0.031628
#
#
# Mechanical properties :
#
#
# Convention : Reuss Voigt Hill
#
# Bulk Modulus (GPa) = 38.81803 57.39869 48.10836
# Shear Modulus (GPa) = 27.53864 33.39225 30.46544
#
# Velocity S-wave (km/s) = 3.54282 3.90122 3.72633
# Velocity P-wave (km/s) = 5.86754 6.81571 6.35932
#
# Compressibility (1/GPa) = 0.02576122
#
# Stress axis : x y z
#
# Youngs Moduli (GPa) = 99.80796 32.31214 60.18569
#
# Poissons Ratio (x) = 0.13543 0.31270
# Poissons Ratio (y) = 0.41833 0.39264
# Poissons Ratio (z) = 0.51855 0.21080
#
# Static dielectric constant tensor:
#      x y z
#    x 3.910810 0.000000 0.004650 
#    y 0.000000 3.738110 0.000000 
#    z 0.004650 0.000000 4.550940 
# 
# 
# High freq. dielectric constant tensor:
#      x y z
#    x 1.864360 0.000000 -0.011370 
#    y 0.000000 1.836630 0.000000 
#    z -0.011370 0.000000 1.891720 
# 
# From -- ./inp_files/229792.got.cif
#   From: 2010.06.25/outbox.cif.g09.slc.cpg/sg15_115_cif.got.tgz:229792.got - 2010.06.28 07:06:18.
