data_PCOD8141160
_publ_section_title
;
Structure prediction by ZEFSAII (Michael W. Deem and Ramdas Pophale) SiO2 
 PCOD8141160
Probable space group: C 2/C
;
_chemical_formula_sum "Si O2"
_cell_formula_units_Z 56
_cell_length_a 31.683414
_cell_length_b 16.755364
_cell_length_c 19.567604
_cell_angle_alpha 90.000000
_cell_angle_beta 163.605467
_cell_angle_gamma 90.000000
_cell_volume 2931.955121
_symmetry_space_group_name_H-M "C 2/C"
_symmetry_group_IT_number 15
_symmetry_cell_setting 'monoclinic'
loop_
_space_group_symop_operation_xyz
x,y,z
-x,y,1/2-z
-x,-y,-z
x,-y,1/2+z
1/2+x,1/2+y,z
1/2-x,1/2+y,1/2-z
1/2-x,1/2-y,-z
1/2+x,1/2-y,1/2+z
loop_
_atom_site_type_symbol
_atom_site_label
_atom_site_fract_x
_atom_site_fract_y
_atom_site_fract_z
Si Si1 0.630927 0.552516 0.612096
Si Si2 0.475383 0.096875 0.139137
Si Si3 0.083948 0.718451 0.565013
Si Si4 0.103977 0.299361 0.252494
Si Si5 0.917722 0.191753 0.051473
Si Si6 0.942786 0.103092 0.445120
Si Si7 0.620532 0.932595 0.380834
O O1 0.559972 0.600384 0.438093
O O2 0.579610 0.588965 0.605483
O O3 0.564426 0.462563 0.505139
O O4 0.810881 0.555663 0.883942
O O5 0.500000 0.142219 0.250000
O O6 0.598266 0.025717 0.327730
O O7 0.508221 0.159265 0.128615
O O8 0.083056 0.685195 0.640098
O O9 0.029970 0.810162 0.479341
O O10 0.249142 0.716850 0.794165
O O11 0.250000 0.250000 0.500000
O O12 0.097164 0.386315 0.274218
O O13 0.968353 0.247337 0.068659
O O14 0.000000 0.207643 0.250000
O O15 0.785812 0.091120 0.162073
O O16 0.500000 0.903731 0.250000
#
# Coordination Sequence:
#
# PCOD8141160 Si02
#       7
#     8   8   8   8   8   8   8
#     4  10  21  35  61  82 112 153 207 240 286 362
#     4  10  22  42  59  85 122 163 199 244 301 365
#     4  11  23  36  61  89 120 154 196 252 307 349
#     4  12  20  33  57  92 118 147 195 249 302 358
#     4  11  20  34  55  87 121 148 185 253 305 349
#     4  11  19  37  60  86 108 156 208 244 285 365
#     4  11  20  36  62  85 118 160 197 239 302 364
#
# _framework density 19.099882999999998
#
# number of rings (size 3 to 8) (size 9 to 14) (size 15 to 20)
#    0.000    1.143    7.143    1.286    0.000    0.571 
#    0.000    1.429    0.000    0.000    0.000    0.000 
#    0.000    0.000    0.000    0.000    0.000    0.000 
#
# Total GULP energy -346981.131824 kJ/mol
# GULP energy per Si atom -12392.183279 kJ/mol
# Density = 1.905641 g / cm^3
# Si number density = 19.099883 Si / 1000 Ang^3
#
#
#
# Elastic Constant Matrix: (Units=GPa)
#
#
# Indices 1 2 3 4 5 6 
#
# 1 104.9512 48.5231 16.1287 0.0000 -11.8428 0.0000
# 2 48.5231 124.5741 12.4007 0.0000 -12.6951 0.0000
# 3 16.1287 12.4007 29.1150 0.0000 -7.2513 0.0000
# 4 0.0000 0.0000 0.0000 13.5258 0.0000 -4.3552
# 5 -11.8428 -12.6951 -7.2513 0.0000 30.3452 0.0000
# 6 0.0000 0.0000 0.0000 -4.3552 0.0000 38.1430
#
#
#
# Elastic Compliance Matrix: (Units=1/GPa)
#
#
# Indices 1 2 3 4 5 6 
#
# 1 0.012384 -0.004163 -0.004590 0.000000 0.001994 0.000000
# 2 -0.004163 0.010016 -0.001404 0.000000 0.002230 0.000000
# 3 -0.004590 -0.001404 0.039230 0.000000 0.006995 0.000000
# 4 0.000000 0.000000 0.000000 0.076755 0.000000 0.008764
# 5 0.001994 0.002230 0.006995 0.000000 0.036337 0.000000
# 6 0.000000 0.000000 0.000000 0.008764 0.000000 0.027218
#
#
# Mechanical properties :
#
#
# Convention : Reuss Voigt Hill
#
# Bulk Modulus (GPa) = 24.20500 45.86059 35.03280
# Shear Modulus (GPa) = 21.18413 28.50864 24.84639
#
# Velocity S-wave (km/s) = 3.33396 3.86762 3.61066
# Velocity P-wave (km/s) = 5.24603 6.63383 5.98032
#
# Compressibility (1/GPa) = 0.04131377
#
# Stress axis : x y z
#
# Youngs Moduli (GPa) = 80.75209 99.83950 25.49085
#
# Poissons Ratio (x) = 0.41567 0.11701
# Poissons Ratio (y) = 0.33620 0.03580
# Poissons Ratio (z) = 0.37066 0.14021
#
# Static dielectric constant tensor:
#      x y z
#    x 3.756160 0.000000 0.082230 
#    y 0.000000 3.642910 0.000000 
#    z 0.082230 0.000000 3.376080 
# 
# 
# High freq. dielectric constant tensor:
#      x y z
#    x 1.744450 0.000000 0.017150 
#    y 0.000000 1.745840 0.000000 
#    z 0.017150 0.000000 1.722930 
# 
# From -- ./inp_files/225724.got.cif
#   From: 2010.06.25/outbox.cif.g09.slc.cpg/sg15_113_cif.got.tgz:225724.got - 2010.06.28 07:06:18.
