data_PCOD8141079
_publ_section_title
;
Structure prediction by ZEFSAII (Michael W. Deem and Ramdas Pophale) SiO2 
 PCOD8141079
Probable space group: C 2/C
;
_chemical_formula_sum "Si O2"
_cell_formula_units_Z 56
_cell_length_a 13.203710
_cell_length_b 17.943001
_cell_length_c 18.557101
_cell_angle_alpha 90.000000
_cell_angle_beta 146.914878
_cell_angle_gamma 90.000000
_cell_volume 2399.948282
_symmetry_space_group_name_H-M "C 2/C"
_symmetry_group_IT_number 15
_symmetry_cell_setting 'monoclinic'
loop_
_space_group_symop_operation_xyz
x,y,z
-x,y,1/2-z
-x,-y,-z
x,-y,1/2+z
1/2+x,1/2+y,z
1/2-x,1/2+y,1/2-z
1/2-x,1/2-y,-z
1/2+x,1/2-y,1/2+z
loop_
_atom_site_type_symbol
_atom_site_label
_atom_site_fract_x
_atom_site_fract_y
_atom_site_fract_z
Si Si1 0.076427 0.383287 0.694183
Si Si2 0.681596 0.546167 0.812992
Si Si3 0.616840 0.967838 0.439022
Si Si4 0.106159 0.668511 0.647289
Si Si5 0.587610 0.765544 0.593774
Si Si6 0.543454 0.493629 0.442133
Si Si7 0.289623 0.342553 0.953111
O O1 0.122571 0.349538 0.643427
O O2 0.254066 0.366491 0.848890
O O3 0.033050 0.470648 0.674979
O O4 0.901156 0.335059 0.617999
O O5 0.500000 0.568299 0.750000
O O6 0.779484 0.622811 0.845660
O O7 0.635954 0.492062 0.716136
O O8 0.813505 0.495323 0.941285
O O9 0.516546 0.888771 0.380168
O O10 0.780435 0.956985 0.477361
O O11 0.236424 0.712640 0.782289
O O12 0.964409 0.725999 0.522063
O O13 0.405876 0.732844 0.525479
O O14 0.500000 0.500000 0.500000
O O15 0.586195 0.409257 0.441608
#
# Coordination Sequence:
#
# PCOD8141079 Si02
#       7
#     8   8   8   8   8   8   8
#     4  10  21  36  60  93 137 181 226 288 357 408
#     4  10  21  39  66 101 135 174 230 289 356 413
#     4  10  23  43  66 102 137 182 230 292 350 418
#     4  12  25  41  66  99 144 187 237 282 350 420
#     4  12  23  38  61  97 141 191 226 278 350 420
#     4  10  22  40  68 103 133 169 226 292 357 415
#     4  10  21  35  55  97 140 171 223 286 354 420
#
# _framework density 23.333835000000001
#
# number of rings (size 3 to 8) (size 9 to 14) (size 15 to 20)
#    0.000    1.429    4.286    0.857    2.000    1.143 
#    0.000    0.000    0.000    0.857    3.714    0.000 
#    0.000    0.000    0.000    0.000    0.000    0.000 
#
# Total GULP energy -346953.647877 kJ/mol
# GULP energy per Si atom -12391.201710 kJ/mol
# Density = 2.328073 g / cm^3
# Si number density = 23.333835 Si / 1000 Ang^3
#
#
#
# Elastic Constant Matrix: (Units=GPa)
#
#
# Indices 1 2 3 4 5 6 
#
# 1 98.3621 28.2783 42.7268 0.0023 -6.8399 0.0009
# 2 28.2783 96.6015 52.5182 0.0004 4.3635 0.0001
# 3 42.7268 52.5182 130.8705 0.0037 -15.3641 0.0018
# 4 0.0023 0.0004 0.0037 36.8688 0.0022 -3.0199
# 5 -6.8399 4.3635 -15.3641 0.0022 29.6344 0.0009
# 6 0.0009 0.0001 0.0018 -3.0199 0.0009 33.4464
#
#
#
# Elastic Compliance Matrix: (Units=1/GPa)
#
#
# Indices 1 2 3 4 5 6 
#
# 1 0.012145 -0.002007 -0.002977 -0.000001 0.001555 0.000000
# 2 -0.002007 0.014309 -0.005738 0.000001 -0.005545 0.000001
# 3 -0.002977 -0.005738 0.011643 -0.000001 0.006194 -0.000001
# 4 -0.000001 0.000001 -0.000001 0.027325 -0.000003 0.002467
# 5 0.001555 -0.005545 0.006194 -0.000003 0.038131 -0.000002
# 6 0.000000 0.000001 -0.000001 0.002467 -0.000002 0.030121
#
#
# Mechanical properties :
#
#
# Convention : Reuss Voigt Hill
#
# Bulk Modulus (GPa) = 60.04949 63.65342 61.85145
# Shear Modulus (GPa) = 31.11959 33.47730 32.29844
#
# Velocity S-wave (km/s) = 3.65590 3.79187 3.72451
# Velocity P-wave (km/s) = 6.60391 6.81980 6.71272
#
# Compressibility (1/GPa) = 0.01665293
#
# Stress axis : x y z
#
# Youngs Moduli (GPa) = 82.33955 69.88452 85.88848
#
# Poissons Ratio (x) = 0.14025 0.25570
# Poissons Ratio (y) = 0.16524 0.49284
# Poissons Ratio (z) = 0.24514 0.40100
#
# Static dielectric constant tensor:
#      x y z
#    x 3.882120 0.000000 -0.107670 
#    y 0.000000 3.932940 0.000000 
#    z -0.107670 0.000000 4.747980 
# 
# 
# High freq. dielectric constant tensor:
#      x y z
#    x 1.892330 0.000000 -0.010790 
#    y 0.000000 1.898960 0.000000 
#    z -0.010790 0.000000 1.950970 
# 
# From -- ./inp_files/245173.got.cif
#   From: 2010.06.25/outbox.cif.g09.slc.cpg/sg15_123_cif.got.tgz:245173.got - 2010.06.28 07:06:18.
