data_PCOD8141083
_publ_section_title
;
Structure prediction by ZEFSAII (Michael W. Deem and Ramdas Pophale) SiO2 
 PCOD8141083
Probable space group: C 2/C
;
_chemical_formula_sum "Si O2"
_cell_formula_units_Z 60
_cell_length_a 22.155894
_cell_length_b 27.439146
_cell_length_c 9.209049
_cell_angle_alpha 90.000000
_cell_angle_beta 30.886036
_cell_angle_gamma 90.000000
_cell_volume 2873.909481
_symmetry_space_group_name_H-M "C 2/C"
_symmetry_group_IT_number 15
_symmetry_cell_setting 'monoclinic'
loop_
_space_group_symop_operation_xyz
x,y,z
-x,y,1/2-z
-x,-y,-z
x,-y,1/2+z
1/2+x,1/2+y,z
1/2-x,1/2+y,1/2-z
1/2-x,1/2-y,-z
1/2+x,1/2-y,1/2+z
loop_
_atom_site_type_symbol
_atom_site_label
_atom_site_fract_x
_atom_site_fract_y
_atom_site_fract_z
Si Si1 0.238119 0.011632 0.301375
Si Si2 0.835992 0.066068 0.780097
Si Si3 0.917537 0.354004 0.117440
Si Si4 0.000000 0.872369 0.750000
Si Si5 0.391464 0.036510 0.726904
Si Si6 0.788275 0.191689 0.635311
Si Si7 0.367905 0.204588 0.988152
Si Si8 0.319469 0.157095 0.381085
O O1 0.150034 0.046190 0.580988
O O2 0.173342 0.976698 0.320705
O O3 0.296903 0.980374 0.306044
O O4 0.335180 0.040876 0.005376
O O5 0.948033 0.096324 0.491882
O O6 0.719187 0.100225 0.025764
O O7 0.933640 0.411534 0.085517
O O8 0.829428 0.334670 0.177702
O O9 0.861362 0.337025 0.383014
O O10 0.049380 0.334097 0.826690
O O11 0.095720 0.839768 0.638588
O O12 0.500000 0.000000 0.500000
O O13 0.799847 0.248046 0.565957
O O14 0.771789 0.190664 0.842759
O O15 0.305175 0.178120 0.250326
O O16 0.500000 0.221700 0.750000
#
# Coordination Sequence:
#
# PCOD8141083 Si02
#       8
#     8   8   8   4   8   8   8   8
#     4  10  21  35  56  83 120 152 202 245 292 354
#     4  10  21  39  59  87 115 161 202 252 297 357
#     4  11  22  36  60  90 120 152 193 248 300 364
#     4  10  22  38  62  80 114 162 210 250 304 354
#     4  11  21  34  56  88 124 158 190 239 305 367
#     4  11  21  39  60  84 117 155 204 250 297 357
#     4  10  21  38  60  87 118 155 196 243 305 360
#     4  10  21  36  60  86 118 153 194 239 307 367
#
# _framework density 20.877485
#
# number of rings (size 3 to 8) (size 9 to 14) (size 15 to 20)
#    0.000    1.600    0.667    5.600    0.000    3.733 
#    0.000    0.000    0.000    9.600    0.000    0.000 
#    0.000    0.000    0.000    0.000    0.000    0.000 
#
# Total GULP energy -371715.541090 kJ/mol
# GULP energy per Si atom -12390.518036 kJ/mol
# Density = 2.082997 g / cm^3
# Si number density = 20.877485 Si / 1000 Ang^3
#
#
#
# Elastic Constant Matrix: (Units=GPa)
#
#
# Indices 1 2 3 4 5 6 
#
# 1 63.4507 24.5193 39.2293 0.0007 12.7550 -0.0004
# 2 24.5193 93.9990 30.5710 0.0007 -6.5366 -0.0002
# 3 39.2293 30.5710 116.5585 -0.0031 13.2623 -0.0021
# 4 0.0007 0.0007 -0.0031 57.3855 0.0013 17.4664
# 5 12.7550 -6.5366 13.2623 0.0013 23.0862 0.0005
# 6 -0.0004 -0.0002 -0.0021 17.4664 0.0005 37.2170
#
#
#
# Elastic Compliance Matrix: (Units=1/GPa)
#
#
# Indices 1 2 3 4 5 6 
#
# 1 0.023233 -0.005164 -0.005176 0.000000 -0.011324 0.000000
# 2 -0.005164 0.013443 -0.002724 0.000000 0.008224 0.000000
# 3 -0.005176 -0.002724 0.011553 0.000001 -0.004548 0.000000
# 4 0.000000 0.000000 0.000001 0.020330 -0.000001 -0.009541
# 5 -0.011324 0.008224 -0.004548 -0.000001 0.054514 -0.000001
# 6 0.000000 0.000000 0.000000 -0.009541 -0.000001 0.031347
#
#
# Mechanical properties :
#
#
# Convention : Reuss Voigt Hill
#
# Bulk Modulus (GPa) = 45.24648 51.40526 48.32587
# Shear Modulus (GPa) = 26.60772 35.51700 31.06236
#
# Velocity S-wave (km/s) = 3.57384 4.12905 3.86144
# Velocity P-wave (km/s) = 6.22489 6.88534 6.56343
#
# Compressibility (1/GPa) = 0.02210117
#
# Stress axis : x y z
#
# Youngs Moduli (GPa) = 43.04287 74.38742 86.55488
#
# Poissons Ratio (x) = 0.38415 0.44803
# Poissons Ratio (y) = 0.22228 0.23574
# Poissons Ratio (z) = 0.22280 0.20260
#
# Static dielectric constant tensor:
#      x y z
#    x 3.782980 0.000000 0.318400 
#    y 0.000000 3.733510 0.000000 
#    z 0.318400 0.000000 4.079250 
# 
# 
# High freq. dielectric constant tensor:
#      x y z
#    x 1.795770 0.000000 0.017940 
#    y 0.000000 1.820660 0.000000 
#    z 0.017940 0.000000 1.832010 
# 
# From -- ./inp_files/64107.got.cif
#   From: 2010.06.25/outbox.cif.g09.slc.cpg/sg15_33_cif.got.tgz:64107.got - 2010.06.28 07:06:18.
