data_PCOD8141524
_publ_section_title
;
Structure prediction by ZEFSAII (Michael W. Deem and Ramdas Pophale) SiO2 
 PCOD8141524
Probable space group: C 2/C
;
_chemical_formula_sum "Si O2"
_cell_formula_units_Z 56
_cell_length_a 22.398109
_cell_length_b 14.985442
_cell_length_c 9.009844
_cell_angle_alpha 90.000000
_cell_angle_beta 54.768477
_cell_angle_gamma 90.000000
_cell_volume 2470.180015
_symmetry_space_group_name_H-M "C 2/C"
_symmetry_group_IT_number 15
_symmetry_cell_setting 'monoclinic'
loop_
_space_group_symop_operation_xyz
x,y,z
-x,y,1/2-z
-x,-y,-z
x,-y,1/2+z
1/2+x,1/2+y,z
1/2-x,1/2+y,1/2-z
1/2-x,1/2-y,-z
1/2+x,1/2-y,1/2+z
loop_
_atom_site_type_symbol
_atom_site_label
_atom_site_fract_x
_atom_site_fract_y
_atom_site_fract_z
Si Si1 0.659424 0.024636 0.475690
Si Si2 0.500000 0.211232 0.250000
Si Si3 0.621404 0.399466 0.490760
Si Si4 0.097321 0.766006 0.867376
Si Si5 0.500000 0.729569 0.250000
Si Si6 0.562415 0.933540 0.858813
Si Si7 0.780476 0.378275 0.335290
Si Si8 0.580231 0.473208 0.830289
O O1 0.615935 0.087444 0.420785
O O2 0.710656 0.083965 0.509248
O O3 0.602064 0.974521 0.660403
O O4 0.701568 0.952210 0.314890
O O5 0.435539 0.267565 0.418554
O O6 0.471364 0.157707 0.148927
O O7 0.556197 0.328567 0.569573
O O8 0.695792 0.351623 0.437758
O O9 0.591652 0.480762 0.638186
O O10 0.635696 0.453717 0.318415
O O11 0.172831 0.711304 0.758506
O O12 0.105599 0.869993 0.817712
O O13 0.046595 0.718284 0.809724
O O14 0.500000 0.000000 0.000000
O O15 0.500000 0.500000 0.000000
#
# Coordination Sequence:
#
# PCOD8141524 Si02
#       8
#     8   4   8   8   4   8   8   8
#     4  10  21  37  57  90 138 178 226 264 330 420
#     4  12  22  35  59  98 132 174 218 294 329 389
#     4  11  22  43  73  96 132 177 231 275 342 419
#     4  11  25  40  66 102 139 169 229 285 347 398
#     4  10  24  43  65 100 124 176 226 280 337 401
#     4  11  18  34  56  86 128 184 230 266 324 396
#     4  11  23  42  65 101 138 182 222 278 346 413
#     4  11  22  43  71 103 130 174 233 291 345 397
#
# _framework density 22.670413
#
# number of rings (size 3 to 8) (size 9 to 14) (size 15 to 20)
#    0.000    1.143    5.714    1.714    4.000    2.286 
#    0.000    0.000    0.000    2.571    0.000    0.000 
#    0.000    0.000    0.000    0.000    0.000    0.000 
#
# Total GULP energy -346879.862285 kJ/mol
# GULP energy per Si atom -12388.566510 kJ/mol
# Density = 2.261881 g / cm^3
# Si number density = 22.670413 Si / 1000 Ang^3
#
#
#
# Elastic Constant Matrix: (Units=GPa)
#
#
# Indices 1 2 3 4 5 6 
#
# 1 106.5725 23.6111 25.7071 0.0000 -13.6409 0.0000
# 2 23.6111 55.8707 5.6205 0.0000 -3.7061 0.0000
# 3 25.7071 5.6205 82.4793 0.0000 4.5001 0.0000
# 4 0.0000 0.0000 0.0000 22.4903 0.0000 3.5474
# 5 -13.6409 -3.7061 4.5001 0.0000 39.9122 0.0000
# 6 0.0000 0.0000 0.0000 3.5474 0.0000 33.8535
#
#
#
# Elastic Compliance Matrix: (Units=1/GPa)
#
#
# Indices 1 2 3 4 5 6 
#
# 1 0.011717 -0.004326 -0.003576 0.000000 0.004006 0.000000
# 2 -0.004326 0.019752 -0.000017 0.000000 0.000357 0.000000
# 3 -0.003576 -0.000017 0.013389 0.000000 -0.002733 0.000000
# 4 0.000000 0.000000 0.000000 0.045211 0.000000 -0.004738
# 5 0.004006 0.000357 -0.002733 0.000000 0.026765 0.000000
# 6 0.000000 0.000000 0.000000 -0.004738 0.000000 0.030036
#
#
# Mechanical properties :
#
#
# Convention : Reuss Voigt Hill
#
# Bulk Modulus (GPa) = 34.45881 39.42220 36.94050
# Shear Modulus (GPa) = 29.00544 31.91680 30.46112
#
# Velocity S-wave (km/s) = 3.58081 3.75622 3.66956
# Velocity P-wave (km/s) = 5.68587 6.01991 5.85527
#
# Compressibility (1/GPa) = 0.02902016
#
# Stress axis : x y z
#
# Youngs Moduli (GPa) = 85.34583 50.62734 74.68809
#
# Poissons Ratio (x) = 0.21902 0.26706
# Poissons Ratio (y) = 0.36922 0.00128
# Poissons Ratio (z) = 0.30517 0.00087
#
# Static dielectric constant tensor:
#      x y z
#    x 4.363480 0.000000 0.309210 
#    y 0.000000 3.755220 0.000000 
#    z 0.309210 0.000000 4.472580 
# 
# 
# High freq. dielectric constant tensor:
#      x y z
#    x 1.897850 0.000000 0.010680 
#    y 0.000000 1.866970 0.000000 
#    z 0.010680 0.000000 1.911800 
# 
# From -- ./inp_files/62704.got.cif
#   From: 2010.06.25/outbox.cif.g09.slc.cpg/sg15_32_cif.got.tgz:62704.got - 2010.06.28 07:06:18.
