data_PCOD8141490
_publ_section_title
;
Structure prediction by ZEFSAII (Michael W. Deem and Ramdas Pophale) SiO2 
 PCOD8141490
Probable space group: C 2/C
;
_chemical_formula_sum "Si O2"
_cell_formula_units_Z 64
_cell_length_a 14.585000
_cell_length_b 27.078915
_cell_length_c 9.156947
_cell_angle_alpha 90.000000
_cell_angle_beta 108.801069
_cell_angle_gamma 90.000000
_cell_volume 3423.534701
_symmetry_space_group_name_H-M "C 2/C"
_symmetry_group_IT_number 15
_symmetry_cell_setting 'monoclinic'
loop_
_space_group_symop_operation_xyz
x,y,z
-x,y,1/2-z
-x,-y,-z
x,-y,1/2+z
1/2+x,1/2+y,z
1/2-x,1/2+y,1/2-z
1/2-x,1/2-y,-z
1/2+x,1/2-y,1/2+z
loop_
_atom_site_type_symbol
_atom_site_label
_atom_site_fract_x
_atom_site_fract_y
_atom_site_fract_z
Si Si1 0.103128 0.307264 0.085298
Si Si2 0.287015 0.853479 0.106541
Si Si3 0.899296 0.549784 0.623323
Si Si4 0.804707 0.647229 0.129222
Si Si5 0.604863 0.309809 0.129571
Si Si6 0.884845 0.700786 0.421090
Si Si7 0.899525 0.448893 0.774246
Si Si8 0.387180 0.697083 0.524988
O O1 0.144578 0.316233 0.267074
O O2 0.159761 0.348212 0.018815
O O3 0.126510 0.251739 0.046508
O O4 0.989257 0.318464 0.027442
O O5 0.318922 0.910177 0.125047
O O6 0.175020 0.851569 0.099381
O O7 0.299541 0.831046 0.951747
O O8 0.863432 0.498967 0.678315
O O9 0.912470 0.543959 0.455247
O O10 0.000000 0.565792 0.750000
O O11 0.872639 0.687607 0.244741
O O12 0.819224 0.592497 0.200431
O O13 0.691141 0.660514 0.086054
O O14 0.626539 0.258774 0.056427
O O15 0.628247 0.300733 0.310152
O O16 0.493524 0.324915 0.044649
O O17 0.000000 0.432367 0.750000
#
# Coordination Sequence:
#
# PCOD8141490 Si02
#       8
#     8   8   8   8   8   8   8   8
#     4  11  21  34  57  84 115 157 189 231 273 342
#     4  12  23  36  56  83 118 152 190 230 286 335
#     4  11  24  40  59  87 119 147 186 231 285 347
#     4  12  21  35  59  83 112 154 194 227 279 337
#     4  10  21  37  56  80 114 153 195 242 273 324
#     4  11  21  35  52  86 121 147 186 232 282 339
#     4  11  24  39  61  87 116 149 185 233 285 342
#     4  10  21  37  56  82 111 151 204 235 273 327
#
# _framework density 18.694130000000001
#
# number of rings (size 3 to 8) (size 9 to 14) (size 15 to 20)
#    0.000    1.000    3.750    5.250    3.500    0.000 
#    0.000    1.875    0.000    0.750    0.000    0.000 
#    0.000    0.000    0.000    0.000    0.000    0.000 
#
# Total GULP energy -396811.461714 kJ/mol
# GULP energy per Si atom -12400.358179 kJ/mol
# Density = 1.865158 g / cm^3
# Si number density = 18.694130 Si / 1000 Ang^3
#
#
#
# Elastic Constant Matrix: (Units=GPa)
#
#
# Indices 1 2 3 4 5 6 
#
# 1 109.1795 59.2889 35.7522 0.0000 0.3290 0.0000
# 2 59.2889 106.3506 40.0605 0.0000 0.0503 0.0000
# 3 35.7522 40.0605 77.2767 0.0000 -0.1462 0.0000
# 4 0.0000 0.0000 0.0000 27.8227 0.0000 2.6387
# 5 0.3290 0.0503 -0.1462 0.0000 25.8645 0.0000
# 6 0.0000 0.0000 0.0000 2.6387 0.0000 31.2013
#
#
#
# Elastic Compliance Matrix: (Units=1/GPa)
#
#
# Indices 1 2 3 4 5 6 
#
# 1 0.013656 -0.006503 -0.002947 0.000000 -0.000178 0.000000
# 2 -0.006503 0.014781 -0.004654 0.000000 0.000028 0.000000
# 3 -0.002947 -0.004654 0.016717 0.000000 0.000141 0.000000
# 4 0.000000 0.000000 0.000000 0.036232 0.000000 -0.003064
# 5 -0.000178 0.000028 0.000141 0.000000 0.038666 0.000000
# 6 0.000000 0.000000 0.000000 -0.003064 0.000000 0.032309
#
#
# Mechanical properties :
#
#
# Convention : Reuss Voigt Hill
#
# Bulk Modulus (GPa) = 59.01074 62.55668 60.78371
# Shear Modulus (GPa) = 26.85011 27.49138 27.17075
#
# Velocity S-wave (km/s) = 3.79395 3.83899 3.81653
# Velocity P-wave (km/s) = 7.12931 7.29290 7.21157
#
# Compressibility (1/GPa) = 0.01694607
#
# Stress axis : x y z
#
# Youngs Moduli (GPa) = 73.22674 67.65362 59.81935
#
# Poissons Ratio (x) = 0.43994 0.17631
# Poissons Ratio (y) = 0.47618 0.27840
# Poissons Ratio (z) = 0.21582 0.31486
#
# Static dielectric constant tensor:
#      x y z
#    x 3.423940 0.000000 -0.006920 
#    y 0.000000 3.240960 0.000000 
#    z -0.006920 0.000000 3.532910 
# 
# 
# High freq. dielectric constant tensor:
#      x y z
#    x 1.713320 0.000000 -0.006490 
#    y 0.000000 1.702290 0.000000 
#    z -0.006490 0.000000 1.740460 
# 
# From -- ./inp_files/43505.got.cif
#   From: 2010.06.25/outbox.cif.g09.slc.cpg/sg15_22_cif.got.tgz:43505.got - 2010.06.28 07:06:18.
