data_PCOD8141157
_publ_section_title
;
Structure prediction by ZEFSAII (Michael W. Deem and Ramdas Pophale) SiO2 
 PCOD8141157
Probable space group: C 2/C
;
_chemical_formula_sum "Si O2"
_cell_formula_units_Z 60
_cell_length_a 22.280668
_cell_length_b 15.160812
_cell_length_c 27.446057
_cell_angle_alpha 90.000000
_cell_angle_beta 162.313213
_cell_angle_gamma 90.000000
_cell_volume 2816.679917
_symmetry_space_group_name_H-M "C 2/C"
_symmetry_group_IT_number 15
_symmetry_cell_setting 'monoclinic'
loop_
_space_group_symop_operation_xyz
x,y,z
-x,y,1/2-z
-x,-y,-z
x,-y,1/2+z
1/2+x,1/2+y,z
1/2-x,1/2+y,1/2-z
1/2-x,1/2-y,-z
1/2+x,1/2-y,1/2+z
loop_
_atom_site_type_symbol
_atom_site_label
_atom_site_fract_x
_atom_site_fract_y
_atom_site_fract_z
Si Si1 0.396420 0.654698 0.924169
Si Si2 0.006732 0.289085 0.421630
Si Si3 0.448708 0.717544 0.630057
Si Si4 0.675107 0.945880 0.330116
Si Si5 0.000000 0.921173 0.250000
Si Si6 0.216894 0.858491 0.593963
Si Si7 0.235389 0.576247 0.041646
Si Si8 0.655130 0.671831 0.457416
O O1 0.208328 0.666750 0.742938
O O2 0.349470 0.579516 0.927357
O O3 0.447534 0.746496 0.990934
O O4 0.582532 0.623224 0.037014
O O5 0.185629 0.359124 0.548830
O O6 0.993430 0.215029 0.367911
O O7 0.250000 0.750000 0.500000
O O8 0.514920 0.634637 0.712684
O O9 0.604874 0.796062 0.752226
O O10 0.416257 0.688727 0.549569
O O11 0.466194 0.924127 0.144995
O O12 0.694617 0.886619 0.393631
O O13 0.696407 0.049404 0.359296
O O14 0.199657 0.977818 0.395551
O O15 0.412435 0.609067 0.140441
O O16 0.750000 0.750000 0.500000
#
# Coordination Sequence:
#
# PCOD8141157 Si02
#       8
#     8   8   8   8   4   8   8   8
#     4  10  21  40  62  92 121 169 208 254 299 372
#     4   9  20  37  60  89 132 160 209 246 305 366
#     4  12  25  44  65  92 120 160 204 269 320 379
#     4  10  21  38  63  92 129 162 212 256 303 374
#     4  12  24  40  62  94 126 152 212 256 334 378
#     4  12  24  42  69  87 123 163 214 255 318 369
#     4  10  21  35  60  92 130 165 199 258 317 375
#     4   9  18  35  60  93 127 169 198 243 310 374
#
# _framework density 21.301674999999999
#
# number of rings (size 3 to 8) (size 9 to 14) (size 15 to 20)
#    0.000    1.600    1.333    3.200    1.867    2.133 
#    4.800    0.000    0.000    2.400    0.000    0.000 
#    0.000    0.000    0.000    0.000    0.000    0.000 
#
# Total GULP energy -371762.134112 kJ/mol
# GULP energy per Si atom -12392.071137 kJ/mol
# Density = 2.125319 g / cm^3
# Si number density = 21.301675 Si / 1000 Ang^3
#
#
#
# Elastic Constant Matrix: (Units=GPa)
#
#
# Indices 1 2 3 4 5 6 
#
# 1 89.0561 23.9626 11.2026 0.0414 4.2838 0.0375
# 2 23.9626 124.5828 22.2773 -0.0121 -4.8817 -0.0623
# 3 11.2026 22.2773 30.8313 0.1638 7.4204 -0.0777
# 4 0.0414 -0.0121 0.1638 38.0799 0.0017 -4.2696
# 5 4.2838 -4.8817 7.4204 0.0017 32.6672 -0.0510
# 6 0.0375 -0.0623 -0.0777 -4.2696 -0.0510 22.7183
#
#
#
# Elastic Compliance Matrix: (Units=1/GPa)
#
#
# Indices 1 2 3 4 5 6 
#
# 1 0.012144 -0.001895 -0.002742 -0.000006 -0.001253 -0.000039
# 2 -0.001895 0.009811 -0.007208 0.000038 0.003352 0.000020
# 3 -0.002742 -0.007208 0.041057 -0.000168 -0.010044 0.000071
# 4 -0.000006 0.000038 -0.000168 0.026827 0.000051 0.005041
# 5 -0.001253 0.003352 -0.010044 0.000051 0.033558 0.000062
# 6 -0.000039 0.000020 0.000071 0.005041 0.000062 0.044965
#
#
# Mechanical properties :
#
#
# Convention : Reuss Voigt Hill
#
# Bulk Modulus (GPa) = 25.43003 39.92838 32.67920
# Shear Modulus (GPa) = 24.37127 31.16160 27.76643
#
# Velocity S-wave (km/s) = 3.38613 3.82890 3.61430
# Velocity P-wave (km/s) = 5.22032 6.19130 5.72643
#
# Compressibility (1/GPa) = 0.03932359
#
# Stress axis : x y z
#
# Youngs Moduli (GPa) = 82.34605 101.92207 24.35624
#
# Poissons Ratio (x) = 0.19310 0.06679
# Poissons Ratio (y) = 0.15601 0.17555
# Poissons Ratio (z) = 0.22580 0.73463
#
# Static dielectric constant tensor:
#      x y z
#    x 3.963060 -0.000040 -0.126270 
#    y -0.000040 4.200540 -0.000360 
#    z -0.126270 -0.000360 3.797170 
# 
# 
# High freq. dielectric constant tensor:
#      x y z
#    x 1.831930 0.000000 -0.007500 
#    y 0.000000 1.841540 -0.000040 
#    z -0.007500 -0.000040 1.833430 
# 
# From -- ./inp_files/301209.got.cif
#   From: 2010.06.25/outbox.cif.g09.slc.cpg/sg15_151_cif.got.tgz:301209.got - 2010.06.28 07:06:18.
