data_PCOD8141686
_publ_section_title
;
Structure prediction by ZEFSAII (Michael W. Deem and Ramdas Pophale) SiO2 
 PCOD8141686
Probable space group: C 2/C
;
_chemical_formula_sum "Si O2"
_cell_formula_units_Z 56
_cell_length_a 15.374487
_cell_length_b 18.691434
_cell_length_c 11.784994
_cell_angle_alpha 90.000000
_cell_angle_beta 60.289741
_cell_angle_gamma 90.000000
_cell_volume 2941.466041
_symmetry_space_group_name_H-M "C 2/C"
_symmetry_group_IT_number 15
_symmetry_cell_setting 'monoclinic'
loop_
_space_group_symop_operation_xyz
x,y,z
-x,y,1/2-z
-x,-y,-z
x,-y,1/2+z
1/2+x,1/2+y,z
1/2-x,1/2+y,1/2-z
1/2-x,1/2-y,-z
1/2+x,1/2-y,1/2+z
loop_
_atom_site_type_symbol
_atom_site_label
_atom_site_fract_x
_atom_site_fract_y
_atom_site_fract_z
Si Si1 0.384006 0.360732 0.309577
Si Si2 0.052047 0.287763 0.062064
Si Si3 0.687532 0.556578 0.853284
Si Si4 0.326241 0.394793 0.596169
Si Si5 0.193378 0.271040 0.775049
Si Si6 0.975086 0.875238 0.890460
Si Si7 0.346306 0.170999 0.784010
O O1 0.500000 0.344809 0.250000
O O2 0.368993 0.422447 0.225935
O O3 0.334408 0.388824 0.456173
O O4 0.332603 0.286519 0.304915
O O5 0.058789 0.206258 0.099442
O O6 0.118327 0.332089 0.108730
O O7 0.938725 0.317309 0.137484
O O8 0.093948 0.295277 0.907686
O O9 0.709575 0.472879 0.842982
O O10 0.794472 0.595583 0.790394
O O11 0.616158 0.577730 0.004041
O O12 0.240644 0.340622 0.689534
O O13 0.431906 0.377689 0.584804
O O14 0.268560 0.235823 0.817343
O O15 0.000000 0.906278 0.750000
#
# Coordination Sequence:
#
# PCOD8141686 Si02
#       7
#     8   8   8   8   8   8   8
#     4  11  23  42  61  87 127 163 204 253 299 361
#     4  11  19  37  64  95 118 154 206 265 300 352
#     4  11  26  40  61  90 131 163 196 254 317 364
#     4  12  25  40  61  92 126 167 202 243 314 374
#     4  11  22  38  63  88 122 164 210 246 299 363
#     4  12  22  36  64  99 122 149 200 263 314 361
#     4  10  21  37  61  94 125 154 205 259 306 357
#
# _framework density 19.038125999999998
#
# number of rings (size 3 to 8) (size 9 to 14) (size 15 to 20)
#    0.000    0.857    7.143    1.286    4.000    0.000 
#    0.000    0.714    3.143    0.000    0.000    0.000 
#    0.000    0.000    0.000    0.000    0.000    0.000 
#
# Total GULP energy -347327.049311 kJ/mol
# GULP energy per Si atom -12404.537475 kJ/mol
# Density = 1.899479 g / cm^3
# Si number density = 19.038126 Si / 1000 Ang^3
#
#
#
# Elastic Constant Matrix: (Units=GPa)
#
#
# Indices 1 2 3 4 5 6 
#
# 1 84.8750 43.6778 35.5753 0.0000 0.1686 0.0000
# 2 43.6778 127.5540 46.3172 0.0000 -7.4045 0.0000
# 3 35.5753 46.3172 124.9159 0.0000 -1.1282 0.0000
# 4 0.0000 0.0000 0.0000 21.7270 0.0000 -0.9362
# 5 0.1686 -7.4045 -1.1282 0.0000 29.1131 0.0000
# 6 0.0000 0.0000 0.0000 -0.9362 0.0000 16.4480
#
#
#
# Elastic Compliance Matrix: (Units=1/GPa)
#
#
# Indices 1 2 3 4 5 6 
#
# 1 0.015124 -0.004258 -0.002740 0.000000 -0.001277 0.000000
# 2 -0.004258 0.010398 -0.002620 0.000000 0.002568 0.000000
# 3 -0.002740 -0.002620 0.009755 0.000000 -0.000272 0.000000
# 4 0.000000 0.000000 0.000000 0.046139 0.000000 0.002626
# 5 -0.001277 0.002568 -0.000272 0.000000 0.034999 0.000000
# 6 0.000000 0.000000 0.000000 0.002626 0.000000 0.060947
#
#
# Mechanical properties :
#
#
# Convention : Reuss Voigt Hill
#
# Bulk Modulus (GPa) = 62.33791 65.38726 63.86258
# Shear Modulus (GPa) = 24.75928 27.57594 26.16761
#
# Velocity S-wave (km/s) = 3.61017 3.80999 3.71143
# Velocity P-wave (km/s) = 7.08467 7.33312 7.20997
#
# Compressibility (1/GPa) = 0.01604160
#
# Stress axis : x y z
#
# Youngs Moduli (GPa) = 66.11868 96.17044 102.51596
#
# Poissons Ratio (x) = 0.40951 0.28089
# Poissons Ratio (y) = 0.28154 0.26855
# Poissons Ratio (z) = 0.18116 0.25193
#
# Static dielectric constant tensor:
#      x y z
#    x 3.544820 0.000000 -0.045500 
#    y 0.000000 3.382410 0.000000 
#    z -0.045500 0.000000 3.712480 
# 
# 
# High freq. dielectric constant tensor:
#      x y z
#    x 1.739700 0.000000 0.000010 
#    y 0.000000 1.725410 0.000000 
#    z 0.000010 0.000000 1.749860 
# 
# From -- ./inp_files/98647.got.cif
#   From: 2010.06.25/outbox.cif.g09.slc.cpg/sg15_50_cif.got.tgz:98647.got - 2010.06.28 07:06:18.
