data_PCOD8141810
_publ_section_title
;
Structure prediction by ZEFSAII (Michael W. Deem and Ramdas Pophale) SiO2 
 PCOD8141810
Probable space group: C 2/C
;
_chemical_formula_sum "Si O2"
_cell_formula_units_Z 64
_cell_length_a 9.177374
_cell_length_b 18.276225
_cell_length_c 23.376298
_cell_angle_alpha 90.000000
_cell_angle_beta 52.105378
_cell_angle_gamma 90.000000
_cell_volume 3094.109484
_symmetry_space_group_name_H-M "C 2/C"
_symmetry_group_IT_number 15
_symmetry_cell_setting 'monoclinic'
loop_
_space_group_symop_operation_xyz
x,y,z
-x,y,1/2-z
-x,-y,-z
x,-y,1/2+z
1/2+x,1/2+y,z
1/2-x,1/2+y,1/2-z
1/2-x,1/2-y,-z
1/2+x,1/2-y,1/2+z
loop_
_atom_site_type_symbol
_atom_site_label
_atom_site_fract_x
_atom_site_fract_y
_atom_site_fract_z
Si Si1 0.992461 0.893627 0.419781
Si Si2 0.800503 0.008566 0.322568
Si Si3 0.146417 0.055878 0.069193
Si Si4 0.746329 0.778835 0.436158
Si Si5 0.511233 0.116460 0.924641
Si Si6 0.993249 0.457979 0.688664
Si Si7 0.666026 0.370640 0.920678
Si Si8 0.583623 0.122345 0.674618
O O1 0.913932 0.836774 0.391242
O O2 0.948066 0.866631 0.493729
O O3 0.207874 0.893516 0.360242
O O4 0.911624 0.973681 0.431229
O O5 0.825592 0.063202 0.369918
O O6 0.693175 0.059283 0.301793
O O7 0.000000 0.982912 0.250000
O O8 0.681050 0.938867 0.372429
O O9 0.979801 0.110958 0.093780
O O10 0.333522 0.072302 0.989649
O O11 0.750000 0.750000 0.500000
O O12 0.563426 0.823677 0.460341
O O13 0.762098 0.709380 0.389368
O O14 0.455119 0.158414 0.878376
O O15 0.174622 0.431298 0.611544
O O16 0.982704 0.544708 0.695700
O O17 0.000000 0.420804 0.750000
O O18 0.500000 0.166218 0.750000
#
# Coordination Sequence:
#
# PCOD8141810 Si02
#       8
#     8   8   8   8   8   8   8   8
#     4  11  20  40  61  96 120 162 212 256 324 375
#     4  11  24  37  62  99 130 163 210 281 322 372
#     4  12  22  37  68  96 125 156 220 268 317 385
#     4  10  25  40  61  88 132 167 212 257 328 381
#     4  11  23  40  62  97 125 170 213 265 325 383
#     4  10  21  38  62  90 127 165 211 259 330 380
#     4  11  22  40  61  90 125 171 202 261 316 389
#     4  10  21  37  65  95 127 158 212 277 319 377
#
# _framework density 20.684466
#
# number of rings (size 3 to 8) (size 9 to 14) (size 15 to 20)
#    0.000    1.250    3.750    3.000    7.000    0.500 
#    0.000    1.875    0.000    1.500    0.000    0.000 
#    0.000    0.000    0.000    0.000    0.000    0.000 
#
# Total GULP energy -396490.742844 kJ/mol
# GULP energy per Si atom -12390.335714 kJ/mol
# Density = 2.063739 g / cm^3
# Si number density = 20.684466 Si / 1000 Ang^3
#
#
#
# Elastic Constant Matrix: (Units=GPa)
#
#
# Indices 1 2 3 4 5 6 
#
# 1 183.6785 55.6078 60.9489 -0.0003 9.6989 -0.0003
# 2 55.6078 66.1513 19.5498 -0.0003 16.1474 -0.0001
# 3 60.9489 19.5498 97.6048 -0.0004 -4.8440 0.0005
# 4 -0.0003 -0.0003 -0.0004 8.2268 0.0008 9.6419
# 5 9.6989 16.1474 -4.8440 0.0008 34.9185 -0.0002
# 6 -0.0003 -0.0001 0.0005 9.6419 -0.0002 19.2691
#
#
#
# Elastic Compliance Matrix: (Units=1/GPa)
#
#
# Indices 1 2 3 4 5 6 
#
# 1 0.008671 -0.005984 -0.004227 -0.000001 -0.000228 0.000001
# 2 -0.005984 0.022722 -0.001262 0.000004 -0.009020 -0.000002
# 3 -0.004227 -0.001262 0.013317 0.000001 0.003605 -0.000001
# 4 -0.000001 0.000004 0.000001 0.293931 -0.000009 -0.147078
# 5 -0.000228 -0.009020 0.003605 -0.000009 0.033373 0.000005
# 6 0.000001 -0.000002 -0.000001 -0.147078 0.000005 0.125492
#
#
# Mechanical properties :
#
#
# Convention : Reuss Voigt Hill
#
# Bulk Modulus (GPa) = 45.94966 68.84973 57.39970
# Shear Modulus (GPa) = 9.47500 26.57142 18.02321
#
# Velocity S-wave (km/s) = 2.14259 3.58803 2.95505
# Velocity P-wave (km/s) = 5.32764 7.10797 6.28120
#
# Compressibility (1/GPa) = 0.02176294
#
# Stress axis : x y z
#
# Youngs Moduli (GPa) = 115.33356 44.01067 75.09381
#
# Poissons Ratio (x) = 0.26335 0.31742
# Poissons Ratio (y) = 0.69013 0.09478
# Poissons Ratio (z) = 0.48752 0.05555
#
# Static dielectric constant tensor:
#      x y z
#    x 4.487100 0.000000 0.370680 
#    y 0.000000 3.702540 0.000000 
#    z 0.370680 0.000000 3.834490 
# 
# 
# High freq. dielectric constant tensor:
#      x y z
#    x 1.842200 0.000000 0.005490 
#    y 0.000000 1.769470 0.000000 
#    z 0.005490 0.000000 1.795580 
# 
# From -- ./inp_files/266065.got.cif
#   From: 2010.06.25/outbox.cif.g09.slc.cpg/sg15_134_cif.got.tgz:266065.got - 2010.06.28 07:06:18.
