data_PCOD8141599
_publ_section_title
;
Structure prediction by ZEFSAII (Michael W. Deem and Ramdas Pophale) SiO2 
 PCOD8141599
Probable space group: C 2/C
;
_chemical_formula_sum "Si O2"
_cell_formula_units_Z 56
_cell_length_a 16.687473
_cell_length_b 15.017435
_cell_length_c 25.813931
_cell_angle_alpha 90.000000
_cell_angle_beta 24.892723
_cell_angle_gamma 90.000000
_cell_volume 2722.956299
_symmetry_space_group_name_H-M "C 2/C"
_symmetry_group_IT_number 15
_symmetry_cell_setting 'monoclinic'
loop_
_space_group_symop_operation_xyz
x,y,z
-x,y,1/2-z
-x,-y,-z
x,-y,1/2+z
1/2+x,1/2+y,z
1/2-x,1/2+y,1/2-z
1/2-x,1/2-y,-z
1/2+x,1/2-y,1/2+z
loop_
_atom_site_type_symbol
_atom_site_label
_atom_site_fract_x
_atom_site_fract_y
_atom_site_fract_z
Si Si1 0.270234 0.159868 0.203257
Si Si2 0.295032 0.327670 0.648015
Si Si3 0.949309 0.848812 0.189803
Si Si4 0.142627 0.155314 0.871891
Si Si5 0.918392 0.501390 0.243994
Si Si6 0.643614 0.081115 0.020418
Si Si7 0.308753 0.510994 0.332428
O O1 0.146136 0.141054 0.327837
O O2 0.219862 0.259205 0.214086
O O3 0.242360 0.094691 0.172242
O O4 0.486825 0.154750 0.098161
O O5 0.152751 0.242550 0.732440
O O6 0.491726 0.313000 0.503314
O O7 0.189196 0.407048 0.680337
O O8 0.962516 0.861939 0.120700
O O9 0.163283 0.861372 0.086359
O O10 0.819971 0.926501 0.288623
O O11 0.266926 0.070091 0.812641
O O12 0.000000 0.464113 0.250000
O O13 0.085293 0.521650 0.104467
O O14 0.652679 0.010110 0.967914
O O15 0.500000 0.534970 0.250000
#
# Coordination Sequence:
#
# PCOD8141599 Si02
#       7
#     8   8   8   8   8   8   8
#     4  10  22  37  57  86 116 152 200 246 297 355
#     4  10  22  38  60  86 117 155 194 249 307 360
#     4  10  21  39  63  91 117 149 200 254 311 358
#     4  11  23  39  59  83 121 162 197 242 295 363
#     4  11  24  38  57  86 121 161 200 238 294 364
#     4  10  21  38  63  89 116 151 196 261 315 351
#     4  10  21  37  60  85 115 153 197 248 299 354
#
# _framework density 20.565882999999999
#
# number of rings (size 3 to 8) (size 9 to 14) (size 15 to 20)
#    0.000    1.714    0.000    4.286    0.000   13.143 
#    0.000    0.000    0.000    8.571    0.000    0.000 
#    0.000    0.000    0.000    0.000    0.000    0.000 
#
# Total GULP energy -347059.945938 kJ/mol
# GULP energy per Si atom -12394.998069 kJ/mol
# Density = 2.051907 g / cm^3
# Si number density = 20.565883 Si / 1000 Ang^3
#
#
#
# Elastic Constant Matrix: (Units=GPa)
#
#
# Indices 1 2 3 4 5 6 
#
# 1 100.3295 56.0108 31.5521 -0.0110 18.3829 0.0142
# 2 56.0108 119.0928 30.2076 -0.0021 -4.3609 -0.0037
# 3 31.5521 30.2076 97.9801 -0.0251 21.1873 0.0454
# 4 -0.0110 -0.0021 -0.0251 25.6261 0.0347 -3.6162
# 5 18.3829 -4.3609 21.1873 0.0347 27.3707 -0.0088
# 6 0.0142 -0.0037 0.0454 -3.6162 -0.0088 24.3769
#
#
#
# Elastic Compliance Matrix: (Units=1/GPa)
#
#
# Indices 1 2 3 4 5 6 
#
# 1 0.017054 -0.008449 -0.000143 0.000022 -0.012689 -0.000012
# 2 -0.008449 0.013749 -0.003866 -0.000019 0.010858 0.000015
# 3 -0.000143 -0.003866 0.013880 0.000025 -0.011264 -0.000027
# 4 0.000022 -0.000019 0.000025 0.039857 -0.000086 0.005913
# 5 -0.012689 0.010858 -0.011264 -0.000086 0.055508 0.000037
# 6 -0.000012 0.000015 -0.000027 0.005913 0.000037 0.041900
#
#
# Mechanical properties :
#
#
# Convention : Reuss Voigt Hill
#
# Bulk Modulus (GPa) = 50.58995 61.43813 56.01404
# Shear Modulus (GPa) = 23.42451 28.78353 26.10402
#
# Velocity S-wave (km/s) = 3.37857 3.74515 3.56657
# Velocity P-wave (km/s) = 6.31443 6.97425 6.65253
#
# Compressibility (1/GPa) = 0.01976677
#
# Stress axis : x y z
#
# Youngs Moduli (GPa) = 58.63720 72.73430 72.04699
#
# Poissons Ratio (x) = 0.61454 0.01030
# Poissons Ratio (y) = 0.49543 0.27852
# Poissons Ratio (z) = 0.00838 0.28118
#
# Static dielectric constant tensor:
#      x y z
#    x 3.809520 -0.000040 0.365530 
#    y -0.000040 3.662790 0.000100 
#    z 0.365530 0.000100 3.824700 
# 
# 
# High freq. dielectric constant tensor:
#      x y z
#    x 1.807090 0.000000 0.026230 
#    y 0.000000 1.806040 0.000010 
#    z 0.026230 0.000010 1.802620 
# 
# From -- ./inp_files/274470.got.cif
#   From: 2010.06.25/outbox.cif.g09.slc.cpg/sg15_138_cif.got.tgz:274470.got - 2010.06.28 07:06:18.
