data_PCOD8141984
_publ_section_title
;
Structure prediction by ZEFSAII (Michael W. Deem and Ramdas Pophale) SiO2 
 PCOD8141984
Probable space group: C 2/C
;
_chemical_formula_sum "Si O2"
_cell_formula_units_Z 56
_cell_length_a 20.941782
_cell_length_b 15.190096
_cell_length_c 9.260190
_cell_angle_alpha 90.000000
_cell_angle_beta 74.997047
_cell_angle_gamma 90.000000
_cell_volume 2845.324677
_symmetry_space_group_name_H-M "C 2/C"
_symmetry_group_IT_number 15
_symmetry_cell_setting 'monoclinic'
loop_
_space_group_symop_operation_xyz
x,y,z
-x,y,1/2-z
-x,-y,-z
x,-y,1/2+z
1/2+x,1/2+y,z
1/2-x,1/2+y,1/2-z
1/2-x,1/2-y,-z
1/2+x,1/2-y,1/2+z
loop_
_atom_site_type_symbol
_atom_site_label
_atom_site_fract_x
_atom_site_fract_y
_atom_site_fract_z
Si Si1 0.657327 0.776242 0.479249
Si Si2 0.742488 0.463438 0.614779
Si Si3 0.682141 0.699832 0.017461
Si Si4 0.794019 0.158420 0.808337
Si Si5 0.931132 0.282080 0.232988
Si Si6 0.954804 0.484158 0.161094
Si Si7 0.324899 0.940806 0.832844
O O1 0.720451 0.799543 0.342721
O O2 0.669389 0.689814 0.567851
O O3 0.594429 0.754987 0.413207
O O4 0.647777 0.858175 0.593672
O O5 0.687649 0.396925 0.585427
O O6 0.707609 0.553373 0.682732
O O7 0.770407 0.416466 0.743995
O O8 0.797849 0.484583 0.459253
O O9 0.623077 0.756520 0.117162
O O10 0.750000 0.750000 0.000000
O O11 0.666735 0.688602 0.856480
O O12 0.942363 0.385118 0.217583
O O13 0.000000 0.237833 0.250000
O O14 0.882914 0.525820 0.194300
O O15 0.000000 0.534014 0.250000
O O16 0.000000 0.500000 0.000000
#
# Coordination Sequence:
#
# PCOD8141984 Si02
#       7
#     8   8   8   8   8   8   8
#     4  10  21  38  60  87 130 160 212 262 329 375
#     4  11  22  36  61  95 128 155 211 271 334 377
#     4  12  22  39  65  92 125 166 220 267 324 381
#     4  10  21  38  60  96 120 165 205 275 327 378
#     4  11  25  41  61  91 129 171 213 265 317 387
#     4  11  22  38  56  82 126 171 209 247 309 389
#     4  11  21  37  59  95 127 165 208 267 324 386
#
# _framework density 19.681408999999999
#
# number of rings (size 3 to 8) (size 9 to 14) (size 15 to 20)
#    0.000    1.143    2.857    5.143    4.000    3.429 
#    0.000    2.143    0.000    3.429    0.000    0.000 
#    0.000    0.000    0.000    0.000    0.000    0.000 
#
# Total GULP energy -346968.887379 kJ/mol
# GULP energy per Si atom -12391.745978 kJ/mol
# Density = 1.963661 g / cm^3
# Si number density = 19.681409 Si / 1000 Ang^3
#
#
#
# Elastic Constant Matrix: (Units=GPa)
#
#
# Indices 1 2 3 4 5 6 
#
# 1 113.5349 31.2967 48.3306 0.0000 11.1853 0.0000
# 2 31.2967 77.5399 41.8932 0.0000 -6.9839 0.0000
# 3 48.3306 41.8932 143.0301 0.0000 -5.0773 0.0000
# 4 0.0000 0.0000 0.0000 30.6964 0.0000 -0.1989
# 5 11.1853 -6.9839 -5.0773 0.0000 44.3587 0.0000
# 6 0.0000 0.0000 0.0000 -0.1989 0.0000 20.6313
#
#
#
# Elastic Compliance Matrix: (Units=1/GPa)
#
#
# Indices 1 2 3 4 5 6 
#
# 1 0.011364 -0.003298 -0.003006 0.000000 -0.003729 0.000000
# 2 -0.003298 0.016441 -0.003594 0.000000 0.003009 0.000000
# 3 -0.003006 -0.003594 0.009104 0.000000 0.001234 0.000000
# 4 0.000000 0.000000 0.000000 0.032579 0.000000 0.000314
# 5 -0.003729 0.003009 0.001234 0.000000 0.024099 0.000000
# 6 0.000000 0.000000 0.000000 0.000314 0.000000 0.048473
#
#
# Mechanical properties :
#
#
# Convention : Reuss Voigt Hill
#
# Bulk Modulus (GPa) = 58.44134 64.12731 61.28433
# Shear Modulus (GPa) = 29.83986 33.30957 31.57472
#
# Velocity S-wave (km/s) = 3.89799 4.11839 4.00971
# Velocity P-wave (km/s) = 7.07229 7.43426 7.25553
#
# Compressibility (1/GPa) = 0.01711118
#
# Stress axis : x y z
#
# Youngs Moduli (GPa) = 87.99546 60.82458 109.84325
#
# Poissons Ratio (x) = 0.20063 0.33022
# Poissons Ratio (y) = 0.29025 0.39478
# Poissons Ratio (z) = 0.26454 0.21861
#
# Static dielectric constant tensor:
#      x y z
#    x 6.113200 0.000000 1.232610 
#    y 0.000000 3.537550 0.000000 
#    z 1.232610 0.000000 4.260560 
# 
# 
# High freq. dielectric constant tensor:
#      x y z
#    x 1.743540 0.000000 0.024710 
#    y 0.000000 1.754350 0.000000 
#    z 0.024710 0.000000 1.785250 
# 
# From -- ./inp_files/49042.got.cif
#   From: 2010.06.25/outbox.cif.g09.slc.cpg/sg15_25_cif.got.tgz:49042.got - 2010.06.28 07:06:18.
