data_PCOD8141518
_publ_section_title
;
Structure prediction by ZEFSAII (Michael W. Deem and Ramdas Pophale) SiO2 
 PCOD8141518
Probable space group: C 2/C
;
_chemical_formula_sum "Si O2"
_cell_formula_units_Z 56
_cell_length_a 27.820786
_cell_length_b 8.973176
_cell_length_c 12.461222
_cell_angle_alpha 90.000000
_cell_angle_beta 55.251922
_cell_angle_gamma 90.000000
_cell_volume 2556.063049
_symmetry_space_group_name_H-M "C 2/C"
_symmetry_group_IT_number 15
_symmetry_cell_setting 'monoclinic'
loop_
_space_group_symop_operation_xyz
x,y,z
-x,y,1/2-z
-x,-y,-z
x,-y,1/2+z
1/2+x,1/2+y,z
1/2-x,1/2+y,1/2-z
1/2-x,1/2-y,-z
1/2+x,1/2-y,1/2+z
loop_
_atom_site_type_symbol
_atom_site_label
_atom_site_fract_x
_atom_site_fract_y
_atom_site_fract_z
Si Si1 0.455055 0.999118 0.156255
Si Si2 0.545105 0.500193 0.041392
Si Si3 0.722473 0.128391 0.908929
Si Si4 0.000000 0.250209 0.750000
Si Si5 0.233777 0.046634 0.438191
Si Si6 0.500000 0.250561 0.750000
Si Si7 0.654589 0.045890 0.342572
Si Si8 0.162665 0.131091 0.881741
O O1 0.460502 0.146194 0.223224
O O2 0.390721 0.992346 0.188584
O O3 0.460980 0.853192 0.222332
O O4 0.500000 0.000000 0.000000
O O5 0.539264 0.352114 0.121431
O O6 0.539039 0.644805 0.124910
O O7 0.500000 0.500000 0.000000
O O8 0.611089 0.516360 0.910576
O O9 0.704572 0.288857 0.980081
O O10 0.783145 0.127199 0.767351
O O11 0.663132 0.076924 0.924703
O O12 0.735455 0.010641 0.988169
O O13 0.280896 0.058061 0.285229
O O14 0.185587 0.921538 0.470127
O O15 0.635706 0.202720 0.419522
#
# Coordination Sequence:
#
# PCOD8141518 Si02
#       8
#     8   8   8   4   8   4   8   8
#     4  11  23  42  63  89 122 157 203 255 301 361
#     4  11  23  41  61  89 126 160 201 251 299 362
#     4   9  20  38  59  84 113 155 198 241 298 351
#     4  10  24  40  62  90 120 164 202 242 312 362
#     4   9  20  37  57  82 115 151 196 242 290 361
#     4  10  24  40  60  90 118 160 206 242 308 366
#     4  10  21  37  58  84 116 152 194 245 300 351
#     4  10  21  37  57  85 117 152 194 244 297 354
#
# _framework density 21.908694000000001
#
# number of rings (size 3 to 8) (size 9 to 14) (size 15 to 20)
#    0.000    2.000    0.000    2.571    0.000   12.000 
#    0.000    2.857    0.000    0.000    0.000    0.000 
#    0.000    0.000    0.000    0.000    0.000    0.000 
#
# Total GULP energy -346991.254354 kJ/mol
# GULP energy per Si atom -12392.544798 kJ/mol
# Density = 2.185883 g / cm^3
# Si number density = 21.908694 Si / 1000 Ang^3
#
#
#
# Elastic Constant Matrix: (Units=GPa)
#
#
# Indices 1 2 3 4 5 6 
#
# 1 152.6556 58.4085 24.4932 0.0000 35.9933 0.0000
# 2 58.4085 109.4410 34.5289 0.0000 21.2422 0.0000
# 3 24.4932 34.5289 56.0958 0.0000 23.2477 0.0000
# 4 0.0000 0.0000 0.0000 33.6613 0.0000 8.4756
# 5 35.9933 21.2422 23.2477 0.0000 40.8332 0.0000
# 6 0.0000 0.0000 0.0000 8.4756 0.0000 31.2836
#
#
#
# Elastic Compliance Matrix: (Units=1/GPa)
#
#
# Indices 1 2 3 4 5 6 
#
# 1 0.009593 -0.004162 0.001283 0.000000 -0.007021 0.000000
# 2 -0.004162 0.013346 -0.006598 0.000000 0.000481 0.000000
# 3 0.001283 -0.006598 0.026666 0.000000 -0.012880 0.000000
# 4 0.000000 0.000000 0.000000 0.031883 0.000000 -0.008638
# 5 -0.007021 0.000481 -0.012880 0.000000 0.037761 0.000000
# 6 0.000000 0.000000 0.000000 -0.008638 0.000000 0.034306
#
#
# Mechanical properties :
#
#
# Convention : Reuss Voigt Hill
#
# Bulk Modulus (GPa) = 32.62446 61.45041 47.03744
# Shear Modulus (GPa) = 27.36360 34.53974 30.95167
#
# Velocity S-wave (km/s) = 3.53793 3.97486 3.76274
# Velocity P-wave (km/s) = 5.62252 7.01251 6.35563
#
# Compressibility (1/GPa) = 0.03065185
#
# Stress axis : x y z
#
# Youngs Moduli (GPa) = 104.24767 74.92615 37.50159
#
# Poissons Ratio (x) = 0.31181 -0.04811
# Poissons Ratio (y) = 0.43383 0.24742
# Poissons Ratio (z) = -0.13373 0.49434
#
# Static dielectric constant tensor:
#      x y z
#    x 3.964140 0.000000 0.235540 
#    y 0.000000 4.305100 0.000000 
#    z 0.235540 0.000000 3.915260 
# 
# 
# High freq. dielectric constant tensor:
#      x y z
#    x 1.863640 0.000000 0.013840 
#    y 0.000000 1.863550 0.000000 
#    z 0.013840 0.000000 1.854390 
# 
# From -- ./inp_files/121923.got.cif
#   From: 2010.06.25/outbox.cif.g09.slc.cpg/sg15_61_cif.got.tgz:121923.got - 2010.06.28 07:06:18.
