data_PCOD8141711
_publ_section_title
;
Structure prediction by ZEFSAII (Michael W. Deem and Ramdas Pophale) SiO2 
 PCOD8141711
Probable space group: C 2/C
;
_chemical_formula_sum "Si O2"
_cell_formula_units_Z 52
_cell_length_a 12.220759
_cell_length_b 14.389239
_cell_length_c 17.288376
_cell_angle_alpha 90.000000
_cell_angle_beta 123.249697
_cell_angle_gamma 90.000000
_cell_volume 2542.416031
_symmetry_space_group_name_H-M "C 2/C"
_symmetry_group_IT_number 15
_symmetry_cell_setting 'monoclinic'
loop_
_space_group_symop_operation_xyz
x,y,z
-x,y,1/2-z
-x,-y,-z
x,-y,1/2+z
1/2+x,1/2+y,z
1/2-x,1/2+y,1/2-z
1/2-x,1/2-y,-z
1/2+x,1/2-y,1/2+z
loop_
_atom_site_type_symbol
_atom_site_label
_atom_site_fract_x
_atom_site_fract_y
_atom_site_fract_z
Si Si1 0.211766 0.649502 0.019534
Si Si2 0.089970 0.512081 0.853124
Si Si3 0.058543 0.010998 0.403490
Si Si4 0.007071 0.596276 0.461884
Si Si5 0.000000 0.115374 0.750000
Si Si6 0.246611 0.284213 0.086411
Si Si7 0.335530 0.589998 0.418999
O O1 0.125351 0.598779 0.920830
O O2 0.250000 0.750000 0.000000
O O3 0.338079 0.586345 0.090053
O O4 0.122091 0.657077 0.063567
O O5 0.025279 0.424856 0.876804
O O6 0.215207 0.476990 0.853241
O O7 0.000000 0.550246 0.750000
O O8 0.965192 0.067541 0.422932
O O9 0.969494 0.957131 0.306982
O O10 0.136289 0.928526 0.478467
O O11 0.136139 0.639000 0.549746
O O12 0.000000 0.500000 0.500000
O O13 0.878793 0.179398 0.678063
O O14 0.201515 0.194628 0.117276
O O15 0.250000 0.250000 0.000000
#
# Coordination Sequence:
#
# PCOD8141711 Si02
#       7
#     8   8   8   8   4   8   8
#     4  10  21  42  67  89 125 173 214 262 328 391
#     4  10  21  37  62  90 124 165 212 261 323 384
#     4  10  22  41  63  90 127 178 209 266 335 397
#     4  10  21  39  66  87 126 170 207 263 330 385
#     4  12  24  40  64  96 136 170 226 268 328 400
#     4  12  22  40  65 100 128 165 223 278 319 387
#     4  10  21  40  63  88 131 166 210 268 334 383
#
# _framework density 20.452985999999999
#
# number of rings (size 3 to 8) (size 9 to 14) (size 15 to 20)
#    0.000    1.538    3.077    2.769    1.077    3.692 
#    1.385    0.000    6.769    0.000    0.000    0.000 
#    0.000    0.000    0.000    0.000    0.000    0.000 
#
# Total GULP energy -322129.610041 kJ/mol
# GULP energy per Si atom -12389.600386 kJ/mol
# Density = 2.040643 g / cm^3
# Si number density = 20.452986 Si / 1000 Ang^3
#
#
#
# Elastic Constant Matrix: (Units=GPa)
#
#
# Indices 1 2 3 4 5 6 
#
# 1 118.5043 40.9553 34.5733 0.0000 20.9409 0.0000
# 2 40.9553 124.6754 48.4796 0.0000 14.2367 0.0000
# 3 34.5733 48.4796 109.2166 0.0000 18.0810 0.0000
# 4 0.0000 0.0000 0.0000 28.9544 0.0000 7.9791
# 5 20.9409 14.2367 18.0810 0.0000 18.8355 0.0000
# 6 0.0000 0.0000 0.0000 7.9791 0.0000 33.5437
#
#
#
# Elastic Compliance Matrix: (Units=1/GPa)
#
#
# Indices 1 2 3 4 5 6 
#
# 1 0.011222 -0.002189 -0.000938 0.000000 -0.009921 0.000000
# 2 -0.002189 0.010355 -0.003580 0.000000 -0.001957 0.000000
# 3 -0.000938 -0.003580 0.012391 0.000000 -0.008145 0.000000
# 4 0.000000 0.000000 0.000000 0.036960 0.000000 -0.008792
# 5 -0.009921 -0.001957 -0.008145 0.000000 0.073420 0.000000
# 6 0.000000 0.000000 0.000000 -0.008792 0.000000 0.031903
#
#
# Mechanical properties :
#
#
# Convention : Reuss Voigt Hill
#
# Bulk Modulus (GPa) = 48.65135 66.71251 57.68193
# Shear Modulus (GPa) = 25.44333 31.49260 28.46796
#
# Velocity S-wave (km/s) = 3.53085 3.92823 3.73483
# Velocity P-wave (km/s) = 6.36090 7.29815 6.84558
#
# Compressibility (1/GPa) = 0.02055441
#
# Stress axis : x y z
#
# Youngs Moduli (GPa) = 89.11205 96.56976 80.70626
#
# Poissons Ratio (x) = 0.21134 0.07574
# Poissons Ratio (y) = 0.19502 0.28890
# Poissons Ratio (z) = 0.08363 0.34569
#
# Static dielectric constant tensor:
#      x y z
#    x 4.272630 0.000000 -0.229740 
#    y 0.000000 3.892220 0.000000 
#    z -0.229740 0.000000 3.497310 
# 
# 
# High freq. dielectric constant tensor:
#      x y z
#    x 1.811510 0.000000 0.008310 
#    y 0.000000 1.804510 0.000000 
#    z 0.008310 0.000000 1.775520 
# 
# From -- ./inp_files/198040.got.cif
#   From: 2010.06.25/outbox.cif.g09.slc.cpg/sg15_100_cif.got.tgz:198040.got - 2010.06.28 07:06:18.
