data_PCOD8141107
_publ_section_title
;
Structure prediction by ZEFSAII (Michael W. Deem and Ramdas Pophale) SiO2 
 PCOD8141107
Probable space group: C 2/C
;
_chemical_formula_sum "Si O2"
_cell_formula_units_Z 44
_cell_length_a 7.847482
_cell_length_b 23.942103
_cell_length_c 14.391351
_cell_angle_alpha 90.000000
_cell_angle_beta 120.251400
_cell_angle_gamma 90.000000
_cell_volume 2335.710700
_symmetry_space_group_name_H-M "C 2/C"
_symmetry_group_IT_number 15
_symmetry_cell_setting 'monoclinic'
loop_
_space_group_symop_operation_xyz
x,y,z
-x,y,1/2-z
-x,-y,-z
x,-y,1/2+z
1/2+x,1/2+y,z
1/2-x,1/2+y,1/2-z
1/2-x,1/2-y,-z
1/2+x,1/2-y,1/2+z
loop_
_atom_site_type_symbol
_atom_site_label
_atom_site_fract_x
_atom_site_fract_y
_atom_site_fract_z
Si Si1 0.500000 0.089082 0.750000
Si Si2 0.578493 0.582267 0.053637
Si Si3 0.592257 0.472420 0.171595
Si Si4 0.262401 0.838929 0.053283
Si Si5 0.823701 0.688579 0.131924
Si Si6 0.013072 0.742804 0.010796
O O1 0.686700 0.052834 0.767389
O O2 0.557292 0.130313 0.848608
O O3 0.613932 0.535198 0.140491
O O4 0.765367 0.623499 0.109744
O O5 0.551684 0.559801 0.940230
O O6 0.379745 0.614004 0.028648
O O7 0.500000 0.470221 0.250000
O O8 0.138430 0.796032 0.086399
O O9 0.339247 0.801630 0.991079
O O10 0.000000 0.698341 0.250000
O O11 0.891035 0.708041 0.050194
O O12 0.637259 0.728646 0.106024
#
# Coordination Sequence:
#
# PCOD8141107 Si02
#       6
#     4   8   8   8   8   8
#     4  10  22  36  62  90 110 158 208 236 294 362
#     4   9  21  41  55  86 123 142 206 248 285 364
#     4  10  22  41  62  86 118 160 198 257 298 340
#     4   9  19  38  56  81 118 148 189 246 286 354
#     4  10  21  35  57  86 117 155 186 238 295 355
#     4   9  20  37  55  85 117 149 193 234 293 352
#
# _framework density 18.837948000000001
#
# number of rings (size 3 to 8) (size 9 to 14) (size 15 to 20)
#    0.000    2.545    0.000    0.000    6.364    1.455 
#    0.000    2.727    0.000    0.000    0.000    0.000 
#    0.000    0.000    0.000    0.000    0.000    0.000 
#
# Total GULP energy -272570.341168 kJ/mol
# GULP energy per Si atom -12389.560962 kJ/mol
# Density = 1.879507 g / cm^3
# Si number density = 18.837948 Si / 1000 Ang^3
#
#
#
# Elastic Constant Matrix: (Units=GPa)
#
#
# Indices 1 2 3 4 5 6 
#
# 1 86.5184 52.0044 41.5477 0.0000 3.1509 0.0000
# 2 52.0044 135.3191 51.6161 0.0000 7.3271 0.0000
# 3 41.5477 51.6161 91.2772 0.0000 11.3191 0.0000
# 4 0.0000 0.0000 0.0000 24.9549 0.0000 2.5028
# 5 3.1509 7.3271 11.3191 0.0000 29.7983 0.0000
# 6 0.0000 0.0000 0.0000 2.5028 0.0000 33.8148
#
#
#
# Elastic Compliance Matrix: (Units=1/GPa)
#
#
# Indices 1 2 3 4 5 6 
#
# 1 0.016731 -0.004506 -0.005232 0.000000 0.001326 0.000000
# 2 -0.004506 0.010639 -0.003883 0.000000 -0.000665 0.000000
# 3 -0.005232 -0.003883 0.016104 0.000000 -0.004609 0.000000
# 4 0.000000 0.000000 0.000000 0.040372 0.000000 -0.002988
# 5 0.001326 -0.000665 -0.004609 0.000000 0.035333 0.000000
# 6 0.000000 0.000000 0.000000 -0.002988 0.000000 0.029794
#
#
# Mechanical properties :
#
#
# Convention : Reuss Voigt Hill
#
# Bulk Modulus (GPa) = 61.60381 67.05012 64.32697
# Shear Modulus (GPa) = 27.52931 28.91003 28.21967
#
# Velocity S-wave (km/s) = 3.82694 3.92174 3.87463
# Velocity P-wave (km/s) = 7.23189 7.49514 7.36469
#
# Compressibility (1/GPa) = 0.01623276
#
# Stress axis : x y z
#
# Youngs Moduli (GPa) = 59.76976 93.99766 62.09542
#
# Poissons Ratio (x) = 0.42355 0.32488
# Poissons Ratio (y) = 0.26932 0.24109
# Poissons Ratio (z) = 0.31271 0.36495
#
# Static dielectric constant tensor:
#      x y z
#    x 3.681060 0.000000 0.331320 
#    y 0.000000 3.758400 0.000000 
#    z 0.331320 0.000000 3.296120 
# 
# 
# High freq. dielectric constant tensor:
#      x y z
#    x 1.734790 0.000000 0.022900 
#    y 0.000000 1.756190 0.000000 
#    z 0.022900 0.000000 1.706200 
# 
# From -- ./inp_files/78707.got.cif
#   From: 2010.06.25/outbox.cif.g09.slc.cpg/sg15_40_cif.got.tgz:78707.got - 2010.06.28 07:06:18.
