data_PCOD8141655
_publ_section_title
;
Structure prediction by ZEFSAII (Michael W. Deem and Ramdas Pophale) SiO2 
 PCOD8141655
Probable space group: C 2/C
;
_chemical_formula_sum "Si O2"
_cell_formula_units_Z 52
_cell_length_a 15.017995
_cell_length_b 6.505563
_cell_length_c 26.643162
_cell_angle_alpha 90.000000
_cell_angle_beta 112.253031
_cell_angle_gamma 90.000000
_cell_volume 2409.176606
_symmetry_space_group_name_H-M "C 2/C"
_symmetry_group_IT_number 15
_symmetry_cell_setting 'monoclinic'
loop_
_space_group_symop_operation_xyz
x,y,z
-x,y,1/2-z
-x,-y,-z
x,-y,1/2+z
1/2+x,1/2+y,z
1/2-x,1/2+y,1/2-z
1/2-x,1/2-y,-z
1/2+x,1/2-y,1/2+z
loop_
_atom_site_type_symbol
_atom_site_label
_atom_site_fract_x
_atom_site_fract_y
_atom_site_fract_z
Si Si1 0.795534 0.371650 0.318344
Si Si2 0.311830 0.313675 0.060723
Si Si3 0.364625 0.987203 0.432015
Si Si4 0.139416 0.598999 0.331768
Si Si5 0.980998 0.805832 0.028966
Si Si6 0.000000 0.874620 0.250000
Si Si7 0.847534 0.209693 0.226059
O O1 0.872712 0.369489 0.380322
O O2 0.718859 0.189462 0.310464
O O3 0.845826 0.343191 0.276009
O O4 0.752282 0.602834 0.310334
O O5 0.250081 0.494153 0.076189
O O6 0.326051 0.124663 0.103162
O O7 0.418675 0.377993 0.064501
O O8 0.250000 0.250000 0.000000
O O9 0.419954 0.862065 0.486203
O O10 0.414214 0.210150 0.435530
O O11 0.121831 0.360259 0.313371
O O12 0.041226 0.729823 0.303247
O O13 0.000000 0.000000 0.000000
O O14 0.918932 0.024239 0.254097
#
# Coordination Sequence:
#
# PCOD8141655 Si02
#       7
#     8   8   8   8   8   4   8
#     4  10  21  37  61  87 116 159 200 247 309 362
#     4   9  20  40  62  84 121 165 203 258 315 369
#     4   9  21  39  57  86 124 150 202 256 305 379
#     4  10  21  40  59  88 125 158 203 255 304 381
#     4  10  21  38  60  90 115 158 209 254 312 373
#     4  10  24  36  56  88 124 158 198 248 318 368
#     4  11  21  39  60  86 118 159 202 250 305 372
#
# _framework density 21.584139
#
# number of rings (size 3 to 8) (size 9 to 14) (size 15 to 20)
#    0.000    2.154    1.538    0.462    0.000    8.000 
#    0.000   10.769    0.000    0.000    0.000    0.000 
#    0.000    0.000    0.000    0.000    0.000    0.000 
#
# Total GULP energy -322150.700919 kJ/mol
# GULP energy per Si atom -12390.411574 kJ/mol
# Density = 2.153501 g / cm^3
# Si number density = 21.584139 Si / 1000 Ang^3
#
#
#
# Elastic Constant Matrix: (Units=GPa)
#
#
# Indices 1 2 3 4 5 6 
#
# 1 98.1256 26.6007 10.1207 0.0000 -10.8190 0.0000
# 2 26.6007 78.1940 4.1059 0.0000 1.0416 0.0000
# 3 10.1207 4.1059 94.5928 0.0000 -7.1141 0.0000
# 4 0.0000 0.0000 0.0000 26.3961 0.0000 3.8674
# 5 -10.8190 1.0416 -7.1141 0.0000 31.0339 0.0000
# 6 0.0000 0.0000 0.0000 3.8674 0.0000 31.1189
#
#
#
# Elastic Compliance Matrix: (Units=1/GPa)
#
#
# Indices 1 2 3 4 5 6 
#
# 1 0.011814 -0.004032 -0.000783 0.000000 0.004075 0.000000
# 2 -0.004032 0.014204 -0.000332 0.000000 -0.001959 0.000000
# 3 -0.000783 -0.000332 0.010837 0.000000 0.002223 0.000000
# 4 0.000000 0.000000 0.000000 0.038587 0.000000 -0.004795
# 5 0.004075 -0.001959 0.002223 0.000000 0.034219 0.000000
# 6 0.000000 0.000000 0.000000 -0.004795 0.000000 0.032731
#
#
# Mechanical properties :
#
#
# Convention : Reuss Voigt Hill
#
# Bulk Modulus (GPa) = 37.64975 39.17411 38.41193
# Shear Modulus (GPa) = 30.95226 33.04878 32.00052
#
# Velocity S-wave (km/s) = 3.79096 3.91725 3.85462
# Velocity P-wave (km/s) = 6.05335 6.21681 6.13562
#
# Compressibility (1/GPa) = 0.02656060
#
# Stress axis : x y z
#
# Youngs Moduli (GPa) = 84.64494 70.40299 92.27701
#
# Poissons Ratio (x) = 0.28388 0.07221
# Poissons Ratio (y) = 0.34130 0.03068
# Poissons Ratio (z) = 0.06624 0.02340
#
# Static dielectric constant tensor:
#      x y z
#    x 4.347110 0.000000 0.109450 
#    y 0.000000 3.997750 0.000000 
#    z 0.109450 0.000000 4.032770 
# 
# 
# High freq. dielectric constant tensor:
#      x y z
#    x 1.842010 0.000000 0.003180 
#    y 0.000000 1.824840 0.000000 
#    z 0.003180 0.000000 1.854020 
# 
# From -- ./inp_files/297827.got.cif
#   From: 2010.06.25/outbox.cif.g09.slc.cpg/sg15_149_cif.got.tgz:297827.got - 2010.06.28 07:06:18.
