data_PCOD8141568
_publ_section_title
;
Structure prediction by ZEFSAII (Michael W. Deem and Ramdas Pophale) SiO2 
 PCOD8141568
Probable space group: C 2/C
;
_chemical_formula_sum "Si O2"
_cell_formula_units_Z 48
_cell_length_a 17.344802
_cell_length_b 14.316095
_cell_length_c 17.969156
_cell_angle_alpha 90.000000
_cell_angle_beta 148.164481
_cell_angle_gamma 90.000000
_cell_volume 2353.584009
_symmetry_space_group_name_H-M "C 2/C"
_symmetry_group_IT_number 15
_symmetry_cell_setting 'monoclinic'
loop_
_space_group_symop_operation_xyz
x,y,z
-x,y,1/2-z
-x,-y,-z
x,-y,1/2+z
1/2+x,1/2+y,z
1/2-x,1/2+y,1/2-z
1/2-x,1/2-y,-z
1/2+x,1/2-y,1/2+z
loop_
_atom_site_type_symbol
_atom_site_label
_atom_site_fract_x
_atom_site_fract_y
_atom_site_fract_z
Si Si1 0.510083 0.295397 0.842892
Si Si2 0.039441 0.002146 0.858969
Si Si3 0.245443 0.669537 0.842818
Si Si4 0.256380 0.223614 0.092393
Si Si5 0.344247 0.986441 0.658940
Si Si6 0.556873 0.328868 0.138150
O O1 0.500000 0.255690 0.750000
O O2 0.458660 0.403075 0.800326
O O3 0.390788 0.235385 0.789792
O O4 0.669542 0.291629 0.013439
O O5 0.000000 0.053406 0.750000
O O6 0.990289 0.063668 0.888421
O O7 0.214497 0.991361 0.995069
O O8 0.185026 0.562730 0.799414
O O9 0.359579 0.677548 0.870066
O O10 0.091681 0.230624 0.988280
O O11 0.250000 0.250000 0.000000
O O12 0.330149 0.122384 0.170384
O O13 0.348072 0.298614 0.213061
O O14 0.500000 0.007163 0.750000
#
# Coordination Sequence:
#
# PCOD8141568 Si02
#       6
#     8   8   8   8   8   8
#     4  10  21  39  59  80 109 153 198 233 276 340
#     4   9  20  37  59  81 108 148 192 233 276 339
#     4  11  23  37  58  86 118 152 187 238 293 345
#     4  11  22  39  63  87 115 153 198 241 285 343
#     4  10  21  37  59  84 113 149 192 238 287 340
#     4  11  22  37  58  87 119 149 187 238 297 345
#
# _framework density 20.394428000000001
#
# number of rings (size 3 to 8) (size 9 to 14) (size 15 to 20)
#    0.000    1.667    0.000    5.500    0.000   10.000 
#    0.000    0.000    0.000    8.000    0.000    0.000 
#    0.000    0.000    0.000    0.000    0.000    0.000 
#
# Total GULP energy -297380.913859 kJ/mol
# GULP energy per Si atom -12390.871411 kJ/mol
# Density = 2.034801 g / cm^3
# Si number density = 20.394428 Si / 1000 Ang^3
#
#
#
# Elastic Constant Matrix: (Units=GPa)
#
#
# Indices 1 2 3 4 5 6 
#
# 1 113.5750 37.7489 36.7686 0.0003 23.4268 0.0003
# 2 37.7489 91.0130 40.4147 0.0007 13.0547 0.0011
# 3 36.7686 40.4147 89.2951 0.0006 12.1030 0.0010
# 4 0.0003 0.0007 0.0006 33.3701 0.0008 4.8373
# 5 23.4268 13.0547 12.1030 0.0008 35.1184 0.0013
# 6 0.0003 0.0011 0.0010 4.8373 0.0013 14.0668
#
#
#
# Elastic Compliance Matrix: (Units=1/GPa)
#
#
# Indices 1 2 3 4 5 6 
#
# 1 0.011871 -0.002831 -0.002807 0.000000 -0.005899 0.000001
# 2 -0.002831 0.014758 -0.005273 0.000000 -0.001781 0.000000
# 3 -0.002807 -0.005273 0.014918 0.000000 -0.001309 0.000000
# 4 0.000000 0.000000 0.000000 0.031539 0.000000 -0.010846
# 5 -0.005899 -0.001781 -0.001309 0.000000 0.033523 -0.000003
# 6 0.000001 0.000000 0.000000 -0.010846 -0.000003 0.074819
#
#
# Mechanical properties :
#
#
# Convention : Reuss Voigt Hill
#
# Bulk Modulus (GPa) = 50.69334 58.19415 54.44375
# Shear Modulus (GPa) = 23.82922 28.44114 26.13518
#
# Velocity S-wave (km/s) = 3.42192 3.73842 3.58367
# Velocity P-wave (km/s) = 6.36578 6.87246 6.62397
#
# Compressibility (1/GPa) = 0.01972646
#
# Stress axis : x y z
#
# Youngs Moduli (GPa) = 84.23637 67.75837 67.03093
#
# Poissons Ratio (x) = 0.19183 0.18818
# Poissons Ratio (y) = 0.23848 0.35342
# Poissons Ratio (z) = 0.23648 0.35726
#
# Static dielectric constant tensor:
#      x y z
#    x 3.598120 0.000000 0.209600 
#    y 0.000000 3.842500 0.000000 
#    z 0.209600 0.000000 3.931690 
# 
# 
# High freq. dielectric constant tensor:
#      x y z
#    x 1.779630 0.000000 0.012930 
#    y 0.000000 1.804330 0.000000 
#    z 0.012930 0.000000 1.803780 
# 
# From -- ./inp_files/211440.got.cif
#   From: 2010.06.25/outbox.cif.g09.slc.cpg/sg15_106_cif.got.tgz:211440.got - 2010.06.28 07:06:18.
