data_PCOD8141641
_publ_section_title
;
Structure prediction by ZEFSAII (Michael W. Deem and Ramdas Pophale) SiO2 
 PCOD8141641
Probable space group: C 2/C
;
_chemical_formula_sum "Si O2"
_cell_formula_units_Z 60
_cell_length_a 12.588692
_cell_length_b 17.593963
_cell_length_c 27.200974
_cell_angle_alpha 90.000000
_cell_angle_beta 151.648603
_cell_angle_gamma 90.000000
_cell_volume 2860.952508
_symmetry_space_group_name_H-M "C 2/C"
_symmetry_group_IT_number 15
_symmetry_cell_setting 'monoclinic'
loop_
_space_group_symop_operation_xyz
x,y,z
-x,y,1/2-z
-x,-y,-z
x,-y,1/2+z
1/2+x,1/2+y,z
1/2-x,1/2+y,1/2-z
1/2-x,1/2-y,-z
1/2+x,1/2-y,1/2+z
loop_
_atom_site_type_symbol
_atom_site_label
_atom_site_fract_x
_atom_site_fract_y
_atom_site_fract_z
Si Si1 0.641810 0.432623 0.036177
Si Si2 0.908064 0.012426 0.355898
Si Si3 0.438673 0.754006 0.334242
Si Si4 0.000000 0.485864 0.250000
Si Si5 0.022143 0.836493 0.127051
Si Si6 0.354516 0.606913 0.238479
Si Si7 0.431894 0.724126 0.010011
Si Si8 0.545726 0.190746 0.466394
O O1 0.518307 0.353428 0.999519
O O2 0.888129 0.434230 0.161085
O O3 0.500000 0.500000 0.000000
O O4 0.624031 0.445585 0.968995
O O5 0.686337 0.036118 0.297267
O O6 0.874354 0.037787 0.285544
O O7 0.939265 0.921835 0.376164
O O8 0.440750 0.684040 0.297711
O O9 0.405988 0.728110 0.377107
O O10 0.678867 0.792589 0.425417
O O11 0.243068 0.814224 0.246642
O O12 0.984179 0.773947 0.069494
O O13 0.802440 0.835675 0.071957
O O14 0.500000 0.585505 0.250000
O O15 0.097995 0.623805 0.117960
O O16 0.464006 0.798506 0.989388
#
# Coordination Sequence:
#
# PCOD8141641 Si02
#       8
#     8   8   8   4   8   8   8   8
#     4  10  21  37  60  98 126 156 206 269 341 385
#     4  11  23  42  64  96 134 169 219 273 339 396
#     4  10  22  40  65  92 121 167 227 269 319 380
#     4  10  22  38  64  98 126 166 206 272 338 400
#     4  10  23  42  62  95 132 171 211 273 333 406
#     4  11  22  44  65  92 127 178 223 268 322 402
#     4  11  20  39  66  90 123 164 221 275 312 398
#     4  10  22  40  66  92 127 170 217 266 334 397
#
# _framework density 20.972035999999999
#
# number of rings (size 3 to 8) (size 9 to 14) (size 15 to 20)
#    0.000    1.600    2.667    2.400    1.867    1.600 
#    9.600    0.667    0.000    0.000    0.000    0.000 
#    0.000    0.000    0.000    0.000    0.000    0.000 
#
# Total GULP energy -371715.326167 kJ/mol
# GULP energy per Si atom -12390.510872 kJ/mol
# Density = 2.092430 g / cm^3
# Si number density = 20.972036 Si / 1000 Ang^3
#
#
#
# Elastic Constant Matrix: (Units=GPa)
#
#
# Indices 1 2 3 4 5 6 
#
# 1 106.9869 16.1256 55.0017 0.0002 -6.6789 0.0003
# 2 16.1256 65.7250 23.5314 -0.0004 -0.1288 0.0002
# 3 55.0017 23.5314 123.7964 0.0061 -4.9592 -0.0009
# 4 0.0002 -0.0004 0.0061 25.1153 -0.0003 -9.4162
# 5 -6.6789 -0.1288 -4.9592 -0.0003 34.9592 0.0010
# 6 0.0003 0.0002 -0.0009 -9.4162 0.0010 29.0887
#
#
#
# Elastic Compliance Matrix: (Units=1/GPa)
#
#
# Indices 1 2 3 4 5 6 
#
# 1 0.012281 -0.001158 -0.005172 0.000001 0.001608 0.000000
# 2 -0.001158 0.016440 -0.002632 0.000001 -0.000534 0.000000
# 3 -0.005172 -0.002632 0.010898 -0.000003 0.000548 -0.000001
# 4 0.000001 0.000001 -0.000003 0.045316 0.000000 0.014669
# 5 0.001608 -0.000534 0.000548 0.000000 0.028988 -0.000001
# 6 0.000000 0.000000 -0.000001 0.014669 -0.000001 0.039126
#
#
# Mechanical properties :
#
#
# Convention : Reuss Voigt Hill
#
# Bulk Modulus (GPa) = 46.09295 53.98064 50.03680
# Shear Modulus (GPa) = 28.05775 31.28926 29.67351
#
# Velocity S-wave (km/s) = 3.66165 3.86677 3.76561
# Velocity P-wave (km/s) = 6.31688 6.76248 6.54347
#
# Compressibility (1/GPa) = 0.02169529
#
# Stress axis : x y z
#
# Youngs Moduli (GPa) = 81.42904 60.82609 91.76274
#
# Poissons Ratio (x) = 0.07046 0.47456
# Poissons Ratio (y) = 0.09432 0.24150
# Poissons Ratio (z) = 0.42112 0.16008
#
# Static dielectric constant tensor:
#      x y z
#    x 3.753310 0.000000 -0.290930 
#    y 0.000000 3.589240 -0.000010 
#    z -0.290930 -0.000010 4.365400 
# 
# 
# High freq. dielectric constant tensor:
#      x y z
#    x 1.806820 0.000000 -0.014290 
#    y 0.000000 1.806790 0.000000 
#    z -0.014290 0.000000 1.833900 
# 
# From -- ./inp_files/293569.got.cif
#   From: 2010.06.25/outbox.cif.g09.slc.cpg/sg15_147_cif.got.tgz:293569.got - 2010.06.28 07:06:18.
