data_PCOD8141808
_publ_section_title
;
Structure prediction by ZEFSAII (Michael W. Deem and Ramdas Pophale) SiO2 
 PCOD8141808
Probable space group: C 2/C
;
_chemical_formula_sum "Si O2"
_cell_formula_units_Z 48
_cell_length_a 9.766491
_cell_length_b 28.069264
_cell_length_c 15.571634
_cell_angle_alpha 90.000000
_cell_angle_beta 33.881829
_cell_angle_gamma 90.000000
_cell_volume 2379.767327
_symmetry_space_group_name_H-M "C 2/C"
_symmetry_group_IT_number 15
_symmetry_cell_setting 'monoclinic'
loop_
_space_group_symop_operation_xyz
x,y,z
-x,y,1/2-z
-x,-y,-z
x,-y,1/2+z
1/2+x,1/2+y,z
1/2-x,1/2+y,1/2-z
1/2-x,1/2-y,-z
1/2+x,1/2-y,1/2+z
loop_
_atom_site_type_symbol
_atom_site_label
_atom_site_fract_x
_atom_site_fract_y
_atom_site_fract_z
Si Si1 0.776733 0.623230 0.611380
Si Si2 0.219526 0.627644 0.690828
Si Si3 0.037841 0.703436 0.375222
Si Si4 0.239962 0.975346 0.409168
Si Si5 0.385562 0.706090 0.042891
Si Si6 0.260292 0.983595 0.076910
O O1 0.500000 0.645451 0.750000
O O2 0.851068 0.617572 0.672951
O O3 0.777085 0.573648 0.557972
O O4 0.979777 0.655978 0.459694
O O5 0.275276 0.578406 0.614603
O O6 0.459386 0.659758 0.561056
O O7 0.000000 0.652288 0.750000
O O8 0.298037 0.702487 0.188271
O O9 0.839498 0.709601 0.404494
O O10 0.044432 0.746349 0.441307
O O11 0.500000 0.000078 0.250000
O O12 0.244384 0.980880 0.506895
O O13 0.000000 0.000000 0.500000
O O14 0.000000 0.996459 0.250000
O O15 0.500000 0.000000 0.000000
#
# Coordination Sequence:
#
# PCOD8141808 Si02
#       6
#     8   8   8   8   8   8
#     4  11  21  40  64  90 121 168 216 261 311 376
#     4  11  23  42  62  89 132 173 207 263 334 384
#     4  10  21  37  65  95 122 156 213 266 307 371
#     4  11  23  40  61  90 126 170 214 267 323 380
#     4  10  21  38  62  96 125 160 204 263 320 371
#     4  11  23  40  61  89 122 167 214 263 316 378
#
# _framework density 20.170038000000002
#
# number of rings (size 3 to 8) (size 9 to 14) (size 15 to 20)
#    0.000    1.333    1.667    6.000    2.333    2.667 
#    0.000    4.167    0.000    0.000    0.000    0.000 
#    0.000    0.000    0.000    0.000    0.000    0.000 
#
# Total GULP energy -297321.161269 kJ/mol
# GULP energy per Si atom -12388.381720 kJ/mol
# Density = 2.012413 g / cm^3
# Si number density = 20.170038 Si / 1000 Ang^3
#
#
#
# Elastic Constant Matrix: (Units=GPa)
#
#
# Indices 1 2 3 4 5 6 
#
# 1 99.6832 33.1340 39.3363 0.0000 8.1338 0.0000
# 2 33.1340 98.8104 73.9870 0.0000 21.6116 0.0000
# 3 39.3363 73.9870 140.9029 0.0000 13.5081 0.0000
# 4 0.0000 0.0000 0.0000 32.3899 0.0000 9.5861
# 5 8.1338 21.6116 13.5081 0.0000 48.3739 0.0000
# 6 0.0000 0.0000 0.0000 9.5861 0.0000 31.0639
#
#
#
# Elastic Compliance Matrix: (Units=1/GPa)
#
#
# Indices 1 2 3 4 5 6 
#
# 1 0.011619 -0.002332 -0.001985 0.000000 -0.000358 0.000000
# 2 -0.002332 0.018491 -0.008533 0.000000 -0.005486 0.000000
# 3 -0.001985 -0.008533 0.012057 0.000000 0.000779 0.000000
# 4 0.000000 0.000000 0.000000 0.033977 0.000000 -0.010485
# 5 -0.000358 -0.005486 0.000779 0.000000 0.022966 0.000000
# 6 0.000000 0.000000 0.000000 -0.010485 0.000000 0.035427
#
#
# Mechanical properties :
#
#
# Convention : Reuss Voigt Hill
#
# Bulk Modulus (GPa) = 60.72133 70.25678 65.48905
# Shear Modulus (GPa) = 30.17011 35.22815 32.69913
#
# Velocity S-wave (km/s) = 3.87174 4.18372 4.03075
# Velocity P-wave (km/s) = 7.08218 7.63190 7.36217
#
# Compressibility (1/GPa) = 0.01646868
#
# Stress axis : x y z
#
# Youngs Moduli (GPa) = 86.06318 54.07919 82.93848
#
# Poissons Ratio (x) = 0.12609 0.16465
# Poissons Ratio (y) = 0.20066 0.70770
# Poissons Ratio (z) = 0.17085 0.46145
#
# Static dielectric constant tensor:
#      x y z
#    x 4.050410 0.000000 0.139700 
#    y 0.000000 3.677950 0.000000 
#    z 0.139700 0.000000 3.798230 
# 
# 
# High freq. dielectric constant tensor:
#      x y z
#    x 1.782380 0.000000 0.007120 
#    y 0.000000 1.785310 0.000000 
#    z 0.007120 0.000000 1.797260 
# 
# From -- ./inp_files/138940.got.cif
#   From: 2010.06.25/outbox.cif.g09.slc.cpg/sg15_70_cif.got.tgz:138940.got - 2010.06.28 07:06:18.
