data_PCOD8141112
_publ_section_title
;
Structure prediction by ZEFSAII (Michael W. Deem and Ramdas Pophale) SiO2 
 PCOD8141112
Probable space group: C 2/C
;
_chemical_formula_sum "Si O2"
_cell_formula_units_Z 56
_cell_length_a 9.165364
_cell_length_b 22.015002
_cell_length_c 16.938657
_cell_angle_alpha 90.000000
_cell_angle_beta 124.901576
_cell_angle_gamma 90.000000
_cell_volume 2803.066295
_symmetry_space_group_name_H-M "C 2/C"
_symmetry_group_IT_number 15
_symmetry_cell_setting 'monoclinic'
loop_
_space_group_symop_operation_xyz
x,y,z
-x,y,1/2-z
-x,-y,-z
x,-y,1/2+z
1/2+x,1/2+y,z
1/2-x,1/2+y,1/2-z
1/2-x,1/2-y,-z
1/2+x,1/2-y,1/2+z
loop_
_atom_site_type_symbol
_atom_site_label
_atom_site_fract_x
_atom_site_fract_y
_atom_site_fract_z
Si Si1 0.801528 0.685254 0.984114
Si Si2 0.315924 0.927708 0.722939
Si Si3 0.822799 0.371851 0.889311
Si Si4 0.000000 0.456171 0.250000
Si Si5 0.500000 0.291892 0.750000
Si Si6 0.832146 0.618834 0.564680
Si Si7 0.446975 0.358189 0.969658
Si Si8 0.554140 0.231303 0.614888
O O1 0.798461 0.689424 0.886381
O O2 0.750000 0.750000 0.000000
O O3 0.661884 0.638407 0.980886
O O4 0.001634 0.668153 0.072658
O O5 0.500000 0.896225 0.750000
O O6 0.294119 0.919104 0.809839
O O7 0.152521 0.896743 0.628237
O O8 0.327214 0.000269 0.709590
O O9 0.646945 0.330127 0.842520
O O10 0.838187 0.408401 0.977188
O O11 0.027380 0.415132 0.335893
O O12 0.610575 0.251622 0.720370
O O13 0.637981 0.611392 0.543391
O O14 0.877651 0.690427 0.570300
O O15 0.478800 0.289647 0.950160
#
# Coordination Sequence:
#
# PCOD8141112 Si02
#       8
#     8   8   8   4   4   8   8   8
#     4   9  20  32  53  83 123 163 193 248 303 383
#     4  10  21  40  62  93 118 158 216 274 307 376
#     4  11  20  37  63  86 122 157 215 261 316 370
#     4  10  25  44  60  88 130 169 216 272 328 362
#     4  12  21  32  60  96 126 163 210 262 306 382
#     4  11  23  39  63  92 128 171 208 263 323 390
#     4  11  19  38  64  92 127 164 209 262 321 381
#     4  10  21  35  57  91 131 162 204 254 316 382
#
# _framework density 19.978121999999999
#
# number of rings (size 3 to 8) (size 9 to 14) (size 15 to 20)
#    0.429    1.143    4.286    0.857    4.000    1.143 
#    0.000    0.000    3.143    3.429    0.000    0.000 
#    0.000    0.000    0.000    0.000    0.000    0.000 
#
# Total GULP energy -346876.592132 kJ/mol
# GULP energy per Si atom -12388.449719 kJ/mol
# Density = 1.993265 g / cm^3
# Si number density = 19.978122 Si / 1000 Ang^3
#
#
#
# Elastic Constant Matrix: (Units=GPa)
#
#
# Indices 1 2 3 4 5 6 
#
# 1 131.5788 32.6065 57.4389 0.0000 -14.6243 0.0000
# 2 32.6065 70.6460 40.4257 0.0000 -1.5445 0.0000
# 3 57.4389 40.4257 91.8830 0.0000 -23.9667 0.0000
# 4 0.0000 0.0000 0.0000 13.3278 0.0000 -1.7852
# 5 -14.6243 -1.5445 -23.9667 0.0000 48.7851 0.0000
# 6 0.0000 0.0000 0.0000 -1.7852 0.0000 15.4754
#
#
#
# Elastic Compliance Matrix: (Units=1/GPa)
#
#
# Indices 1 2 3 4 5 6 
#
# 1 0.010567 -0.001505 -0.005884 0.000000 0.000230 0.000000
# 2 -0.001505 0.019839 -0.008879 0.000000 -0.004185 0.000000
# 3 -0.005884 -0.008879 0.020571 0.000000 0.008061 0.000000
# 4 0.000000 0.000000 0.000000 0.076209 0.000000 0.008791
# 5 0.000230 -0.004185 0.008061 0.000000 0.024395 0.000000
# 6 0.000000 0.000000 0.000000 0.008791 0.000000 0.065633
#
#
# Mechanical properties :
#
#
# Convention : Reuss Voigt Hill
#
# Bulk Modulus (GPa) = 54.22863 61.67221 57.95042
# Shear Modulus (GPa) = 19.53915 26.42676 22.98295
#
# Velocity S-wave (km/s) = 3.13074 3.64096 3.39544
# Velocity P-wave (km/s) = 6.34599 6.97225 6.66648
#
# Compressibility (1/GPa) = 0.01844044
#
# Stress axis : x y z
#
# Youngs Moduli (GPa) = 94.63471 50.40460 48.61293
#
# Poissons Ratio (x) = 0.07588 0.28601
# Poissons Ratio (y) = 0.14246 0.43165
# Poissons Ratio (z) = 0.55678 0.44756
#
# Static dielectric constant tensor:
#      x y z
#    x 4.218480 0.000000 -0.279060 
#    y 0.000000 3.308680 0.000000 
#    z -0.279060 0.000000 3.504550 
# 
# 
# High freq. dielectric constant tensor:
#      x y z
#    x 1.797510 0.000000 -0.017880 
#    y 0.000000 1.743060 0.000000 
#    z -0.017880 0.000000 1.761030 
# 
# From -- ./inp_files/193069.got.cif
#   From: 2010.06.25/outbox.cif.g09.slc.cpg/sg15_97_cif.got.tgz:193069.got - 2010.06.28 07:06:18.
