data_PCOD8141749
_publ_section_title
;
Structure prediction by ZEFSAII (Michael W. Deem and Ramdas Pophale) SiO2 
 PCOD8141749
Probable space group: C 2/C
;
_chemical_formula_sum "Si O2"
_cell_formula_units_Z 44
_cell_length_a 8.308079
_cell_length_b 15.940951
_cell_length_c 18.617596
_cell_angle_alpha 90.000000
_cell_angle_beta 119.377593
_cell_angle_gamma 90.000000
_cell_volume 2148.616246
_symmetry_space_group_name_H-M "C 2/C"
_symmetry_group_IT_number 15
_symmetry_cell_setting 'monoclinic'
loop_
_space_group_symop_operation_xyz
x,y,z
-x,y,1/2-z
-x,-y,-z
x,-y,1/2+z
1/2+x,1/2+y,z
1/2-x,1/2+y,1/2-z
1/2-x,1/2-y,-z
1/2+x,1/2-y,1/2+z
loop_
_atom_site_type_symbol
_atom_site_label
_atom_site_fract_x
_atom_site_fract_y
_atom_site_fract_z
Si Si1 0.081262 0.550023 0.121233
Si Si2 0.192123 0.570412 0.763349
Si Si3 0.063315 0.895452 0.061436
Si Si4 0.570337 0.236754 0.411320
Si Si5 0.234596 0.018300 0.476093
Si Si6 0.000000 0.820687 0.250000
O O1 0.145834 0.516962 0.212890
O O2 0.254255 0.547004 0.104169
O O3 0.001125 0.642770 0.106789
O O4 0.934528 0.483815 0.057140
O O5 0.302009 0.547550 0.859881
O O6 0.324762 0.626838 0.741910
O O7 0.000000 0.613502 0.750000
O O8 0.083183 0.797227 0.084996
O O9 0.108897 0.911982 0.988394
O O10 0.856110 0.926161 0.035392
O O11 0.750000 0.250000 0.500000
O O12 0.593262 0.265424 0.333505
#
# Coordination Sequence:
#
# PCOD8141749 Si02
#       6
#     8   8   8   8   8   4
#     4  11  22  37  64  94 121 162 216 256 317 382
#     4  11  22  40  68  88 123 169 217 258 310 386
#     4  10  21  41  62  89 125 167 210 262 317 376
#     4  11  23  40  64  93 130 167 204 266 332 371
#     4  10  21  37  63  92 120 164 215 254 303 390
#     4  10  26  44  66  92 132 170 212 268 324 378
#
# _framework density 20.478296
#
# number of rings (size 3 to 8) (size 9 to 14) (size 15 to 20)
#    0.000    1.455    3.636    2.182    3.818    0.727 
#    0.000    1.818   16.000    0.000    0.000    0.000 
#    0.000    0.000    0.000    0.000    0.000    0.000 
#
# Total GULP energy -272591.737066 kJ/mol
# GULP energy per Si atom -12390.533503 kJ/mol
# Density = 2.043169 g / cm^3
# Si number density = 20.478296 Si / 1000 Ang^3
#
#
#
# Elastic Constant Matrix: (Units=GPa)
#
#
# Indices 1 2 3 4 5 6 
#
# 1 139.0237 39.9399 36.7137 0.0000 -16.0633 0.0000
# 2 39.9399 99.4543 30.2691 0.0000 -8.1408 0.0000
# 3 36.7137 30.2691 110.8727 0.0000 -3.1814 0.0000
# 4 0.0000 0.0000 0.0000 30.6799 0.0000 3.1663
# 5 -16.0633 -8.1408 -3.1814 0.0000 28.9060 0.0000
# 6 0.0000 0.0000 0.0000 3.1663 0.0000 17.0853
#
#
#
# Elastic Compliance Matrix: (Units=1/GPa)
#
#
# Indices 1 2 3 4 5 6 
#
# 1 0.008976 -0.002625 -0.002141 0.000000 0.004013 0.000000
# 2 -0.002625 0.011959 -0.002348 0.000000 0.001651 0.000000
# 3 -0.002141 -0.002348 0.010349 0.000000 -0.000712 0.000000
# 4 0.000000 0.000000 0.000000 0.033230 0.000000 -0.006158
# 5 0.004013 0.001651 -0.000712 0.000000 0.037212 0.000000
# 6 0.000000 0.000000 0.000000 -0.006158 0.000000 0.059671
#
#
# Mechanical properties :
#
#
# Convention : Reuss Voigt Hill
#
# Bulk Modulus (GPa) = 58.62874 62.57737 60.60305
# Shear Modulus (GPa) = 27.57717 31.49610 29.53664
#
# Velocity S-wave (km/s) = 3.67366 3.92602 3.80193
# Velocity P-wave (km/s) = 6.83273 7.15372 6.99507
#
# Compressibility (1/GPa) = 0.01705648
#
# Stress axis : x y z
#
# Youngs Moduli (GPa) = 111.40745 83.62054 96.62910
#
# Poissons Ratio (x) = 0.21948 0.20684
# Poissons Ratio (y) = 0.29241 0.22692
# Poissons Ratio (z) = 0.23847 0.19637
#
# Static dielectric constant tensor:
#      x y z
#    x 3.911550 0.000000 -0.088330 
#    y 0.000000 3.499660 0.000000 
#    z -0.088330 0.000000 3.958380 
# 
# 
# High freq. dielectric constant tensor:
#      x y z
#    x 1.807540 0.000000 -0.009120 
#    y 0.000000 1.773980 0.000000 
#    z -0.009120 0.000000 1.812820 
# 
# From -- ./inp_files/188761.got.cif
#   From: 2010.06.25/outbox.cif.g09.slc.cpg/sg15_95_cif.got.tgz:188761.got - 2010.06.28 07:06:18.
