data_PCOD8141618
_publ_section_title
;
Structure prediction by ZEFSAII (Michael W. Deem and Ramdas Pophale) SiO2 
 PCOD8141618
Probable space group: C 2/C
;
_chemical_formula_sum "Si O2"
_cell_formula_units_Z 44
_cell_length_a 15.548004
_cell_length_b 16.820800
_cell_length_c 7.766774
_cell_angle_alpha 90.000000
_cell_angle_beta 104.372936
_cell_angle_gamma 90.000000
_cell_volume 1967.666507
_symmetry_space_group_name_H-M "C 2/C"
_symmetry_group_IT_number 15
_symmetry_cell_setting 'monoclinic'
loop_
_space_group_symop_operation_xyz
x,y,z
-x,y,1/2-z
-x,-y,-z
x,-y,1/2+z
1/2+x,1/2+y,z
1/2-x,1/2+y,1/2-z
1/2-x,1/2-y,-z
1/2+x,1/2-y,1/2+z
loop_
_atom_site_type_symbol
_atom_site_label
_atom_site_fract_x
_atom_site_fract_y
_atom_site_fract_z
Si Si1 0.552051 0.361025 0.448428
Si Si2 0.814201 0.962815 0.177954
Si Si3 0.000000 0.457871 0.750000
Si Si4 0.879588 0.576176 0.892852
Si Si5 0.379783 0.610315 0.054049
Si Si6 0.403180 0.760645 0.266018
O O1 0.500000 0.337358 0.250000
O O2 0.629427 0.423089 0.446905
O O3 0.484622 0.397157 0.559087
O O4 0.595338 0.282220 0.547956
O O5 0.710847 0.960737 0.074552
O O6 0.822731 0.916320 0.361526
O O7 0.852095 0.053356 0.200488
O O8 0.077377 0.511809 0.710272
O O9 0.950437 0.404287 0.581247
O O10 0.853475 0.655955 0.772900
O O11 0.358057 0.701332 0.102123
O O12 0.500000 0.784815 0.250000
#
# Coordination Sequence:
#
# PCOD8141618 Si02
#       6
#     8   8   4   8   8   8
#     4   9  20  36  59  91 127 168 200 243 307 369
#     4  11  21  37  61  94 129 163 206 250 302 369
#     4  10  24  44  64  90 114 168 210 258 310 364
#     4  11  23  42  66  90 122 160 211 260 307 364
#     4  10  21  37  60  89 130 170 198 245 305 373
#     4  10  21  39  61  88 122 167 209 249 306 363
#
# _framework density 22.361512000000001
#
# number of rings (size 3 to 8) (size 9 to 14) (size 15 to 20)
#    0.000    1.818    0.909    2.727    1.273    6.545 
#    0.000    0.000    0.000    0.000    0.000    0.000 
#    0.000    0.000    0.000    0.000    0.000    0.000 
#
# Total GULP energy -272696.662271 kJ/mol
# GULP energy per Si atom -12395.302830 kJ/mol
# Density = 2.231062 g / cm^3
# Si number density = 22.361512 Si / 1000 Ang^3
#
#
#
# Elastic Constant Matrix: (Units=GPa)
#
#
# Indices 1 2 3 4 5 6 
#
# 1 110.3120 47.8810 24.4909 0.0000 1.7371 0.0000
# 2 47.8810 118.9748 28.1231 0.0000 -4.4923 0.0000
# 3 24.4909 28.1231 94.3619 0.0000 -14.2195 0.0000
# 4 0.0000 0.0000 0.0000 11.3240 0.0000 -6.2708
# 5 1.7371 -4.4923 -14.2195 0.0000 23.0895 0.0000
# 6 0.0000 0.0000 0.0000 -6.2708 0.0000 23.7316
#
#
#
# Elastic Compliance Matrix: (Units=1/GPa)
#
#
# Indices 1 2 3 4 5 6 
#
# 1 0.011414 -0.004195 -0.002166 0.000000 -0.003009 0.000000
# 2 -0.004195 0.010584 -0.001882 0.000000 0.001216 0.000000
# 3 -0.002166 -0.001882 0.012886 0.000000 0.007732 0.000000
# 4 0.000000 0.000000 0.000000 0.103445 0.000000 0.027334
# 5 -0.003009 0.001216 0.007732 0.000000 0.048534 0.000000
# 6 0.000000 0.000000 0.000000 0.027334 0.000000 0.049361
#
#
# Mechanical properties :
#
#
# Convention : Reuss Voigt Hill
#
# Bulk Modulus (GPa) = 54.35424 58.29321 56.32373
# Shear Modulus (GPa) = 19.31667 26.50593 22.91130
#
# Velocity S-wave (km/s) = 2.94230 3.44661 3.20439
# Velocity P-wave (km/s) = 5.99188 6.47796 6.23965
#
# Compressibility (1/GPa) = 0.01839783
#
# Stress axis : x y z
#
# Youngs Moduli (GPa) = 87.60892 94.47835 77.60509
#
# Poissons Ratio (x) = 0.39637 0.16805
# Poissons Ratio (y) = 0.36755 0.14609
# Poissons Ratio (z) = 0.18972 0.17785
#
# Static dielectric constant tensor:
#      x y z
#    x 3.914800 0.000000 -0.226860 
#    y 0.000000 3.841850 0.000000 
#    z -0.226860 0.000000 4.102400 
# 
# 
# High freq. dielectric constant tensor:
#      x y z
#    x 1.873990 0.000000 -0.014860 
#    y 0.000000 1.865920 0.000000 
#    z -0.014860 0.000000 1.886030 
# 
# From -- ./inp_files/39324.got.cif
#   From: 2010.06.25/outbox.cif.g09.slc.cpg/sg15_20_cif.got.tgz:39324.got - 2010.06.28 07:06:18.
