data_PCOD8141485
_publ_section_title
;
Structure prediction by ZEFSAII (Michael W. Deem and Ramdas Pophale) SiO2 
 PCOD8141485
Probable space group: C 2/C
;
_chemical_formula_sum "Si O2"
_cell_formula_units_Z 52
_cell_length_a 23.435399
_cell_length_b 22.861225
_cell_length_c 9.126640
_cell_angle_alpha 90.000000
_cell_angle_beta 32.238633
_cell_angle_gamma 90.000000
_cell_volume 2608.397765
_symmetry_space_group_name_H-M "C 2/C"
_symmetry_group_IT_number 15
_symmetry_cell_setting 'monoclinic'
loop_
_space_group_symop_operation_xyz
x,y,z
-x,y,1/2-z
-x,-y,-z
x,-y,1/2+z
1/2+x,1/2+y,z
1/2-x,1/2+y,1/2-z
1/2-x,1/2-y,-z
1/2+x,1/2-y,1/2+z
loop_
_atom_site_type_symbol
_atom_site_label
_atom_site_fract_x
_atom_site_fract_y
_atom_site_fract_z
Si Si1 0.150000 0.281247 0.287250
Si Si2 0.813819 0.862635 0.464222
Si Si3 0.863479 0.026964 0.701272
Si Si4 0.392134 0.567597 0.344897
Si Si5 0.000000 0.190209 0.750000
Si Si6 0.889015 0.314496 0.427695
Si Si7 0.817396 0.814752 0.131509
O O1 0.061570 0.232592 0.506336
O O2 0.108710 0.327021 0.253410
O O3 0.193318 0.311103 0.343574
O O4 0.250000 0.250000 0.000000
O O5 0.805077 0.931238 0.445530
O O6 0.920276 0.850113 0.328322
O O7 0.816771 0.827547 0.304929
O O8 0.710151 0.846401 0.781959
O O9 0.823120 0.034337 0.622549
O O10 0.984051 0.051310 0.425749
O O11 0.848760 0.959593 0.785325
O O12 0.376849 0.636819 0.399837
O O13 0.881280 0.245029 0.471123
O O14 0.000000 0.339016 0.250000
#
# Coordination Sequence:
#
# PCOD8141485 Si02
#       7
#     8   8   8   8   4   8   8
#     4  10  22  36  52  83 111 149 196 228 281 340
#     4  11  23  36  57  84 112 156 187 236 288 337
#     4   9  20  34  54  83 110 146 193 225 292 335
#     4   9  19  35  54  80 113 148 182 238 279 345
#     4  12  22  36  56  80 122 148 194 234 278 348
#     4  11  23  37  56  82 115 154 194 231 279 341
#     4  10  21  37  55  81 115 150 188 227 289 333
#
# _framework density 19.93561
#
# number of rings (size 3 to 8) (size 9 to 14) (size 15 to 20)
#    0.000    1.846    3.077    1.385   10.769    3.692 
#    0.000    0.000    0.000    0.000    2.000    3.231 
#    0.000    0.000    0.000    0.000    0.000    0.000 
#
# Total GULP energy -322091.936897 kJ/mol
# GULP energy per Si atom -12388.151419 kJ/mol
# Density = 1.989024 g / cm^3
# Si number density = 19.935610 Si / 1000 Ang^3
#
#
#
# Elastic Constant Matrix: (Units=GPa)
#
#
# Indices 1 2 3 4 5 6 
#
# 1 111.9247 -12.2608 12.2229 0.0000 -0.9079 0.0000
# 2 -12.2608 47.3380 13.4273 0.0000 3.4819 0.0000
# 3 12.2229 13.4273 63.4423 -0.0001 -2.3391 0.0001
# 4 0.0000 0.0000 -0.0001 15.6632 0.0000 8.8340
# 5 -0.9079 3.4819 -2.3391 0.0000 28.1274 0.0000
# 6 0.0000 0.0000 0.0001 8.8340 0.0000 22.6846
#
#
#
# Elastic Compliance Matrix: (Units=1/GPa)
#
#
# Indices 1 2 3 4 5 6 
#
# 1 0.009561 0.003217 -0.002534 0.000000 -0.000300 0.000000
# 2 0.003217 0.023845 -0.005789 0.000000 -0.003329 0.000000
# 3 -0.002534 -0.005789 0.017553 0.000000 0.002095 0.000000
# 4 0.000000 0.000000 0.000000 0.081813 0.000000 -0.031860
# 5 -0.000300 -0.003329 0.002095 0.000000 0.036129 0.000000
# 6 0.000000 0.000000 0.000000 -0.031860 0.000000 0.056490
#
#
# Mechanical properties :
#
#
# Convention : Reuss Voigt Hill
#
# Bulk Modulus (GPa) = 24.54153 27.72042 26.13097
# Shear Modulus (GPa) = 20.06533 27.24941 23.65737
#
# Velocity S-wave (km/s) = 3.17599 3.70113 3.44857
# Velocity P-wave (km/s) = 5.07803 5.67448 5.38452
#
# Compressibility (1/GPa) = 0.04074725
#
# Stress axis : x y z
#
# Youngs Moduli (GPa) = 104.58809 41.93752 56.97006
#
# Poissons Ratio (x) = -0.13493 0.14437
# Poissons Ratio (y) = -0.33649 0.32982
# Poissons Ratio (z) = 0.26504 0.24279
#
# Static dielectric constant tensor:
#      x y z
#    x 4.856590 0.000000 0.445980 
#    y 0.000000 3.486200 0.000000 
#    z 0.445980 0.000000 3.585350 
# 
# 
# High freq. dielectric constant tensor:
#      x y z
#    x 1.782800 0.000000 0.031310 
#    y 0.000000 1.747780 0.000000 
#    z 0.031310 0.000000 1.766770 
# 
# From -- ./inp_files/33503.got.cif
#   From: 2010.06.25/outbox.cif.g09.slc.cpg/sg15_17_cif.got.tgz:33503.got - 2010.06.28 07:06:18.
