data_PCOD8141214
_publ_section_title
;
Structure prediction by ZEFSAII (Michael W. Deem and Ramdas Pophale) SiO2 
 PCOD8141214
Probable space group: C 2/C
;
_chemical_formula_sum "Si O2"
_cell_formula_units_Z 64
_cell_length_a 15.467355
_cell_length_b 18.377183
_cell_length_c 12.967196
_cell_angle_alpha 90.000000
_cell_angle_beta 83.054426
_cell_angle_gamma 90.000000
_cell_volume 3658.830018
_symmetry_space_group_name_H-M "C 2/C"
_symmetry_group_IT_number 15
_symmetry_cell_setting 'monoclinic'
loop_
_space_group_symop_operation_xyz
x,y,z
-x,y,1/2-z
-x,-y,-z
x,-y,1/2+z
1/2+x,1/2+y,z
1/2-x,1/2+y,1/2-z
1/2-x,1/2-y,-z
1/2+x,1/2-y,1/2+z
loop_
_atom_site_type_symbol
_atom_site_label
_atom_site_fract_x
_atom_site_fract_y
_atom_site_fract_z
Si Si1 0.267179 0.887134 0.201103
Si Si2 0.402774 0.385492 0.797343
Si Si3 0.404130 0.486001 0.974180
Si Si4 0.387433 0.729086 0.996570
Si Si5 0.589146 0.770746 0.280763
Si Si6 0.786557 0.363115 0.967590
Si Si7 0.776477 0.024206 0.170361
Si Si8 0.081936 0.120464 0.667755
O O1 0.331731 0.827114 0.240089
O O2 0.277301 0.962372 0.261689
O O3 0.167400 0.856090 0.221744
O O4 0.294540 0.900181 0.078594
O O5 0.500000 0.407137 0.750000
O O6 0.393342 0.408684 0.918373
O O7 0.385665 0.299594 0.790760
O O8 0.333764 0.428709 0.739178
O O9 0.382940 0.548956 0.895061
O O10 0.500000 0.500000 0.000000
O O11 0.338145 0.485705 0.078178
O O12 0.432480 0.744692 0.099267
O O13 0.303864 0.679451 0.031812
O O14 0.363696 0.804616 0.943250
O O15 0.447844 0.683112 0.909112
O O16 0.500000 0.806211 0.250000
O O17 0.793245 0.424138 0.878021
O O18 0.000000 0.101290 0.750000
#
# Coordination Sequence:
#
# PCOD8141214 Si02
#       8
#     8   8   8   8   8   8   8   8
#     4  10  21  36  53  80 108 144 183 218 272 325
#     4  11  20  31  49  80 105 138 183 223 266 327
#     4  12  21  30  46  77 116 147 171 207 276 346
#     4   9  17  33  55  76 100 136 183 220 264 317
#     4  10  21  37  58  77 104 143 191 233 265 319
#     4   9  17  32  55  78  97 134 186 225 260 317
#     4  12  18  32  52  76 107 138 175 225 270 323
#     4  11  20  33  50  80 116 147 170 215 272 333
#
# _framework density 17.491928999999999
#
# number of rings (size 3 to 8) (size 9 to 14) (size 15 to 20)
#    0.000    1.500    6.250    1.875    1.750    0.000 
#    0.000    0.625    0.000    3.750    0.000    0.000 
#    0.000    0.000    0.000    0.000    0.000    0.000 
#
# Total GULP energy -396690.521650 kJ/mol
# GULP energy per Si atom -12396.578802 kJ/mol
# Density = 1.745212 g / cm^3
# Si number density = 17.491929 Si / 1000 Ang^3
#
#
#
# Elastic Constant Matrix: (Units=GPa)
#
#
# Indices 1 2 3 4 5 6 
#
# 1 61.0541 39.8142 25.3690 0.0000 17.9147 0.0000
# 2 39.8142 104.9259 43.0508 0.0000 12.2014 0.0000
# 3 25.3690 43.0508 65.2567 0.0000 16.6522 0.0000
# 4 0.0000 0.0000 0.0000 35.9302 0.0000 4.8350
# 5 17.9147 12.2014 16.6522 0.0000 24.5099 0.0000
# 6 0.0000 0.0000 0.0000 4.8350 0.0000 22.2282
#
#
#
# Elastic Compliance Matrix: (Units=1/GPa)
#
#
# Indices 1 2 3 4 5 6 
#
# 1 0.026196 -0.007673 -0.001465 0.000000 -0.014333 0.000000
# 2 -0.007673 0.015327 -0.008000 0.000000 0.003413 0.000000
# 3 -0.001465 -0.008000 0.024052 0.000000 -0.011288 0.000000
# 4 0.000000 0.000000 0.000000 0.028671 0.000000 -0.006236
# 5 -0.014333 0.003413 -0.011288 0.000000 0.057245 0.000000
# 6 0.000000 0.000000 0.000000 -0.006236 0.000000 0.046344
#
#
# Mechanical properties :
#
#
# Convention : Reuss Voigt Hill
#
# Bulk Modulus (GPa) = 31.94818 49.74498 40.84658
# Shear Modulus (GPa) = 20.61479 24.73386 22.67432
#
# Velocity S-wave (km/s) = 3.43670 3.76442 3.60429
# Velocity P-wave (km/s) = 5.83541 6.88440 6.38150
#
# Compressibility (1/GPa) = 0.03130068
#
# Stress axis : x y z
#
# Youngs Moduli (GPa) = 38.17308 65.24303 41.57731
#
# Poissons Ratio (x) = 0.50058 0.06091
# Poissons Ratio (y) = 0.29288 0.33261
# Poissons Ratio (z) = 0.05592 0.52193
#
# Static dielectric constant tensor:
#      x y z
#    x 3.038000 0.000000 0.274720 
#    y 0.000000 3.432930 0.000000 
#    z 0.274720 0.000000 3.407550 
# 
# 
# High freq. dielectric constant tensor:
#      x y z
#    x 1.638820 0.000000 0.029020 
#    y 0.000000 1.671700 0.000000 
#    z 0.029020 0.000000 1.676320 
# 
# From -- ./inp_files/106398.got.cif
#   From: 2010.06.25/outbox.cif.g09.slc.cpg/sg15_54_cif.got.tgz:106398.got - 2010.06.28 07:06:18.
