data_PCOD8141563
_publ_section_title
;
Structure prediction by ZEFSAII (Michael W. Deem and Ramdas Pophale) SiO2 
 PCOD8141563
Probable space group: C 2/C
;
_chemical_formula_sum "Si O2"
_cell_formula_units_Z 64
_cell_length_a 22.245409
_cell_length_b 18.125992
_cell_length_c 8.195776
_cell_angle_alpha 90.000000
_cell_angle_beta 93.880144
_cell_angle_gamma 90.000000
_cell_volume 3297.126593
_symmetry_space_group_name_H-M "C 2/C"
_symmetry_group_IT_number 15
_symmetry_cell_setting 'monoclinic'
loop_
_space_group_symop_operation_xyz
x,y,z
-x,y,1/2-z
-x,-y,-z
x,-y,1/2+z
1/2+x,1/2+y,z
1/2-x,1/2+y,1/2-z
1/2-x,1/2-y,-z
1/2+x,1/2-y,1/2+z
loop_
_atom_site_type_symbol
_atom_site_label
_atom_site_fract_x
_atom_site_fract_y
_atom_site_fract_z
Si Si1 0.059512 0.583753 0.364501
Si Si2 0.618539 0.220278 0.975128
Si Si3 0.011777 0.287689 0.072286
Si Si4 0.335407 0.809862 0.687523
Si Si5 0.778224 0.098772 0.394906
Si Si6 0.638804 0.054692 0.916233
Si Si7 0.274168 0.017419 0.833252
Si Si8 0.131516 0.218461 0.122741
O O1 0.039313 0.639229 0.500244
O O2 0.114565 0.625081 0.281737
O O3 0.086255 0.506384 0.434311
O O4 0.000000 0.566392 0.250000
O O5 0.550304 0.245395 0.011323
O O6 0.610694 0.133318 0.944763
O O7 0.645078 0.255363 0.812715
O O8 0.657759 0.239631 0.144824
O O9 0.059932 0.220576 0.077404
O O10 0.000000 0.315644 0.250000
O O11 0.269326 0.843311 0.685332
O O12 0.338367 0.766889 0.516223
O O13 0.762545 0.081388 0.580169
O O14 0.844257 0.134969 0.390861
O O15 0.774032 0.023179 0.291910
O O16 0.667211 0.053506 0.740654
O O17 0.697297 0.041676 0.038562
#
# Coordination Sequence:
#
# PCOD8141563 Si02
#       8
#     8   8   8   8   8   8   8   8
#     4  11  20  33  52  78 120 163 203 241 278 336
#     4  11  21  38  57  83 118 157 200 241 286 349
#     4   9  21  36  53  81 117 157 200 248 281 345
#     4  11  20  38  56  85 118 158 199 238 287 339
#     4  11  21  42  58  84 114 153 191 253 295 349
#     4  11  21  34  51  81 114 161 199 237 284 335
#     4  10  21  37  59  77 117 148 196 243 294 346
#     4  10  24  38  58  84 116 155 201 243 294 344
#
# _framework density 19.410841999999999
#
# number of rings (size 3 to 8) (size 9 to 14) (size 15 to 20)
#    0.000    1.500    5.000    1.125    3.500    2.500 
#    4.500    0.000    0.000    0.000    0.000    7.875 
#    0.000    0.000    0.000    0.000    0.000    0.000 
#
# Total GULP energy -396487.150485 kJ/mol
# GULP energy per Si atom -12390.223453 kJ/mol
# Density = 1.936666 g / cm^3
# Si number density = 19.410842 Si / 1000 Ang^3
#
#
#
# Elastic Constant Matrix: (Units=GPa)
#
#
# Indices 1 2 3 4 5 6 
#
# 1 88.8190 45.3938 35.6832 0.0000 -8.0603 0.0000
# 2 45.3938 43.0483 20.1621 0.0000 0.0633 0.0000
# 3 35.6832 20.1621 102.7146 0.0000 -8.8927 0.0000
# 4 0.0000 0.0000 0.0000 15.4736 0.0000 -3.3760
# 5 -8.0603 0.0633 -8.8927 0.0000 20.0924 0.0000
# 6 0.0000 0.0000 0.0000 -3.3760 0.0000 29.1077
#
#
#
# Elastic Compliance Matrix: (Units=1/GPa)
#
#
# Indices 1 2 3 4 5 6 
#
# 1 0.027506 -0.027459 -0.003330 0.000000 0.009647 0.000000
# 2 -0.027459 0.053105 -0.001927 0.000000 -0.012036 0.000000
# 3 -0.003330 -0.001927 0.011600 0.000000 0.003804 0.000000
# 4 0.000000 0.000000 0.000000 0.066304 0.000000 0.007690
# 5 0.009647 -0.012036 0.003804 0.000000 0.055362 0.000000
# 6 0.000000 0.000000 0.000000 0.007690 0.000000 0.035247
#
#
# Mechanical properties :
#
#
# Convention : Reuss Voigt Hill
#
# Bulk Modulus (GPa) = 37.34302 48.56224 42.95263
# Shear Modulus (GPa) = 15.45673 21.82427 18.64050
#
# Velocity S-wave (km/s) = 2.82493 3.35675 3.10226
# Velocity P-wave (km/s) = 5.46994 6.33215 5.91677
#
# Compressibility (1/GPa) = 0.02677877
#
# Stress axis : x y z
#
# Youngs Moduli (GPa) = 36.35536 18.83055 86.20472
#
# Poissons Ratio (x) = 0.51707 0.28710
# Poissons Ratio (y) = 0.99829 0.16609
# Poissons Ratio (z) = 0.12108 0.03628
#
# Static dielectric constant tensor:
#      x y z
#    x 3.677390 0.000000 -0.022170 
#    y 0.000000 3.166510 0.000000 
#    z -0.022170 0.000000 3.966040 
# 
# 
# High freq. dielectric constant tensor:
#      x y z
#    x 1.742620 0.000000 -0.006220 
#    y 0.000000 1.701480 0.000000 
#    z -0.006220 0.000000 1.778480 
# 
# From -- ./inp_files/50242.got.cif
#   From: 2010.06.25/outbox.cif.g09.slc.cpg/sg15_26_cif.got.tgz:50242.got - 2010.06.28 07:06:18.
