data_PCOD8141289
_publ_section_title
;
Structure prediction by ZEFSAII (Michael W. Deem and Ramdas Pophale) SiO2 
 PCOD8141289
Probable space group: C 2/C
;
_chemical_formula_sum "Si O2"
_cell_formula_units_Z 52
_cell_length_a 5.542413
_cell_length_b 22.444784
_cell_length_c 22.801481
_cell_angle_alpha 90.000000
_cell_angle_beta 68.897087
_cell_angle_gamma 90.000000
_cell_volume 2646.237777
_symmetry_space_group_name_H-M "C 2/C"
_symmetry_group_IT_number 15
_symmetry_cell_setting 'monoclinic'
loop_
_space_group_symop_operation_xyz
x,y,z
-x,y,1/2-z
-x,-y,-z
x,-y,1/2+z
1/2+x,1/2+y,z
1/2-x,1/2+y,1/2-z
1/2-x,1/2-y,-z
1/2+x,1/2-y,1/2+z
loop_
_atom_site_type_symbol
_atom_site_label
_atom_site_fract_x
_atom_site_fract_y
_atom_site_fract_z
Si Si1 0.661201 0.450007 0.560955
Si Si2 0.000000 0.183026 0.750000
Si Si3 0.787280 0.183355 0.429185
Si Si4 0.522963 0.882606 0.317300
Si Si5 0.364738 0.983128 0.419936
Si Si6 0.133862 0.218887 0.856357
Si Si7 0.870995 0.723733 0.546406
O O1 0.633145 0.384075 0.590766
O O2 0.757758 0.447371 0.485351
O O3 0.372603 0.478312 0.586733
O O4 0.878349 0.481111 0.582616
O O5 0.186834 0.139317 0.697203
O O6 0.147197 0.224897 0.784246
O O7 0.661758 0.215763 0.383167
O O8 0.604670 0.181841 0.503676
O O9 0.039064 0.221726 0.421026
O O10 0.500000 0.896099 0.250000
O O11 0.458524 0.940558 0.359957
O O12 0.347802 0.828469 0.357487
O O13 0.855910 0.189884 0.898851
O O14 0.750000 0.750000 0.500000
#
# Coordination Sequence:
#
# PCOD8141289 Si02
#       7
#     8   4   8   8   8   8   8
#     4  10  24  40  64  92 131 169 209 258 325 374
#     4  10  22  38  62  92 120 160 202 272 326 368
#     4  10  21  36  57  94 125 164 203 249 319 386
#     4  10  23  40  66  91 120 162 214 266 315 370
#     4  10  24  42  62  93 126 173 213 266 307 377
#     4  10  21  36  59  93 120 159 204 264 314 381
#     4   9  20  32  55  89 124 162 193 244 306 382
#
# _framework density 19.650541
#
# number of rings (size 3 to 8) (size 9 to 14) (size 15 to 20)
#    0.000    2.154    0.000    0.923   17.231    1.231 
#    0.000    0.000    1.692    1.846    0.000    0.000 
#    0.000    0.000    0.000    0.000    0.000    0.000 
#
# Total GULP energy -322089.847317 kJ/mol
# GULP energy per Si atom -12388.071051 kJ/mol
# Density = 1.960582 g / cm^3
# Si number density = 19.650541 Si / 1000 Ang^3
#
#
#
# Elastic Constant Matrix: (Units=GPa)
#
#
# Indices 1 2 3 4 5 6 
#
# 1 129.6189 54.7346 41.1056 0.0000 -12.7899 0.0000
# 2 54.7346 128.7770 62.7735 0.0000 1.9686 0.0000
# 3 41.1056 62.7735 93.5478 0.0000 -5.3912 0.0000
# 4 0.0000 0.0000 0.0000 33.0815 0.0000 1.1231
# 5 -12.7899 1.9686 -5.3912 0.0000 38.0006 0.0000
# 6 0.0000 0.0000 0.0000 1.1231 0.0000 16.5276
#
#
#
# Elastic Compliance Matrix: (Units=1/GPa)
#
#
# Indices 1 2 3 4 5 6 
#
# 1 0.010093 -0.003375 -0.001981 0.000000 0.003291 0.000000
# 2 -0.003375 0.012780 -0.007256 0.000000 -0.002827 0.000000
# 3 -0.001981 -0.007256 0.016547 0.000000 0.002057 0.000000
# 4 0.000000 0.000000 0.000000 0.030298 0.000000 -0.002059
# 5 0.003291 -0.002827 0.002057 0.000000 0.027861 0.000000
# 6 0.000000 0.000000 0.000000 -0.002059 0.000000 0.060645
#
#
# Mechanical properties :
#
#
# Convention : Reuss Voigt Hill
#
# Bulk Modulus (GPa) = 70.43312 74.35234 72.39273
# Shear Modulus (GPa) = 26.57044 30.41060 28.49052
#
# Velocity S-wave (km/s) = 3.68115 3.93818 3.81183
# Velocity P-wave (km/s) = 7.34768 7.65497 7.50290
#
# Compressibility (1/GPa) = 0.01419787
#
# Stress axis : x y z
#
# Youngs Moduli (GPa) = 99.08085 78.24878 60.43221
#
# Poissons Ratio (x) = 0.26405 0.11970
# Poissons Ratio (y) = 0.33435 0.43848
# Poissons Ratio (z) = 0.19626 0.56775
#
# Static dielectric constant tensor:
#      x y z
#    x 3.950990 0.000000 -0.236910 
#    y 0.000000 3.226330 0.000000 
#    z -0.236910 0.000000 4.101920 
# 
# 
# High freq. dielectric constant tensor:
#      x y z
#    x 1.793460 0.000000 -0.000090 
#    y 0.000000 1.731340 0.000000 
#    z -0.000090 0.000000 1.760480 
# 
# From -- ./inp_files/227476.got.cif
#   From: 2010.06.25/outbox.cif.g09.slc.cpg/sg15_114_cif.got.tgz:227476.got - 2010.06.28 07:06:18.
