data_PCOD8141538
_publ_section_title
;
Structure prediction by ZEFSAII (Michael W. Deem and Ramdas Pophale) SiO2 
 PCOD8141538
Probable space group: C 2/C
;
_chemical_formula_sum "Si O2"
_cell_formula_units_Z 36
_cell_length_a 23.637213
_cell_length_b 14.557603
_cell_length_c 5.173308
_cell_angle_alpha 90.000000
_cell_angle_beta 119.907246
_cell_angle_gamma 90.000000
_cell_volume 1543.086468
_symmetry_space_group_name_H-M "C 2/C"
_symmetry_group_IT_number 15
_symmetry_cell_setting 'monoclinic'
loop_
_space_group_symop_operation_xyz
x,y,z
-x,y,1/2-z
-x,-y,-z
x,-y,1/2+z
1/2+x,1/2+y,z
1/2-x,1/2+y,1/2-z
1/2-x,1/2-y,-z
1/2+x,1/2-y,1/2+z
loop_
_atom_site_type_symbol
_atom_site_label
_atom_site_fract_x
_atom_site_fract_y
_atom_site_fract_z
Si Si1 0.130636 0.669182 0.467868
Si Si2 0.427166 0.540010 0.310324
Si Si3 0.500000 0.937300 0.750000
Si Si4 0.860520 0.212733 0.019794
Si Si5 0.243686 0.058805 0.810053
O O1 0.062264 0.627706 0.396540
O O2 0.119898 0.730284 0.187928
O O3 0.180560 0.587607 0.518218
O O4 0.157807 0.725167 0.776262
O O5 0.500000 0.500000 0.500000
O O6 0.390404 0.513844 0.492723
O O7 0.422670 0.648488 0.243846
O O8 0.500000 0.000000 0.500000
O O9 0.798295 0.151177 0.810606
O O10 0.227457 0.990735 0.540192
#
# Coordination Sequence:
#
# PCOD8141538 Si02
#       5
#     8   8   4   8   8
#     4  12  26  44  68  98 133 172 221 283 330 381
#     4  10  21  37  58  86 126 171 210 252 309 390
#     4  12  26  48  70  96 130 178 230 272 326 394
#     4  12  24  42  66 101 134 170 217 275 335 391
#     4  12  24  44  70  98 132 176 219 269 332 402
#
# _framework density 23.329865000000002
#
# number of rings (size 3 to 8) (size 9 to 14) (size 15 to 20)
#    0.000    0.444    0.000    9.333    0.000    5.333 
#    0.000    0.000    0.000    0.000    0.000    0.000 
#    0.000    0.000    0.000    0.000    0.000    0.000 
#
# Total GULP energy -223236.745958 kJ/mol
# GULP energy per Si atom -12402.041442 kJ/mol
# Density = 2.327676 g / cm^3
# Si number density = 23.329865 Si / 1000 Ang^3
#
#
#
# Elastic Constant Matrix: (Units=GPa)
#
#
# Indices 1 2 3 4 5 6 
#
# 1 100.8301 38.5894 48.9443 0.0000 -16.1192 0.0000
# 2 38.5894 102.3704 54.6048 0.0000 -20.5933 0.0000
# 3 48.9443 54.6048 136.1665 0.0000 -44.3885 0.0000
# 4 0.0000 0.0000 0.0000 54.3037 0.0000 -10.9264
# 5 -16.1192 -20.5933 -44.3885 0.0000 61.6415 0.0000
# 6 0.0000 0.0000 0.0000 -10.9264 0.0000 36.9877
#
#
#
# Elastic Compliance Matrix: (Units=1/GPa)
#
#
# Indices 1 2 3 4 5 6 
#
# 1 0.012696 -0.002996 -0.003405 0.000000 -0.000133 0.000000
# 2 -0.002996 0.013159 -0.003949 0.000000 0.000769 0.000000
# 3 -0.003405 -0.003949 0.012325 0.000000 0.006665 0.000000
# 4 0.000000 0.000000 0.000000 0.019579 0.000000 0.005784
# 5 -0.000133 0.000769 0.006665 0.000000 0.021244 0.000000
# 6 0.000000 0.000000 0.000000 0.005784 0.000000 0.028745
#
#
# Mechanical properties :
#
#
# Convention : Reuss Voigt Hill
#
# Bulk Modulus (GPa) = 57.21632 69.29377 63.25505
# Shear Modulus (GPa) = 37.23683 43.73515 40.48599
#
# Velocity S-wave (km/s) = 3.99946 4.33441 4.17030
# Velocity P-wave (km/s) = 6.77538 7.40376 7.09653
#
# Compressibility (1/GPa) = 0.01747753
#
# Stress axis : x y z
#
# Youngs Moduli (GPa) = 78.76407 75.99239 81.13902
#
# Poissons Ratio (x) = 0.22769 0.27632
# Poissons Ratio (y) = 0.23600 0.32046
# Poissons Ratio (z) = 0.26823 0.30013
#
# Static dielectric constant tensor:
#      x y z
#    x 6.737460 0.000000 -2.722260 
#    y 0.000000 4.336270 0.000000 
#    z -2.722260 0.000000 8.016420 
# 
# 
# High freq. dielectric constant tensor:
#      x y z
#    x 1.938180 0.000000 -0.012440 
#    y 0.000000 1.925380 0.000000 
#    z -0.012440 0.000000 1.949490 
# 
# From -- ./inp_files/15065.got.cif
#   From: 2010.06.25/outbox.cif.g09.slc.cpg/sg15_8_cif.got.tgz:15065.got - 2010.06.28 07:06:18.
