data_PCOD8141262
_publ_section_title
;
Structure prediction by ZEFSAII (Michael W. Deem and Ramdas Pophale) SiO2 
 PCOD8141262
Probable space group: C 2/C
;
_chemical_formula_sum "Si O2"
_cell_formula_units_Z 52
_cell_length_a 12.459390
_cell_length_b 26.645995
_cell_length_c 9.382658
_cell_angle_alpha 90.000000
_cell_angle_beta 56.613175
_cell_angle_gamma 90.000000
_cell_volume 2600.924711
_symmetry_space_group_name_H-M "C 2/C"
_symmetry_group_IT_number 15
_symmetry_cell_setting 'monoclinic'
loop_
_space_group_symop_operation_xyz
x,y,z
-x,y,1/2-z
-x,-y,-z
x,-y,1/2+z
1/2+x,1/2+y,z
1/2-x,1/2+y,1/2-z
1/2-x,1/2-y,-z
1/2+x,1/2-y,1/2+z
loop_
_atom_site_type_symbol
_atom_site_label
_atom_site_fract_x
_atom_site_fract_y
_atom_site_fract_z
Si Si1 0.500000 0.375848 0.750000
Si Si2 0.534950 0.048146 0.562829
Si Si3 0.136089 0.946137 0.044842
Si Si4 0.175646 0.037046 0.203921
Si Si5 0.789205 0.806144 0.436400
Si Si6 0.894191 0.390432 0.946626
Si Si7 0.992068 0.150662 0.564298
O O1 0.386487 0.409541 0.776668
O O2 0.543875 0.344445 0.577300
O O3 0.500000 0.041226 0.750000
O O4 0.685820 0.051671 0.451687
O O5 0.458344 0.095318 0.551026
O O6 0.500000 0.000000 0.500000
O O7 0.170788 0.975136 0.874505
O O8 0.263754 0.920516 0.012532
O O9 0.014808 0.907200 0.107546
O O10 0.103727 0.990944 0.178614
O O11 0.750000 0.750000 0.500000
O O12 0.650723 0.832728 0.518002
O O13 0.880773 0.819705 0.232996
O O14 0.868810 0.823478 0.517236
O O15 0.000000 0.401200 0.750000
#
# Coordination Sequence:
#
# PCOD8141262 Si02
#       7
#     4   8   8   8   8   8   8
#     4  10  24  40  60  88 130 170 192 258 298 378
#     4  12  23  36  57  87 128 171 213 254 301 367
#     4  10  21  36  56  86 120 171 205 255 290 361
#     4  11  22  35  56  85 127 170 221 237 299 354
#     4  10  23  42  70  93 112 153 207 270 321 383
#     4  11  22  38  59  85 125 162 204 263 313 366
#     4   9  22  43  63  91 125 154 207 253 323 366
#
# _framework density 19.992889000000002
#
# number of rings (size 3 to 8) (size 9 to 14) (size 15 to 20)
#    0.000    1.538    3.077    1.385    4.308    7.385 
#    0.000    0.769    1.692    0.000    0.000    0.000 
#    0.000    0.000    0.000    0.000    0.000    0.000 
#
# Total GULP energy -322113.640068 kJ/mol
# GULP energy per Si atom -12388.986156 kJ/mol
# Density = 1.994738 g / cm^3
# Si number density = 19.992889 Si / 1000 Ang^3
#
#
#
# Elastic Constant Matrix: (Units=GPa)
#
#
# Indices 1 2 3 4 5 6 
#
# 1 73.0396 20.3545 35.5100 0.0000 6.1074 0.0000
# 2 20.3545 98.9347 42.0201 0.0000 11.6717 0.0000
# 3 35.5100 42.0201 119.5871 0.0000 17.3358 0.0000
# 4 0.0000 0.0000 0.0000 126.3288 0.0000 -19.6767
# 5 6.1074 11.6717 17.3358 0.0000 47.8221 0.0000
# 6 0.0000 0.0000 0.0000 -19.6767 0.0000 23.9431
#
#
#
# Elastic Compliance Matrix: (Units=1/GPa)
#
#
# Indices 1 2 3 4 5 6 
#
# 1 0.016193 -0.001505 -0.004257 0.000000 -0.000158 0.000000
# 2 -0.001505 0.012118 -0.003599 0.000000 -0.001461 0.000000
# 3 -0.004257 -0.003599 0.011277 0.000000 -0.002666 0.000000
# 4 0.000000 0.000000 0.000000 0.009078 0.000000 0.007460
# 5 -0.000158 -0.001461 -0.002666 0.000000 0.022254 0.000000
# 6 0.000000 0.000000 0.000000 0.007460 0.000000 0.047897
#
#
# Mechanical properties :
#
#
# Convention : Reuss Voigt Hill
#
# Bulk Modulus (GPa) = 47.92350 54.14784 51.03567
# Shear Modulus (GPa) = 34.60317 52.53059 43.56688
#
# Velocity S-wave (km/s) = 4.16477 5.13144 4.67317
# Velocity P-wave (km/s) = 6.86654 7.88995 7.39597
#
# Compressibility (1/GPa) = 0.02086659
#
# Stress axis : x y z
#
# Youngs Moduli (GPa) = 61.75386 82.51896 88.67348
#
# Poissons Ratio (x) = 0.12419 0.37746
# Poissons Ratio (y) = 0.09294 0.31918
# Poissons Ratio (z) = 0.26287 0.29703
#
# Static dielectric constant tensor:
#      x y z
#    x 3.874890 0.000000 0.187950 
#    y 0.000000 3.567320 0.000000 
#    z 0.187950 0.000000 3.933640 
# 
# 
# High freq. dielectric constant tensor:
#      x y z
#    x 1.792340 0.000000 -0.006210 
#    y 0.000000 1.749680 0.000000 
#    z -0.006210 0.000000 1.792830 
# 
# From -- ./inp_files/34093.got.cif
#   From: 2010.06.25/outbox.cif.g09.slc.cpg/sg15_18_cif.got.tgz:34093.got - 2010.06.28 07:06:18.
