data_PCOD8141666
_publ_section_title
;
Structure prediction by ZEFSAII (Michael W. Deem and Ramdas Pophale) SiO2 
 PCOD8141666
Probable space group: C 2/C
;
_chemical_formula_sum "Si O2"
_cell_formula_units_Z 60
_cell_length_a 15.948482
_cell_length_b 9.009748
_cell_length_c 26.984645
_cell_angle_alpha 90.000000
_cell_angle_beta 130.313102
_cell_angle_gamma 90.000000
_cell_volume 2956.651765
_symmetry_space_group_name_H-M "C 2/C"
_symmetry_group_IT_number 15
_symmetry_cell_setting 'monoclinic'
loop_
_space_group_symop_operation_xyz
x,y,z
-x,y,1/2-z
-x,-y,-z
x,-y,1/2+z
1/2+x,1/2+y,z
1/2-x,1/2+y,1/2-z
1/2-x,1/2-y,-z
1/2+x,1/2-y,1/2+z
loop_
_atom_site_type_symbol
_atom_site_label
_atom_site_fract_x
_atom_site_fract_y
_atom_site_fract_z
Si Si1 0.622823 0.900166 0.747729
Si Si2 0.500000 0.849570 0.250000
Si Si3 0.086516 0.832801 0.066780
Si Si4 0.816505 0.824129 0.144815
Si Si5 0.096780 0.173875 0.076851
Si Si6 0.501863 0.324803 0.139569
Si Si7 0.857457 0.895622 0.801649
Si Si8 0.306335 0.661081 0.174451
O O1 0.621166 0.788875 0.794382
O O2 0.571523 0.818668 0.681128
O O3 0.744854 0.957265 0.782504
O O4 0.552653 0.047034 0.728546
O O5 0.407375 0.748415 0.186890
O O6 0.999780 0.824102 0.079200
O O7 0.189985 0.724533 0.112253
O O8 0.127395 0.001904 0.077665
O O9 0.019868 0.783461 0.992297
O O10 0.691593 0.773349 0.088291
O O11 0.879904 0.823326 0.116461
O O12 0.813980 0.987537 0.167031
O O13 0.088379 0.203571 0.133268
O O14 0.564025 0.469934 0.183608
O O15 0.828379 0.803992 0.741286
#
# Coordination Sequence:
#
# PCOD8141666 Si02
#       8
#     8   4   8   8   8   8   8   8
#     4  11  21  35  57  87 121 157 190 244 303 362
#     4  12  24  34  56  90 128 152 192 250 316 348
#     4  10  22  42  63  88 119 161 206 244 295 365
#     4  11  22  37  60  89 123 155 194 250 312 351
#     4   9  22  41  64  84 121 164 201 246 297 364
#     4  11  19  36  60  88 118 154 196 245 294 364
#     4  10  21  37  61  89 117 155 202 246 299 356
#     4  12  23  37  61  92 122 153 200 257 301 357
#
# _framework density 20.293226000000001
#
# number of rings (size 3 to 8) (size 9 to 14) (size 15 to 20)
#    0.000    1.333    4.000    3.200    0.000    1.067 
#    0.000    0.000    0.000    8.000    0.000    0.000 
#    0.000    0.000    0.000    0.000    0.000    0.000 
#
# Total GULP energy -371923.027284 kJ/mol
# GULP energy per Si atom -12397.434243 kJ/mol
# Density = 2.024704 g / cm^3
# Si number density = 20.293226 Si / 1000 Ang^3
#
#
#
# Elastic Constant Matrix: (Units=GPa)
#
#
# Indices 1 2 3 4 5 6 
#
# 1 90.8674 48.6213 38.7879 0.0000 9.7572 0.0000
# 2 48.6213 99.6649 40.0529 0.0000 12.3117 0.0000
# 3 38.7879 40.0529 132.3261 0.0000 10.5258 0.0000
# 4 0.0000 0.0000 0.0000 26.1274 0.0000 9.6978
# 5 9.7572 12.3117 10.5258 0.0000 23.4639 0.0000
# 6 0.0000 0.0000 0.0000 9.6978 0.0000 36.9600
#
#
#
# Elastic Compliance Matrix: (Units=1/GPa)
#
#
# Indices 1 2 3 4 5 6 
#
# 1 0.015725 -0.006411 -0.002506 0.000000 -0.002051 0.000000
# 2 -0.006411 0.014538 -0.002205 0.000000 -0.003973 0.000000
# 3 -0.002506 -0.002205 0.009109 0.000000 -0.001887 0.000000
# 4 0.000000 0.000000 0.000000 0.042404 0.000000 -0.011126
# 5 -0.002051 -0.003973 -0.001887 0.000000 0.046403 0.000000
# 6 0.000000 0.000000 0.000000 -0.011126 0.000000 0.029976
#
#
# Mechanical properties :
#
#
# Convention : Reuss Voigt Hill
#
# Bulk Modulus (GPa) = 58.38192 64.19805 61.28998
# Shear Modulus (GPa) = 26.86596 30.33669 28.60132
#
# Velocity S-wave (km/s) = 3.64247 3.87061 3.75827
# Velocity P-wave (km/s) = 6.82069 7.18884 7.00718
#
# Compressibility (1/GPa) = 0.01712859
#
# Stress axis : x y z
#
# Youngs Moduli (GPa) = 63.59125 68.78365 109.77932
#
# Poissons Ratio (x) = 0.44099 0.27508
# Poissons Ratio (y) = 0.40770 0.24208
# Poissons Ratio (z) = 0.15934 0.15168
#
# Static dielectric constant tensor:
#      x y z
#    x 3.768840 0.000000 0.031600 
#    y 0.000000 3.630470 0.000000 
#    z 0.031600 0.000000 3.623600 
# 
# 
# High freq. dielectric constant tensor:
#      x y z
#    x 1.793640 0.000000 0.008820 
#    y 0.000000 1.792520 0.000000 
#    z 0.008820 0.000000 1.773040 
# 
# From -- ./inp_files/315376.got.cif
#   From: 2010.06.25/outbox.cif.g09.slc.cpg/sg15_158_cif.got.tgz:315376.got - 2010.06.28 07:06:18.
