data_PCOD8141318
_publ_section_title
;
Structure prediction by ZEFSAII (Michael W. Deem and Ramdas Pophale) SiO2 
 PCOD8141318
Probable space group: C 2/C
;
_chemical_formula_sum "Si O2"
_cell_formula_units_Z 56
_cell_length_a 19.796440
_cell_length_b 18.551374
_cell_length_c 15.876166
_cell_angle_alpha 90.000000
_cell_angle_beta 150.406918
_cell_angle_gamma 90.000000
_cell_volume 2879.335879
_symmetry_space_group_name_H-M "C 2/C"
_symmetry_group_IT_number 15
_symmetry_cell_setting 'monoclinic'
loop_
_space_group_symop_operation_xyz
x,y,z
-x,y,1/2-z
-x,-y,-z
x,-y,1/2+z
1/2+x,1/2+y,z
1/2-x,1/2+y,1/2-z
1/2-x,1/2-y,-z
1/2+x,1/2-y,1/2+z
loop_
_atom_site_type_symbol
_atom_site_label
_atom_site_fract_x
_atom_site_fract_y
_atom_site_fract_z
Si Si1 0.690370 0.558478 0.817950
Si Si2 0.525603 0.059043 0.458757
Si Si3 0.465777 0.451855 0.617441
Si Si4 0.602424 0.669445 0.586083
Si Si5 0.858992 0.780991 0.052900
Si Si6 0.104828 0.713017 0.579856
Si Si7 0.745319 0.571480 0.071133
O O1 0.594438 0.488244 0.710335
O O2 0.619780 0.623545 0.690476
O O3 0.834812 0.537253 0.935494
O O4 0.710638 0.582141 0.935629
O O5 0.534168 0.135460 0.516089
O O6 0.405013 0.058323 0.259160
O O7 0.500000 0.000000 0.500000
O O8 0.500000 0.429862 0.750000
O O9 0.428062 0.380220 0.526863
O O10 0.338662 0.507016 0.477130
O O11 0.741653 0.712731 0.716477
O O12 0.479670 0.725573 0.464419
O O13 0.000000 0.801704 0.250000
O O14 0.750000 0.750000 0.000000
O O15 0.888222 0.721660 0.013641
O O16 0.800577 0.851465 0.940581
#
# Coordination Sequence:
#
# PCOD8141318 Si02
#       7
#     8   8   8   8   8   8   8
#     4  10  21  36  59  87 115 148 183 227 284 343
#     4  11  23  38  55  82 116 152 189 232 280 334
#     4  10  22  40  62  84 110 149 196 240 283 336
#     4  11  22  39  58  84 116 147 189 236 285 341
#     4  12  22  35  55  85 122 155 183 224 285 352
#     4  11  23  36  55  83 113 151 189 228 279 339
#     4  11  20  36  58  85 117 150 188 231 281 343
#
# _framework density 19.448929
#
# number of rings (size 3 to 8) (size 9 to 14) (size 15 to 20)
#    0.000    1.143    0.000    9.857    0.000    2.286 
#    0.000    0.714    0.000    1.714    0.000    0.000 
#    0.000    0.000    0.000    0.000    0.000    0.000 
#
# Total GULP energy -347317.356498 kJ/mol
# GULP energy per Si atom -12404.191303 kJ/mol
# Density = 1.940466 g / cm^3
# Si number density = 19.448929 Si / 1000 Ang^3
#
#
#
# Elastic Constant Matrix: (Units=GPa)
#
#
# Indices 1 2 3 4 5 6 
#
# 1 100.5086 75.8410 53.3445 0.0000 24.2691 0.0000
# 2 75.8410 131.9766 59.3674 0.0000 9.8511 0.0000
# 3 53.3445 59.3674 122.6261 0.0000 26.2745 0.0000
# 4 0.0000 0.0000 0.0000 30.2593 0.0000 2.2922
# 5 24.2691 9.8511 26.2745 0.0000 31.9743 0.0000
# 6 0.0000 0.0000 0.0000 2.2922 0.0000 36.3027
#
#
#
# Elastic Compliance Matrix: (Units=1/GPa)
#
#
# Indices 1 2 3 4 5 6 
#
# 1 0.022045 -0.011012 -0.001700 0.000000 -0.011943 0.000000
# 2 -0.011012 0.015217 -0.004082 0.000000 0.007024 0.000000
# 3 -0.001700 -0.004082 0.012531 0.000000 -0.007749 0.000000
# 4 0.000000 0.000000 0.000000 0.033206 0.000000 -0.002097
# 5 -0.011943 0.007024 -0.007749 0.000000 0.044544 0.000000
# 6 0.000000 0.000000 0.000000 -0.002097 0.000000 0.027679
#
#
# Mechanical properties :
#
#
# Convention : Reuss Voigt Hill
#
# Bulk Modulus (GPa) = 61.70632 81.35745 71.53189
# Shear Modulus (GPa) = 25.74541 30.81118 28.27829
#
# Velocity S-wave (km/s) = 3.64228 3.98453 3.81724
# Velocity P-wave (km/s) = 7.03452 7.94297 7.50251
#
# Compressibility (1/GPa) = 0.01620579
#
# Stress axis : x y z
#
# Youngs Moduli (GPa) = 45.36266 65.71609 79.80424
#
# Poissons Ratio (x) = 0.72367 0.13563
# Poissons Ratio (y) = 0.49954 0.32573
# Poissons Ratio (z) = 0.07710 0.26823
#
# Static dielectric constant tensor:
#      x y z
#    x 8.158410 0.000000 4.869260 
#    y 0.000000 3.535000 0.000000 
#    z 4.869260 0.000000 8.276530 
# 
# 
# High freq. dielectric constant tensor:
#      x y z
#    x 1.751160 0.000000 0.021910 
#    y 0.000000 1.757240 0.000000 
#    z 0.021910 0.000000 1.763940 
# 
# From -- ./inp_files/49000.got.cif
#   From: 2010.06.25/outbox.cif.g09.slc.cpg/sg15_25_cif.got.tgz:49000.got - 2010.06.28 07:06:18.
