data_PCOD8141931
_publ_section_title
;
Structure prediction by ZEFSAII (Michael W. Deem and Ramdas Pophale) SiO2 
 PCOD8141931
Probable space group: C 2/C
;
_chemical_formula_sum "Si O2"
_cell_formula_units_Z 60
_cell_length_a 14.967889
_cell_length_b 10.736163
_cell_length_c 20.255456
_cell_angle_alpha 90.000000
_cell_angle_beta 71.118091
_cell_angle_gamma 90.000000
_cell_volume 3079.845435
_symmetry_space_group_name_H-M "C 2/C"
_symmetry_group_IT_number 15
_symmetry_cell_setting 'monoclinic'
loop_
_space_group_symop_operation_xyz
x,y,z
-x,y,1/2-z
-x,-y,-z
x,-y,1/2+z
1/2+x,1/2+y,z
1/2-x,1/2+y,1/2-z
1/2-x,1/2-y,-z
1/2+x,1/2-y,1/2+z
loop_
_atom_site_type_symbol
_atom_site_label
_atom_site_fract_x
_atom_site_fract_y
_atom_site_fract_z
Si Si1 0.170846 0.230928 0.435570
Si Si2 0.024374 0.217736 0.362613
Si Si3 0.661145 0.421787 0.630662
Si Si4 0.680587 0.676998 0.701044
Si Si5 0.276803 0.952981 0.995790
Si Si6 0.920219 0.542169 0.854357
Si Si7 0.173375 0.713008 0.724851
Si Si8 0.500000 0.162723 0.250000
O O1 0.075759 0.192959 0.419982
O O2 0.260405 0.240879 0.365089
O O3 0.190889 0.125519 0.484785
O O4 0.156761 0.363153 0.475856
O O5 0.098980 0.207356 0.285451
O O6 0.942402 0.117382 0.370567
O O7 0.987890 0.359323 0.373558
O O8 0.651636 0.545578 0.676697
O O9 0.729966 0.441120 0.552166
O O10 0.708916 0.310078 0.660897
O O11 0.742073 0.656461 0.752294
O O12 0.588575 0.750976 0.745463
O O13 0.336474 0.016233 0.924684
O O14 0.877812 0.595774 0.796362
O O15 0.978703 0.419293 0.820474
#
# Coordination Sequence:
#
# PCOD8141931 Si02
#       8
#     8   8   8   8   8   8   8   4
#     4   9  20  40  59  83 115 165 189 233 302 355
#     4  10  21  38  62  86 117 155 201 241 294 343
#     4  10  22  39  60  88 122 154 197 243 292 356
#     4  10  23  37  61  87 118 149 196 249 296 340
#     4  10  21  38  59  82 123 158 196 236 295 354
#     4  11  21  39  62  86 118 154 196 245 286 353
#     4  10  22  39  61  85 117 160 192 242 302 347
#     4  12  22  36  58  94 108 148 198 252 280 340
#
# _framework density 19.481497999999998
#
# number of rings (size 3 to 8) (size 9 to 14) (size 15 to 20)
#    0.000    1.867    2.667    1.200    3.733    4.267 
#    0.000    1.333    0.000    0.000    0.000    0.000 
#    0.000    0.000    0.000    0.000    0.000    0.000 
#
# Total GULP energy -372068.059088 kJ/mol
# GULP energy per Si atom -12402.268636 kJ/mol
# Density = 1.943716 g / cm^3
# Si number density = 19.481498 Si / 1000 Ang^3
#
#
#
# Elastic Constant Matrix: (Units=GPa)
#
#
# Indices 1 2 3 4 5 6 
#
# 1 108.0114 33.1086 29.1264 0.0000 15.7414 0.0000
# 2 33.1086 62.9007 16.3837 0.0000 1.9469 0.0000
# 3 29.1264 16.3837 69.4305 0.0000 10.0260 0.0000
# 4 0.0000 0.0000 0.0000 28.9436 0.0000 -2.7889
# 5 15.7414 1.9469 10.0260 0.0000 28.7336 0.0000
# 6 0.0000 0.0000 0.0000 -2.7889 0.0000 22.5251
#
#
#
# Elastic Compliance Matrix: (Units=1/GPa)
#
#
# Indices 1 2 3 4 5 6 
#
# 1 0.012643 -0.005657 -0.003184 0.000000 -0.005432 0.000000
# 2 -0.005657 0.019472 -0.002610 0.000000 0.002691 0.000000
# 3 -0.003184 -0.002610 0.016930 0.000000 -0.003986 0.000000
# 4 0.000000 0.000000 0.000000 0.034967 0.000000 0.004329
# 5 -0.005432 0.002691 -0.003986 0.000000 0.038987 0.000000
# 6 0.000000 0.000000 0.000000 0.004329 0.000000 0.044931
#
#
# Mechanical properties :
#
#
# Convention : Reuss Voigt Hill
#
# Bulk Modulus (GPa) = 38.25288 44.17554 41.21421
# Shear Modulus (GPa) = 25.05669 26.82206 25.93938
#
# Velocity S-wave (km/s) = 3.59022 3.71455 3.65291
# Velocity P-wave (km/s) = 6.07161 6.41264 6.24445
#
# Compressibility (1/GPa) = 0.02614182
#
# Stress axis : x y z
#
# Youngs Moduli (GPa) = 79.09748 51.35487 59.06567
#
# Poissons Ratio (x) = 0.29052 0.18809
# Poissons Ratio (y) = 0.44746 0.15418
# Poissons Ratio (z) = 0.25188 0.13405
#
# Static dielectric constant tensor:
#      x y z
#    x 3.497390 0.000000 0.116320 
#    y 0.000000 3.480710 0.000000 
#    z 0.116320 0.000000 3.577890 
# 
# 
# High freq. dielectric constant tensor:
#      x y z
#    x 1.752650 0.000000 0.008200 
#    y 0.000000 1.756840 0.000000 
#    z 0.008200 0.000000 1.759070 
# 
# From -- ./inp_files/243671.got.cif
#   From: 2010.06.25/outbox.cif.g09.slc.cpg/sg15_122_cif.got.tgz:243671.got - 2010.06.28 07:06:18.
