data_PCOD8141678
_publ_section_title
;
Structure prediction by ZEFSAII (Michael W. Deem and Ramdas Pophale) SiO2 
 PCOD8141678
Probable space group: C 2/C
;
_chemical_formula_sum "Si O2"
_cell_formula_units_Z 60
_cell_length_a 22.011262
_cell_length_b 5.309063
_cell_length_c 24.913635
_cell_angle_alpha 90.000000
_cell_angle_beta 86.421064
_cell_angle_gamma 90.000000
_cell_volume 2905.708927
_symmetry_space_group_name_H-M "C 2/C"
_symmetry_group_IT_number 15
_symmetry_cell_setting 'monoclinic'
loop_
_space_group_symop_operation_xyz
x,y,z
-x,y,1/2-z
-x,-y,-z
x,-y,1/2+z
1/2+x,1/2+y,z
1/2-x,1/2+y,1/2-z
1/2-x,1/2-y,-z
1/2+x,1/2-y,1/2+z
loop_
_atom_site_type_symbol
_atom_site_label
_atom_site_fract_x
_atom_site_fract_y
_atom_site_fract_z
Si Si1 0.737217 0.023235 0.820347
Si Si2 0.363507 0.090589 0.591393
Si Si3 0.309463 0.979219 0.293201
Si Si4 0.000000 0.026395 0.250000
Si Si5 0.411336 0.397001 0.039174
Si Si6 0.926668 0.713789 0.325314
Si Si7 0.474271 0.137331 0.655331
Si Si8 0.460060 0.502864 0.422668
O O1 0.702656 0.053501 0.878751
O O2 0.692078 0.026672 0.771471
O O3 0.781016 0.261099 0.815151
O O4 0.776512 0.765808 0.819473
O O5 0.373255 0.365000 0.564200
O O6 0.408447 0.061411 0.638738
O O7 0.374316 0.862422 0.549099
O O8 0.377975 0.996808 0.313024
O O9 0.062837 0.899591 0.225040
O O10 0.967399 0.169090 0.203636
O O11 0.477703 0.358966 0.062980
O O12 0.417998 0.436831 0.975515
O O13 0.995087 0.608994 0.323187
O O14 0.916964 0.846655 0.383842
O O15 0.517956 0.237807 0.605210
#
# Coordination Sequence:
#
# PCOD8141678 Si02
#       8
#     8   8   8   4   8   8   8   8
#     4  10  23  42  59  88 111 164 206 250 283 359
#     4  11  22  38  64  86 123 150 208 249 303 340
#     4  10  24  40  63  82 120 159 207 238 296 353
#     4  10  24  34  52  94 130 154 196 230 322 366
#     4  10  21  37  61  91 121 161 190 258 294 369
#     4  11  22  38  59  89 123 163 190 248 301 371
#     4  10  22  35  56  93 120 162 188 250 301 376
#     4   9  21  36  57  89 127 152 205 229 317 362
#
# _framework density 20.649006
#
# number of rings (size 3 to 8) (size 9 to 14) (size 15 to 20)
#    0.000    1.867    1.333    1.200    9.333    3.733 
#    0.000    0.000    0.000    4.800    0.000    0.000 
#    0.000    0.000    0.000    0.000    0.000    0.000 
#
# Total GULP energy -371794.345459 kJ/mol
# GULP energy per Si atom -12393.144849 kJ/mol
# Density = 2.060201 g / cm^3
# Si number density = 20.649006 Si / 1000 Ang^3
#
#
#
# Elastic Constant Matrix: (Units=GPa)
#
#
# Indices 1 2 3 4 5 6 
#
# 1 37.3520 12.9356 29.7727 0.0000 -7.2464 0.0000
# 2 12.9356 103.3162 26.1577 0.0000 -7.3733 0.0000
# 3 29.7727 26.1577 115.1679 0.0000 -20.2676 0.0000
# 4 0.0000 0.0000 0.0000 27.0822 0.0000 3.3373
# 5 -7.2464 -7.3733 -20.2676 0.0000 28.8368 0.0000
# 6 0.0000 0.0000 0.0000 3.3373 0.0000 23.8307
#
#
#
# Elastic Compliance Matrix: (Units=1/GPa)
#
#
# Indices 1 2 3 4 5 6 
#
# 1 0.034328 -0.002105 -0.007957 0.000000 0.002495 0.000000
# 2 -0.002105 0.010431 -0.001653 0.000000 0.000976 0.000000
# 3 -0.007957 -0.001653 0.012198 0.000000 0.006151 0.000000
# 4 0.000000 0.000000 0.000000 0.037573 0.000000 -0.005262
# 5 0.002495 0.000976 0.006151 0.000000 0.039878 0.000000
# 6 0.000000 0.000000 0.000000 -0.005262 0.000000 0.042699
#
#
# Mechanical properties :
#
#
# Convention : Reuss Voigt Hill
#
# Bulk Modulus (GPa) = 29.82772 43.72980 36.77876
# Shear Modulus (GPa) = 23.61689 28.41462 26.01576
#
# Velocity S-wave (km/s) = 3.38558 3.71358 3.55336
# Velocity P-wave (km/s) = 5.45521 6.29374 5.88942
#
# Compressibility (1/GPa) = 0.03352586
#
# Stress axis : x y z
#
# Youngs Moduli (GPa) = 29.13081 95.86986 81.98129
#
# Poissons Ratio (x) = 0.20184 0.65232
# Poissons Ratio (y) = 0.06133 0.13552
# Poissons Ratio (z) = 0.23179 0.15848
#
# Static dielectric constant tensor:
#      x y z
#    x 3.352090 0.000000 -0.017660 
#    y 0.000000 3.867230 0.000000 
#    z -0.017660 0.000000 3.811250 
# 
# 
# High freq. dielectric constant tensor:
#      x y z
#    x 1.775740 0.000000 -0.010420 
#    y 0.000000 1.820320 0.000000 
#    z -0.010420 0.000000 1.810400 
# 
# From -- ./inp_files/278959.got.cif
#   From: 2010.06.25/outbox.cif.g09.slc.cpg/sg15_140_cif.got.tgz:278959.got - 2010.06.28 07:06:18.
