data_PCOD8141274
_publ_section_title
;
Structure prediction by ZEFSAII (Michael W. Deem and Ramdas Pophale) SiO2 
 PCOD8141274
Probable space group: C 2/C
;
_chemical_formula_sum "Si O2"
_cell_formula_units_Z 64
_cell_length_a 26.835168
_cell_length_b 20.551539
_cell_length_c 18.165970
_cell_angle_alpha 90.000000
_cell_angle_beta 160.389131
_cell_angle_gamma 90.000000
_cell_volume 3362.547170
_symmetry_space_group_name_H-M "C 2/C"
_symmetry_group_IT_number 15
_symmetry_cell_setting 'monoclinic'
loop_
_space_group_symop_operation_xyz
x,y,z
-x,y,1/2-z
-x,-y,-z
x,-y,1/2+z
1/2+x,1/2+y,z
1/2-x,1/2+y,1/2-z
1/2-x,1/2-y,-z
1/2+x,1/2-y,1/2+z
loop_
_atom_site_type_symbol
_atom_site_label
_atom_site_fract_x
_atom_site_fract_y
_atom_site_fract_z
Si Si1 0.673711 0.939771 0.571721
Si Si2 0.357642 0.488564 0.957277
Si Si3 0.547947 0.700077 0.401716
Si Si4 0.327288 0.121389 0.796046
Si Si5 0.300843 0.609678 0.101007
Si Si6 0.990713 0.427303 0.816473
Si Si7 0.959240 0.665084 0.830240
Si Si8 0.689333 0.519202 0.947425
O O1 0.776431 0.926491 0.644252
O O2 0.571825 0.877737 0.439929
O O3 0.782520 0.944636 0.791817
O O4 0.573080 0.003487 0.423150
O O5 0.280367 0.558944 0.855754
O O6 0.334084 0.454166 0.003172
O O7 0.534094 0.486334 0.185512
O O8 0.500000 0.711317 0.250000
O O9 0.722990 0.685076 0.651616
O O10 0.465948 0.637707 0.323437
O O11 0.519444 0.761499 0.415142
O O12 0.437176 0.132300 0.879748
O O13 0.432884 0.116734 0.014726
O O14 0.261132 0.556550 0.982163
O O15 0.190664 0.668649 0.927485
O O16 0.815195 0.436015 0.586731
O O17 0.000000 0.391594 0.750000
#
# Coordination Sequence:
#
# PCOD8141274 Si02
#       8
#     8   8   8   8   8   8   8   8
#     4  11  22  35  56  90 117 150 190 239 288 343
#     4  10  21  36  57  83 120 152 189 238 291 352
#     4  12  24  39  58  84 122 160 193 232 285 348
#     4  11  23  38  59  86 115 157 195 235 294 346
#     4  12  21  35  55  85 122 155 184 230 282 355
#     4  11  21  38  60  87 119 148 193 242 293 345
#     4  12  23  37  59  83 119 156 194 235 284 355
#     4  11  19  35  57  82 118 156 188 230 291 346
#
# _framework density 19.033189
#
# number of rings (size 3 to 8) (size 9 to 14) (size 15 to 20)
#    0.000    0.750    6.250    2.250    1.750    3.500 
#    0.000    0.000    0.000    0.750    3.250    0.000 
#    0.000    0.000    0.000    0.000    0.000    0.000 
#
# Total GULP energy -396612.726686 kJ/mol
# GULP energy per Si atom -12394.147709 kJ/mol
# Density = 1.898987 g / cm^3
# Si number density = 19.033189 Si / 1000 Ang^3
#
#
#
# Elastic Constant Matrix: (Units=GPa)
#
#
# Indices 1 2 3 4 5 6 
#
# 1 113.1655 25.3612 37.3069 0.0000 -2.6401 0.0000
# 2 25.3612 43.3661 6.7393 0.0000 -2.2483 0.0000
# 3 37.3069 6.7393 72.0196 0.0000 0.2367 0.0000
# 4 0.0000 0.0000 0.0000 13.6169 0.0000 -2.4603
# 5 -2.6401 -2.2483 0.2367 0.0000 30.7528 0.0000
# 6 0.0000 0.0000 0.0000 -2.4603 0.0000 18.5235
#
#
#
# Elastic Compliance Matrix: (Units=1/GPa)
#
#
# Indices 1 2 3 4 5 6 
#
# 1 0.012112 -0.006165 -0.005699 0.000000 0.000633 0.000000
# 2 -0.006165 0.026630 0.000697 0.000000 0.001412 0.000000
# 3 -0.005699 0.000697 0.016774 0.000000 -0.000567 0.000000
# 4 0.000000 0.000000 0.000000 0.075244 0.000000 0.009994
# 5 0.000633 0.001412 -0.000567 0.000000 0.032679 0.000000
# 6 0.000000 0.000000 0.000000 0.009994 0.000000 0.055313
#
#
# Mechanical properties :
#
#
# Convention : Reuss Voigt Hill
#
# Bulk Modulus (GPa) = 30.13751 40.81846 35.47799
# Shear Modulus (GPa) = 19.82981 23.18824 21.50902
#
# Velocity S-wave (km/s) = 3.23128 3.49421 3.36531
# Velocity P-wave (km/s) = 5.45803 6.14588 5.81214
#
# Compressibility (1/GPa) = 0.03318124
#
# Stress axis : x y z
#
# Youngs Moduli (GPa) = 82.56430 37.55224 59.61592
#
# Poissons Ratio (x) = 0.23150 0.33977
# Poissons Ratio (y) = 0.50898 -0.04154
# Poissons Ratio (z) = 0.47055 -0.02617
#
# Static dielectric constant tensor:
#      x y z
#    x 3.655940 0.000000 0.131100 
#    y 0.000000 3.085480 0.000000 
#    z 0.131100 0.000000 3.589520 
# 
# 
# High freq. dielectric constant tensor:
#      x y z
#    x 1.756200 0.000000 0.014310 
#    y 0.000000 1.696020 0.000000 
#    z 0.014310 0.000000 1.738920 
# 
# From -- ./inp_files/124259.got.cif
#   From: 2010.06.25/outbox.cif.g09.slc.cpg/sg15_63_cif.got.tgz:124259.got - 2010.06.28 07:06:18.
