data_PCOD8141252
_publ_section_title
;
Structure prediction by ZEFSAII (Michael W. Deem and Ramdas Pophale) SiO2 
 PCOD8141252
Probable space group: C 2/C
;
_chemical_formula_sum "Si O2"
_cell_formula_units_Z 56
_cell_length_a 14.816892
_cell_length_b 19.302931
_cell_length_c 15.639606
_cell_angle_alpha 90.000000
_cell_angle_beta 39.426306
_cell_angle_gamma 90.000000
_cell_volume 2840.783869
_symmetry_space_group_name_H-M "C 2/C"
_symmetry_group_IT_number 15
_symmetry_cell_setting 'monoclinic'
loop_
_space_group_symop_operation_xyz
x,y,z
-x,y,1/2-z
-x,-y,-z
x,-y,1/2+z
1/2+x,1/2+y,z
1/2-x,1/2+y,1/2-z
1/2-x,1/2-y,-z
1/2+x,1/2-y,1/2+z
loop_
_atom_site_type_symbol
_atom_site_label
_atom_site_fract_x
_atom_site_fract_y
_atom_site_fract_z
Si Si1 0.000000 0.643097 0.250000
Si Si2 0.710321 0.872786 0.324646
Si Si3 0.000000 0.972599 0.250000
Si Si4 0.210697 0.447596 0.701591
Si Si5 0.967980 0.886633 0.433477
Si Si6 0.788406 0.520061 0.109570
Si Si7 0.134033 0.265138 0.516571
Si Si8 0.531695 0.919290 0.319382
O O1 0.132859 0.598732 0.186155
O O2 0.021390 0.687923 0.148654
O O3 0.863915 0.891031 0.172344
O O4 0.708988 0.804928 0.383560
O O5 0.596156 0.859241 0.332501
O O6 0.660427 0.940670 0.414216
O O7 0.931250 0.919692 0.368433
O O8 0.123492 0.021140 0.199649
O O9 0.379004 0.433252 0.565732
O O10 0.187047 0.435419 0.820989
O O11 0.158485 0.524638 0.718951
O O12 0.930443 0.805970 0.470181
O O13 0.886308 0.550103 0.963483
O O14 0.250000 0.250000 0.500000
O O15 0.500000 0.887299 0.250000
#
# Coordination Sequence:
#
# PCOD8141252 Si02
#       8
#     4   8   4   8   8   8   8   8
#     4  12  21  32  54  82 116 153 190 232 278 346
#     4  10  23  38  54  85 123 147 192 246 283 342
#     4  10  21  36  56  82 126 145 188 242 284 348
#     4  11  22  34  55  85 115 150 194 231 286 349
#     4  11  23  36  54  85 116 157 187 232 294 345
#     4  10  21  38  56  86 118 152 186 240 292 338
#     4  12  21  36  56  82 118 153 188 231 291 345
#     4  11  21  37  62  84 112 153 197 235 289 344
#
# _framework density 19.712869000000001
#
# number of rings (size 3 to 8) (size 9 to 14) (size 15 to 20)
#    0.000    1.143    2.143    7.286    0.000    6.286 
#    0.000    0.000    0.000    0.857    1.857    0.000 
#    0.000    0.000    0.000    0.000    0.000    0.000 
#
# Total GULP energy -346989.202676 kJ/mol
# GULP energy per Si atom -12392.471524 kJ/mol
# Density = 1.966800 g / cm^3
# Si number density = 19.712869 Si / 1000 Ang^3
#
#
#
# Elastic Constant Matrix: (Units=GPa)
#
#
# Indices 1 2 3 4 5 6 
#
# 1 134.8405 24.7819 39.9213 -0.0002 6.3496 0.0001
# 2 24.7819 51.5661 32.7012 -0.0012 2.0438 0.0005
# 3 39.9213 32.7012 104.9709 -0.0034 3.0764 0.0024
# 4 -0.0002 -0.0012 -0.0034 26.7248 0.0019 3.6582
# 5 6.3496 2.0438 3.0764 0.0019 28.6734 -0.0013
# 6 0.0001 0.0005 0.0024 3.6582 -0.0013 23.8734
#
#
#
# Elastic Compliance Matrix: (Units=1/GPa)
#
#
# Indices 1 2 3 4 5 6 
#
# 1 0.008684 -0.002552 -0.002464 0.000000 -0.001477 0.000000
# 2 -0.002552 0.024941 -0.006785 0.000000 -0.000485 0.000000
# 3 -0.002464 -0.006785 0.012587 0.000001 -0.000321 -0.000001
# 4 0.000000 0.000000 0.000001 0.038220 -0.000003 -0.005857
# 5 -0.001477 -0.000485 -0.000321 -0.000003 0.035272 0.000002
# 6 0.000000 0.000000 -0.000001 -0.005857 0.000002 0.042785
#
#
# Mechanical properties :
#
#
# Convention : Reuss Voigt Hill
#
# Bulk Modulus (GPa) = 44.22993 54.02068 49.12531
# Shear Modulus (GPa) = 25.82264 28.78586 27.30425
#
# Velocity S-wave (km/s) = 3.62323 3.82548 3.72573
# Velocity P-wave (km/s) = 6.32373 6.85388 6.59413
#
# Compressibility (1/GPa) = 0.02260912
#
# Stress axis : x y z
#
# Youngs Moduli (GPa) = 115.14907 40.09441 79.44848
#
# Poissons Ratio (x) = 0.10233 0.19579
# Poissons Ratio (y) = 0.29389 0.53905
# Poissons Ratio (z) = 0.28377 0.27204
#
# Static dielectric constant tensor:
#      x y z
#    x 7.906410 -0.000050 -8.488860 
#    y -0.000050 3.122490 0.000100 
#    z -8.488860 0.000100 21.055910 
# 
# 
# High freq. dielectric constant tensor:
#      x y z
#    x 1.770630 0.000000 -0.007470 
#    y 0.000000 1.728920 0.000000 
#    z -0.007470 0.000000 1.779250 
# 
# From -- ./inp_files/156200.got.cif
#   From: 2010.06.25/outbox.cif.g09.slc.cpg/sg15_79_cif.got.tgz:156200.got - 2010.06.28 07:06:18.
