data_PCOD8141203
_publ_section_title
;
Structure prediction by ZEFSAII (Michael W. Deem and Ramdas Pophale) SiO2 
 PCOD8141203
Probable space group: C 2/C
;
_chemical_formula_sum "Si O2"
_cell_formula_units_Z 52
_cell_length_a 20.608608
_cell_length_b 14.831023
_cell_length_c 25.343304
_cell_angle_alpha 90.000000
_cell_angle_beta 20.994034
_cell_angle_gamma 90.000000
_cell_volume 2775.200324
_symmetry_space_group_name_H-M "C 2/C"
_symmetry_group_IT_number 15
_symmetry_cell_setting 'monoclinic'
loop_
_space_group_symop_operation_xyz
x,y,z
-x,y,1/2-z
-x,-y,-z
x,-y,1/2+z
1/2+x,1/2+y,z
1/2-x,1/2+y,1/2-z
1/2-x,1/2-y,-z
1/2+x,1/2-y,1/2+z
loop_
_atom_site_type_symbol
_atom_site_label
_atom_site_fract_x
_atom_site_fract_y
_atom_site_fract_z
Si Si1 0.241451 0.076027 0.043413
Si Si2 0.133403 0.377574 0.234488
Si Si3 0.931437 0.073124 0.435580
Si Si4 0.239624 0.499805 0.362368
Si Si5 0.006585 0.647708 0.487619
Si Si6 0.500000 0.261392 0.750000
Si Si7 0.848173 0.237099 0.195237
O O1 0.174844 0.046632 0.036760
O O2 0.172097 0.178282 0.102845
O O3 0.170937 0.017131 0.147361
O O4 0.457825 0.063113 0.880500
O O5 0.077090 0.300917 0.236597
O O6 0.200625 0.327796 0.235865
O O7 0.294464 0.441312 0.088852
O O8 0.005314 0.176261 0.383856
O O9 0.106271 0.007119 0.300633
O O10 0.149955 0.401305 0.427376
O O11 0.089701 0.577771 0.467047
O O12 0.925393 0.734106 0.579861
O O13 0.161406 0.681739 0.329779
#
# Coordination Sequence:
#
# PCOD8141203 Si02
#       7
#     8   8   8   8   8   4   8
#     4  12  19  30  48  75 109 143 171 205 267 330
#     4  12  20  26  45  78 110 135 168 211 258 317
#     4  11  20  32  48  78 110 139 171 218 273 323
#     4  10  21  36  49  72 109 150 179 209 269 325
#     4  10  21  36  54  72 104 144 189 223 254 314
#     4  12  18  26  44  76 110 138 166 204 256 324
#     4  11  19  34  52  77 104 141 185 222 255 311
#
# _framework density 18.737386000000001
#
# number of rings (size 3 to 8) (size 9 to 14) (size 15 to 20)
#    0.000    0.923    7.692    2.308    0.000    0.000 
#    0.000    2.308    0.000    0.000    0.000    4.308 
#    0.000    0.000    0.000    0.000    0.000    0.000 
#
# Total GULP energy -322186.776679 kJ/mol
# GULP energy per Si atom -12391.799103 kJ/mol
# Density = 1.869474 g / cm^3
# Si number density = 18.737386 Si / 1000 Ang^3
#
#
#
# Elastic Constant Matrix: (Units=GPa)
#
#
# Indices 1 2 3 4 5 6 
#
# 1 25.7386 9.0701 2.7641 0.0412 -4.7484 -0.0751
# 2 9.0701 34.4493 26.1134 0.0298 -9.4710 -0.0307
# 3 2.7641 26.1134 129.5705 0.0881 9.9552 -0.1532
# 4 0.0412 0.0298 0.0881 27.5349 -0.0196 -3.9145
# 5 -4.7484 -9.4710 9.9552 -0.0196 20.2192 0.0505
# 6 -0.0751 -0.0307 -0.1532 -3.9145 0.0505 20.2934
#
#
#
# Elastic Compliance Matrix: (Units=1/GPa)
#
#
# Indices 1 2 3 4 5 6 
#
# 1 0.043436 -0.010826 0.000895 -0.000034 0.004689 0.000133
# 2 -0.010826 0.047311 -0.011237 0.000002 0.025152 -0.000115
# 3 0.000895 -0.011237 0.010759 -0.000018 -0.010351 0.000090
# 4 -0.000034 0.000002 -0.000018 0.037342 0.000020 0.007203
# 5 0.004689 0.025152 -0.010351 0.000020 0.067437 -0.000187
# 6 0.000133 -0.000115 0.000090 0.007203 -0.000187 0.050668
#
#
# Mechanical properties :
#
#
# Convention : Reuss Voigt Hill
#
# Bulk Modulus (GPa) = 16.89997 29.51708 23.20852
# Shear Modulus (GPa) = 15.67345 23.73021 19.70183
#
# Velocity S-wave (km/s) = 2.89533 3.56260 3.24616
# Velocity P-wave (km/s) = 4.49625 5.71927 5.14424
#
# Compressibility (1/GPa) = 0.05917171
#
# Stress axis : x y z
#
# Youngs Moduli (GPa) = 23.02218 21.13685 92.94809
#
# Poissons Ratio (x) = 0.22882 -0.08319
# Poissons Ratio (y) = 0.24923 1.04442
# Poissons Ratio (z) = -0.02061 0.23751
#
# Static dielectric constant tensor:
#      x y z
#    x 3.044820 0.000090 0.056670 
#    y 0.000090 2.920260 0.000290 
#    z 0.056670 0.000290 3.916520 
# 
# 
# High freq. dielectric constant tensor:
#      x y z
#    x 1.696810 0.000000 0.010690 
#    y 0.000000 1.655750 0.000020 
#    z 0.010690 0.000020 1.755390 
# 
# From -- ./inp_files/61436.got.cif
#   From: 2010.06.25/outbox.cif.g09.slc.cpg/sg15_31_cif.got.tgz:61436.got - 2010.06.28 07:06:18.
