data_PCOD8141172
_publ_section_title
;
Structure prediction by ZEFSAII (Michael W. Deem and Ramdas Pophale) SiO2 
 PCOD8141172
Probable space group: C 2/C
;
_chemical_formula_sum "Si O2"
_cell_formula_units_Z 60
_cell_length_a 13.800701
_cell_length_b 16.827785
_cell_length_c 23.275453
_cell_angle_alpha 90.000000
_cell_angle_beta 149.854219
_cell_angle_gamma 90.000000
_cell_volume 2714.591963
_symmetry_space_group_name_H-M "C 2/C"
_symmetry_group_IT_number 15
_symmetry_cell_setting 'monoclinic'
loop_
_space_group_symop_operation_xyz
x,y,z
-x,y,1/2-z
-x,-y,-z
x,-y,1/2+z
1/2+x,1/2+y,z
1/2-x,1/2+y,1/2-z
1/2-x,1/2-y,-z
1/2+x,1/2-y,1/2+z
loop_
_atom_site_type_symbol
_atom_site_label
_atom_site_fract_x
_atom_site_fract_y
_atom_site_fract_z
Si Si1 0.029341 0.816681 0.161138
Si Si2 0.004376 0.871875 0.945339
Si Si3 0.741326 0.667511 0.464506
Si Si4 0.089286 0.311821 0.078950
Si Si5 0.500000 0.744220 0.250000
Si Si6 0.732668 0.118901 0.817163
Si Si7 0.908166 0.451404 0.763584
Si Si8 0.902852 0.348628 0.545874
O O1 0.183100 0.821002 0.292083
O O2 0.108064 0.868853 0.149558
O O3 0.992262 0.726123 0.124727
O O4 0.827562 0.853829 0.075995
O O5 0.965535 0.780795 0.943171
O O6 0.809699 0.920968 0.845013
O O7 0.110228 0.887778 0.937965
O O8 0.155008 0.906723 0.067896
O O9 0.750000 0.750000 0.500000
O O10 0.644778 0.683360 0.353696
O O11 0.960726 0.639344 0.560756
O O12 0.030938 0.345772 0.986514
O O13 0.392516 0.800617 0.241029
O O14 0.587809 0.046776 0.729537
O O15 0.000000 0.421955 0.750000
O O16 0.023724 0.423111 0.879454
#
# Coordination Sequence:
#
# PCOD8141172 Si02
#       8
#     8   8   8   8   4   8   8   8
#     4  11  23  40  69  95 134 178 231 277 345 399
#     4  11  22  39  64 101 137 169 224 276 348 404
#     4  10  21  35  62 100 131 163 219 282 328 402
#     4  11  21  39  66 100 129 168 224 284 341 400
#     4  12  20  36  64  94 136 166 222 264 340 392
#     4  12  23  42  63  95 136 184 218 276 340 411
#     4  12  27  42  64  97 140 177 227 280 344 413
#     4  11  24  41  66 101 134 175 226 292 332 406
#
# _framework density 22.102768999999999
#
# number of rings (size 3 to 8) (size 9 to 14) (size 15 to 20)
#    0.000    0.800    6.000    3.200    3.733    0.000 
#    0.000    0.667    0.000    1.600    0.000    0.000 
#    0.000    0.000    0.000    0.000    0.000    0.000 
#
# Total GULP energy -371876.512459 kJ/mol
# GULP energy per Si atom -12395.883749 kJ/mol
# Density = 2.205246 g / cm^3
# Si number density = 22.102769 Si / 1000 Ang^3
#
#
#
# Elastic Constant Matrix: (Units=GPa)
#
#
# Indices 1 2 3 4 5 6 
#
# 1 121.8033 23.3394 26.0073 -0.0018 12.4873 -0.0004
# 2 23.3394 46.7683 29.5111 0.0012 -7.7613 0.0004
# 3 26.0073 29.5111 119.2959 0.0000 5.4285 0.0001
# 4 -0.0018 0.0012 0.0000 28.6426 0.0011 -5.1321
# 5 12.4873 -7.7613 5.4285 0.0011 37.1891 0.0005
# 6 -0.0004 0.0004 0.0001 -5.1321 0.0005 15.2480
#
#
#
# Elastic Compliance Matrix: (Units=1/GPa)
#
#
# Indices 1 2 3 4 5 6 
#
# 1 0.009779 -0.005173 -0.000658 0.000001 -0.004267 0.000001
# 2 -0.005173 0.029601 -0.006599 -0.000002 0.008878 -0.000002
# 3 -0.000658 -0.006599 0.010279 0.000000 -0.002657 0.000000
# 4 0.000001 -0.000002 0.000000 0.037154 -0.000002 0.012505
# 5 -0.004267 0.008878 -0.002657 -0.000002 0.030563 -0.000002
# 6 0.000001 -0.000002 0.000000 0.012505 -0.000002 0.069791
#
#
# Mechanical properties :
#
#
# Convention : Reuss Voigt Hill
#
# Bulk Modulus (GPa) = 40.32371 49.50924 44.91647
# Shear Modulus (GPa) = 22.69699 30.14993 26.42346
#
# Velocity S-wave (km/s) = 3.20798 3.69735 3.46132
# Velocity P-wave (km/s) = 5.65728 6.37773 6.02828
#
# Compressibility (1/GPa) = 0.02479931
#
# Stress axis : x y z
#
# Youngs Moduli (GPa) = 102.25782 33.78283 97.28334
#
# Poissons Ratio (x) = 0.17477 0.06401
# Poissons Ratio (y) = 0.52900 0.64195
# Poissons Ratio (z) = 0.06729 0.22293
#
# Static dielectric constant tensor:
#      x y z
#    x 4.340850 0.000010 0.237910 
#    y 0.000010 3.146370 0.000000 
#    z 0.237910 0.000000 4.110270 
# 
# 
# High freq. dielectric constant tensor:
#      x y z
#    x 1.885550 0.000000 0.008060 
#    y 0.000000 1.818800 0.000000 
#    z 0.008060 0.000000 1.890180 
# 
# From -- ./inp_files/274740.got.cif
#   From: 2010.06.25/outbox.cif.g09.slc.cpg/sg15_138_cif.got.tgz:274740.got - 2010.06.28 07:06:18.
