data_PCOD8141110
_publ_section_title
;
Structure prediction by ZEFSAII (Michael W. Deem and Ramdas Pophale) SiO2 
 PCOD8141110
Probable space group: C 2/C
;
_chemical_formula_sum "Si O2"
_cell_formula_units_Z 56
_cell_length_a 9.187932
_cell_length_b 20.679777
_cell_length_c 13.954596
_cell_angle_alpha 90.000000
_cell_angle_beta 85.024038
_cell_angle_gamma 90.000000
_cell_volume 2641.441639
_symmetry_space_group_name_H-M "C 2/C"
_symmetry_group_IT_number 15
_symmetry_cell_setting 'monoclinic'
loop_
_space_group_symop_operation_xyz
x,y,z
-x,y,1/2-z
-x,-y,-z
x,-y,1/2+z
1/2+x,1/2+y,z
1/2-x,1/2+y,1/2-z
1/2-x,1/2-y,-z
1/2+x,1/2-y,1/2+z
loop_
_atom_site_type_symbol
_atom_site_label
_atom_site_fract_x
_atom_site_fract_y
_atom_site_fract_z
Si Si1 0.071238 0.796385 0.838768
Si Si2 0.644913 0.718557 0.700225
Si Si3 0.129720 0.299432 0.044768
Si Si4 0.827147 0.107012 0.649734
Si Si5 0.887274 0.136963 0.967534
Si Si6 0.066735 0.403852 0.508457
Si Si7 0.584529 0.013378 0.647486
O O1 0.226885 0.769619 0.795106
O O2 0.000000 0.831074 0.750000
O O3 0.972613 0.735138 0.872169
O O4 0.079918 0.848326 0.923181
O O5 0.500000 0.752695 0.750000
O O6 0.664690 0.648490 0.752326
O O7 0.620639 0.705249 0.588623
O O8 0.222600 0.354957 0.085777
O O9 0.020424 0.335150 0.974314
O O10 0.250000 0.250000 0.000000
O O11 0.750463 0.036664 0.663727
O O12 0.983793 0.095168 0.589493
O O13 0.732993 0.102672 0.963692
O O14 0.076022 0.439631 0.610533
O O15 0.987610 0.443594 0.430484
O O16 0.500000 0.020095 0.750000
#
# Coordination Sequence:
#
# PCOD8141110 Si02
#       7
#     8   8   8   8   8   8   8
#     4  12  23  37  57  88 129 172 202 245 316 381
#     4  10  21  35  57  90 118 160 214 261 302 369
#     4  11  21  38  61  88 125 173 202 246 309 391
#     4  10  21  37  64  88 119 160 218 258 310 374
#     4  11  22  39  57  92 128 156 205 268 312 370
#     4  10  23  40  66  91 123 163 215 260 319 369
#     4  10  22  43  65  92 119 165 213 268 312 375
#
# _framework density 21.200543
#
# number of rings (size 3 to 8) (size 9 to 14) (size 15 to 20)
#    0.000    1.429    4.286    1.286    2.000    0.571 
#    2.571    0.000    0.000    2.571    0.000    0.000 
#    0.000    0.000    0.000    0.000    0.000    0.000 
#
# Total GULP energy -346948.624501 kJ/mol
# GULP energy per Si atom -12391.022304 kJ/mol
# Density = 2.115229 g / cm^3
# Si number density = 21.200543 Si / 1000 Ang^3
#
#
#
# Elastic Constant Matrix: (Units=GPa)
#
#
# Indices 1 2 3 4 5 6 
#
# 1 149.2031 30.9073 30.7938 0.0000 -22.1223 0.0000
# 2 30.9073 49.2551 20.4032 0.0000 -13.6062 0.0000
# 3 30.7938 20.4032 94.4885 0.0000 0.2022 0.0000
# 4 0.0000 0.0000 0.0000 15.5631 0.0000 1.1981
# 5 -22.1223 -13.6062 0.2022 0.0000 20.4128 0.0000
# 6 0.0000 0.0000 0.0000 1.1981 0.0000 15.9308
#
#
#
# Elastic Compliance Matrix: (Units=1/GPa)
#
#
# Indices 1 2 3 4 5 6 
#
# 1 0.008884 -0.002343 -0.002407 0.000000 0.008090 0.000000
# 2 -0.002343 0.028612 -0.005450 0.000000 0.016586 0.000000
# 3 -0.002407 -0.005450 0.012558 0.000000 -0.006365 0.000000
# 4 0.000000 0.000000 0.000000 0.064629 0.000000 -0.004861
# 5 0.008090 0.016586 -0.006365 0.000000 0.068875 0.000000
# 6 0.000000 0.000000 0.000000 -0.004861 0.000000 0.063137
#
#
# Mechanical properties :
#
#
# Convention : Reuss Voigt Hill
#
# Bulk Modulus (GPa) = 33.72163 50.79501 42.25832
# Shear Modulus (GPa) = 18.05191 24.43751 21.24471
#
# Velocity S-wave (km/s) = 2.92118 3.39880 3.16900
# Velocity P-wave (km/s) = 5.22669 6.27804 5.77634
#
# Compressibility (1/GPa) = 0.02965456
#
# Stress axis : x y z
#
# Youngs Moduli (GPa) = 112.56460 34.95026 79.62966
#
# Poissons Ratio (x) = 0.08188 0.19164
# Poissons Ratio (y) = 0.26372 0.43400
# Poissons Ratio (z) = 0.27090 0.19049
#
# Static dielectric constant tensor:
#      x y z
#    x 4.186280 0.000000 0.152560 
#    y 0.000000 2.887090 0.000000 
#    z 0.152560 0.000000 3.939990 
# 
# 
# High freq. dielectric constant tensor:
#      x y z
#    x 1.858420 0.000000 0.002800 
#    y 0.000000 1.788050 0.000000 
#    z 0.002800 0.000000 1.830680 
# 
# From -- ./inp_files/136422.got.cif
#   From: 2010.06.25/outbox.cif.g09.slc.cpg/sg15_69_cif.got.tgz:136422.got - 2010.06.28 07:06:18.
