data_PCOD8141100
_publ_section_title
;
Structure prediction by ZEFSAII (Michael W. Deem and Ramdas Pophale) SiO2 
 PCOD8141100
Probable space group: C 2/C
;
_chemical_formula_sum "Si O2"
_cell_formula_units_Z 64
_cell_length_a 22.829511
_cell_length_b 19.853385
_cell_length_c 9.238038
_cell_angle_alpha 90.000000
_cell_angle_beta 124.572620
_cell_angle_gamma 90.000000
_cell_volume 3447.670918
_symmetry_space_group_name_H-M "C 2/C"
_symmetry_group_IT_number 15
_symmetry_cell_setting 'monoclinic'
loop_
_space_group_symop_operation_xyz
x,y,z
-x,y,1/2-z
-x,-y,-z
x,-y,1/2+z
1/2+x,1/2+y,z
1/2-x,1/2+y,1/2-z
1/2-x,1/2-y,-z
1/2+x,1/2-y,1/2+z
loop_
_atom_site_type_symbol
_atom_site_label
_atom_site_fract_x
_atom_site_fract_y
_atom_site_fract_z
Si Si1 0.446480 0.828251 0.047957
Si Si2 0.156693 0.563328 0.964393
Si Si3 0.046740 0.313916 0.951847
Si Si4 0.416520 0.684846 0.994858
Si Si5 0.178209 0.064413 0.309299
Si Si6 0.153246 0.427918 0.120907
Si Si7 0.574700 0.319997 0.661876
Si Si8 0.682974 0.430072 0.153218
O O1 0.500000 0.804201 0.250000
O O2 0.387911 0.879364 0.019214
O O3 0.496298 0.857155 0.990239
O O4 0.410127 0.761297 0.927164
O O5 0.138461 0.560387 0.769756
O O6 0.239205 0.580547 0.108812
O O7 0.131519 0.493708 0.000235
O O8 0.000000 0.291299 0.750000
O O9 0.110197 0.364368 0.997955
O O10 0.080214 0.247293 0.072652
O O11 0.359156 0.634745 0.845002
O O12 0.398798 0.694174 0.139362
O O13 0.493436 0.654099 0.060051
O O14 0.127271 0.122542 0.171118
O O15 0.165104 0.055910 0.461205
O O16 0.156950 0.994568 0.205366
O O17 0.235285 0.412748 0.206632
#
# Coordination Sequence:
#
# PCOD8141100 Si02
#       8
#     8   8   8   8   8   8   8   8
#     4  11  19  37  56  76 105 137 179 222 260 315
#     4  10  21  35  57  80 107 141 178 216 265 310
#     4  11  23  37  54  79 109 139 176 223 268 309
#     4   9  16  33  60  80 102 140 177 220 259 313
#     4   9  19  36  55  81 109 140 174 220 261 315
#     4  10  21  37  54  79 109 141 177 220 260 315
#     4   9  17  35  57  77 110 137 177 217 264 313
#     4   9  19  35  56  80 109 139 177 216 265 312
#
# _framework density 18.563257
#
# number of rings (size 3 to 8) (size 9 to 14) (size 15 to 20)
#    0.000    2.250    3.750    0.000    1.750    2.500 
#    4.500    3.750    0.000    3.750    0.000    0.000 
#    0.000    0.000    0.000    0.000    0.000    0.000 
#
# Total GULP energy -396660.023424 kJ/mol
# GULP energy per Si atom -12395.625732 kJ/mol
# Density = 1.852101 g / cm^3
# Si number density = 18.563257 Si / 1000 Ang^3
#
#
#
# Elastic Constant Matrix: (Units=GPa)
#
#
# Indices 1 2 3 4 5 6 
#
# 1 67.6610 57.5208 18.9960 0.0000 10.3933 0.0000
# 2 57.5208 136.2619 46.1870 0.0000 25.0563 0.0000
# 3 18.9960 46.1870 57.5821 0.0000 8.7661 0.0000
# 4 0.0000 0.0000 0.0000 27.5944 0.0000 1.7350
# 5 10.3933 25.0563 8.7661 0.0000 17.3136 0.0000
# 6 0.0000 0.0000 0.0000 1.7350 0.0000 37.8405
#
#
#
# Elastic Compliance Matrix: (Units=1/GPa)
#
#
# Indices 1 2 3 4 5 6 
#
# 1 0.023057 -0.009886 0.000273 0.000000 0.000328 0.000000
# 2 -0.009886 0.016916 -0.008109 0.000000 -0.014441 0.000000
# 3 0.000273 -0.008109 0.023858 0.000000 -0.000509 0.000000
# 4 0.000000 0.000000 0.000000 0.036344 0.000000 -0.001666
# 5 0.000328 -0.014441 -0.000509 0.000000 0.078718 0.000000
# 6 0.000000 0.000000 0.000000 -0.001666 0.000000 0.026503
#
#
# Mechanical properties :
#
#
# Convention : Reuss Voigt Hill
#
# Bulk Modulus (GPa) = 35.22603 56.32361 45.77482
# Shear Modulus (GPa) = 19.97596 25.80311 22.88954
#
# Velocity S-wave (km/s) = 3.28396 3.73233 3.51530
# Velocity P-wave (km/s) = 5.77898 6.99864 6.41785
#
# Compressibility (1/GPa) = 0.02838810
#
# Stress axis : x y z
#
# Youngs Moduli (GPa) = 43.37095 59.11571 41.91506
#
# Poissons Ratio (x) = 0.58442 -0.01146
# Poissons Ratio (y) = 0.42877 0.33987
# Poissons Ratio (z) = -0.01186 0.47935
#
# Static dielectric constant tensor:
#      x y z
#    x 3.533330 0.000000 0.017620 
#    y 0.000000 3.455560 0.000000 
#    z 0.017620 0.000000 3.290100 
# 
# 
# High freq. dielectric constant tensor:
#      x y z
#    x 1.724330 0.000000 0.001170 
#    y 0.000000 1.719280 0.000000 
#    z 0.001170 0.000000 1.699830 
# 
# From -- ./inp_files/57885.got.cif
#   From: 2010.06.25/outbox.cif.g09.slc.cpg/sg15_29_cif.got.tgz:57885.got - 2010.06.28 07:06:18.
