data_PCOD8141134
_publ_section_title
;
Structure prediction by ZEFSAII (Michael W. Deem and Ramdas Pophale) SiO2 
 PCOD8141134
Probable space group: C 2/C
;
_chemical_formula_sum "Si O2"
_cell_formula_units_Z 52
_cell_length_a 17.986789
_cell_length_b 8.756333
_cell_length_c 16.834455
_cell_angle_alpha 90.000000
_cell_angle_beta 72.538589
_cell_angle_gamma 90.000000
_cell_volume 2529.219890
_symmetry_space_group_name_H-M "C 2/C"
_symmetry_group_IT_number 15
_symmetry_cell_setting 'monoclinic'
loop_
_space_group_symop_operation_xyz
x,y,z
-x,y,1/2-z
-x,-y,-z
x,-y,1/2+z
1/2+x,1/2+y,z
1/2-x,1/2+y,1/2-z
1/2-x,1/2-y,-z
1/2+x,1/2-y,1/2+z
loop_
_atom_site_type_symbol
_atom_site_label
_atom_site_fract_x
_atom_site_fract_y
_atom_site_fract_z
Si Si1 0.339382 0.919597 0.785155
Si Si2 0.536112 0.568637 0.603445
Si Si3 0.500000 0.797584 0.750000
Si Si4 0.264025 0.948702 0.445812
Si Si5 0.326482 0.625630 0.387418
Si Si6 0.385025 0.563605 0.083197
Si Si7 0.796509 0.749074 0.732763
O O1 0.430876 0.903975 0.739006
O O2 0.293745 0.775271 0.762709
O O3 0.320529 0.925722 0.886614
O O4 0.309326 0.076471 0.755287
O O5 0.538664 0.700821 0.667597
O O6 0.585491 0.425814 0.621717
O O7 0.572958 0.628456 0.509211
O O8 0.446801 0.522089 0.619112
O O9 0.312058 0.791745 0.429535
O O10 0.236464 0.984908 0.545619
O O11 0.184523 0.945437 0.417178
O O12 0.313915 0.629071 0.297570
O O13 0.351973 0.709440 0.141209
#
# Coordination Sequence:
#
# PCOD8141134 Si02
#       7
#     8   8   4   8   8   8   8
#     4  10  24  40  60  85 124 156 203 247 308 344
#     4  10  21  35  59  90 124 159 198 245 306 362
#     4  12  26  40  56  86 124 164 198 260 300 350
#     4   8  17  36  58  87 118 151 195 247 288 360
#     4   9  17  32  61  91 111 153 198 239 294 359
#     4   9  19  38  59  90 125 156 195 250 303 362
#     4  10  21  39  64  88 115 159 202 249 296 372
#
# _framework density 20.559698000000001
#
# number of rings (size 3 to 8) (size 9 to 14) (size 15 to 20)
#    0.000    2.462    0.000    0.923    8.615    2.462 
#    2.769    3.077    0.000    0.000    0.000    0.000 
#    0.000    0.000    0.000    0.000    0.000    0.000 
#
# Total GULP energy -322182.036301 kJ/mol
# GULP energy per Si atom -12391.616781 kJ/mol
# Density = 2.051290 g / cm^3
# Si number density = 20.559698 Si / 1000 Ang^3
#
#
#
# Elastic Constant Matrix: (Units=GPa)
#
#
# Indices 1 2 3 4 5 6 
#
# 1 134.6235 48.4213 31.0782 0.0000 -15.6360 0.0000
# 2 48.4213 75.4456 30.1360 0.0000 -4.4811 0.0000
# 3 31.0782 30.1360 86.5219 0.0000 -5.6500 0.0000
# 4 0.0000 0.0000 0.0000 19.4155 0.0000 -1.3138
# 5 -15.6360 -4.4811 -5.6500 0.0000 24.1242 0.0000
# 6 0.0000 0.0000 0.0000 -1.3138 0.0000 34.0486
#
#
#
# Elastic Compliance Matrix: (Units=1/GPa)
#
#
# Indices 1 2 3 4 5 6 
#
# 1 0.010476 -0.005856 -0.001372 0.000000 0.005381 0.000000
# 2 -0.005856 0.018733 -0.004511 0.000000 -0.001372 0.000000
# 3 -0.001372 -0.004511 0.013719 0.000000 0.001486 0.000000
# 4 0.000000 0.000000 0.000000 0.051640 0.000000 0.001993
# 5 0.005381 -0.001372 0.001486 0.000000 0.045033 0.000000
# 6 0.000000 0.000000 0.000000 0.001993 0.000000 0.029447
#
#
# Mechanical properties :
#
#
# Convention : Reuss Voigt Hill
#
# Bulk Modulus (GPa) = 51.41308 57.31799 54.36554
# Shear Modulus (GPa) = 25.12444 27.98136 26.55290
#
# Velocity S-wave (km/s) = 3.49954 3.69315 3.59765
# Velocity P-wave (km/s) = 6.43351 6.79155 6.61495
#
# Compressibility (1/GPa) = 0.01945030
#
# Stress axis : x y z
#
# Youngs Moduli (GPa) = 95.45538 53.38055 72.89269
#
# Poissons Ratio (x) = 0.31260 0.10000
# Poissons Ratio (y) = 0.55899 0.32883
# Poissons Ratio (z) = 0.13095 0.24080
#
# Static dielectric constant tensor:
#      x y z
#    x 3.767270 0.000000 -0.117340 
#    y 0.000000 3.260910 0.000000 
#    z -0.117340 0.000000 4.258100 
# 
# 
# High freq. dielectric constant tensor:
#      x y z
#    x 1.803310 0.000000 -0.009850 
#    y 0.000000 1.767890 0.000000 
#    z -0.009850 0.000000 1.824100 
# 
# From -- ./inp_files/209097.got.cif
#   From: 2010.06.25/outbox.cif.g09.slc.cpg/sg15_105_cif.got.tgz:209097.got - 2010.06.28 07:06:18.
