data_PCOD8141853
_publ_section_title
;
Structure prediction by ZEFSAII (Michael W. Deem and Ramdas Pophale) SiO2 
 PCOD8141853
Probable space group: C 2/C
;
_chemical_formula_sum "Si O2"
_cell_formula_units_Z 44
_cell_length_a 16.306126
_cell_length_b 5.509442
_cell_length_c 21.916555
_cell_angle_alpha 90.000000
_cell_angle_beta 114.591625
_cell_angle_gamma 90.000000
_cell_volume 1790.343782
_symmetry_space_group_name_H-M "C 2/C"
_symmetry_group_IT_number 15
_symmetry_cell_setting 'monoclinic'
loop_
_space_group_symop_operation_xyz
x,y,z
-x,y,1/2-z
-x,-y,-z
x,-y,1/2+z
1/2+x,1/2+y,z
1/2-x,1/2+y,1/2-z
1/2-x,1/2-y,-z
1/2+x,1/2-y,1/2+z
loop_
_atom_site_type_symbol
_atom_site_label
_atom_site_fract_x
_atom_site_fract_y
_atom_site_fract_z
Si Si1 0.380327 0.742815 0.136831
Si Si2 0.749152 0.645835 0.903514
Si Si3 0.000000 0.564024 0.250000
Si Si4 0.115920 0.367739 0.956968
Si Si5 0.723985 0.588651 0.208113
Si Si6 0.468674 0.615505 0.847907
O O1 0.285089 0.621134 0.129581
O O2 0.457843 0.546684 0.161650
O O3 0.412060 0.931282 0.197227
O O4 0.374801 0.862059 0.067759
O O5 0.680904 0.695677 0.937637
O O6 0.738861 0.849492 0.848228
O O7 0.851072 0.630705 0.962280
O O8 0.945214 0.698509 0.286683
O O9 0.013616 0.260303 0.919789
O O10 0.766308 0.340390 0.249426
O O11 0.618353 0.540243 0.162309
#
# Coordination Sequence:
#
# PCOD8141853 Si02
#       6
#     8   8   4   8   8   8
#     4  10  21  37  71 101 133 187 247 304 359 427
#     4  10  23  44  67 105 137 187 240 305 362 437
#     4  10  22  36  70  98 150 182 258 302 354 436
#     4   9  21  43  75  98 135 181 253 301 360 423
#     4  12  32  46  68 104 156 195 239 297 385 437
#     4  10  24  41  64 105 133 193 239 300 365 439
#
# _framework density 24.576284000000001
#
# number of rings (size 3 to 8) (size 9 to 14) (size 15 to 20)
#    0.000    1.818    0.000    1.091   17.818    0.727 
#    0.000    0.909    0.000    0.000    0.000    0.000 
#    0.000    0.000    0.000    0.000    0.000    0.000 
#
# Total GULP energy -272541.154681 kJ/mol
# GULP energy per Si atom -12388.234304 kJ/mol
# Density = 2.452035 g / cm^3
# Si number density = 24.576284 Si / 1000 Ang^3
#
#
#
# Elastic Constant Matrix: (Units=GPa)
#
#
# Indices 1 2 3 4 5 6 
#
# 1 49.3648 34.1773 59.1228 0.0000 16.9153 0.0000
# 2 34.1773 141.0006 66.7689 0.0002 17.9555 0.0002
# 3 59.1228 66.7689 148.5383 -0.0001 31.8651 0.0001
# 4 0.0000 0.0002 -0.0001 7.4485 0.0000 -1.7216
# 5 16.9153 17.9555 31.8651 0.0000 25.5467 0.0000
# 6 0.0000 0.0002 0.0001 -1.7216 0.0000 27.8390
#
#
#
# Elastic Compliance Matrix: (Units=1/GPa)
#
#
# Indices 1 2 3 4 5 6 
#
# 1 0.040886 -0.002514 -0.013265 0.000000 -0.008760 0.000000
# 2 -0.002514 0.009222 -0.002883 0.000000 -0.001222 0.000000
# 3 -0.013265 -0.002883 0.015004 0.000000 -0.007905 0.000000
# 4 0.000000 0.000000 0.000000 0.136201 0.000000 0.008423
# 5 -0.008760 -0.001222 -0.007905 0.000000 0.055663 0.000000
# 6 0.000000 0.000000 0.000000 0.008423 0.000000 0.036442
#
#
# Mechanical properties :
#
#
# Convention : Reuss Voigt Hill
#
# Bulk Modulus (GPa) = 35.98473 73.22684 54.60578
# Shear Modulus (GPa) = 14.70568 24.08916 19.39742
#
# Velocity S-wave (km/s) = 2.44881 3.13418 2.81245
# Velocity P-wave (km/s) = 4.76124 6.55422 5.72832
#
# Compressibility (1/GPa) = 0.02778957
#
# Stress axis : x y z
#
# Youngs Moduli (GPa) = 24.45811 108.43471 66.64936
#
# Poissons Ratio (x) = 0.27255 0.88410
# Poissons Ratio (y) = 0.06148 0.19214
# Poissons Ratio (z) = 0.32444 0.31261
#
# Static dielectric constant tensor:
#      x y z
#    x 4.132530 0.000000 0.461020 
#    y 0.000000 5.039140 0.000000 
#    z 0.461020 0.000000 4.904040 
# 
# 
# High freq. dielectric constant tensor:
#      x y z
#    x 1.942840 0.000000 0.031180 
#    y 0.000000 1.993040 0.000000 
#    z 0.031180 0.000000 1.986740 
# 
# From -- ./inp_files/275926.got.cif
#   From: 2010.06.25/outbox.cif.g09.slc.cpg/sg15_138_cif.got.tgz:275926.got - 2010.06.28 07:06:18.
