data_PCOD8141159
_publ_section_title
;
Structure prediction by ZEFSAII (Michael W. Deem and Ramdas Pophale) SiO2 
 PCOD8141159
Probable space group: C 2/C
;
_chemical_formula_sum "Si O2"
_cell_formula_units_Z 60
_cell_length_a 16.553096
_cell_length_b 9.186156
_cell_length_c 23.542760
_cell_angle_alpha 90.000000
_cell_angle_beta 56.526234
_cell_angle_gamma 90.000000
_cell_volume 2986.129006
_symmetry_space_group_name_H-M "C 2/C"
_symmetry_group_IT_number 15
_symmetry_cell_setting 'monoclinic'
loop_
_space_group_symop_operation_xyz
x,y,z
-x,y,1/2-z
-x,-y,-z
x,-y,1/2+z
1/2+x,1/2+y,z
1/2-x,1/2+y,1/2-z
1/2-x,1/2-y,-z
1/2+x,1/2-y,1/2+z
loop_
_atom_site_type_symbol
_atom_site_label
_atom_site_fract_x
_atom_site_fract_y
_atom_site_fract_z
Si Si1 0.419340 0.305843 0.128415
Si Si2 0.167184 0.747028 0.217939
Si Si3 0.009550 0.091125 0.359975
Si Si4 0.642750 0.156853 0.812521
Si Si5 0.487952 0.023743 0.438860
Si Si6 0.217083 0.575987 0.665761
Si Si7 0.657089 0.822018 0.064465
Si Si8 0.000000 0.927716 0.250000
O O1 0.389788 0.232954 0.200141
O O2 0.487444 0.447814 0.102991
O O3 0.323511 0.351058 0.129945
O O4 0.495914 0.196463 0.070567
O O5 0.254288 0.859581 0.196438
O O6 0.210830 0.599303 0.174577
O O7 0.093461 0.823771 0.202641
O O8 0.015907 0.038635 0.293802
O O9 0.917555 0.189731 0.407254
O O10 0.106782 0.179502 0.335961
O O11 0.572822 0.042420 0.868218
O O12 0.648174 0.133572 0.742658
O O13 0.385373 0.958737 0.455793
O O14 0.500000 0.000000 0.500000
O O15 0.175554 0.622110 0.620915
O O16 0.750000 0.750000 0.000000
#
# Coordination Sequence:
#
# PCOD8141159 Si02
#       8
#     8   8   8   8   8   8   8   4
#     4  10  21  40  63  92 125 165 212 256 326 378
#     4  10  21  35  60  99 129 160 203 268 314 387
#     4  10  21  40  60  91 125 161 208 260 311 382
#     4  10  21  40  64  96 122 169 214 252 327 376
#     4  11  24  43  66  90 129 172 217 264 316 397
#     4  11  21  38  69  90 136 157 213 271 312 383
#     4  11  26  44  63  94 127 173 218 261 333 385
#     4  10  22  32  62  94 132 154 202 260 330 364
#
# _framework density 20.092903
#
# number of rings (size 3 to 8) (size 9 to 14) (size 15 to 20)
#    0.000    1.600    2.667    1.600    3.733    3.733 
#    2.400    2.667    0.000    0.000    0.000    0.000 
#    0.000    0.000    0.000    0.000    0.000    0.000 
#
# Total GULP energy -371702.960547 kJ/mol
# GULP energy per Si atom -12390.098685 kJ/mol
# Density = 2.004717 g / cm^3
# Si number density = 20.092903 Si / 1000 Ang^3
#
#
#
# Elastic Constant Matrix: (Units=GPa)
#
#
# Indices 1 2 3 4 5 6 
#
# 1 123.7425 48.7050 36.3877 0.0000 3.3917 0.0001
# 2 48.7050 105.1119 25.4314 0.0000 5.5228 0.0002
# 3 36.3877 25.4314 62.0694 0.0000 7.0118 0.0000
# 4 0.0000 0.0000 0.0000 17.6585 0.0000 -20.0972
# 5 3.3917 5.5228 7.0118 0.0000 29.9089 0.0000
# 6 0.0001 0.0002 0.0000 -20.0972 0.0000 -47.1266
#
#
#
# Elastic Compliance Matrix: (Units=1/GPa)
#
#
# Indices 1 2 3 4 5 6 
#
# 1 0.011080 -0.003972 -0.004940 0.000000 0.000635 0.000000
# 2 -0.003972 0.012012 -0.002458 0.000000 -0.001191 0.000000
# 3 -0.004940 -0.002458 0.020441 0.000000 -0.003778 0.000000
# 4 0.000000 0.000000 0.000000 0.038126 0.000000 -0.016259
# 5 0.000635 -0.001191 -0.003778 0.000000 0.034469 0.000000
# 6 0.000000 0.000000 0.000000 -0.016259 0.000000 -0.014286
#
#
# Mechanical properties :
#
#
# Convention : Reuss Voigt Hill
#
# Bulk Modulus (GPa) = 48.09531 56.88576 52.49054
# Shear Modulus (GPa) = 38.01938 12.11482 25.06710
#
# Velocity S-wave (km/s) = 4.35464 2.45815 3.53591
# Velocity P-wave (km/s) = 7.01942 6.03568 6.54606
#
# Compressibility (1/GPa) = 0.02079205
#
# Stress axis : x y z
#
# Youngs Moduli (GPa) = 90.25318 83.25279 48.92167
#
# Poissons Ratio (x) = 0.33070 0.24166
# Poissons Ratio (y) = 0.35851 0.12026
# Poissons Ratio (z) = 0.44583 0.20465
#
# Static dielectric constant tensor:
#      x y z
#    x 4.011520 0.000000 -0.026580 
#    y 0.000000 3.891020 0.000000 
#    z -0.026580 0.000000 3.460500 
# 
# 
# High freq. dielectric constant tensor:
#      x y z
#    x 1.794470 0.000000 0.001680 
#    y 0.000000 1.799930 0.000000 
#    z 0.001680 0.000000 1.761860 
# 
# From -- ./inp_files/276553.got.cif
#   From: 2010.06.25/outbox.cif.g09.slc.cpg/sg15_139_cif.got.tgz:276553.got - 2010.06.28 07:06:18.
