data_PCOD8141187
_publ_section_title
;
Structure prediction by ZEFSAII (Michael W. Deem and Ramdas Pophale) SiO2 
 PCOD8141187
Probable space group: C 2/C
;
_chemical_formula_sum "Si O2"
_cell_formula_units_Z 64
_cell_length_a 12.443787
_cell_length_b 19.676369
_cell_length_c 14.599881
_cell_angle_alpha 90.000000
_cell_angle_beta 117.362663
_cell_angle_gamma 90.000000
_cell_volume 3174.797950
_symmetry_space_group_name_H-M "C 2/C"
_symmetry_group_IT_number 15
_symmetry_cell_setting 'monoclinic'
loop_
_space_group_symop_operation_xyz
x,y,z
-x,y,1/2-z
-x,-y,-z
x,-y,1/2+z
1/2+x,1/2+y,z
1/2-x,1/2+y,1/2-z
1/2-x,1/2-y,-z
1/2+x,1/2-y,1/2+z
loop_
_atom_site_type_symbol
_atom_site_label
_atom_site_fract_x
_atom_site_fract_y
_atom_site_fract_z
Si Si1 0.537347 0.977995 0.366891
Si Si2 0.605264 0.274212 0.715671
Si Si3 0.640523 0.583860 0.288326
Si Si4 0.135729 0.934550 0.266883
Si Si5 0.717995 0.130151 0.987226
Si Si6 0.517945 0.783596 0.502359
Si Si7 0.627931 0.916678 0.043675
Si Si8 0.825083 0.183490 0.855258
O O1 0.500000 0.000473 0.250000
O O2 0.631855 0.916960 0.391988
O O3 0.426279 0.951556 0.385715
O O4 0.600503 0.041018 0.441777
O O5 0.500000 0.267864 0.750000
O O6 0.673228 0.347770 0.744497
O O7 0.550049 0.265527 0.594439
O O8 0.701276 0.214289 0.767975
O O9 0.500000 0.587978 0.250000
O O10 0.670370 0.512290 0.250079
O O11 0.712684 0.583645 0.412128
O O12 0.228191 0.910270 0.382965
O O13 0.144056 0.885758 0.183750
O O14 0.000000 0.931926 0.250000
O O15 0.640720 0.187065 0.007727
O O16 0.812847 0.166471 0.958123
O O17 0.428810 0.843103 0.499435
O O18 0.562787 0.737066 0.605752
#
# Coordination Sequence:
#
# PCOD8141187 Si02
#       8
#     8   8   8   8   8   8   8   8
#     4  10  21  35  63  98 127 161 202 256 313 373
#     4  11  20  34  61  96 130 153 191 255 326 378
#     4  10  21  38  59  87 127 165 194 248 318 370
#     4  11  24  44  63  82 124 175 210 245 299 367
#     4  11  20  35  61  97 131 149 199 255 322 378
#     4  11  22  36  60  97 123 155 202 255 322 369
#     4  10  21  40  65  88 125 166 206 256 315 367
#     4  12  22  37  64  93 121 160 205 255 311 375
#
# _framework density 20.158763
#
# number of rings (size 3 to 8) (size 9 to 14) (size 15 to 20)
#    0.000    1.250    5.000    2.625    1.750    0.000 
#    0.000    6.875    2.750    0.000    0.000    0.000 
#    0.000    0.000    0.000    0.000    0.000    0.000 
#
# Total GULP energy -396727.500453 kJ/mol
# GULP energy per Si atom -12397.734389 kJ/mol
# Density = 2.011288 g / cm^3
# Si number density = 20.158763 Si / 1000 Ang^3
#
#
#
# Elastic Constant Matrix: (Units=GPa)
#
#
# Indices 1 2 3 4 5 6 
#
# 1 58.0381 35.6508 31.0411 0.0000 17.4016 0.0000
# 2 35.6508 135.0346 45.6431 0.0000 0.6222 0.0000
# 3 31.0411 45.6431 120.3571 0.0000 15.8539 0.0000
# 4 0.0000 0.0000 0.0000 43.1693 0.0000 3.4864
# 5 17.4016 0.6222 15.8539 0.0000 23.0586 0.0000
# 6 0.0000 0.0000 0.0000 3.4864 0.0000 35.2210
#
#
#
# Elastic Compliance Matrix: (Units=1/GPa)
#
#
# Indices 1 2 3 4 5 6 
#
# 1 0.028430 -0.006671 -0.002199 0.000000 -0.019763 0.000000
# 2 -0.006671 0.010161 -0.003035 0.000000 0.006847 0.000000
# 3 -0.002199 -0.003035 0.010773 0.000000 -0.005665 0.000000
# 4 0.000000 0.000000 0.000000 0.023351 0.000000 -0.002311
# 5 -0.019763 0.006847 -0.005665 0.000000 0.061993 0.000000
# 6 0.000000 0.000000 0.000000 -0.002311 0.000000 0.028621
#
#
# Mechanical properties :
#
#
# Convention : Reuss Voigt Hill
#
# Bulk Modulus (GPa) = 39.13364 59.78885 49.46125
# Shear Modulus (GPa) = 25.55493 33.69609 29.62551
#
# Velocity S-wave (km/s) = 3.56432 4.09288 3.83771
# Velocity P-wave (km/s) = 6.03274 7.21519 6.65030
#
# Compressibility (1/GPa) = 0.02555346
#
# Stress axis : x y z
#
# Youngs Moduli (GPa) = 35.17437 98.41495 92.82577
#
# Poissons Ratio (x) = 0.65657 0.20412
# Poissons Ratio (y) = 0.23466 0.28170
# Poissons Ratio (z) = 0.07735 0.29866
#
# Static dielectric constant tensor:
#      x y z
#    x 3.358880 0.000000 0.290120 
#    y 0.000000 4.140060 0.000000 
#    z 0.290120 0.000000 3.466370 
# 
# 
# High freq. dielectric constant tensor:
#      x y z
#    x 1.752020 0.000000 0.040450 
#    y 0.000000 1.805260 0.000000 
#    z 0.040450 0.000000 1.784660 
# 
# From -- ./inp_files/155226.got.cif
#   From: 2010.06.25/outbox.cif.g09.slc.cpg/sg15_78_cif.got.tgz:155226.got - 2010.06.28 07:06:18.
