data_PCOD8141227
_publ_section_title
;
Structure prediction by ZEFSAII (Michael W. Deem and Ramdas Pophale) SiO2 
 PCOD8141227
Probable space group: C 2/C
;
_chemical_formula_sum "Si O2"
_cell_formula_units_Z 32
_cell_length_a 8.100155
_cell_length_b 35.689341
_cell_length_c 5.106137
_cell_angle_alpha 90.000000
_cell_angle_beta 100.189069
_cell_angle_gamma 90.000000
_cell_volume 1452.849552
_symmetry_space_group_name_H-M "C 2/C"
_symmetry_group_IT_number 15
_symmetry_cell_setting 'monoclinic'
loop_
_space_group_symop_operation_xyz
x,y,z
-x,y,1/2-z
-x,-y,-z
x,-y,1/2+z
1/2+x,1/2+y,z
1/2-x,1/2+y,1/2-z
1/2-x,1/2-y,-z
1/2+x,1/2-y,1/2+z
loop_
_atom_site_type_symbol
_atom_site_label
_atom_site_fract_x
_atom_site_fract_y
_atom_site_fract_z
Si Si1 0.891641 0.220820 0.962012
Si Si2 0.806482 0.599315 0.180097
Si Si3 0.194726 0.352907 0.322203
Si Si4 0.691840 0.481441 0.764460
O O1 0.807132 0.183624 0.820973
O O2 0.000000 0.237548 0.750000
O O3 0.750000 0.250000 0.000000
O O4 0.000000 0.211943 0.250000
O O5 0.761759 0.629708 0.385767
O O6 0.699951 0.562220 0.198545
O O7 0.000000 0.587716 0.250000
O O8 0.758592 0.616983 0.887467
O O9 0.000000 0.341168 0.250000
O O10 0.500000 0.493532 0.750000
O O11 0.779948 0.506636 0.562087
#
# Coordination Sequence:
#
# PCOD8141227 Si02
#       4
#     8   8   8   8
#     4  12  26  44  68  98 130 168 212 256 311 372
#     4  10  21  37  60  87 117 157 202 252 307 363
#     4  10  22  41  62  89 125 161 203 255 309 366
#     4  10  21  36  54  80 115 155 198 248 304 361
#
# _framework density 22.025680999999999
#
# number of rings (size 3 to 8) (size 9 to 14) (size 15 to 20)
#    0.000    1.500    0.000    4.500    0.000    7.000 
#    0.000    0.000    0.000    0.000    0.000    0.000 
#    0.000    0.000    0.000    0.000    0.000    0.000 
#
# Total GULP energy -198438.055086 kJ/mol
# GULP energy per Si atom -12402.378443 kJ/mol
# Density = 2.197555 g / cm^3
# Si number density = 22.025681 Si / 1000 Ang^3
#
#
#
# Elastic Constant Matrix: (Units=GPa)
#
#
# Indices 1 2 3 4 5 6 
#
# 1 63.1238 48.6030 52.6922 0.0000 -15.5980 0.0000
# 2 48.6030 100.2680 29.5464 0.0000 -8.7091 0.0000
# 3 52.6922 29.5464 147.3514 0.0000 -20.1858 0.0000
# 4 0.0000 0.0000 0.0000 27.3278 0.0000 -11.7892
# 5 -15.5980 -8.7091 -20.1858 0.0000 34.0454 0.0000
# 6 0.0000 0.0000 0.0000 -11.7892 0.0000 33.2941
#
#
#
# Elastic Compliance Matrix: (Units=1/GPa)
#
#
# Indices 1 2 3 4 5 6 
#
# 1 0.036252 -0.014241 -0.009068 0.000000 0.007589 0.000000
# 2 -0.014241 0.016273 0.001639 0.000000 -0.001390 0.000000
# 3 -0.009068 0.001639 0.010001 0.000000 0.002194 0.000000
# 4 0.000000 0.000000 0.000000 0.043190 0.000000 0.015293
# 5 0.007589 -0.001390 0.002194 0.000000 0.033795 0.000000
# 6 0.000000 0.000000 0.000000 0.015293 0.000000 0.035451
#
#
# Mechanical properties :
#
#
# Convention : Reuss Voigt Hill
#
# Bulk Modulus (GPa) = 52.12288 63.60292 57.86290
# Shear Modulus (GPa) = 22.25215 30.92691 26.58953
#
# Velocity S-wave (km/s) = 3.18194 3.75124 3.47826
# Velocity P-wave (km/s) = 6.10046 6.90665 6.51603
#
# Compressibility (1/GPa) = 0.01918543
#
# Stress axis : x y z
#
# Youngs Moduli (GPa) = 27.58468 61.45303 99.98776
#
# Poissons Ratio (x) = 0.87516 0.90672
# Poissons Ratio (y) = 0.39284 -0.16390
# Poissons Ratio (z) = 0.25015 -0.10073
#
# Static dielectric constant tensor:
#      x y z
#    x 3.946630 0.000000 -0.089210 
#    y 0.000000 3.716110 0.000000 
#    z -0.089210 0.000000 4.489490 
# 
# 
# High freq. dielectric constant tensor:
#      x y z
#    x 1.856140 0.000000 -0.011270 
#    y 0.000000 1.864080 0.000000 
#    z -0.011270 0.000000 1.891880 
# 
# From -- ./inp_files/2352.got.cif
#   From: 2010.06.25/outbox.cif.g09.slc.cpg/sg15_2_cif.got.tgz:2352.got - 2010.06.28 07:06:18.
