data_PCOD8141940
_publ_section_title
;
Structure prediction by ZEFSAII (Michael W. Deem and Ramdas Pophale) SiO2 
 PCOD8141940
Probable space group: C 2/C
;
_chemical_formula_sum "Si O2"
_cell_formula_units_Z 56
_cell_length_a 13.866433
_cell_length_b 21.390057
_cell_length_c 13.526829
_cell_angle_alpha 90.000000
_cell_angle_beta 44.855590
_cell_angle_gamma 90.000000
_cell_volume 2829.829888
_symmetry_space_group_name_H-M "C 2/C"
_symmetry_group_IT_number 15
_symmetry_cell_setting 'monoclinic'
loop_
_space_group_symop_operation_xyz
x,y,z
-x,y,1/2-z
-x,-y,-z
x,-y,1/2+z
1/2+x,1/2+y,z
1/2-x,1/2+y,1/2-z
1/2-x,1/2-y,-z
1/2+x,1/2-y,1/2+z
loop_
_atom_site_type_symbol
_atom_site_label
_atom_site_fract_x
_atom_site_fract_y
_atom_site_fract_z
Si Si1 0.230075 0.982502 0.324944
Si Si2 0.485455 0.499511 0.873914
Si Si3 0.925972 0.861964 0.706988
Si Si4 0.569610 0.874765 0.304101
Si Si5 0.136654 0.593080 0.383440
Si Si6 0.560289 0.792239 0.814616
Si Si7 0.138027 0.747625 0.875341
O O1 0.301511 0.919297 0.308180
O O2 0.162952 0.016750 0.470888
O O3 0.104950 0.963848 0.343805
O O4 0.334454 0.027272 0.190675
O O5 0.500000 0.519344 0.750000
O O6 0.498381 0.424953 0.882250
O O7 0.768758 0.879249 0.843541
O O8 0.929642 0.809677 0.620711
O O9 0.000000 0.834514 0.750000
O O10 0.500000 0.860931 0.250000
O O11 0.473793 0.912943 0.449633
O O12 0.617085 0.809244 0.314870
O O13 0.085334 0.637723 0.333498
O O14 0.500000 0.794662 0.750000
O O15 0.701325 0.753479 0.717948
O O16 0.443545 0.760492 0.964652
#
# Coordination Sequence:
#
# PCOD8141940 Si02
#       7
#     8   8   8   8   8   8   8
#     4  10  21  38  59  85 118 153 197 242 285 353
#     4   9  20  38  62  87 114 151 201 244 289 339
#     4   9  18  34  64  82 115 153 183 239 297 338
#     4  11  24  36  58  88 122 154 190 238 297 356
#     4   9  21  40  54  85 118 150 197 242 291 346
#     4  10  21  40  61  81 115 159 197 241 289 344
#     4  10  22  38  58  90 121 148 199 241 285 353
#
# _framework density 19.789175
#
# number of rings (size 3 to 8) (size 9 to 14) (size 15 to 20)
#    0.000    2.286    0.000    1.286    8.000    0.571 
#    5.143    5.000    0.000    0.000    0.000    0.000 
#    0.000    0.000    0.000    0.000    0.000    0.000 
#
# Total GULP energy -347118.760253 kJ/mol
# GULP energy per Si atom -12397.098580 kJ/mol
# Density = 1.974413 g / cm^3
# Si number density = 19.789175 Si / 1000 Ang^3
#
#
#
# Elastic Constant Matrix: (Units=GPa)
#
#
# Indices 1 2 3 4 5 6 
#
# 1 143.1321 35.8522 58.8781 0.0000 16.5275 -0.0001
# 2 35.8522 39.6546 11.9152 -0.0001 -1.7192 -0.0001
# 3 58.8781 11.9152 107.1109 -0.0004 4.9333 0.0001
# 4 0.0000 -0.0001 -0.0004 19.8906 0.0002 -5.0332
# 5 16.5275 -1.7192 4.9333 0.0002 32.5131 0.0001
# 6 -0.0001 -0.0001 0.0001 -5.0332 0.0001 14.7792
#
#
#
# Elastic Compliance Matrix: (Units=1/GPa)
#
#
# Indices 1 2 3 4 5 6 
#
# 1 0.012369 -0.009810 -0.005432 0.000000 -0.005982 0.000000
# 2 -0.009810 0.033979 0.001309 0.000000 0.006585 0.000000
# 3 -0.005432 0.001309 0.012131 0.000000 0.000990 0.000000
# 4 0.000000 0.000000 0.000000 0.055016 0.000000 0.018736
# 5 -0.005982 0.006585 0.000990 0.000000 0.033996 0.000000
# 6 0.000000 0.000000 0.000000 0.018736 0.000000 0.074043
#
#
# Mechanical properties :
#
#
# Convention : Reuss Voigt Hill
#
# Bulk Modulus (GPa) = 32.66581 55.90984 44.28782
# Shear Modulus (GPa) = 19.25997 25.65340 22.45669
#
# Velocity S-wave (km/s) = 3.12309 3.60437 3.37233
# Velocity P-wave (km/s) = 5.43578 6.75545 6.13122
#
# Compressibility (1/GPa) = 0.03061305
#
# Stress axis : x y z
#
# Youngs Moduli (GPa) = 80.84532 29.42966 82.43306
#
# Poissons Ratio (x) = 0.28871 0.44782
# Poissons Ratio (y) = 0.79311 -0.10794
# Poissons Ratio (z) = 0.43919 -0.03854
#
# Static dielectric constant tensor:
#      x y z
#    x 3.669630 0.000000 -0.073470 
#    y 0.000000 3.479970 0.000000 
#    z -0.073470 0.000000 3.718660 
# 
# 
# High freq. dielectric constant tensor:
#      x y z
#    x 1.775780 0.000000 -0.003650 
#    y 0.000000 1.756060 0.000000 
#    z -0.003650 0.000000 1.782980 
# 
# From -- ./inp_files/91965.got.cif
#   From: 2010.06.25/outbox.cif.g09.slc.cpg/sg15_46_cif.got.tgz:91965.got - 2010.06.28 07:06:18.
