data_PCOD8141930
_publ_section_title
;
Structure prediction by ZEFSAII (Michael W. Deem and Ramdas Pophale) SiO2 
 PCOD8141930
Probable space group: C 2/C
;
_chemical_formula_sum "Si O2"
_cell_formula_units_Z 52
_cell_length_a 20.590861
_cell_length_b 23.355255
_cell_length_c 5.140291
_cell_angle_alpha 90.000000
_cell_angle_beta 78.617944
_cell_angle_gamma 90.000000
_cell_volume 2423.374095
_symmetry_space_group_name_H-M "C 2/C"
_symmetry_group_IT_number 15
_symmetry_cell_setting 'monoclinic'
loop_
_space_group_symop_operation_xyz
x,y,z
-x,y,1/2-z
-x,-y,-z
x,-y,1/2+z
1/2+x,1/2+y,z
1/2-x,1/2+y,1/2-z
1/2-x,1/2-y,-z
1/2+x,1/2-y,1/2+z
loop_
_atom_site_type_symbol
_atom_site_label
_atom_site_fract_x
_atom_site_fract_y
_atom_site_fract_z
Si Si1 0.168735 0.194407 0.043572
Si Si2 0.573101 0.474988 0.976826
Si Si3 0.677574 0.825220 0.081117
Si Si4 0.500000 0.959422 0.750000
Si Si5 0.257772 0.464864 0.428106
Si Si6 0.635435 0.107091 0.106340
Si Si7 0.863547 0.131670 0.921761
O O1 0.243885 0.175513 0.926208
O O2 0.123431 0.162292 0.864282
O O3 0.155389 0.261463 0.022902
O O4 0.147358 0.179212 0.351402
O O5 0.610999 0.510008 0.178129
O O6 0.500000 0.500000 0.000000
O O7 0.573206 0.407718 0.045582
O O8 0.640264 0.846207 0.370799
O O9 0.659297 0.866083 0.858481
O O10 0.438186 0.916470 0.804275
O O11 0.500000 0.000000 0.500000
O O12 0.273268 0.486360 0.126846
O O13 0.181079 0.447152 0.503291
O O14 0.300400 0.409238 0.461667
#
# Coordination Sequence:
#
# PCOD8141930 Si02
#       7
#     8   8   8   4   8   8   8
#     4  11  22  38  63  95 128 160 209 257 330 378
#     4  10  21  38  59  82 117 164 212 248 300 367
#     4  11  22  41  64  93 127 166 202 267 323 381
#     4  12  26  46  68  94 126 178 218 258 312 394
#     4  12  22  34  54  88 125 157 196 257 307 369
#     4  12  23  42  65  91 127 169 211 256 323 378
#     4  12  21  37  59  93 126 163 207 255 318 376
#
# _framework density 21.457687
#
# number of rings (size 3 to 8) (size 9 to 14) (size 15 to 20)
#    0.000    0.615    3.077    6.462    0.000    2.462 
#    0.000    0.000    0.000   18.462    0.000    0.000 
#    0.000    0.000    0.000    0.000    0.000    0.000 
#
# Total GULP energy -322408.221568 kJ/mol
# GULP energy per Si atom -12400.316214 kJ/mol
# Density = 2.140885 g / cm^3
# Si number density = 21.457687 Si / 1000 Ang^3
#
#
#
# Elastic Constant Matrix: (Units=GPa)
#
#
# Indices 1 2 3 4 5 6 
#
# 1 73.3459 31.5812 22.1734 0.0000 -6.3462 0.0000
# 2 31.5812 100.3670 47.1005 0.0000 8.8683 0.0000
# 3 22.1734 47.1005 151.6628 0.0000 9.8632 0.0000
# 4 0.0000 0.0000 0.0000 44.1082 0.0000 -0.0049
# 5 -6.3462 8.8683 9.8632 0.0000 22.3890 0.0000
# 6 0.0000 0.0000 0.0000 -0.0049 0.0000 33.6083
#
#
#
# Elastic Compliance Matrix: (Units=1/GPa)
#
#
# Indices 1 2 3 4 5 6 
#
# 1 0.017007 -0.005408 -0.001297 0.000000 0.007534 0.000000
# 2 -0.005408 0.013598 -0.003070 0.000000 -0.005567 0.000000
# 3 -0.001297 -0.003070 0.007908 0.000000 -0.002635 0.000000
# 4 0.000000 0.000000 0.000000 0.022672 0.000000 0.000003
# 5 0.007534 -0.005567 -0.002635 0.000000 0.050166 0.000000
# 6 0.000000 0.000000 0.000000 0.000003 0.000000 0.029755
#
#
# Mechanical properties :
#
#
# Convention : Reuss Voigt Hill
#
# Bulk Modulus (GPa) = 52.73760 58.56509 55.65134
# Shear Modulus (GPa) = 29.94436 34.98915 32.46676
#
# Velocity S-wave (km/s) = 3.73970 4.04246 3.89403
# Velocity P-wave (km/s) = 6.57860 7.01008 6.79777
#
# Compressibility (1/GPa) = 0.01896181
#
# Stress axis : x y z
#
# Youngs Moduli (GPa) = 58.80041 73.54078 126.45372
#
# Poissons Ratio (x) = 0.39774 0.16398
# Poissons Ratio (y) = 0.31802 0.38824
# Poissons Ratio (z) = 0.07625 0.22579
#
# Static dielectric constant tensor:
#      x y z
#    x 3.858060 0.000000 0.238210 
#    y 0.000000 3.998680 0.000000 
#    z 0.238210 0.000000 1.826320 
# 
# 
# High freq. dielectric constant tensor:
#      x y z
#    x 1.822180 0.000000 0.008220 
#    y 0.000000 1.844380 0.000000 
#    z 0.008220 0.000000 1.872250 
# 
# From -- ./inp_files/13360.got.cif
#   From: 2010.06.25/outbox.cif.g09.slc.cpg/sg15_7_cif.got.tgz:13360.got - 2010.06.28 07:06:18.
