data_PCOD8141419
_publ_section_title
;
Structure prediction by ZEFSAII (Michael W. Deem and Ramdas Pophale) SiO2 
 PCOD8141419
Probable space group: C 2/C
;
_chemical_formula_sum "Si O2"
_cell_formula_units_Z 56
_cell_length_a 17.356949
_cell_length_b 8.585444
_cell_length_c 19.464941
_cell_angle_alpha 90.000000
_cell_angle_beta 75.665110
_cell_angle_gamma 90.000000
_cell_volume 2810.299268
_symmetry_space_group_name_H-M "C 2/C"
_symmetry_group_IT_number 15
_symmetry_cell_setting 'monoclinic'
loop_
_space_group_symop_operation_xyz
x,y,z
-x,y,1/2-z
-x,-y,-z
x,-y,1/2+z
1/2+x,1/2+y,z
1/2-x,1/2+y,1/2-z
1/2-x,1/2-y,-z
1/2+x,1/2-y,1/2+z
loop_
_atom_site_type_symbol
_atom_site_label
_atom_site_fract_x
_atom_site_fract_y
_atom_site_fract_z
Si Si1 0.568886 0.739860 0.677883
Si Si2 0.215876 0.236945 0.834232
Si Si3 0.041075 0.183908 0.920065
Si Si4 0.635236 0.593410 0.158613
Si Si5 0.508347 0.662335 0.079682
Si Si6 0.309608 0.055061 0.283193
Si Si7 0.568065 0.825185 0.281826
O O1 0.500000 0.731758 0.750000
O O2 0.526614 0.756939 0.613684
O O3 0.626270 0.590055 0.672214
O O4 0.629984 0.883401 0.671651
O O5 0.126751 0.251524 0.881007
O O6 0.273999 0.345592 0.867406
O O7 0.223565 0.302139 0.754452
O O8 0.241042 0.053904 0.831234
O O9 0.021241 0.235549 0.001890
O O10 0.041377 0.997398 0.913588
O O11 0.593723 0.636594 0.096022
O O12 0.593242 0.672246 0.233511
O O13 0.458822 0.783263 0.135854
O O14 0.359946 0.942768 0.221996
O O15 0.500000 0.908154 0.250000
#
# Coordination Sequence:
#
# PCOD8141419 Si02
#       7
#     8   8   8   8   8   8   8
#     4  11  19  36  61  85 114 150 196 239 280 347
#     4  11  23  36  56  90 117 152 190 242 296 341
#     4  10  21  36  63  87 116 155 198 236 289 346
#     4   9  19  35  60  86 115 152 188 236 295 338
#     4   9  19  38  61  86 116 157 196 235 286 354
#     4  11  23  34  58  86 121 146 193 246 296 334
#     4   9  18  34  59  85 111 147 193 241 279 335
#
# _framework density 19.926704000000001
#
# number of rings (size 3 to 8) (size 9 to 14) (size 15 to 20)
#    0.000    2.000    1.429    3.429    4.000    0.571 
#    0.000    0.714    3.143    2.571    0.000    0.000 
#    0.000    0.000    0.000    0.000    0.000    0.000 
#
# Total GULP energy -347112.988319 kJ/mol
# GULP energy per Si atom -12396.892440 kJ/mol
# Density = 1.988135 g / cm^3
# Si number density = 19.926704 Si / 1000 Ang^3
#
#
#
# Elastic Constant Matrix: (Units=GPa)
#
#
# Indices 1 2 3 4 5 6 
#
# 1 107.1645 41.5183 33.8501 0.0000 8.9871 0.0000
# 2 41.5183 69.7119 31.2614 0.0000 5.2687 0.0000
# 3 33.8501 31.2614 112.9330 0.0000 17.8381 0.0000
# 4 0.0000 0.0000 0.0000 15.4630 0.0000 6.8666
# 5 8.9871 5.2687 17.8381 0.0000 21.2633 0.0000
# 6 0.0000 0.0000 0.0000 6.8666 0.0000 42.3256
#
#
#
# Elastic Compliance Matrix: (Units=1/GPa)
#
#
# Indices 1 2 3 4 5 6 
#
# 1 0.012588 -0.006615 -0.001568 0.000000 -0.002366 0.000000
# 2 -0.006615 0.019856 -0.003663 0.000000 0.000949 0.000000
# 3 -0.001568 -0.003663 0.011632 0.000000 -0.008188 0.000000
# 4 0.000000 0.000000 0.000000 0.069691 0.000000 -0.011306
# 5 -0.002366 0.000949 -0.008188 0.000000 0.054663 0.000000
# 6 0.000000 0.000000 0.000000 -0.011306 0.000000 0.025461
#
#
# Mechanical properties :
#
#
# Convention : Reuss Voigt Hill
#
# Bulk Modulus (GPa) = 49.06215 55.89657 52.47936
# Shear Modulus (GPa) = 22.28380 28.02234 25.15307
#
# Velocity S-wave (km/s) = 3.34771 3.75410 3.55671
# Velocity P-wave (km/s) = 6.29425 6.84857 6.57726
#
# Compressibility (1/GPa) = 0.02038231
#
# Stress axis : x y z
#
# Youngs Moduli (GPa) = 79.44052 50.36382 85.96767
#
# Poissons Ratio (x) = 0.33316 0.13482
# Poissons Ratio (y) = 0.52550 0.31494
# Poissons Ratio (z) = 0.12459 0.18451
#
# Static dielectric constant tensor:
#      x y z
#    x 3.835040 0.000000 0.207660 
#    y 0.000000 3.627650 0.000000 
#    z 0.207660 0.000000 3.367160 
# 
# 
# High freq. dielectric constant tensor:
#      x y z
#    x 1.788790 0.000000 0.015670 
#    y 0.000000 1.776090 0.000000 
#    z 0.015670 0.000000 1.742270 
# 
# From -- ./inp_files/251294.got.cif
#   From: 2010.06.25/outbox.cif.g09.slc.cpg/sg15_126_cif.got.tgz:251294.got - 2010.06.28 07:06:18.
