data_PCOD8141869
_publ_section_title
;
Structure prediction by ZEFSAII (Michael W. Deem and Ramdas Pophale) SiO2 
 PCOD8141869
Probable space group: C 2/C
;
_chemical_formula_sum "Si O2"
_cell_formula_units_Z 56
_cell_length_a 16.749181
_cell_length_b 19.366104
_cell_length_c 8.709158
_cell_angle_alpha 90.000000
_cell_angle_beta 95.736780
_cell_angle_gamma 90.000000
_cell_volume 2810.809567
_symmetry_space_group_name_H-M "C 2/C"
_symmetry_group_IT_number 15
_symmetry_cell_setting 'monoclinic'
loop_
_space_group_symop_operation_xyz
x,y,z
-x,y,1/2-z
-x,-y,-z
x,-y,1/2+z
1/2+x,1/2+y,z
1/2-x,1/2+y,1/2-z
1/2-x,1/2-y,-z
1/2+x,1/2-y,1/2+z
loop_
_atom_site_type_symbol
_atom_site_label
_atom_site_fract_x
_atom_site_fract_y
_atom_site_fract_z
Si Si1 0.927069 0.449088 0.934329
Si Si2 0.518085 0.298015 0.575537
Si Si3 0.787049 0.072766 0.603337
Si Si4 0.332243 0.729033 0.586761
Si Si5 0.068820 0.706962 0.149133
Si Si6 0.684783 0.000546 0.842074
Si Si7 0.959781 0.940118 0.081738
O O1 0.950990 0.369619 0.917223
O O2 0.891706 0.471732 0.764053
O O3 0.854091 0.448349 0.040840
O O4 0.000000 0.500000 0.000000
O O5 0.500000 0.293138 0.750000
O O6 0.599587 0.260069 0.531620
O O7 0.438829 0.260885 0.491655
O O8 0.529788 0.376075 0.528527
O O9 0.818618 0.150283 0.637139
O O10 0.744603 0.044367 0.748087
O O11 0.869248 0.032011 0.589702
O O12 0.729932 0.061473 0.442691
O O13 0.250000 0.750000 0.500000
O O14 0.349307 0.778140 0.739659
O O15 0.000000 0.731093 0.250000
O O16 0.000000 0.921414 0.250000
O O17 0.000000 0.000000 0.000000
#
# Coordination Sequence:
#
# PCOD8141869 Si02
#       7
#     8   8   8   8   8   8   8
#     4  11  22  38  60  86 114 152 197 244 294 350
#     4  10  22  38  57  85 116 150 194 242 292 352
#     4  10  21  38  56  83 117 151 188 240 293 347
#     4  10  21  39  61  82 114 157 196 239 300 360
#     4  10  21  39  60  83 116 155 196 246 297 353
#     4  10  22  37  57  85 118 150 192 242 295 350
#     4  11  21  37  61  86 113 151 195 239 289 350
#
# _framework density 19.923086000000001
#
# number of rings (size 3 to 8) (size 9 to 14) (size 15 to 20)
#    0.000    1.714    0.000    5.571    0.000    6.857 
#    0.000    7.143    0.000    0.000    0.000    0.000 
#    0.000    0.000    0.000    0.000    0.000    0.000 
#
# Total GULP energy -346933.085728 kJ/mol
# GULP energy per Si atom -12390.467347 kJ/mol
# Density = 1.987774 g / cm^3
# Si number density = 19.923086 Si / 1000 Ang^3
#
#
#
# Elastic Constant Matrix: (Units=GPa)
#
#
# Indices 1 2 3 4 5 6 
#
# 1 101.8489 37.2676 57.6207 0.0000 10.1367 0.0000
# 2 37.2676 82.9849 43.8606 0.0000 -0.6934 0.0000
# 3 57.6207 43.8606 144.6447 0.0000 7.0028 0.0000
# 4 0.0000 0.0000 0.0000 29.9937 0.0000 5.6945
# 5 10.1367 -0.6934 7.0028 0.0000 42.2227 0.0000
# 6 0.0000 0.0000 0.0000 5.6945 0.0000 31.1251
#
#
#
# Elastic Compliance Matrix: (Units=1/GPa)
#
#
# Indices 1 2 3 4 5 6 
#
# 1 0.013950 -0.004073 -0.004191 0.000000 -0.002721 0.000000
# 2 -0.004073 0.015578 -0.003187 0.000000 0.001762 0.000000
# 3 -0.004191 -0.003187 0.009580 0.000000 -0.000635 0.000000
# 4 0.000000 0.000000 0.000000 0.034540 0.000000 -0.006319
# 5 -0.002721 0.001762 -0.000635 0.000000 0.024471 0.000000
# 6 0.000000 0.000000 0.000000 -0.006319 0.000000 0.033285
#
#
# Mechanical properties :
#
#
# Convention : Reuss Voigt Hill
#
# Bulk Modulus (GPa) = 61.69582 67.44183 64.56882
# Shear Modulus (GPa) = 31.30716 33.38360 32.34538
#
# Velocity S-wave (km/s) = 3.96839 4.09788 4.03365
# Velocity P-wave (km/s) = 7.21330 7.50431 7.36025
#
# Compressibility (1/GPa) = 0.01620855
#
# Stress axis : x y z
#
# Youngs Moduli (GPa) = 71.68283 64.19115 104.38534
#
# Poissons Ratio (x) = 0.26144 0.43743
# Poissons Ratio (y) = 0.29195 0.33265
# Poissons Ratio (z) = 0.30039 0.20456
#
# Static dielectric constant tensor:
#      x y z
#    x 3.770020 0.000000 0.021790 
#    y 0.000000 3.591030 0.000000 
#    z 0.021790 0.000000 3.895250 
# 
# 
# High freq. dielectric constant tensor:
#      x y z
#    x 1.782010 0.000000 0.005220 
#    y 0.000000 1.773120 0.000000 
#    z 0.005220 0.000000 1.787740 
# 
# From -- ./inp_files/49131.got.cif
#   From: 2010.06.25/outbox.cif.g09.slc.cpg/sg15_25_cif.got.tgz:49131.got - 2010.06.28 07:06:18.
