data_PCOD8141991
_publ_section_title
;
Structure prediction by ZEFSAII (Michael W. Deem and Ramdas Pophale) SiO2 
 PCOD8141991
Probable space group: C 2/C
;
_chemical_formula_sum "Si O2"
_cell_formula_units_Z 56
_cell_length_a 23.420861
_cell_length_b 16.421504
_cell_length_c 8.311428
_cell_angle_alpha 90.000000
_cell_angle_beta 124.236601
_cell_angle_gamma 90.000000
_cell_volume 2642.716543
_symmetry_space_group_name_H-M "C 2/C"
_symmetry_group_IT_number 15
_symmetry_cell_setting 'monoclinic'
loop_
_space_group_symop_operation_xyz
x,y,z
-x,y,1/2-z
-x,-y,-z
x,-y,1/2+z
1/2+x,1/2+y,z
1/2-x,1/2+y,1/2-z
1/2-x,1/2-y,-z
1/2+x,1/2-y,1/2+z
loop_
_atom_site_type_symbol
_atom_site_label
_atom_site_fract_x
_atom_site_fract_y
_atom_site_fract_z
Si Si1 0.645561 0.013740 0.920808
Si Si2 0.000000 0.702375 0.250000
Si Si3 0.446339 0.061775 0.985279
Si Si4 0.137347 0.085281 0.904555
Si Si5 0.602301 0.737201 0.670768
Si Si6 0.707070 0.114957 0.304325
Si Si7 0.500000 0.685720 0.250000
Si Si8 0.933057 0.943975 0.873717
O O1 0.622300 0.068595 0.732835
O O2 0.694330 0.940135 0.941439
O O3 0.680652 0.072163 0.102508
O O4 0.575939 0.971835 0.876129
O O5 0.935752 0.751597 0.217151
O O6 0.022173 0.650506 0.441979
O O7 0.500000 0.000000 0.000000
O O8 0.122805 0.143359 0.727764
O O9 0.128797 0.994893 0.812624
O O10 0.211169 0.117276 0.084380
O O11 0.088655 0.089327 0.985210
O O12 0.668277 0.797678 0.758306
O O13 0.551836 0.743345 0.435787
O O14 0.547095 0.632636 0.204844
O O15 0.000000 0.000000 0.000000
#
# Coordination Sequence:
#
# PCOD8141991 Si02
#       8
#     8   4   8   8   8   8   4   8
#     4  10  21  38  60  88 127 171 230 265 306 377
#     4  12  22  37  61  90 128 174 216 268 334 373
#     4  11  18  34  57  89 119 163 215 275 312 359
#     4  12  24  44  73  97 137 174 220 279 351 412
#     4  12  26  42  63 101 139 183 218 281 342 411
#     4  11  24  44  63  98 138 188 227 269 330 413
#     4  12  26  43  71 102 142 166 224 294 354 393
#     4  12  22  45  75 109 125 164 229 297 347 405
#
# _framework density 21.190315999999999
#
# number of rings (size 3 to 8) (size 9 to 14) (size 15 to 20)
#    0.000    0.571    5.714    3.000    2.000    0.000 
#    0.000    0.714    0.000    0.000    0.000    0.000 
#    0.000    0.000    0.000    0.000    0.000    0.000 
#
# Total GULP energy -346993.635864 kJ/mol
# GULP energy per Si atom -12392.629852 kJ/mol
# Density = 2.114209 g / cm^3
# Si number density = 21.190316 Si / 1000 Ang^3
#
#
#
# Elastic Constant Matrix: (Units=GPa)
#
#
# Indices 1 2 3 4 5 6 
#
# 1 103.0838 27.1224 34.2110 0.0000 2.2368 0.0000
# 2 27.1224 73.7740 25.4353 0.0000 1.1484 0.0000
# 3 34.2110 25.4353 79.5773 0.0000 -3.6611 0.0000
# 4 0.0000 0.0000 0.0000 39.7138 0.0000 -3.0284
# 5 2.2368 1.1484 -3.6611 0.0000 36.3949 0.0000
# 6 0.0000 0.0000 0.0000 -3.0284 0.0000 30.6606
#
#
#
# Elastic Compliance Matrix: (Units=1/GPa)
#
#
# Indices 1 2 3 4 5 6 
#
# 1 0.011891 -0.002895 -0.004236 0.000000 -0.001066 0.000000
# 2 -0.002895 0.015973 -0.003894 0.000000 -0.000718 0.000000
# 3 -0.004236 -0.003894 0.015723 0.000000 0.001965 0.000000
# 4 0.000000 0.000000 0.000000 0.025371 0.000000 0.002506
# 5 -0.001066 -0.000718 0.001965 0.000000 0.027762 0.000000
# 6 0.000000 0.000000 0.000000 0.002506 0.000000 0.032863
#
#
# Mechanical properties :
#
#
# Convention : Reuss Voigt Hill
#
# Bulk Modulus (GPa) = 46.43087 47.77471 47.10279
# Shear Modulus (GPa) = 31.48387 32.66493 32.07440
#
# Velocity S-wave (km/s) = 3.85875 3.93046 3.89477
# Velocity P-wave (km/s) = 6.46623 6.57210 6.51938
#
# Compressibility (1/GPa) = 0.02153739
#
# Stress axis : x y z
#
# Youngs Moduli (GPa) = 84.09420 62.60627 63.60312
#
# Poissons Ratio (x) = 0.18123 0.26942
# Poissons Ratio (y) = 0.24343 0.24767
# Poissons Ratio (z) = 0.35622 0.24379
#
# Static dielectric constant tensor:
#      x y z
#    x 4.000410 0.000000 0.005490 
#    y 0.000000 3.779050 0.000000 
#    z 0.005490 0.000000 4.225310 
# 
# 
# High freq. dielectric constant tensor:
#      x y z
#    x 1.827840 0.000000 -0.009010 
#    y 0.000000 1.822030 0.000000 
#    z -0.009010 0.000000 1.845100 
# 
# From -- ./inp_files/62032.got.cif
#   From: 2010.06.25/outbox.cif.g09.slc.cpg/sg15_32_cif.got.tgz:62032.got - 2010.06.28 07:06:18.
