data_PCOD8141702
_publ_section_title
;
Structure prediction by ZEFSAII (Michael W. Deem and Ramdas Pophale) SiO2 
 PCOD8141702
Probable space group: C 2/C
;
_chemical_formula_sum "Si O2"
_cell_formula_units_Z 48
_cell_length_a 19.458691
_cell_length_b 16.579002
_cell_length_c 15.878259
_cell_angle_alpha 90.000000
_cell_angle_beta 150.932212
_cell_angle_gamma 90.000000
_cell_volume 2488.695648
_symmetry_space_group_name_H-M "C 2/C"
_symmetry_group_IT_number 15
_symmetry_cell_setting 'monoclinic'
loop_
_space_group_symop_operation_xyz
x,y,z
-x,y,1/2-z
-x,-y,-z
x,-y,1/2+z
1/2+x,1/2+y,z
1/2-x,1/2+y,1/2-z
1/2-x,1/2-y,-z
1/2+x,1/2-y,1/2+z
loop_
_atom_site_type_symbol
_atom_site_label
_atom_site_fract_x
_atom_site_fract_y
_atom_site_fract_z
Si Si1 0.430137 0.866678 0.871911
Si Si2 0.658217 0.828328 0.899920
Si Si3 0.717688 0.407631 0.785894
Si Si4 0.439013 0.698152 0.965969
Si Si5 0.270485 0.086143 0.857785
Si Si6 0.358565 0.214803 0.549949
O O1 0.338947 0.868040 0.688779
O O2 0.326312 0.907630 0.825773
O O3 0.475305 0.776795 0.949653
O O4 0.572258 0.919396 0.013328
O O5 0.500000 0.800470 0.750000
O O6 0.750000 0.750000 0.000000
O O7 0.719103 0.890148 0.033388
O O8 0.575784 0.358560 0.614666
O O9 0.686532 0.501539 0.768325
O O10 0.794095 0.368766 0.948090
O O11 0.313110 0.651321 0.786208
O O12 0.388178 0.722646 0.005372
O O13 0.500000 0.192424 0.750000
O O14 0.250000 0.250000 0.500000
#
# Coordination Sequence:
#
# PCOD8141702 Si02
#       6
#     8   8   8   8   8   8
#     4  10  21  39  64  89 119 164 209 243 303 371
#     4  10  21  37  62  88 120 160 205 243 293 364
#     4  11  24  40  62  93 124 157 202 258 315 354
#     4  11  22  40  66  89 123 164 202 250 306 371
#     4  11  23  40  60  93 128 157 201 258 308 360
#     4  11  23  43  67  89 120 162 213 251 298 374
#
# _framework density 19.287210999999999
#
# number of rings (size 3 to 8) (size 9 to 14) (size 15 to 20)
#    0.000    1.333    3.333    3.000    4.667    2.000 
#    3.000    0.000    0.000    0.000    0.000    0.000 
#    0.000    0.000    0.000    0.000    0.000    0.000 
#
# Total GULP energy -297615.491137 kJ/mol
# GULP energy per Si atom -12400.645464 kJ/mol
# Density = 1.924331 g / cm^3
# Si number density = 19.287211 Si / 1000 Ang^3
#
#
#
# Elastic Constant Matrix: (Units=GPa)
#
#
# Indices 1 2 3 4 5 6 
#
# 1 101.2293 27.3915 24.1554 0.0006 -18.4294 0.0002
# 2 27.3915 98.2616 23.6005 0.0006 -4.3748 0.0004
# 3 24.1554 23.6005 105.0671 0.0016 -18.4679 0.0009
# 4 0.0006 0.0006 0.0016 26.9147 0.0009 4.9609
# 5 -18.4294 -4.3748 -18.4679 0.0009 29.3251 0.0005
# 6 0.0002 0.0004 0.0009 4.9609 0.0005 19.3961
#
#
#
# Elastic Compliance Matrix: (Units=1/GPa)
#
#
# Indices 1 2 3 4 5 6 
#
# 1 0.012073 -0.002837 -0.000989 0.000000 0.006541 0.000000
# 2 -0.002837 0.011424 -0.002168 0.000000 -0.001444 0.000000
# 3 -0.000989 -0.002168 0.011319 -0.000001 0.006184 0.000000
# 4 0.000000 0.000000 -0.000001 0.038993 -0.000002 -0.009973
# 5 0.006541 -0.001444 0.006184 -0.000002 0.041890 -0.000001
# 6 0.000000 0.000000 0.000000 -0.009973 -0.000001 0.054108
#
#
# Mechanical properties :
#
#
# Convention : Reuss Voigt Hill
#
# Bulk Modulus (GPa) = 43.80256 50.53920 47.17088
# Shear Modulus (GPa) = 26.39881 30.42122 28.41001
#
# Velocity S-wave (km/s) = 3.70364 3.97580 3.84213
# Velocity P-wave (km/s) = 6.40697 6.88014 6.64776
#
# Compressibility (1/GPa) = 0.02282971
#
# Stress axis : x y z
#
# Youngs Moduli (GPa) = 82.82954 87.53459 88.34849
#
# Poissons Ratio (x) = 0.24832 0.08734
# Poissons Ratio (y) = 0.23497 0.19151
# Poissons Ratio (z) = 0.08189 0.18975
#
# Static dielectric constant tensor:
#      x y z
#    x 3.636400 0.000000 -0.133810 
#    y 0.000000 3.286600 0.000000 
#    z -0.133810 0.000000 3.684190 
# 
# 
# High freq. dielectric constant tensor:
#      x y z
#    x 1.760090 0.000000 -0.005860 
#    y 0.000000 1.739980 0.000000 
#    z -0.005860 0.000000 1.768290 
# 
# From -- ./inp_files/56788.got.cif
#   From: 2010.06.25/outbox.cif.g09.slc.cpg/sg15_29_cif.got.tgz:56788.got - 2010.06.28 07:06:18.
