data_PCOD8141588
_publ_section_title
;
Structure prediction by ZEFSAII (Michael W. Deem and Ramdas Pophale) SiO2 
 PCOD8141588
Probable space group: C 2/C
;
_chemical_formula_sum "Si O2"
_cell_formula_units_Z 48
_cell_length_a 6.361914
_cell_length_b 20.917976
_cell_length_c 19.041164
_cell_angle_alpha 90.000000
_cell_angle_beta 89.884045
_cell_angle_gamma 90.000000
_cell_volume 2533.961771
_symmetry_space_group_name_H-M "C 2/C"
_symmetry_group_IT_number 15
_symmetry_cell_setting 'monoclinic'
loop_
_space_group_symop_operation_xyz
x,y,z
-x,y,1/2-z
-x,-y,-z
x,-y,1/2+z
1/2+x,1/2+y,z
1/2-x,1/2+y,1/2-z
1/2-x,1/2-y,-z
1/2+x,1/2-y,1/2+z
loop_
_atom_site_type_symbol
_atom_site_label
_atom_site_fract_x
_atom_site_fract_y
_atom_site_fract_z
Si Si1 0.142072 0.518576 0.065124
Si Si2 0.291382 0.645496 0.001402
Si Si3 0.967582 0.080995 0.624987
Si Si4 0.050480 0.739904 0.547698
Si Si5 0.100579 0.659031 0.675117
Si Si6 0.384705 0.963280 0.175404
O O1 0.323535 0.467315 0.080696
O O2 0.978963 0.521909 0.130600
O O3 0.249173 0.586276 0.052568
O O4 0.000000 0.500000 0.000000
O O5 0.417843 0.625763 0.931725
O O6 0.074408 0.679474 0.982348
O O7 0.421826 0.694763 0.048895
O O8 0.130620 0.038775 0.672548
O O9 0.833437 0.126226 0.678196
O O10 0.250000 0.750000 0.500000
O O11 0.112204 0.722497 0.627744
O O12 0.000000 0.678444 0.750000
O O13 0.951610 0.604656 0.640143
O O14 0.500000 0.966174 0.250000
#
# Coordination Sequence:
#
# PCOD8141588 Si02
#       6
#     8   8   8   8   8   8
#     4  11  22  35  62  92 123 157 204 253 305 373
#     4  11  22  36  60  92 118 157 209 244 308 361
#     4  11  20  38  65  91 119 160 199 260 313 366
#     4  11  22  38  60  85 126 161 204 257 296 361
#     4  10  21  37  59  89 121 152 204 255 308 364
#     4  10  22  38  59  91 127 153 202 254 315 372
#
# _framework density 18.94267
#
# number of rings (size 3 to 8) (size 9 to 14) (size 15 to 20)
#    0.000    1.333    5.000    1.500    0.000    6.000 
#    0.000    0.000    7.333    0.000    0.000    0.000 
#    0.000    0.000    0.000    0.000    0.000    0.000 
#
# Total GULP energy -297386.690100 kJ/mol
# GULP energy per Si atom -12391.112088 kJ/mol
# Density = 1.889956 g / cm^3
# Si number density = 18.942670 Si / 1000 Ang^3
#
#
#
# Elastic Constant Matrix: (Units=GPa)
#
#
# Indices 1 2 3 4 5 6 
#
# 1 141.1628 45.5912 73.7093 0.0000 -1.8805 0.0000
# 2 45.5912 89.3629 60.7206 0.0000 -7.9764 0.0000
# 3 73.7093 60.7206 125.2058 0.0000 -10.6525 0.0000
# 4 0.0000 0.0000 0.0000 31.6033 0.0000 -3.0094
# 5 -1.8805 -7.9764 -10.6525 0.0000 39.9971 0.0000
# 6 0.0000 0.0000 0.0000 -3.0094 0.0000 26.4180
#
#
#
# Elastic Compliance Matrix: (Units=1/GPa)
#
#
# Indices 1 2 3 4 5 6 
#
# 1 0.010466 -0.001781 -0.005409 0.000000 -0.001304 0.000000
# 2 -0.001781 0.017050 -0.007099 0.000000 0.001426 0.000000
# 3 -0.005409 -0.007099 0.014807 0.000000 0.002274 0.000000
# 4 0.000000 0.000000 0.000000 0.031989 0.000000 0.003644
# 5 -0.001304 0.001426 0.002274 0.000000 0.025830 0.000000
# 6 0.000000 0.000000 0.000000 0.003644 0.000000 0.038268
#
#
# Mechanical properties :
#
#
# Convention : Reuss Voigt Hill
#
# Bulk Modulus (GPa) = 72.74773 79.53041 76.13907
# Shear Modulus (GPa) = 29.14277 31.31770 30.23024
#
# Velocity S-wave (km/s) = 3.92659 4.07048 3.99918
# Velocity P-wave (km/s) = 7.68408 8.01047 7.84897
#
# Compressibility (1/GPa) = 0.01374613
#
# Stress axis : x y z
#
# Youngs Moduli (GPa) = 95.54787 58.65219 67.53527
#
# Poissons Ratio (x) = 0.10445 0.36527
# Poissons Ratio (y) = 0.17015 0.47942
# Poissons Ratio (z) = 0.51678 0.41636
#
# Static dielectric constant tensor:
#      x y z
#    x 4.019000 0.000000 -0.268780 
#    y 0.000000 3.759970 0.000000 
#    z -0.268780 0.000000 3.627210 
# 
# 
# High freq. dielectric constant tensor:
#      x y z
#    x 1.760450 0.000000 -0.003710 
#    y 0.000000 1.712210 0.000000 
#    z -0.003710 0.000000 1.726460 
# 
# From -- ./inp_files/227298.got.cif
#   From: 2010.06.25/outbox.cif.g09.slc.cpg/sg15_114_cif.got.tgz:227298.got - 2010.06.28 07:06:18.
