data_PCOD8141406
_publ_section_title
;
Structure prediction by ZEFSAII (Michael W. Deem and Ramdas Pophale) SiO2 
 PCOD8141406
Probable space group: C 2/C
;
_chemical_formula_sum "Si O2"
_cell_formula_units_Z 56
_cell_length_a 5.321763
_cell_length_b 27.785358
_cell_length_c 20.937922
_cell_angle_alpha 90.000000
_cell_angle_beta 113.960385
_cell_angle_gamma 90.000000
_cell_volume 2829.233775
_symmetry_space_group_name_H-M "C 2/C"
_symmetry_group_IT_number 15
_symmetry_cell_setting 'monoclinic'
loop_
_space_group_symop_operation_xyz
x,y,z
-x,y,1/2-z
-x,-y,-z
x,-y,1/2+z
1/2+x,1/2+y,z
1/2-x,1/2+y,1/2-z
1/2-x,1/2-y,-z
1/2+x,1/2-y,1/2+z
loop_
_atom_site_type_symbol
_atom_site_label
_atom_site_fract_x
_atom_site_fract_y
_atom_site_fract_z
Si Si1 0.044996 0.753289 0.562031
Si Si2 0.878898 0.973760 0.668127
Si Si3 0.562723 0.422004 0.501245
Si Si4 0.116616 0.125791 0.387335
Si Si5 0.787251 0.493872 0.098026
Si Si6 0.839573 0.328877 0.513594
Si Si7 0.175056 0.791172 0.705196
O O1 0.200031 0.706156 0.551257
O O2 0.176345 0.804357 0.555101
O O3 0.064666 0.752921 0.640746
O O4 0.750000 0.750000 0.500000
O O5 0.779095 0.918952 0.644806
O O6 0.000000 0.977080 0.750000
O O7 0.612542 0.008232 0.642997
O O8 0.107898 0.990927 0.641025
O O9 0.490663 0.396526 0.559118
O O10 0.301009 0.440213 0.433544
O O11 0.746540 0.469025 0.534682
O O12 0.727582 0.381082 0.479365
O O13 0.352445 0.164634 0.427811
O O14 0.881569 0.154071 0.323851
O O15 0.500000 0.784866 0.750000
O O16 0.000000 0.779453 0.750000
#
# Coordination Sequence:
#
# PCOD8141406 Si02
#       7
#     8   8   8   8   8   8   8
#     4  11  23  39  64  94 127 174 217 270 317 393
#     4  11  23  39  59  89 132 173 204 251 324 406
#     4  10  21  36  62  92 124 156 210 276 312 373
#     4  11  22  37  62  97 128 161 209 261 334 395
#     4  10  23  37  61  92 125 162 212 259 319 369
#     4  11  20  38  65  92 128 161 223 267 328 373
#     4  12  26  41  62  97 136 173 207 265 337 403
#
# _framework density 19.793346
#
# number of rings (size 3 to 8) (size 9 to 14) (size 15 to 20)
#    0.000    1.143    4.286    1.714    4.000    4.000 
#    0.000    0.000    0.000    0.857    3.714    0.000 
#    0.000    0.000    0.000    0.000    0.000    0.000 
#
# Total GULP energy -347089.448057 kJ/mol
# GULP energy per Si atom -12396.051716 kJ/mol
# Density = 1.974830 g / cm^3
# Si number density = 19.793346 Si / 1000 Ang^3
#
#
#
# Elastic Constant Matrix: (Units=GPa)
#
#
# Indices 1 2 3 4 5 6 
#
# 1 90.5585 17.3729 38.1372 0.0000 6.0351 0.0000
# 2 17.3729 89.8032 42.7701 0.0000 -0.5039 0.0000
# 3 38.1372 42.7701 121.8030 0.0000 -0.1702 0.0000
# 4 0.0000 0.0000 0.0000 29.8709 0.0000 -3.4941
# 5 6.0351 -0.5039 -0.1702 0.0000 36.5778 0.0000
# 6 0.0000 0.0000 0.0000 -3.4941 0.0000 5.3710
#
#
#
# Elastic Compliance Matrix: (Units=1/GPa)
#
#
# Indices 1 2 3 4 5 6 
#
# 1 0.012923 -0.000701 -0.003803 0.000000 -0.002159 0.000000
# 2 -0.000701 0.013411 -0.004489 0.000000 0.000279 0.000000
# 3 -0.003803 -0.004489 0.010978 0.000000 0.000617 0.000000
# 4 0.000000 0.000000 0.000000 0.036235 0.000000 0.023572
# 5 -0.002159 0.000279 0.000617 0.000000 0.027702 0.000000
# 6 0.000000 0.000000 0.000000 0.023572 0.000000 0.201520
#
#
# Mechanical properties :
#
#
# Convention : Reuss Voigt Hill
#
# Bulk Modulus (GPa) = 51.74642 55.41388 53.58015
# Shear Modulus (GPa) = 15.28137 27.95625 21.61881
#
# Velocity S-wave (km/s) = 2.78159 3.76228 3.30847
# Velocity P-wave (km/s) = 6.04288 6.85054 6.45935
#
# Compressibility (1/GPa) = 0.01932501
#
# Stress axis : x y z
#
# Youngs Moduli (GPa) = 77.38420 74.56757 91.09164
#
# Poissons Ratio (x) = 0.05226 0.34643
# Poissons Ratio (y) = 0.05423 0.40893
# Poissons Ratio (z) = 0.29430 0.33475
#
# Static dielectric constant tensor:
#      x y z
#    x 3.333620 0.000000 -0.184610 
#    y 0.000000 4.067130 0.000000 
#    z -0.184610 0.000000 3.579500 
# 
# 
# High freq. dielectric constant tensor:
#      x y z
#    x 1.779480 0.000000 -0.000160 
#    y 0.000000 1.763860 0.000000 
#    z -0.000160 0.000000 1.758480 
# 
# From -- ./inp_files/228537.got.cif
#   From: 2010.06.25/outbox.cif.g09.slc.cpg/sg15_115_cif.got.tgz:228537.got - 2010.06.28 07:06:18.
