data_PCOD8141093
_publ_section_title
;
Structure prediction by ZEFSAII (Michael W. Deem and Ramdas Pophale) SiO2 
 PCOD8141093
Probable space group: C 2/C
;
_chemical_formula_sum "Si O2"
_cell_formula_units_Z 56
_cell_length_a 8.710492
_cell_length_b 31.523417
_cell_length_c 14.528373
_cell_angle_alpha 90.000000
_cell_angle_beta 47.355987
_cell_angle_gamma 90.000000
_cell_volume 2934.411692
_symmetry_space_group_name_H-M "C 2/C"
_symmetry_group_IT_number 15
_symmetry_cell_setting 'monoclinic'
loop_
_space_group_symop_operation_xyz
x,y,z
-x,y,1/2-z
-x,-y,-z
x,-y,1/2+z
1/2+x,1/2+y,z
1/2-x,1/2+y,1/2-z
1/2-x,1/2-y,-z
1/2+x,1/2-y,1/2+z
loop_
_atom_site_type_symbol
_atom_site_label
_atom_site_fract_x
_atom_site_fract_y
_atom_site_fract_z
Si Si1 0.039217 0.597808 0.417308
Si Si2 0.888846 0.001073 0.142226
Si Si3 0.451105 0.194175 0.482526
Si Si4 0.500000 0.560273 0.250000
Si Si5 0.780976 0.083716 0.796370
Si Si6 0.504625 0.271355 0.142522
Si Si7 0.361383 0.830216 0.218636
Si Si8 0.000000 0.445428 0.750000
O O1 0.021305 0.648353 0.419750
O O2 0.892276 0.574937 0.553622
O O3 0.939402 0.583380 0.361276
O O4 0.286794 0.587707 0.329308
O O5 0.835729 0.956120 0.210143
O O6 0.034131 0.029404 0.149129
O O7 0.674706 0.024202 0.216301
O O8 0.000000 0.000000 0.000000
O O9 0.585320 0.232716 0.384989
O O10 0.228982 0.208270 0.529604
O O11 0.463093 0.192611 0.588268
O O12 0.673787 0.119680 0.778263
O O13 0.000000 0.100387 0.750000
O O14 0.500000 0.256174 0.250000
O O15 0.363188 0.310927 0.175139
O O16 0.500000 0.821030 0.250000
#
# Coordination Sequence:
#
# PCOD8141093 Si02
#       8
#     8   8   8   4   8   8   8   4
#     4  10  22  41  61  87 126 160 204 250 311 363
#     4  11  24  38  61  89 119 157 207 252 307 363
#     4   9  19  37  62  85 114 163 197 244 296 363
#     4  10  24  42  56  86 126 162 196 256 300 368
#     4  11  22  40  66  85 117 166 206 255 306 362
#     4   9  18  36  61  87 118 152 204 244 296 364
#     4  10  21  35  56  90 119 148 198 248 301 364
#     4  10  24  36  58  90 118 158 206 250 296 370
#
# _framework density 19.083894000000001
#
# number of rings (size 3 to 8) (size 9 to 14) (size 15 to 20)
#    0.000    2.000    0.714    3.000    4.000    2.857 
#    1.286    2.857    0.000    0.000    0.000    0.000 
#    0.000    0.000    0.000    0.000    0.000    0.000 
#
# Total GULP energy -346910.519739 kJ/mol
# GULP energy per Si atom -12389.661419 kJ/mol
# Density = 1.904046 g / cm^3
# Si number density = 19.083894 Si / 1000 Ang^3
#
#
#
# Elastic Constant Matrix: (Units=GPa)
#
#
# Indices 1 2 3 4 5 6 
#
# 1 93.9658 39.7331 28.5170 0.0000 22.2755 0.0000
# 2 39.7331 119.3473 55.7359 0.0000 22.8165 0.0000
# 3 28.5170 55.7359 101.3999 0.0000 11.6895 0.0000
# 4 0.0000 0.0000 0.0000 21.6100 0.0000 11.5085
# 5 22.2755 22.8165 11.6895 0.0000 26.1698 0.0000
# 6 0.0000 0.0000 0.0000 11.5085 0.0000 28.2163
#
#
#
# Elastic Compliance Matrix: (Units=1/GPa)
#
#
# Indices 1 2 3 4 5 6 
#
# 1 0.014344 -0.002121 -0.001764 0.000000 -0.009572 0.000000
# 2 -0.002121 0.013153 -0.005819 0.000000 -0.007063 0.000000
# 3 -0.001764 -0.005819 0.013493 0.000000 0.000548 0.000000
# 4 0.000000 0.000000 0.000000 0.059115 0.000000 -0.024111
# 5 -0.009572 -0.007063 0.000548 0.000000 0.052272 0.000000
# 6 0.000000 0.000000 0.000000 -0.024111 0.000000 0.045275
#
#
# Mechanical properties :
#
#
# Convention : Reuss Voigt Hill
#
# Bulk Modulus (GPa) = 46.33808 62.52056 54.42932
# Shear Modulus (GPa) = 22.29604 27.91434 25.10519
#
# Velocity S-wave (km/s) = 3.42177 3.82870 3.63094
# Velocity P-wave (km/s) = 6.32023 7.23721 6.79421
#
# Compressibility (1/GPa) = 0.02158052
#
# Stress axis : x y z
#
# Youngs Moduli (GPa) = 69.71689 76.02932 74.11031
#
# Poissons Ratio (x) = 0.16129 0.13076
# Poissons Ratio (y) = 0.14790 0.43124
# Poissons Ratio (z) = 0.12301 0.44240
#
# Static dielectric constant tensor:
#      x y z
#    x 3.158030 0.000000 -0.278940 
#    y 0.000000 3.509120 0.000000 
#    z -0.278940 0.000000 3.221070 
# 
# 
# High freq. dielectric constant tensor:
#      x y z
#    x 1.739570 0.000000 0.006790 
#    y 0.000000 1.750980 0.000000 
#    z 0.006790 0.000000 1.744260 
# 
# From -- ./inp_files/139477.got.cif
#   From: 2010.06.25/outbox.cif.g09.slc.cpg/sg15_70_cif.got.tgz:139477.got - 2010.06.28 07:06:18.
