data_PCOD8141885
_publ_section_title
;
Structure prediction by ZEFSAII (Michael W. Deem and Ramdas Pophale) SiO2 
 PCOD8141885
Probable space group: C 2/C
;
_chemical_formula_sum "Si O2"
_cell_formula_units_Z 60
_cell_length_a 5.765971
_cell_length_b 27.624747
_cell_length_c 19.066210
_cell_angle_alpha 90.000000
_cell_angle_beta 65.468391
_cell_angle_gamma 90.000000
_cell_volume 2762.795726
_symmetry_space_group_name_H-M "C 2/C"
_symmetry_group_IT_number 15
_symmetry_cell_setting 'monoclinic'
loop_
_space_group_symop_operation_xyz
x,y,z
-x,y,1/2-z
-x,-y,-z
x,-y,1/2+z
1/2+x,1/2+y,z
1/2-x,1/2+y,1/2-z
1/2-x,1/2-y,-z
1/2+x,1/2-y,1/2+z
loop_
_atom_site_type_symbol
_atom_site_label
_atom_site_fract_x
_atom_site_fract_y
_atom_site_fract_z
Si Si1 0.568863 0.241554 0.391078
Si Si2 0.333962 0.080694 0.162103
Si Si3 0.500000 0.788741 0.750000
Si Si4 0.339653 0.514652 0.435443
Si Si5 0.782841 0.998171 0.224498
Si Si6 0.987732 0.169585 0.354122
Si Si7 0.805723 0.073625 0.023587
Si Si8 0.879743 0.824186 0.504306
O O1 0.489050 0.245831 0.319413
O O2 0.853478 0.221210 0.357742
O O3 0.385931 0.203916 0.454329
O O4 0.563403 0.293367 0.430194
O O5 0.321195 0.039248 0.104552
O O6 0.162927 0.126926 0.166074
O O7 0.258015 0.054739 0.244619
O O8 0.635931 0.091117 0.113445
O O9 0.736932 0.826245 0.717822
O O10 0.607601 0.497052 0.367341
O O11 0.421360 0.552858 0.485336
O O12 0.189431 0.467990 0.486286
O O13 0.500000 0.973562 0.250000
O O14 0.000000 0.974185 0.250000
O O15 0.990959 0.163579 0.437258
O O16 0.839918 0.123021 0.974034
#
# Coordination Sequence:
#
# PCOD8141885 Si02
#       8
#     8   8   4   8   8   8   8   8
#     4  10  21  39  61  85 122 158 193 259 311 380
#     4  11  21  37  59  87 124 159 203 254 327 372
#     4  10  24  38  58  90 126 156 208 242 326 382
#     4  10  22  36  55  86 121 163 202 253 309 373
#     4  10  21  38  57  85 124 165 207 258 322 384
#     4  11  21  39  59  93 123 159 195 256 320 383
#     4  11  20  38  60  84 120 155 209 256 307 368
#     4  10  21  38  61  89 117 153 210 252 309 375
#
# _framework density 21.717134999999999
#
# number of rings (size 3 to 8) (size 9 to 14) (size 15 to 20)
#    0.000    1.600    4.000    1.200    0.000    3.200 
#    6.000    0.000    4.400    1.600    0.000    0.000 
#    0.000    0.000    0.000    0.000    0.000    0.000 
#
# Total GULP energy -371659.398998 kJ/mol
# GULP energy per Si atom -12388.646633 kJ/mol
# Density = 2.166771 g / cm^3
# Si number density = 21.717135 Si / 1000 Ang^3
#
#
#
# Elastic Constant Matrix: (Units=GPa)
#
#
# Indices 1 2 3 4 5 6 
#
# 1 76.6489 13.1154 12.2092 0.0000 -7.8122 0.0000
# 2 13.1154 112.8646 44.2267 0.0000 -0.2117 0.0000
# 3 12.2092 44.2267 100.8307 0.0000 -8.7790 0.0000
# 4 0.0000 0.0000 0.0000 28.1516 0.0000 -0.9014
# 5 -7.8122 -0.2117 -8.7790 0.0000 37.1106 0.0000
# 6 0.0000 0.0000 0.0000 -0.9014 0.0000 19.7764
#
#
#
# Elastic Compliance Matrix: (Units=1/GPa)
#
#
# Indices 1 2 3 4 5 6 
#
# 1 0.013670 -0.001239 -0.000880 0.000000 0.002662 0.000000
# 2 -0.001239 0.010853 -0.004725 0.000000 -0.001317 0.000000
# 3 -0.000880 -0.004725 0.012332 0.000000 0.002705 0.000000
# 4 0.000000 0.000000 0.000000 0.035574 0.000000 0.001621
# 5 0.002662 -0.001317 0.002705 0.000000 0.028139 0.000000
# 6 0.000000 0.000000 0.000000 0.001621 0.000000 0.050639
#
#
# Mechanical properties :
#
#
# Convention : Reuss Voigt Hill
#
# Bulk Modulus (GPa) = 43.16363 47.71632 45.43997
# Shear Modulus (GPa) = 28.96564 31.72725 30.34645
#
# Velocity S-wave (km/s) = 3.65604 3.82636 3.74217
# Velocity P-wave (km/s) = 6.14335 6.44522 6.29609
#
# Compressibility (1/GPa) = 0.02316765
#
# Stress axis : x y z
#
# Youngs Moduli (GPa) = 73.15289 92.13862 81.08813
#
# Poissons Ratio (x) = 0.11413 0.07137
# Poissons Ratio (y) = 0.09061 0.38315
# Poissons Ratio (z) = 0.06439 0.43537
#
# Static dielectric constant tensor:
#      x y z
#    x 4.130610 0.000000 -0.076580 
#    y 0.000000 3.669040 0.000000 
#    z -0.076580 0.000000 4.269700 
# 
# 
# High freq. dielectric constant tensor:
#      x y z
#    x 1.863170 0.000000 -0.006860 
#    y 0.000000 1.811940 0.000000 
#    z -0.006860 0.000000 1.851140 
# 
# From -- ./inp_files/228614.got.cif
#   From: 2010.06.25/outbox.cif.g09.slc.cpg/sg15_115_cif.got.tgz:228614.got - 2010.06.28 07:06:18.
