data_PCOD8141354
_publ_section_title
;
Structure prediction by ZEFSAII (Michael W. Deem and Ramdas Pophale) SiO2 
 PCOD8141354
Probable space group: C 2/C
;
_chemical_formula_sum "Si O2"
_cell_formula_units_Z 32
_cell_length_a 18.325564
_cell_length_b 16.714379
_cell_length_c 4.945763
_cell_angle_alpha 90.000000
_cell_angle_beta 106.073004
_cell_angle_gamma 90.000000
_cell_volume 1455.671832
_symmetry_space_group_name_H-M "C 2/C"
_symmetry_group_IT_number 15
_symmetry_cell_setting 'monoclinic'
loop_
_space_group_symop_operation_xyz
x,y,z
-x,y,1/2-z
-x,-y,-z
x,-y,1/2+z
1/2+x,1/2+y,z
1/2-x,1/2+y,1/2-z
1/2-x,1/2-y,-z
1/2+x,1/2-y,1/2+z
loop_
_atom_site_type_symbol
_atom_site_label
_atom_site_fract_x
_atom_site_fract_y
_atom_site_fract_z
Si Si1 0.786917 0.948904 0.798462
Si Si2 0.390515 0.051061 0.406140
Si Si3 0.167430 0.779169 0.828793
Si Si4 0.080956 0.722280 0.242273
O O1 0.698312 0.927862 0.691391
O O2 0.833833 0.869576 0.780725
O O3 0.808414 0.020821 0.617869
O O4 0.433553 0.132413 0.379385
O O5 0.413640 0.020018 0.725435
O O6 0.138294 0.722223 0.556458
O O7 0.250000 0.750000 0.000000
O O8 0.112571 0.775934 0.030790
O O9 0.000000 0.758285 0.250000
#
# Coordination Sequence:
#
# PCOD8141354 Si02
#       4
#     8   8   8   8
#     4  10  21  37  63  95 124 156 209 269 314 362
#     4  10  21  36  60  92 130 167 206 246 308 385
#     4  12  24  42  69  94 125 170 218 264 309 371
#     4  12  26  42  63  95 134 172 208 260 321 376
#
# _framework density 21.982975
#
# number of rings (size 3 to 8) (size 9 to 14) (size 15 to 20)
#    0.000    1.000    2.500    4.500    7.000    1.000 
#    0.000    0.000    0.000   15.000    0.000    0.000 
#    0.000    0.000    0.000    0.000    0.000    0.000 
#
# Total GULP energy -198505.878559 kJ/mol
# GULP energy per Si atom -12406.617410 kJ/mol
# Density = 2.193294 g / cm^3
# Si number density = 21.982975 Si / 1000 Ang^3
#
#
#
# Elastic Constant Matrix: (Units=GPa)
#
#
# Indices 1 2 3 4 5 6 
#
# 1 109.7683 44.9217 25.3581 0.0000 -33.7233 0.0000
# 2 44.9217 77.9094 2.0771 0.0000 -7.4936 0.0000
# 3 25.3581 2.0771 85.7115 0.0000 -24.7198 0.0000
# 4 0.0000 0.0000 0.0000 27.5416 0.0000 -16.7423
# 5 -33.7233 -7.4936 -24.7198 0.0000 32.8240 0.0000
# 6 0.0000 0.0000 0.0000 -16.7423 0.0000 34.2209
#
#
#
# Elastic Compliance Matrix: (Units=1/GPa)
#
#
# Indices 1 2 3 4 5 6 
#
# 1 0.017576 -0.008607 -0.000447 0.000000 0.015756 0.000000
# 2 -0.008607 0.017371 0.000918 0.000000 -0.004185 0.000000
# 3 -0.000447 0.000918 0.014953 0.000000 0.011011 0.000000
# 4 0.000000 0.000000 0.000000 0.051678 0.000000 0.025283
# 5 0.015756 -0.004185 0.011011 0.000000 0.053990 0.000000
# 6 0.000000 0.000000 0.000000 0.025283 0.000000 0.041591
#
#
# Mechanical properties :
#
#
# Convention : Reuss Voigt Hill
#
# Bulk Modulus (GPa) = 29.73672 46.45588 38.09630
# Shear Modulus (GPa) = 22.25772 32.31945 27.28859
#
# Velocity S-wave (km/s) = 3.18543 3.83848 3.52710
# Velocity P-wave (km/s) = 5.20440 6.38935 5.82708
#
# Compressibility (1/GPa) = 0.03362845
#
# Stress axis : x y z
#
# Youngs Moduli (GPa) = 56.89459 57.56707 66.87706
#
# Poissons Ratio (x) = 0.49548 0.02991
# Poissons Ratio (y) = 0.48969 -0.06142
# Poissons Ratio (z) = 0.02545 -0.05287
#
# Static dielectric constant tensor:
#      x y z
#    x 3.955280 0.000000 -0.324560 
#    y 0.000000 3.810690 0.000000 
#    z -0.324560 0.000000 4.098590 
# 
# 
# High freq. dielectric constant tensor:
#      x y z
#    x 1.855250 0.000000 -0.028830 
#    y 0.000000 1.858150 0.000000 
#    z -0.028830 0.000000 1.873760 
# 
# From -- ./inp_files/6405.got.cif
#   From: 2010.06.25/outbox.cif.g09.slc.cpg/sg15_4_cif.got.tgz:6405.got - 2010.06.28 07:06:18.
