data_PCOD8141548
_publ_section_title
;
Structure prediction by ZEFSAII (Michael W. Deem and Ramdas Pophale) SiO2 
 PCOD8141548
Probable space group: C 2/C
;
_chemical_formula_sum "Si O2"
_cell_formula_units_Z 40
_cell_length_a 12.875657
_cell_length_b 17.778767
_cell_length_c 9.147200
_cell_angle_alpha 90.000000
_cell_angle_beta 57.722499
_cell_angle_gamma 90.000000
_cell_volume 1770.346330
_symmetry_space_group_name_H-M "C 2/C"
_symmetry_group_IT_number 15
_symmetry_cell_setting 'monoclinic'
loop_
_space_group_symop_operation_xyz
x,y,z
-x,y,1/2-z
-x,-y,-z
x,-y,1/2+z
1/2+x,1/2+y,z
1/2-x,1/2+y,1/2-z
1/2-x,1/2-y,-z
1/2+x,1/2-y,1/2+z
loop_
_atom_site_type_symbol
_atom_site_label
_atom_site_fract_x
_atom_site_fract_y
_atom_site_fract_z
Si Si1 0.989290 0.421156 0.925086
Si Si2 0.353656 0.595947 0.345426
Si Si3 0.867079 0.970138 0.133000
Si Si4 0.283976 0.186230 0.253233
Si Si5 0.771162 0.151616 0.882478
O O1 0.091509 0.357637 0.880434
O O2 0.000000 0.444466 0.750000
O O3 0.000000 0.500000 0.000000
O O4 0.862149 0.380145 0.062344
O O5 0.500000 0.598522 0.250000
O O6 0.298380 0.541167 0.258706
O O7 0.299923 0.564696 0.539850
O O8 0.303706 0.676171 0.325035
O O9 0.874667 0.906917 0.252704
O O10 0.000000 0.000000 0.000000
O O11 0.216946 0.158302 0.452228
O O12 0.306583 0.273934 0.264585
#
# Coordination Sequence:
#
# PCOD8141548 Si02
#       5
#     8   8   8   8   8
#     4  10  22  40  63  90 120 163 213 255 309 379
#     4  10  21  37  59  89 124 163 206 253 309 373
#     4  10  21  37  58  87 123 161 202 251 307 369
#     4  10  22  41  64  90 125 164 207 261 317 376
#     4  10  22  41  65  92 124 163 209 262 320 377
#
# _framework density 22.594449000000001
#
# number of rings (size 3 to 8) (size 9 to 14) (size 15 to 20)
#    0.000    2.000    0.000    2.400    0.000   10.400 
#    0.000   12.000    0.000    0.000    0.000    0.000 
#    0.000    0.000    0.000    0.000    0.000    0.000 
#
# Total GULP energy -247771.820858 kJ/mol
# GULP energy per Si atom -12388.591043 kJ/mol
# Density = 2.254302 g / cm^3
# Si number density = 22.594449 Si / 1000 Ang^3
#
#
#
# Elastic Constant Matrix: (Units=GPa)
#
#
# Indices 1 2 3 4 5 6 
#
# 1 76.5600 38.6036 24.3083 0.0000 6.5639 0.0000
# 2 38.6036 119.1734 39.2854 0.0000 -16.3072 0.0000
# 3 24.3083 39.2854 69.4676 0.0000 -10.4100 0.0000
# 4 0.0000 0.0000 0.0000 57.3801 0.0000 2.6982
# 5 6.5639 -16.3072 -10.4100 0.0000 29.1784 0.0000
# 6 0.0000 0.0000 0.0000 2.6982 0.0000 34.8331
#
#
#
# Elastic Compliance Matrix: (Units=1/GPa)
#
#
# Indices 1 2 3 4 5 6 
#
# 1 0.018043 -0.005568 -0.004479 0.000000 -0.008769 0.000000
# 2 -0.005568 0.012468 -0.004089 0.000000 0.006762 0.000000
# 3 -0.004479 -0.004089 0.019105 0.000000 0.005538 0.000000
# 4 0.000000 0.000000 0.000000 0.017491 0.000000 -0.001355
# 5 -0.008769 0.006762 0.005538 0.000000 0.042000 0.000000
# 6 0.000000 0.000000 0.000000 -0.001355 0.000000 0.028813
#
#
# Mechanical properties :
#
#
# Convention : Reuss Voigt Hill
#
# Bulk Modulus (GPa) = 46.85227 52.17728 49.51478
# Shear Modulus (GPa) = 28.85049 35.14522 31.99786
#
# Velocity S-wave (km/s) = 3.57723 3.94824 3.76730
# Velocity P-wave (km/s) = 6.15169 6.62781 6.39418
#
# Compressibility (1/GPa) = 0.02134368
#
# Stress axis : x y z
#
# Youngs Moduli (GPa) = 55.42293 80.20479 52.34244
#
# Poissons Ratio (x) = 0.44659 0.23443
# Poissons Ratio (y) = 0.30860 0.21404
# Poissons Ratio (z) = 0.24823 0.32798
#
# Static dielectric constant tensor:
#      x y z
#    x 3.982770 0.000000 0.237800 
#    y 0.000000 4.294360 0.000000 
#    z 0.237800 0.000000 4.643890 
# 
# 
# High freq. dielectric constant tensor:
#      x y z
#    x 1.870420 0.000000 0.006800 
#    y 0.000000 1.898080 0.000000 
#    z 0.006800 0.000000 1.898970 
# 
# From -- ./inp_files/38947.got.cif
#   From: 2010.06.25/outbox.cif.g09.slc.cpg/sg15_20_cif.got.tgz:38947.got - 2010.06.28 07:06:18.
