data_PCOD8141433
_publ_section_title
;
Structure prediction by ZEFSAII (Michael W. Deem and Ramdas Pophale) SiO2 
 PCOD8141433
Probable space group: C 2/C
;
_chemical_formula_sum "Si O2"
_cell_formula_units_Z 56
_cell_length_a 29.912389
_cell_length_b 11.277566
_cell_length_c 9.181976
_cell_angle_alpha 90.000000
_cell_angle_beta 115.475558
_cell_angle_gamma 90.000000
_cell_volume 2796.270614
_symmetry_space_group_name_H-M "C 2/C"
_symmetry_group_IT_number 15
_symmetry_cell_setting 'monoclinic'
loop_
_space_group_symop_operation_xyz
x,y,z
-x,y,1/2-z
-x,-y,-z
x,-y,1/2+z
1/2+x,1/2+y,z
1/2-x,1/2+y,1/2-z
1/2-x,1/2-y,-z
1/2+x,1/2-y,1/2+z
loop_
_atom_site_type_symbol
_atom_site_label
_atom_site_fract_x
_atom_site_fract_y
_atom_site_fract_z
Si Si1 0.331691 0.977527 0.236771
Si Si2 0.994201 0.620797 0.075260
Si Si3 0.401068 0.197321 0.302298
Si Si4 0.721778 0.870337 0.616268
Si Si5 0.163404 0.853565 0.099575
Si Si6 0.168269 0.079048 0.289327
Si Si7 0.889241 0.729528 0.957373
O O1 0.378042 0.065115 0.274323
O O2 0.286715 0.047235 0.253140
O O3 0.349835 0.872042 0.365167
O O4 0.312770 0.922164 0.059637
O O5 0.000000 0.585291 0.250000
O O6 0.040149 0.701879 0.091985
O O7 0.943293 0.690741 0.974207
O O8 0.000000 0.500000 0.000000
O O9 0.382397 0.274739 0.411133
O O10 0.387918 0.253788 0.127708
O O11 0.709149 0.734802 0.637861
O O12 0.778559 0.859262 0.651147
O O13 0.175487 0.945698 0.243963
O O14 0.150937 0.922200 0.932920
O O15 0.126336 0.148075 0.140492
#
# Coordination Sequence:
#
# PCOD8141433 Si02
#       7
#     8   8   8   8   8   8   8
#     4  11  20  36  63  93 128 162 202 255 316 376
#     4  10  21  36  63  96 128 159 206 264 329 385
#     4  10  22  40  62  94 127 162 204 264 322 383
#     4  11  24  39  63  93 131 166 212 258 316 382
#     4  11  25  42  63  89 123 170 215 262 315 378
#     4  12  25  42  63  87 129 171 218 260 310 376
#     4  11  22  38  62  91 129 165 205 259 318 372
#
# _framework density 20.026672999999999
#
# number of rings (size 3 to 8) (size 9 to 14) (size 15 to 20)
#    0.000    1.143    4.286    2.143    2.000    1.143 
#    0.000    4.286    0.000    0.000    0.000    0.000 
#    0.000    0.000    0.000    0.000    0.000    0.000 
#
# Total GULP energy -347249.427276 kJ/mol
# GULP energy per Si atom -12401.765260 kJ/mol
# Density = 1.998109 g / cm^3
# Si number density = 20.026673 Si / 1000 Ang^3
#
#
#
# Elastic Constant Matrix: (Units=GPa)
#
#
# Indices 1 2 3 4 5 6 
#
# 1 113.5095 38.4991 42.5537 0.0000 -2.9749 0.0000
# 2 38.4991 109.4236 50.3255 0.0000 -6.4617 0.0000
# 3 42.5537 50.3255 80.3711 0.0000 -6.2540 0.0000
# 4 0.0000 0.0000 0.0000 37.6600 0.0000 -13.9013
# 5 -2.9749 -6.4617 -6.2540 0.0000 31.8581 0.0000
# 6 0.0000 0.0000 0.0000 -13.9013 0.0000 23.7412
#
#
#
# Elastic Compliance Matrix: (Units=1/GPa)
#
#
# Indices 1 2 3 4 5 6 
#
# 1 0.011216 -0.001715 -0.004885 0.000000 -0.000259 0.000000
# 2 -0.001715 0.013131 -0.007230 0.000000 0.001084 0.000000
# 3 -0.004885 -0.007230 0.019707 0.000000 0.001946 0.000000
# 4 0.000000 0.000000 0.000000 0.033875 0.000000 0.019835
# 5 -0.000259 0.001084 0.001946 0.000000 0.031967 0.000000
# 6 0.000000 0.000000 0.000000 0.019835 0.000000 0.053735
#
#
# Mechanical properties :
#
#
# Convention : Reuss Voigt Hill
#
# Bulk Modulus (GPa) = 60.99418 62.89565 61.94492
# Shear Modulus (GPa) = 25.41216 30.11358 27.76287
#
# Velocity S-wave (km/s) = 3.56605 3.88193 3.72734
# Velocity P-wave (km/s) = 6.89044 7.18099 7.03722
#
# Compressibility (1/GPa) = 0.01639501
#
# Stress axis : x y z
#
# Youngs Moduli (GPa) = 89.15860 76.15346 50.74261
#
# Poissons Ratio (x) = 0.13059 0.24787
# Poissons Ratio (y) = 0.15290 0.36687
# Poissons Ratio (z) = 0.43553 0.55060
#
# Static dielectric constant tensor:
#      x y z
#    x 3.828830 0.000000 -0.145350 
#    y 0.000000 3.515590 0.000000 
#    z -0.145350 0.000000 3.608480 
# 
# 
# High freq. dielectric constant tensor:
#      x y z
#    x 1.788100 0.000000 -0.015090 
#    y 0.000000 1.777340 0.000000 
#    z -0.015090 0.000000 1.780570 
# 
# From -- ./inp_files/69467.got.cif
#   From: 2010.06.25/outbox.cif.g09.slc.cpg/sg15_35_cif.got.tgz:69467.got - 2010.06.28 07:06:18.
