data_PCOD8141649
_publ_section_title
;
Structure prediction by ZEFSAII (Michael W. Deem and Ramdas Pophale) SiO2 
 PCOD8141649
Probable space group: C 2/C
;
_chemical_formula_sum "Si O2"
_cell_formula_units_Z 44
_cell_length_a 8.038565
_cell_length_b 27.889163
_cell_length_c 15.234213
_cell_angle_alpha 90.000000
_cell_angle_beta 141.484761
_cell_angle_gamma 90.000000
_cell_volume 2126.810397
_symmetry_space_group_name_H-M "C 2/C"
_symmetry_group_IT_number 15
_symmetry_cell_setting 'monoclinic'
loop_
_space_group_symop_operation_xyz
x,y,z
-x,y,1/2-z
-x,-y,-z
x,-y,1/2+z
1/2+x,1/2+y,z
1/2-x,1/2+y,1/2-z
1/2-x,1/2-y,-z
1/2+x,1/2-y,1/2+z
loop_
_atom_site_type_symbol
_atom_site_label
_atom_site_fract_x
_atom_site_fract_y
_atom_site_fract_z
Si Si1 0.309935 0.771130 0.902805
Si Si2 0.695305 0.063905 0.138976
Si Si3 0.000000 0.599498 0.750000
Si Si4 0.323090 0.676293 0.988801
Si Si5 0.783511 0.544345 0.820379
Si Si6 0.129608 0.655330 0.211393
O O1 0.417530 0.716328 0.955917
O O2 0.462700 0.801588 0.891340
O O3 0.000000 0.768073 0.750000
O O4 0.371232 0.797194 0.021593
O O5 0.549476 0.103563 0.139177
O O6 0.000000 0.080254 0.250000
O O7 0.691782 0.012555 0.185056
O O8 0.532558 0.062217 0.981002
O O9 0.810589 0.631933 0.613374
O O10 0.810032 0.567841 0.735052
O O11 0.555137 0.654877 0.144095
O O12 0.500000 0.557016 0.750000
O O13 0.000000 0.665215 0.250000
#
# Coordination Sequence:
#
# PCOD8141649 Si02
#       6
#     8   8   4   8   8   8
#     4   9  18  39  60  80 115 159 204 249 292 375
#     4  10  21  45  62  86 124 168 204 255 311 373
#     4  12  22  38  64  96 122 162 200 262 308 372
#     4  10  21  37  61  86 114 161 207 241 309 367
#     4  10  24  41  65  92 127 162 210 261 311 365
#     4  11  23  35  60  89 120 158 202 251 309 363
#
# _framework density 20.688255999999999
#
# number of rings (size 3 to 8) (size 9 to 14) (size 15 to 20)
#    0.000    1.818    0.909    3.818    3.818    0.727 
#    0.000    4.545    0.000    0.000    0.000    0.000 
#    0.000    0.000    0.000    0.000    0.000    0.000 
#
# Total GULP energy -272707.395539 kJ/mol
# GULP energy per Si atom -12395.790706 kJ/mol
# Density = 2.064117 g / cm^3
# Si number density = 20.688256 Si / 1000 Ang^3
#
#
#
# Elastic Constant Matrix: (Units=GPa)
#
#
# Indices 1 2 3 4 5 6 
#
# 1 105.2535 55.6297 18.7280 0.0000 -23.8920 0.0000
# 2 55.6297 130.0865 30.4563 0.0000 -28.1606 0.0000
# 3 18.7280 30.4563 71.6411 0.0000 -10.1291 0.0000
# 4 0.0000 0.0000 0.0000 35.8520 0.0000 -8.4848
# 5 -23.8920 -28.1606 -10.1291 0.0000 32.1760 0.0000
# 6 0.0000 0.0000 0.0000 -8.4848 0.0000 12.5657
#
#
#
# Elastic Compliance Matrix: (Units=1/GPa)
#
#
# Indices 1 2 3 4 5 6 
#
# 1 0.013189 -0.004170 -0.000844 0.000000 0.005878 0.000000
# 2 -0.004170 0.011457 -0.002931 0.000000 0.006008 0.000000
# 3 -0.000844 -0.002931 0.015671 0.000000 0.001741 0.000000
# 4 0.000000 0.000000 0.000000 0.033198 0.000000 0.022416
# 5 0.005878 0.006008 0.001741 0.000000 0.041251 0.000000
# 6 0.000000 0.000000 0.000000 0.022416 0.000000 0.094718
#
#
# Mechanical properties :
#
#
# Convention : Reuss Voigt Hill
#
# Bulk Modulus (GPa) = 40.93726 57.40102 49.16914
# Shear Modulus (GPa) = 21.41168 29.59652 25.50410
#
# Velocity S-wave (km/s) = 3.22058 3.78642 3.51491
# Velocity P-wave (km/s) = 5.80174 6.84996 6.34752
#
# Compressibility (1/GPa) = 0.02442762
#
# Stress axis : x y z
#
# Youngs Moduli (GPa) = 75.81818 87.27951 63.81043
#
# Poissons Ratio (x) = 0.36397 0.05385
# Poissons Ratio (y) = 0.31618 0.18704
# Poissons Ratio (z) = 0.06399 0.25583
#
# Static dielectric constant tensor:
#      x y z
#    x 3.654970 0.000000 -0.100270 
#    y 0.000000 3.981790 0.000000 
#    z -0.100270 0.000000 4.073050 
# 
# 
# High freq. dielectric constant tensor:
#      x y z
#    x 1.777900 0.000000 -0.021050 
#    y 0.000000 1.828790 0.000000 
#    z -0.021050 0.000000 1.811030 
# 
# From -- ./inp_files/138816.got.cif
#   From: 2010.06.25/outbox.cif.g09.slc.cpg/sg15_70_cif.got.tgz:138816.got - 2010.06.28 07:06:18.
