data_PCOD8141011
_publ_section_title
;
Structure prediction by ZEFSAII (Michael W. Deem and Ramdas Pophale) SiO2 
 PCOD8141011
Probable space group: C 2/C
;
_chemical_formula_sum "Si O2"
_cell_formula_units_Z 56
_cell_length_a 26.260780
_cell_length_b 15.449692
_cell_length_c 9.264011
_cell_angle_alpha 90.000000
_cell_angle_beta 59.227139
_cell_angle_gamma 90.000000
_cell_volume 3229.400879
_symmetry_space_group_name_H-M "C 2/C"
_symmetry_group_IT_number 15
_symmetry_cell_setting 'monoclinic'
loop_
_space_group_symop_operation_xyz
x,y,z
-x,y,1/2-z
-x,-y,-z
x,-y,1/2+z
1/2+x,1/2+y,z
1/2-x,1/2+y,1/2-z
1/2-x,1/2-y,-z
1/2+x,1/2-y,1/2+z
loop_
_atom_site_type_symbol
_atom_site_label
_atom_site_fract_x
_atom_site_fract_y
_atom_site_fract_z
Si Si1 0.809791 0.274005 0.996465
Si Si2 0.333655 0.264888 0.789996
Si Si3 0.133819 0.154222 0.791673
Si Si4 0.041345 0.021909 0.808464
Si Si5 0.067682 0.833151 0.678103
Si Si6 0.257704 0.940204 0.160208
Si Si7 0.761781 0.394503 0.471519
O O1 0.817696 0.229988 0.143292
O O2 0.809915 0.377649 0.022216
O O3 0.750000 0.250000 0.000000
O O4 0.861737 0.239596 0.816714
O O5 0.403055 0.282379 0.727601
O O6 0.298529 0.341263 0.921498
O O7 0.316347 0.172809 0.886058
O O8 0.091403 0.087714 0.775849
O O9 0.195451 0.103541 0.711422
O O10 0.107867 0.187082 0.980326
O O11 0.000000 0.067718 0.750000
O O12 0.070273 0.935446 0.701685
O O13 0.000000 0.000000 0.000000
O O14 0.000000 0.801557 0.750000
O O15 0.259936 0.949617 0.328416
O O16 0.268612 0.036825 0.089434
#
# Coordination Sequence:
#
# PCOD8141011 Si02
#       7
#     8   8   8   8   8   8   8
#     4   9  22  36  53  79 111 142 190 225 278 339
#     4  10  21  38  54  81 112 151 181 233 280 330
#     4  11  21  34  53  74 111 149 184 226 273 320
#     4  11  22  35  49  77 113 146 191 231 260 323
#     4  11  22  37  53  79 112 150 194 225 268 336
#     4  10  21  35  51  86 105 141 182 223 281 336
#     4  10  21  34  58  78 112 142 186 225 286 329
#
# _framework density 17.340679000000002
#
# number of rings (size 3 to 8) (size 9 to 14) (size 15 to 20)
#    0.000    1.714    4.286    0.857    8.000    0.000 
#    0.000    0.000    0.000    0.000    0.000   10.000 
#    0.000    0.000    0.000    0.000    0.000    0.000 
#
# Total GULP energy -347028.637856 kJ/mol
# GULP energy per Si atom -12393.879923 kJ/mol
# Density = 1.730121 g / cm^3
# Si number density = 17.340679 Si / 1000 Ang^3
#
#
#
# Elastic Constant Matrix: (Units=GPa)
#
#
# Indices 1 2 3 4 5 6 
#
# 1 111.6937 35.9299 32.6669 0.0000 11.5468 0.0000
# 2 35.9299 84.6576 46.6149 0.0000 5.0446 0.0000
# 3 32.6669 46.6149 110.1461 0.0000 8.7908 0.0000
# 4 0.0000 0.0000 0.0000 34.4384 0.0000 1.2706
# 5 11.5468 5.0446 8.7908 0.0000 27.4013 0.0000
# 6 0.0000 0.0000 0.0000 1.2706 0.0000 19.8916
#
#
#
# Elastic Compliance Matrix: (Units=1/GPa)
#
#
# Indices 1 2 3 4 5 6 
#
# 1 0.010896 -0.003639 -0.001415 0.000000 -0.003468 0.000000
# 2 -0.003639 0.016632 -0.005991 0.000000 0.000393 0.000000
# 3 -0.001415 -0.005991 0.012211 0.000000 -0.002218 0.000000
# 4 0.000000 0.000000 0.000000 0.029106 0.000000 -0.001859
# 5 -0.003468 0.000393 -0.002218 0.000000 0.038595 0.000000
# 6 0.000000 0.000000 0.000000 -0.001859 0.000000 0.050391
#
#
# Mechanical properties :
#
#
# Convention : Reuss Voigt Hill
#
# Bulk Modulus (GPa) = 56.65812 59.65788 58.15800
# Shear Modulus (GPa) = 26.91014 29.09862 28.00438
#
# Velocity S-wave (km/s) = 3.94363 4.10085 4.02301
# Velocity P-wave (km/s) = 7.31305 7.54326 7.42905
#
# Compressibility (1/GPa) = 0.01764972
#
# Stress axis : x y z
#
# Youngs Moduli (GPa) = 91.77823 60.12495 81.89353
#
# Poissons Ratio (x) = 0.21878 0.11586
# Poissons Ratio (y) = 0.33395 0.49063
# Poissons Ratio (z) = 0.12985 0.36021
#
# Static dielectric constant tensor:
#      x y z
#    x 3.303390 0.000000 0.143960 
#    y 0.000000 3.183750 0.000000 
#    z 0.143960 0.000000 3.441190 
# 
# 
# High freq. dielectric constant tensor:
#      x y z
#    x 1.662130 0.000000 0.020810 
#    y 0.000000 1.651250 0.000000 
#    z 0.020810 0.000000 1.677710 
# 
# From -- ./inp_files/66155.got.cif
#   From: 2010.06.25/outbox.cif.g09.slc.cpg/sg15_34_cif.got.tgz:66155.got - 2010.06.28 07:06:18.
