data_PCOD8141876
_publ_section_title
;
Structure prediction by ZEFSAII (Michael W. Deem and Ramdas Pophale) SiO2 
 PCOD8141876
Probable space group: C 2/C
;
_chemical_formula_sum "Si O2"
_cell_formula_units_Z 48
_cell_length_a 12.663020
_cell_length_b 21.876609
_cell_length_c 12.383577
_cell_angle_alpha 90.000000
_cell_angle_beta 46.202410
_cell_angle_gamma 90.000000
_cell_volume 2476.132444
_symmetry_space_group_name_H-M "C 2/C"
_symmetry_group_IT_number 15
_symmetry_cell_setting 'monoclinic'
loop_
_space_group_symop_operation_xyz
x,y,z
-x,y,1/2-z
-x,-y,-z
x,-y,1/2+z
1/2+x,1/2+y,z
1/2-x,1/2+y,1/2-z
1/2-x,1/2-y,-z
1/2+x,1/2-y,1/2+z
loop_
_atom_site_type_symbol
_atom_site_label
_atom_site_fract_x
_atom_site_fract_y
_atom_site_fract_z
Si Si1 0.147328 0.382646 0.909979
Si Si2 0.820215 0.041547 0.137352
Si Si3 0.155318 0.450741 0.119053
Si Si4 0.333647 0.732087 0.333844
Si Si5 0.929742 0.069895 0.682297
Si Si6 0.167314 0.647053 0.792929
O O1 0.184884 0.416459 0.770878
O O2 0.263178 0.328507 0.836063
O O3 0.179342 0.432508 0.979281
O O4 0.979409 0.360774 0.031026
O O5 0.778515 0.998482 0.065832
O O6 0.866565 0.998107 0.204893
O O7 0.952117 0.083029 0.997170
O O8 0.155166 0.389172 0.189872
O O9 0.000000 0.483555 0.250000
O O10 0.500000 0.720241 0.250000
O O11 0.250000 0.750000 0.500000
O O12 0.317248 0.782372 0.250889
O O13 0.804649 0.122157 0.764244
O O14 0.000000 0.074061 0.750000
#
# Coordination Sequence:
#
# PCOD8141876 Si02
#       6
#     8   8   8   8   8   8
#     4  11  22  36  60  91 122 155 192 245 302 354
#     4  10  22  34  57  88 116 156 204 242 290 359
#     4   9  18  34  55  82 121 151 194 240 299 351
#     4  12  22  37  63  92 120 151 190 251 308 352
#     4  10  22  39  57  81 122 160 202 246 294 346
#     4  10  21  38  56  86 119 155 195 244 296 355
#
# _framework density 19.385069000000001
#
# number of rings (size 3 to 8) (size 9 to 14) (size 15 to 20)
#    0.000    1.667    3.333    1.500    2.333    9.333 
#    0.000    0.000    0.000    5.000    0.000    0.000 
#    0.000    0.000    0.000    0.000    0.000    0.000 
#
# Total GULP energy -297537.823031 kJ/mol
# GULP energy per Si atom -12397.409293 kJ/mol
# Density = 1.934095 g / cm^3
# Si number density = 19.385069 Si / 1000 Ang^3
#
#
#
# Elastic Constant Matrix: (Units=GPa)
#
#
# Indices 1 2 3 4 5 6 
#
# 1 116.6910 46.7388 40.7454 -0.0001 -14.4186 -0.0001
# 2 46.7388 85.3754 62.0253 0.0000 -10.5709 0.0000
# 3 40.7454 62.0253 123.9999 -0.0001 -22.8483 -0.0001
# 4 -0.0001 0.0000 -0.0001 6.6346 0.0001 -1.0432
# 5 -14.4186 -10.5709 -22.8483 0.0001 31.0508 0.0001
# 6 -0.0001 0.0000 -0.0001 -1.0432 0.0001 21.4668
#
#
#
# Elastic Compliance Matrix: (Units=1/GPa)
#
#
# Indices 1 2 3 4 5 6 
#
# 1 0.011297 -0.005527 -0.000379 0.000000 0.003085 0.000000
# 2 -0.005527 0.021113 -0.009131 0.000000 -0.002098 0.000000
# 3 -0.000379 -0.009131 0.014057 0.000000 0.007059 0.000000
# 4 0.000000 0.000000 0.000000 0.151886 0.000000 0.007381
# 5 0.003085 -0.002098 0.007059 0.000000 0.038118 0.000000
# 6 0.000000 0.000000 0.000000 0.007381 0.000000 0.046942
#
#
# Mechanical properties :
#
#
# Convention : Reuss Voigt Hill
#
# Bulk Modulus (GPa) = 61.00314 69.45394 65.22854
# Shear Modulus (GPa) = 15.67630 23.60089 19.63859
#
# Velocity S-wave (km/s) = 2.84681 3.49302 3.18634
# Velocity P-wave (km/s) = 6.50717 7.22320 6.87451
#
# Compressibility (1/GPa) = 0.01639260
#
# Stress axis : x y z
#
# Youngs Moduli (GPa) = 88.51874 47.36436 71.13812
#
# Poissons Ratio (x) = 0.26180 0.02695
# Poissons Ratio (y) = 0.48927 0.64957
# Poissons Ratio (z) = 0.03353 0.43249
#
# Static dielectric constant tensor:
#      x y z
#    x 1.755930 -0.000020 -1.215920 
#    y -0.000020 3.583980 -0.000010 
#    z -1.215920 -0.000010 3.032090 
# 
# 
# High freq. dielectric constant tensor:
#      x y z
#    x 1.741220 0.000000 -0.022320 
#    y 0.000000 1.735720 0.000000 
#    z -0.022320 0.000000 1.765790 
# 
# From -- ./inp_files/89426.got.cif
#   From: 2010.06.25/outbox.cif.g09.slc.cpg/sg15_45_cif.got.tgz:89426.got - 2010.06.28 07:06:18.
