data_PCOD8141665
_publ_section_title
;
Structure prediction by ZEFSAII (Michael W. Deem and Ramdas Pophale) SiO2 
 PCOD8141665
Probable space group: C 2/C
;
_chemical_formula_sum "Si O2"
_cell_formula_units_Z 44
_cell_length_a 26.234246
_cell_length_b 13.249505
_cell_length_c 16.291425
_cell_angle_alpha 90.000000
_cell_angle_beta 156.290177
_cell_angle_gamma 90.000000
_cell_volume 2277.018308
_symmetry_space_group_name_H-M "C 2/C"
_symmetry_group_IT_number 15
_symmetry_cell_setting 'monoclinic'
loop_
_space_group_symop_operation_xyz
x,y,z
-x,y,1/2-z
-x,-y,-z
x,-y,1/2+z
1/2+x,1/2+y,z
1/2-x,1/2+y,1/2-z
1/2-x,1/2-y,-z
1/2+x,1/2-y,1/2+z
loop_
_atom_site_type_symbol
_atom_site_label
_atom_site_fract_x
_atom_site_fract_y
_atom_site_fract_z
Si Si1 0.736142 0.382145 0.119550
Si Si2 0.114385 0.618946 0.325187
Si Si3 0.527128 0.097734 0.643495
Si Si4 0.730232 0.895891 0.830779
Si Si5 0.500000 0.752890 0.250000
Si Si6 0.845724 0.303345 0.444564
O O1 0.858211 0.360769 0.242846
O O2 0.693150 0.499220 0.053464
O O3 0.761921 0.354775 0.251664
O O4 0.622756 0.315620 0.917513
O O5 0.067244 0.503626 0.249768
O O6 0.211445 0.645925 0.395582
O O7 0.183350 0.635875 0.514069
O O8 0.994272 0.693793 0.142276
O O9 0.407646 0.076404 0.408965
O O10 0.484720 0.180170 0.646656
O O11 0.807805 0.814201 0.893974
#
# Coordination Sequence:
#
# PCOD8141665 Si02
#       6
#     8   8   8   8   4   8
#     4  11  23  40  58  90 120 150 195 243 289 343
#     4  10  21  37  61  89 115 153 198 235 280 356
#     4  11  21  40  65  83 113 159 201 235 279 348
#     4  11  21  39  62  85 120 154 189 246 289 338
#     4  12  24  38  62  86 120 154 192 244 296 332
#     4  11  20  35  62  89 113 149 200 236 286 341
#
# _framework density 19.323515
#
# number of rings (size 3 to 8) (size 9 to 14) (size 15 to 20)
#    0.000    1.091    5.455    3.273    0.000    1.455 
#    0.000    0.000    0.000    6.545    0.000    0.000 
#    0.000    0.000    0.000    0.000    0.000    0.000 
#
# Total GULP energy -272886.871055 kJ/mol
# GULP energy per Si atom -12403.948684 kJ/mol
# Density = 1.927953 g / cm^3
# Si number density = 19.323515 Si / 1000 Ang^3
#
#
#
# Elastic Constant Matrix: (Units=GPa)
#
#
# Indices 1 2 3 4 5 6 
#
# 1 81.3088 39.0279 5.0839 0.0000 -1.3020 0.0000
# 2 39.0279 96.6221 9.4349 0.0000 16.0202 0.0000
# 3 5.0839 9.4349 41.8212 0.0000 3.9280 0.0000
# 4 0.0000 0.0000 0.0000 33.1964 0.0000 7.4671
# 5 -1.3020 16.0202 3.9280 0.0000 31.1655 0.0000
# 6 0.0000 0.0000 0.0000 7.4671 0.0000 35.6792
#
#
#
# Elastic Compliance Matrix: (Units=1/GPa)
#
#
# Indices 1 2 3 4 5 6 
#
# 1 0.015789 -0.007029 -0.000744 0.000000 0.004366 0.000000
# 2 -0.007029 0.014616 -0.001730 0.000000 -0.007589 0.000000
# 3 -0.000744 -0.001730 0.024603 0.000000 -0.002243 0.000000
# 4 0.000000 0.000000 0.000000 0.031612 0.000000 -0.006616
# 5 0.004366 -0.007589 -0.002243 0.000000 0.036453 0.000000
# 6 0.000000 0.000000 0.000000 -0.006616 0.000000 0.029412
#
#
# Mechanical properties :
#
#
# Convention : Reuss Voigt Hill
#
# Bulk Modulus (GPa) = 27.77622 36.31616 32.04619
# Shear Modulus (GPa) = 27.24934 31.08858 29.16896
#
# Velocity S-wave (km/s) = 3.75929 4.01539 3.88945
# Velocity P-wave (km/s) = 5.76615 6.35078 6.06552
#
# Compressibility (1/GPa) = 0.03600201
#
# Stress axis : x y z
#
# Youngs Moduli (GPa) = 63.33495 68.41859 40.64600
#
# Poissons Ratio (x) = 0.48091 0.03023
# Poissons Ratio (y) = 0.44518 0.07032
# Poissons Ratio (z) = 0.04711 0.11837
#
# Static dielectric constant tensor:
#      x y z
#    x 3.679490 0.000000 -0.129920 
#    y 0.000000 3.509910 0.000000 
#    z -0.129920 0.000000 3.370310 
# 
# 
# High freq. dielectric constant tensor:
#      x y z
#    x 1.762420 0.000000 -0.012200 
#    y 0.000000 1.756570 0.000000 
#    z -0.012200 0.000000 1.737410 
# 
# From -- ./inp_files/95043.got.cif
#   From: 2010.06.25/outbox.cif.g09.slc.cpg/sg15_48_cif.got.tgz:95043.got - 2010.06.28 07:06:18.
