data_PCOD8141788
_publ_section_title
;
Structure prediction by ZEFSAII (Michael W. Deem and Ramdas Pophale) SiO2 
 PCOD8141788
Probable space group: C 2/C
;
_chemical_formula_sum "Si O2"
_cell_formula_units_Z 48
_cell_length_a 17.480540
_cell_length_b 22.596716
_cell_length_c 11.296107
_cell_angle_alpha 90.000000
_cell_angle_beta 149.041361
_cell_angle_gamma 90.000000
_cell_volume 2295.335157
_symmetry_space_group_name_H-M "C 2/C"
_symmetry_group_IT_number 15
_symmetry_cell_setting 'monoclinic'
loop_
_space_group_symop_operation_xyz
x,y,z
-x,y,1/2-z
-x,-y,-z
x,-y,1/2+z
1/2+x,1/2+y,z
1/2-x,1/2+y,1/2-z
1/2-x,1/2-y,-z
1/2+x,1/2-y,1/2+z
loop_
_atom_site_type_symbol
_atom_site_label
_atom_site_fract_x
_atom_site_fract_y
_atom_site_fract_z
Si Si1 0.000000 0.710508 0.750000
Si Si2 0.309886 0.819154 0.335574
Si Si3 0.854634 0.448633 0.787566
Si Si4 0.521484 0.279908 0.564555
Si Si5 0.000000 0.605962 0.250000
Si Si6 0.336269 0.072236 0.697300
Si Si7 0.751576 0.375457 0.844213
O O1 0.085555 0.752287 0.771413
O O2 0.885050 0.671788 0.522381
O O3 0.429491 0.767036 0.470377
O O4 0.366899 0.854233 0.524630
O O5 0.294758 0.866432 0.207743
O O6 0.155311 0.788027 0.162824
O O7 0.769152 0.512181 0.667069
O O8 0.738401 0.404348 0.695399
O O9 0.921688 0.432326 0.748581
O O10 0.988047 0.444215 0.062290
O O11 0.593108 0.344100 0.646107
O O12 0.278390 0.077793 0.486107
#
# Coordination Sequence:
#
# PCOD8141788 Si02
#       7
#     4   8   8   8   4   8   8
#     4  12  18  37  62 100 126 163 204 266 310 370
#     4  11  24  43  62  97 127 169 207 259 312 380
#     4  10  22  38  65  93 121 167 213 258 305 374
#     4  12  24  39  65  95 132 163 210 259 322 373
#     4  10  24  43  64  90 126 169 216 252 306 378
#     4  10  21  37  64  95 123 158 212 264 310 363
#     4  12  21  38  65  96 126 160 209 265 318 362
#
# _framework density 20.911978000000001
#
# number of rings (size 3 to 8) (size 9 to 14) (size 15 to 20)
#    0.000    1.000    5.000    2.500    7.000    0.667 
#    0.000    0.833    3.667    0.000    0.000    0.000 
#    0.000    0.000    0.000    0.000    0.000    0.000 
#
# Total GULP energy -297390.412240 kJ/mol
# GULP energy per Si atom -12391.267177 kJ/mol
# Density = 2.086438 g / cm^3
# Si number density = 20.911978 Si / 1000 Ang^3
#
#
#
# Elastic Constant Matrix: (Units=GPa)
#
#
# Indices 1 2 3 4 5 6 
#
# 1 98.9847 62.1289 34.7811 0.0000 1.2521 0.0000
# 2 62.1289 142.2177 37.3428 0.0000 6.3089 0.0000
# 3 34.7811 37.3428 46.9641 0.0000 5.9243 0.0000
# 4 0.0000 0.0000 0.0000 23.7956 0.0000 0.8937
# 5 1.2521 6.3089 5.9243 0.0000 32.7211 0.0000
# 6 0.0000 0.0000 0.0000 0.8937 0.0000 39.3499
#
#
#
# Elastic Compliance Matrix: (Units=1/GPa)
#
#
# Indices 1 2 3 4 5 6 
#
# 1 0.016063 -0.004947 -0.008193 0.000000 0.001822 0.000000
# 2 -0.004947 0.010417 -0.004492 0.000000 -0.001006 0.000000
# 3 -0.008193 -0.004492 0.031503 0.000000 -0.004524 0.000000
# 4 0.000000 0.000000 0.000000 0.042060 0.000000 -0.000955
# 5 0.001822 -0.001006 -0.004524 0.000000 0.031505 0.000000
# 6 0.000000 0.000000 0.000000 -0.000955 0.000000 0.025435
#
#
# Mechanical properties :
#
#
# Convention : Reuss Voigt Hill
#
# Bulk Modulus (GPa) = 44.01561 61.85246 52.93404
# Shear Modulus (GPa) = 25.02262 29.43425 27.22844
#
# Velocity S-wave (km/s) = 3.46290 3.75578 3.61231
# Velocity P-wave (km/s) = 6.08955 6.96057 6.53958
#
# Compressibility (1/GPa) = 0.02271921
#
# Stress axis : x y z
#
# Youngs Moduli (GPa) = 62.25367 95.99901 31.74328
#
# Poissons Ratio (x) = 0.47491 0.26006
# Poissons Ratio (y) = 0.30797 0.14259
# Poissons Ratio (z) = 0.51002 0.43124
#
# Static dielectric constant tensor:
#      x y z
#    x 3.827860 0.000000 -0.105160 
#    y 0.000000 4.203870 0.000000 
#    z -0.105160 0.000000 3.396000 
# 
# 
# High freq. dielectric constant tensor:
#      x y z
#    x 1.818390 0.000000 -0.008310 
#    y 0.000000 1.838410 0.000000 
#    z -0.008310 0.000000 1.775270 
# 
# From -- ./inp_files/108173.got.cif
#   From: 2010.06.25/outbox.cif.g09.slc.cpg/sg15_55_cif.got.tgz:108173.got - 2010.06.28 07:06:18.
