data_PCOD8141965
_publ_section_title
;
Structure prediction by ZEFSAII (Michael W. Deem and Ramdas Pophale) SiO2 
 PCOD8141965
Probable space group: C 2/C
;
_chemical_formula_sum "Si O2"
_cell_formula_units_Z 56
_cell_length_a 28.160168
_cell_length_b 17.089965
_cell_length_c 9.536382
_cell_angle_alpha 90.000000
_cell_angle_beta 36.128751
_cell_angle_gamma 90.000000
_cell_volume 2705.944002
_symmetry_space_group_name_H-M "C 2/C"
_symmetry_group_IT_number 15
_symmetry_cell_setting 'monoclinic'
loop_
_space_group_symop_operation_xyz
x,y,z
-x,y,1/2-z
-x,-y,-z
x,-y,1/2+z
1/2+x,1/2+y,z
1/2-x,1/2+y,1/2-z
1/2-x,1/2-y,-z
1/2+x,1/2-y,1/2+z
loop_
_atom_site_type_symbol
_atom_site_label
_atom_site_fract_x
_atom_site_fract_y
_atom_site_fract_z
Si Si1 0.455638 0.177392 0.996300
Si Si2 0.297718 0.183797 0.808409
Si Si3 0.405363 0.076732 0.726042
Si Si4 0.150689 0.548249 0.339839
Si Si5 0.907676 0.051143 0.947652
Si Si6 0.308519 0.460653 0.964111
Si Si7 0.576480 0.725907 0.665959
O O1 0.500000 0.207733 0.750000
O O2 0.506284 0.109090 0.951917
O O3 0.370740 0.136827 0.156322
O O4 0.443149 0.251217 0.126986
O O5 0.351956 0.148708 0.801825
O O6 0.350278 0.219826 0.558000
O O7 0.250000 0.250000 0.000000
O O8 0.239033 0.118479 0.880838
O O9 0.409622 0.011983 0.594064
O O10 0.363475 0.037824 0.961030
O O11 0.243720 0.528854 0.083419
O O12 0.900275 0.134870 0.888896
O O13 0.000000 0.026587 0.750000
O O14 0.865756 0.984876 0.954842
O O15 0.863751 0.057250 0.200087
O O16 0.500000 0.741603 0.750000
#
# Coordination Sequence:
#
# PCOD8141965 Si02
#       7
#     8   8   8   8   8   8   8
#     4  10  22  40  61  96 139 174 216 268 333 402
#     4  11  22  40  68  98 129 169 220 281 329 387
#     4  10  21  38  59  94 133 174 215 257 333 408
#     4  10  22  35  62  94 133 172 210 270 329 404
#     4  11  25  46  68  94 125 178 231 277 322 398
#     4  11  23  43  66  97 132 167 225 276 332 387
#     4  11  23  42  69  96 131 178 229 266 332 403
#
# _framework density 20.695180000000001
#
# number of rings (size 3 to 8) (size 9 to 14) (size 15 to 20)
#    0.000    1.429    2.857    2.571    6.000    0.000 
#    0.000    7.143    0.000    0.000    0.000    0.000 
#    0.000    0.000    0.000    0.000    0.000    0.000 
#
# Total GULP energy -347270.010721 kJ/mol
# GULP energy per Si atom -12402.500383 kJ/mol
# Density = 2.064808 g / cm^3
# Si number density = 20.695180 Si / 1000 Ang^3
#
#
#
# Elastic Constant Matrix: (Units=GPa)
#
#
# Indices 1 2 3 4 5 6 
#
# 1 98.9584 50.9047 35.7052 0.0000 -0.2567 0.0000
# 2 50.9047 90.4778 41.5914 0.0000 -6.3602 0.0000
# 3 35.7052 41.5914 104.2900 0.0000 -5.8861 0.0000
# 4 0.0000 0.0000 0.0000 39.9041 0.0000 -0.8111
# 5 -0.2567 -6.3602 -5.8861 0.0000 35.8561 0.0000
# 6 0.0000 0.0000 0.0000 -0.8111 0.0000 36.6964
#
#
#
# Elastic Compliance Matrix: (Units=1/GPa)
#
#
# Indices 1 2 3 4 5 6 
#
# 1 0.014675 -0.007367 -0.002174 0.000000 -0.001559 0.000000
# 2 -0.007367 0.017315 -0.004252 0.000000 0.002321 0.000000
# 3 -0.002174 -0.004252 0.012098 0.000000 0.001216 0.000000
# 4 0.000000 0.000000 0.000000 0.025071 0.000000 0.000554
# 5 -0.001559 0.002321 0.001216 0.000000 0.028489 0.000000
# 6 0.000000 0.000000 0.000000 0.000554 0.000000 0.027263
#
#
# Mechanical properties :
#
#
# Convention : Reuss Voigt Hill
#
# Bulk Modulus (GPa) = 60.60185 61.12541 60.86363
# Shear Modulus (GPa) = 31.64603 33.52634 32.58619
#
# Velocity S-wave (km/s) = 3.91468 4.02930 3.97240
# Velocity P-wave (km/s) = 7.05546 7.15871 7.10728
#
# Compressibility (1/GPa) = 0.01650115
#
# Stress axis : x y z
#
# Youngs Moduli (GPa) = 68.14242 57.75401 82.66161
#
# Poissons Ratio (x) = 0.42545 0.17974
# Poissons Ratio (y) = 0.50198 0.35149
# Poissons Ratio (z) = 0.14817 0.24558
#
# Static dielectric constant tensor:
#      x y z
#    x 3.701240 0.000000 -0.241810 
#    y 0.000000 2.847200 0.000000 
#    z -0.241810 0.000000 3.657700 
# 
# 
# High freq. dielectric constant tensor:
#      x y z
#    x 1.811160 0.000000 -0.002330 
#    y 0.000000 1.800850 0.000000 
#    z -0.002330 0.000000 1.815640 
# 
# From -- ./inp_files/62677.got.cif
#   From: 2010.06.25/outbox.cif.g09.slc.cpg/sg15_32_cif.got.tgz:62677.got - 2010.06.28 07:06:18.
