data_PCOD8141225
_publ_section_title
;
Structure prediction by ZEFSAII (Michael W. Deem and Ramdas Pophale) SiO2 
 PCOD8141225
Probable space group: C 2/C
;
_chemical_formula_sum "Si O2"
_cell_formula_units_Z 64
_cell_length_a 13.936525
_cell_length_b 9.798766
_cell_length_c 29.937917
_cell_angle_alpha 90.000000
_cell_angle_beta 117.367134
_cell_angle_gamma 90.000000
_cell_volume 3630.773629
_symmetry_space_group_name_H-M "C 2/C"
_symmetry_group_IT_number 15
_symmetry_cell_setting 'monoclinic'
loop_
_space_group_symop_operation_xyz
x,y,z
-x,y,1/2-z
-x,-y,-z
x,-y,1/2+z
1/2+x,1/2+y,z
1/2-x,1/2+y,1/2-z
1/2-x,1/2-y,-z
1/2+x,1/2-y,1/2+z
loop_
_atom_site_type_symbol
_atom_site_label
_atom_site_fract_x
_atom_site_fract_y
_atom_site_fract_z
Si Si1 0.239458 0.779499 0.626048
Si Si2 0.426913 0.275451 0.692211
Si Si3 0.069188 0.462368 0.807582
Si Si4 0.993349 0.465903 0.888918
Si Si5 0.280373 0.129259 0.037807
Si Si6 0.490058 0.722005 0.385877
Si Si7 0.795227 0.882269 0.533332
Si Si8 0.264531 0.043640 0.380709
O O1 0.333796 0.854826 0.672989
O O2 0.231495 0.842234 0.575475
O O3 0.129518 0.821558 0.626673
O O4 0.259952 0.617150 0.629490
O O5 0.500000 0.316244 0.750000
O O6 0.501975 0.297673 0.665368
O O7 0.323005 0.372931 0.666806
O O8 0.387055 0.118025 0.686105
O O9 0.000000 0.424668 0.750000
O O10 0.995816 0.442989 0.836071
O O11 0.013407 0.623158 0.905256
O O12 0.880086 0.415844 0.884682
O O13 0.089854 0.382997 0.932919
O O14 0.250000 0.250000 0.000000
O O15 0.221499 0.997637 0.006545
O O16 0.577176 0.628628 0.429795
O O17 0.750000 0.750000 0.500000
O O18 0.734370 0.913014 0.567085
#
# Coordination Sequence:
#
# PCOD8141225 Si02
#       8
#     8   8   8   8   8   8   8   8
#     4  10  21  36  54  79 110 138 175 223 265 312
#     4   9  19  37  58  79 107 140 176 217 262 317
#     4   9  19  37  58  80 108 140 172 217 271 314
#     4   9  19  36  56  76 108 143 176 214 264 319
#     4  11  21  36  53  79 110 139 175 224 265 304
#     4   9  19  36  55  78 106 141 179 216 260 316
#     4  11  21  36  57  77 106 145 181 216 262 318
#     4  10  21  36  55  80 105 141 183 215 258 321
#
# _framework density 17.627096999999999
#
# number of rings (size 3 to 8) (size 9 to 14) (size 15 to 20)
#    0.000    2.250    2.500    0.000    1.750    3.500 
#    2.250    0.000    0.000    0.000    0.000    0.000 
#    0.000    0.000    0.000    0.000    0.000    0.000 
#
# Total GULP energy -396801.028066 kJ/mol
# GULP energy per Si atom -12400.032127 kJ/mol
# Density = 1.758698 g / cm^3
# Si number density = 17.627097 Si / 1000 Ang^3
#
#
#
# Elastic Constant Matrix: (Units=GPa)
#
#
# Indices 1 2 3 4 5 6 
#
# 1 154.0270 64.6336 70.1318 0.0000 7.7228 0.0000
# 2 64.6336 110.0985 73.0063 0.0000 8.8028 0.0000
# 3 70.1318 73.0063 147.2953 0.0000 8.9842 0.0000
# 4 0.0000 0.0000 0.0000 37.6640 0.0000 5.2043
# 5 7.7228 8.8028 8.9842 0.0000 13.2661 0.0000
# 6 0.0000 0.0000 0.0000 5.2043 0.0000 27.5002
#
#
#
# Elastic Compliance Matrix: (Units=1/GPa)
#
#
# Indices 1 2 3 4 5 6 
#
# 1 0.009231 -0.003657 -0.002506 0.000000 -0.001250 0.000000
# 2 -0.003657 0.015256 -0.005563 0.000000 -0.004227 0.000000
# 3 -0.002506 -0.005563 0.010874 0.000000 -0.002214 0.000000
# 4 0.000000 0.000000 0.000000 0.027263 0.000000 -0.005160
# 5 -0.001250 -0.004227 -0.002214 0.000000 0.080412 0.000000
# 6 0.000000 0.000000 0.000000 -0.005160 0.000000 0.037340
#
#
# Mechanical properties :
#
#
# Convention : Reuss Voigt Hill
#
# Bulk Modulus (GPa) = 83.96536 91.88493 87.92515
# Shear Modulus (GPa) = 24.06176 29.26267 26.66222
#
# Velocity S-wave (km/s) = 3.69866 4.07885 3.89340
# Velocity P-wave (km/s) = 8.12267 8.62687 8.37856
#
# Compressibility (1/GPa) = 0.01190967
#
# Stress axis : x y z
#
# Youngs Moduli (GPa) = 108.33308 65.54689 91.95856
#
# Poissons Ratio (x) = 0.23972 0.23046
# Poissons Ratio (y) = 0.39620 0.51152
# Poissons Ratio (z) = 0.27150 0.36461
#
# Static dielectric constant tensor:
#      x y z
#    x 3.287500 0.000000 -0.028230 
#    y 0.000000 3.168730 0.000000 
#    z -0.028230 0.000000 3.305040 
# 
# 
# High freq. dielectric constant tensor:
#      x y z
#    x 1.677460 0.000000 -0.002940 
#    y 0.000000 1.683570 0.000000 
#    z -0.002940 0.000000 1.691340 
# 
# From -- ./inp_files/312921.got.cif
#   From: 2010.06.25/outbox.cif.g09.slc.cpg/sg15_157_cif.got.tgz:312921.got - 2010.06.28 07:06:18.
