data_PCOD8141603
_publ_section_title
;
Structure prediction by ZEFSAII (Michael W. Deem and Ramdas Pophale) SiO2 
 PCOD8141603
Probable space group: C 2/C
;
_chemical_formula_sum "Si O2"
_cell_formula_units_Z 40
_cell_length_a 20.356975
_cell_length_b 13.090489
_cell_length_c 12.630088
_cell_angle_alpha 90.000000
_cell_angle_beta 144.714517
_cell_angle_gamma 90.000000
_cell_volume 1944.199760
_symmetry_space_group_name_H-M "C 2/C"
_symmetry_group_IT_number 15
_symmetry_cell_setting 'monoclinic'
loop_
_space_group_symop_operation_xyz
x,y,z
-x,y,1/2-z
-x,-y,-z
x,-y,1/2+z
1/2+x,1/2+y,z
1/2-x,1/2+y,1/2-z
1/2-x,1/2-y,-z
1/2+x,1/2-y,1/2+z
loop_
_atom_site_type_symbol
_atom_site_label
_atom_site_fract_x
_atom_site_fract_y
_atom_site_fract_z
Si Si1 0.936092 0.593492 0.056340
Si Si2 0.617713 0.893591 0.621781
Si Si3 0.691567 0.675569 0.699177
Si Si4 0.042554 0.063290 0.653175
Si Si5 0.834265 0.992490 0.991284
O O1 0.000000 0.613906 0.250000
O O2 0.008477 0.630052 0.050055
O O3 0.909977 0.472342 0.009549
O O4 0.821369 0.659679 0.904710
O O5 0.667941 0.791892 0.633039
O O6 0.710034 0.944789 0.821172
O O7 0.612085 0.659304 0.698759
O O8 0.658548 0.601506 0.558417
O O9 0.926945 0.088982 0.565665
O O10 0.130000 0.994605 0.839019
O O11 0.000000 0.000000 0.500000
#
# Coordination Sequence:
#
# PCOD8141603 Si02
#       5
#     8   8   8   8   8
#     4  10  22  40  60  85 123 154 192 250 292 342
#     4  10  22  39  59  86 118 154 200 235 294 355
#     4  10  21  37  60  86 113 156 199 232 293 355
#     4   9  18  34  56  84 113 144 186 242 285 336
#     4   9  19  36  57  82 120 145 185 248 289 333
#
# _framework density 20.574017000000001
#
# number of rings (size 3 to 8) (size 9 to 14) (size 15 to 20)
#    0.000    2.400    0.000    1.200    2.800    3.200 
#    7.200    0.000    0.000    7.200    0.000    0.000 
#    0.000    0.000    0.000    0.000    0.000    0.000 
#
# Total GULP energy -247852.442699 kJ/mol
# GULP energy per Si atom -12392.622135 kJ/mol
# Density = 2.052719 g / cm^3
# Si number density = 20.574017 Si / 1000 Ang^3
#
#
#
# Elastic Constant Matrix: (Units=GPa)
#
#
# Indices 1 2 3 4 5 6 
#
# 1 57.3140 28.0652 17.5203 0.0000 18.4854 0.0000
# 2 28.0652 107.8025 16.9589 0.0000 8.3557 0.0000
# 3 17.5203 16.9589 98.7955 0.0000 0.6581 0.0000
# 4 0.0000 0.0000 0.0000 15.7093 0.0000 4.2879
# 5 18.4854 8.3557 0.6581 0.0000 38.9401 0.0000
# 6 0.0000 0.0000 0.0000 4.2879 0.0000 19.4754
#
#
#
# Elastic Compliance Matrix: (Units=1/GPa)
#
#
# Indices 1 2 3 4 5 6 
#
# 1 0.024274 -0.004982 -0.003380 0.000000 -0.010397 0.000000
# 2 -0.004982 0.010717 -0.000957 0.000000 0.000081 0.000000
# 3 -0.003380 -0.000957 0.010875 0.000000 0.001626 0.000000
# 4 0.000000 0.000000 0.000000 0.067727 0.000000 -0.014911
# 5 -0.010397 0.000081 0.001626 0.000000 0.030571 0.000000
# 6 0.000000 0.000000 0.000000 -0.014911 0.000000 0.054630
#
#
# Mechanical properties :
#
#
# Convention : Reuss Voigt Hill
#
# Bulk Modulus (GPa) = 36.72649 43.22229 39.97439
# Shear Modulus (GPa) = 22.07431 28.24945 25.16188
#
# Velocity S-wave (km/s) = 3.27910 3.70951 3.50093
# Velocity P-wave (km/s) = 5.67682 6.27703 5.98446
#
# Compressibility (1/GPa) = 0.02722830
#
# Stress axis : x y z
#
# Youngs Moduli (GPa) = 41.19654 93.30625 91.95587
#
# Poissons Ratio (x) = 0.46483 0.31084
# Poissons Ratio (y) = 0.20523 0.08798
# Poissons Ratio (z) = 0.13926 0.08927
#
# Static dielectric constant tensor:
#      x y z
#    x 4.552050 0.000000 0.142220 
#    y 0.000000 3.467720 0.000000 
#    z 0.142220 0.000000 3.858750 
# 
# 
# High freq. dielectric constant tensor:
#      x y z
#    x 1.807950 0.000000 0.018200 
#    y 0.000000 1.775800 0.000000 
#    z 0.018200 0.000000 1.815470 
# 
# From -- ./inp_files/95805.got.cif
#   From: 2010.06.25/outbox.cif.g09.slc.cpg/sg15_48_cif.got.tgz:95805.got - 2010.06.28 07:06:18.
