data_PCOD8141386
_publ_section_title
;
Structure prediction by ZEFSAII (Michael W. Deem and Ramdas Pophale) SiO2 
 PCOD8141386
Probable space group: C 2/C
;
_chemical_formula_sum "Si O2"
_cell_formula_units_Z 40
_cell_length_a 12.048192
_cell_length_b 14.088100
_cell_length_c 10.376978
_cell_angle_alpha 90.000000
_cell_angle_beta 106.961564
_cell_angle_gamma 90.000000
_cell_volume 1684.730669
_symmetry_space_group_name_H-M "C 2/C"
_symmetry_group_IT_number 15
_symmetry_cell_setting 'monoclinic'
loop_
_space_group_symop_operation_xyz
x,y,z
-x,y,1/2-z
-x,-y,-z
x,-y,1/2+z
1/2+x,1/2+y,z
1/2-x,1/2+y,1/2-z
1/2-x,1/2-y,-z
1/2+x,1/2-y,1/2+z
loop_
_atom_site_type_symbol
_atom_site_label
_atom_site_fract_x
_atom_site_fract_y
_atom_site_fract_z
Si Si1 0.402201 0.878171 0.117412
Si Si2 0.175892 0.811178 0.780007
Si Si3 0.169919 0.036738 0.485522
Si Si4 0.060729 0.675914 0.151088
Si Si5 0.456210 0.643665 0.514997
O O1 0.500000 0.911415 0.250000
O O2 0.356712 0.771388 0.129779
O O3 0.295050 0.950707 0.095810
O O4 0.449689 0.881647 0.986707
O O5 0.168996 0.913463 0.846127
O O6 0.306269 0.797203 0.772832
O O7 0.083002 0.810828 0.634426
O O8 0.073134 0.082807 0.543501
O O9 0.144841 0.924303 0.461967
O O10 0.000000 0.618684 0.250000
O O11 0.981578 0.770548 0.118901
#
# Coordination Sequence:
#
# PCOD8141386 Si02
#       5
#     8   8   8   8   8
#     4  11  19  41  70  92 127 179 223 251 327 402
#     4  11  20  41  65  93 130 175 220 263 324 390
#     4  10  21  36  61  99 128 171 210 270 320 389
#     4  11  23  38  62  99 128 167 223 274 313 381
#     4  11  21  37  63  95 131 163 217 273 319 373
#
# _framework density 23.742667000000001
#
# number of rings (size 3 to 8) (size 9 to 14) (size 15 to 20)
#    0.000    1.200    6.000    1.800    0.000    4.000 
#    0.000    1.000    0.000    4.800    0.000    0.000 
#    0.000    0.000    0.000    0.000    0.000    0.000 
#
# Total GULP energy -248022.908971 kJ/mol
# GULP energy per Si atom -12401.145449 kJ/mol
# Density = 2.368863 g / cm^3
# Si number density = 23.742667 Si / 1000 Ang^3
#
#
#
# Elastic Constant Matrix: (Units=GPa)
#
#
# Indices 1 2 3 4 5 6 
#
# 1 149.6639 34.1731 69.4312 0.0000 10.4108 0.0000
# 2 34.1731 69.9133 6.1647 0.0000 0.8292 0.0000
# 3 69.4312 6.1647 108.7342 0.0000 1.4074 0.0000
# 4 0.0000 0.0000 0.0000 5.8487 0.0000 6.2210
# 5 10.4108 0.8292 1.4074 0.0000 47.8349 0.0000
# 6 0.0000 0.0000 0.0000 6.2210 0.0000 37.5027
#
#
#
# Elastic Compliance Matrix: (Units=1/GPa)
#
#
# Indices 1 2 3 4 5 6 
#
# 1 0.011059 -0.004784 -0.006763 0.000000 -0.002125 0.000000
# 2 -0.004784 0.016447 0.002113 0.000000 0.000694 0.000000
# 3 -0.006763 0.002113 0.013382 0.000000 0.001042 0.000000
# 4 0.000000 0.000000 0.000000 0.207610 0.000000 -0.034439
# 5 -0.002125 0.000694 0.001042 0.000000 0.021325 0.000000
# 6 0.000000 0.000000 0.000000 -0.034439 0.000000 0.032378
#
#
# Mechanical properties :
#
#
# Convention : Reuss Voigt Hill
#
# Bulk Modulus (GPa) = 45.41135 60.87214 53.14175
# Shear Modulus (GPa) = 15.22492 32.80675 24.01584
#
# Velocity S-wave (km/s) = 2.53503 3.72124 3.18387
# Velocity P-wave (km/s) = 5.26655 6.64511 5.99558
#
# Compressibility (1/GPa) = 0.02202092
#
# Stress axis : x y z
#
# Youngs Moduli (GPa) = 90.42140 60.80022 74.72758
#
# Poissons Ratio (x) = 0.29088 0.50539
# Poissons Ratio (y) = 0.43259 -0.15793
# Poissons Ratio (z) = 0.61153 -0.12850
#
# Static dielectric constant tensor:
#      x y z
#    x 4.424330 0.000000 0.219630 
#    y 0.000000 4.020980 0.000000 
#    z 0.219630 0.000000 4.056780 
# 
# 
# High freq. dielectric constant tensor:
#      x y z
#    x 1.950360 0.000000 0.014230 
#    y 0.000000 1.916570 0.000000 
#    z 0.014230 0.000000 1.934140 
# 
# From -- ./inp_files/85693.got.cif
#   From: 2010.06.25/outbox.cif.g09.slc.cpg/sg15_43_cif.got.tgz:85693.got - 2010.06.28 07:06:18.
