data_PCOD8141013
_publ_section_title
;
Structure prediction by ZEFSAII (Michael W. Deem and Ramdas Pophale) SiO2 
 PCOD8141013
Probable space group: C 2/C
;
_chemical_formula_sum "Si O2"
_cell_formula_units_Z 64
_cell_length_a 15.539610
_cell_length_b 27.107874
_cell_length_c 11.463246
_cell_angle_alpha 90.000000
_cell_angle_beta 139.294967
_cell_angle_gamma 90.000000
_cell_volume 3149.203112
_symmetry_space_group_name_H-M "C 2/C"
_symmetry_group_IT_number 15
_symmetry_cell_setting 'monoclinic'
loop_
_space_group_symop_operation_xyz
x,y,z
-x,y,1/2-z
-x,-y,-z
x,-y,1/2+z
1/2+x,1/2+y,z
1/2-x,1/2+y,1/2-z
1/2-x,1/2-y,-z
1/2+x,1/2-y,1/2+z
loop_
_atom_site_type_symbol
_atom_site_label
_atom_site_fract_x
_atom_site_fract_y
_atom_site_fract_z
Si Si1 0.843177 0.894013 0.584713
Si Si2 0.499216 0.821133 0.878189
Si Si3 0.771138 0.862758 0.157367
Si Si4 0.207616 0.850123 0.584559
Si Si5 0.901709 0.765505 0.863808
Si Si6 0.334025 0.700742 0.943566
Si Si7 0.344068 0.546911 0.867754
Si Si8 0.351603 0.559947 0.328605
O O1 0.797840 0.837792 0.509578
O O2 0.783046 0.929449 0.422703
O O3 0.785625 0.911992 0.649823
O O4 0.000000 0.895665 0.750000
O O5 0.500000 0.797381 0.750000
O O6 0.362778 0.847186 0.769715
O O7 0.612461 0.862573 0.000281
O O8 0.527074 0.778194 0.996216
O O9 0.831144 0.825427 0.313760
O O10 0.813711 0.918926 0.224854
O O11 0.823680 0.844751 0.085144
O O12 0.133794 0.808249 0.581655
O O13 0.157083 0.904019 0.570089
O O14 0.771368 0.745773 0.661575
O O15 0.012228 0.783091 0.884164
O O16 0.281397 0.492539 0.783761
O O17 0.499855 0.545284 0.048671
#
# Coordination Sequence:
#
# PCOD8141013 Si02
#       8
#     8   8   8   8   8   8   8   8
#     4   9  18  37  55  78 115 150 184 235 281 337
#     4   9  20  34  52  80 117 152 183 234 286 337
#     4   9  20  35  56  82 117 147 183 235 290 343
#     4  11  21  34  55  87 115 147 190 235 281 342
#     4  11  20  34  56  84 116 150 195 233 283 340
#     4  10  21  35  57  83 114 156 190 236 287 330
#     4   9  19  36  56  86 109 150 179 230 295 339
#     4  10  21  34  58  84 115 144 189 234 284 337
#
# _framework density 20.322600999999999
#
# number of rings (size 3 to 8) (size 9 to 14) (size 15 to 20)
#    0.000    2.250    1.250    2.250    3.500    3.000 
#    0.000    3.125    0.000    6.000    0.000    0.000 
#    0.000    0.000    0.000    0.000    0.000    0.000 
#
# Total GULP energy -396686.250943 kJ/mol
# GULP energy per Si atom -12396.445342 kJ/mol
# Density = 2.027635 g / cm^3
# Si number density = 20.322601 Si / 1000 Ang^3
#
#
#
# Elastic Constant Matrix: (Units=GPa)
#
#
# Indices 1 2 3 4 5 6 
#
# 1 51.0655 27.1679 29.3933 0.0000 -4.2041 0.0000
# 2 27.1679 124.8702 30.6268 0.0000 -9.2808 0.0000
# 3 29.3933 30.6268 56.6850 0.0000 -5.6901 0.0000
# 4 0.0000 0.0000 0.0000 25.8847 0.0000 -2.1594
# 5 -4.2041 -9.2808 -5.6901 0.0000 18.9328 0.0000
# 6 0.0000 0.0000 0.0000 -2.1594 0.0000 8.4851
#
#
#
# Elastic Compliance Matrix: (Units=1/GPa)
#
#
# Indices 1 2 3 4 5 6 
#
# 1 0.028879 -0.002953 -0.013281 0.000000 0.000973 0.000000
# 2 -0.002953 0.009716 -0.003409 0.000000 0.003083 0.000000
# 3 -0.013281 -0.003409 0.026712 0.000000 0.003408 0.000000
# 4 0.000000 0.000000 0.000000 0.039471 0.000000 0.010045
# 5 0.000973 0.003083 0.003408 0.000000 0.055570 0.000000
# 6 0.000000 0.000000 0.000000 0.010045 0.000000 0.120410
#
#
# Mechanical properties :
#
#
# Convention : Reuss Voigt Hill
#
# Bulk Modulus (GPa) = 38.43181 45.22184 41.82682
# Shear Modulus (GPa) = 15.21059 20.35601 17.78330
#
# Velocity S-wave (km/s) = 2.73876 3.16831 2.96133
# Velocity P-wave (km/s) = 5.38080 5.97365 5.68496
#
# Compressibility (1/GPa) = 0.02602011
#
# Stress axis : x y z
#
# Youngs Moduli (GPa) = 34.62744 102.92287 37.43620
#
# Poissons Ratio (x) = 0.30396 0.49721
# Poissons Ratio (y) = 0.10226 0.12761
# Poissons Ratio (z) = 0.45990 0.35084
#
# Static dielectric constant tensor:
#      x y z
#    x 3.608150 0.000000 -0.171190 
#    y 0.000000 3.822550 0.000000 
#    z -0.171190 0.000000 3.799910 
# 
# 
# High freq. dielectric constant tensor:
#      x y z
#    x 1.776320 0.000000 -0.018800 
#    y 0.000000 1.792370 0.000000 
#    z -0.018800 0.000000 1.785620 
# 
# From -- ./inp_files/101366.got.cif
#   From: 2010.06.25/outbox.cif.g09.slc.cpg/sg15_51_cif.got.tgz:101366.got - 2010.06.28 07:06:18.
