data_PCOD8141697
_publ_section_title
;
Structure prediction by ZEFSAII (Michael W. Deem and Ramdas Pophale) SiO2 
 PCOD8141697
Probable space group: C 2/C
;
_chemical_formula_sum "Si O2"
_cell_formula_units_Z 44
_cell_length_a 25.139831
_cell_length_b 10.925210
_cell_length_c 8.719876
_cell_angle_alpha 90.000000
_cell_angle_beta 54.651548
_cell_angle_gamma 90.000000
_cell_volume 1953.464711
_symmetry_space_group_name_H-M "C 2/C"
_symmetry_group_IT_number 15
_symmetry_cell_setting 'monoclinic'
loop_
_space_group_symop_operation_xyz
x,y,z
-x,y,1/2-z
-x,-y,-z
x,-y,1/2+z
1/2+x,1/2+y,z
1/2-x,1/2+y,1/2-z
1/2-x,1/2-y,-z
1/2+x,1/2-y,1/2+z
loop_
_atom_site_type_symbol
_atom_site_label
_atom_site_fract_x
_atom_site_fract_y
_atom_site_fract_z
Si Si1 0.580372 0.108153 0.749693
Si Si2 0.000000 0.971784 0.750000
Si Si3 0.216777 0.366930 0.134002
Si Si4 0.088902 0.112049 0.838822
Si Si5 0.237641 0.884247 0.095811
Si Si6 0.058715 0.637887 0.445929
O O1 0.639840 0.161754 0.748713
O O2 0.596163 0.108445 0.542245
O O3 0.561223 0.970703 0.822417
O O4 0.515441 0.185024 0.897771
O O5 0.052210 0.895403 0.564525
O O6 0.954174 0.052109 0.719269
O O7 0.238815 0.372595 0.270718
O O8 0.250000 0.250000 0.000000
O O9 0.225070 0.502287 0.045676
O O10 0.163098 0.065718 0.717788
O O11 0.096208 0.255725 0.793417
O O12 0.250000 0.750000 0.000000
#
# Coordination Sequence:
#
# PCOD8141697 Si02
#       6
#     8   4   8   8   8   8
#     4  10  21  38  59  90 119 157 206 249 313 368
#     4  10  24  40  66  90 120 162 212 268 310 378
#     4  12  25  42  66  94 131 175 216 265 321 389
#     4  11  23  43  63  92 124 164 212 259 323 372
#     4  12  26  44  67  96 134 174 217 269 324 394
#     4  10  21  37  62  86 121 156 198 262 305 366
#
# _framework density 22.524083000000001
#
# number of rings (size 3 to 8) (size 9 to 14) (size 15 to 20)
#    0.000    1.091    0.000    6.545    0.000    7.273 
#    0.000    0.000    0.000    0.000    0.000    0.000 
#    0.000    0.000    0.000    0.000    0.000    0.000 
#
# Total GULP energy -272666.928900 kJ/mol
# GULP energy per Si atom -12393.951314 kJ/mol
# Density = 2.247282 g / cm^3
# Si number density = 22.524083 Si / 1000 Ang^3
#
#
#
# Elastic Constant Matrix: (Units=GPa)
#
#
# Indices 1 2 3 4 5 6 
#
# 1 163.7342 15.2432 49.6141 0.0000 2.1857 0.0000
# 2 15.2432 105.5998 28.5480 0.0000 16.8316 0.0000
# 3 49.6141 28.5480 76.3644 0.0000 6.7683 0.0000
# 4 0.0000 0.0000 0.0000 34.4230 0.0000 7.6649
# 5 2.1857 16.8316 6.7683 0.0000 35.0038 0.0000
# 6 0.0000 0.0000 0.0000 7.6649 0.0000 59.4347
#
#
#
# Elastic Compliance Matrix: (Units=1/GPa)
#
#
# Indices 1 2 3 4 5 6 
#
# 1 0.007617 0.000204 -0.005061 0.000000 0.000405 0.000000
# 2 0.000204 0.011244 -0.003923 0.000000 -0.004661 0.000000
# 3 -0.005061 -0.003923 0.017962 0.000000 -0.001271 0.000000
# 4 0.000000 0.000000 0.000000 0.029909 0.000000 -0.003857
# 5 0.000405 -0.004661 -0.001271 0.000000 0.031030 0.000000
# 6 0.000000 0.000000 0.000000 -0.003857 0.000000 0.017323
#
#
# Mechanical properties :
#
#
# Convention : Reuss Voigt Hill
#
# Bulk Modulus (GPa) = 51.91140 59.16765 55.53953
# Shear Modulus (GPa) = 35.95468 42.59185 39.27327
#
# Velocity S-wave (km/s) = 3.99968 4.35322 4.18019
# Velocity P-wave (km/s) = 6.66536 7.18283 6.92893
#
# Compressibility (1/GPa) = 0.01926359
#
# Stress axis : x y z
#
# Youngs Moduli (GPa) = 131.29373 88.93920 55.67250
#
# Poissons Ratio (x) = -0.01816 0.28174
# Poissons Ratio (y) = -0.02681 0.21840
# Poissons Ratio (z) = 0.66443 0.34890
#
# Static dielectric constant tensor:
#      x y z
#    x 4.240950 0.000000 -0.231490 
#    y 0.000000 4.275300 0.000000 
#    z -0.231490 0.000000 4.267000 
# 
# 
# High freq. dielectric constant tensor:
#      x y z
#    x 1.908290 0.000000 -0.004960 
#    y 0.000000 1.894430 0.000000 
#    z -0.004960 0.000000 1.888240 
# 
# From -- ./inp_files/60813.got.cif
#   From: 2010.06.25/outbox.cif.g09.slc.cpg/sg15_31_cif.got.tgz:60813.got - 2010.06.28 07:06:18.
