data_PCOD8141672
_publ_section_title
;
Structure prediction by ZEFSAII (Michael W. Deem and Ramdas Pophale) SiO2 
 PCOD8141672
Probable space group: C 2/C
;
_chemical_formula_sum "Si O2"
_cell_formula_units_Z 40
_cell_length_a 16.944011
_cell_length_b 18.203717
_cell_length_c 10.587927
_cell_angle_alpha 90.000000
_cell_angle_beta 38.327670
_cell_angle_gamma 90.000000
_cell_volume 2025.300902
_symmetry_space_group_name_H-M "C 2/C"
_symmetry_group_IT_number 15
_symmetry_cell_setting 'monoclinic'
loop_
_space_group_symop_operation_xyz
x,y,z
-x,y,1/2-z
-x,-y,-z
x,-y,1/2+z
1/2+x,1/2+y,z
1/2-x,1/2+y,1/2-z
1/2-x,1/2-y,-z
1/2+x,1/2-y,1/2+z
loop_
_atom_site_type_symbol
_atom_site_label
_atom_site_fract_x
_atom_site_fract_y
_atom_site_fract_z
Si Si1 0.264761 0.298326 0.657307
Si Si2 0.066927 0.925626 0.032712
Si Si3 0.144672 0.777553 0.530972
Si Si4 0.664672 0.575713 0.862676
Si Si5 0.643854 0.149134 0.058924
O O1 0.356988 0.354591 0.610807
O O2 0.157738 0.269200 0.886357
O O3 0.351263 0.230371 0.505086
O O4 0.203760 0.345628 0.621727
O O5 0.000000 0.911262 0.250000
O O6 0.965817 0.928781 0.049039
O O7 0.165967 0.994249 0.921879
O O8 0.250000 0.750000 0.500000
O O9 0.164288 0.863919 0.475204
O O10 0.000000 0.761997 0.750000
O O11 0.781525 0.590234 0.620977
O O12 0.500000 0.121128 0.250000
#
# Coordination Sequence:
#
# PCOD8141672 Si02
#       5
#     8   8   8   8   8
#     4  10  22  36  63  89 116 158 204 246 305 362
#     4  11  20  39  64  95 120 155 206 257 313 362
#     4  11  24  41  61  90 127 166 207 259 311 372
#     4  10  23  38  64  91 123 159 203 257 306 369
#     4  10  21  37  61  90 121 154 200 254 299 365
#
# _framework density 19.750150000000001
#
# number of rings (size 3 to 8) (size 9 to 14) (size 15 to 20)
#    0.000    1.600    2.000    2.400   11.200    1.600 
#    0.000    2.000    0.000    0.000    0.000    0.000 
#    0.000    0.000    0.000    0.000    0.000    0.000 
#
# Total GULP energy -247907.991710 kJ/mol
# GULP energy per Si atom -12395.399586 kJ/mol
# Density = 1.970520 g / cm^3
# Si number density = 19.750150 Si / 1000 Ang^3
#
#
#
# Elastic Constant Matrix: (Units=GPa)
#
#
# Indices 1 2 3 4 5 6 
#
# 1 53.1002 22.5828 27.0209 0.0000 -3.2893 0.0000
# 2 22.5828 96.6340 42.5827 0.0000 -8.7412 0.0000
# 3 27.0209 42.5827 139.6927 0.0000 -12.5457 0.0000
# 4 0.0000 0.0000 0.0000 19.4105 0.0000 -4.7101
# 5 -3.2893 -8.7412 -12.5457 0.0000 30.7682 0.0000
# 6 0.0000 0.0000 0.0000 -4.7101 0.0000 26.0121
#
#
#
# Elastic Compliance Matrix: (Units=1/GPa)
#
#
# Indices 1 2 3 4 5 6 
#
# 1 0.022020 -0.003775 -0.003107 0.000000 0.000015 0.000000
# 2 -0.003775 0.012719 -0.002967 0.000000 0.002000 0.000000
# 3 -0.003107 -0.002967 0.008884 0.000000 0.002447 0.000000
# 4 0.000000 0.000000 0.000000 0.053886 0.000000 0.009757
# 5 0.000015 0.002000 0.002447 0.000000 0.034069 0.000000
# 6 0.000000 0.000000 0.000000 0.009757 0.000000 0.040211
#
#
# Mechanical properties :
#
#
# Convention : Reuss Voigt Hill
#
# Bulk Modulus (GPa) = 41.80037 52.64441 47.22239
# Shear Modulus (GPa) = 25.06735 28.38752 26.72744
#
# Velocity S-wave (km/s) = 3.56648 3.79533 3.68268
# Velocity P-wave (km/s) = 6.17821 6.77636 6.48419
#
# Compressibility (1/GPa) = 0.02392323
#
# Stress axis : x y z
#
# Youngs Moduli (GPa) = 45.41326 78.62198 112.56315
#
# Poissons Ratio (x) = 0.29683 0.34975
# Poissons Ratio (y) = 0.17145 0.33401
# Poissons Ratio (z) = 0.14111 0.23329
#
# Static dielectric constant tensor:
#      x y z
#    x 3.620090 0.000000 0.112620 
#    y 0.000000 3.864280 0.000000 
#    z 0.112620 0.000000 3.635810 
# 
# 
# High freq. dielectric constant tensor:
#      x y z
#    x 1.765450 0.000000 0.009190 
#    y 0.000000 1.769590 0.000000 
#    z 0.009190 0.000000 1.772780 
# 
# From -- ./inp_files/106805.got.cif
#   From: 2010.06.25/outbox.cif.g09.slc.cpg/sg15_54_cif.got.tgz:106805.got - 2010.06.28 07:06:18.
