data_PCOD8141571
_publ_section_title
;
Structure prediction by ZEFSAII (Michael W. Deem and Ramdas Pophale) SiO2 
 PCOD8141571
Probable space group: C 2/C
;
_chemical_formula_sum "Si O2"
_cell_formula_units_Z 56
_cell_length_a 14.265811
_cell_length_b 8.380937
_cell_length_c 23.665094
_cell_angle_alpha 90.000000
_cell_angle_beta 75.893703
_cell_angle_gamma 90.000000
_cell_volume 2744.098601
_symmetry_space_group_name_H-M "C 2/C"
_symmetry_group_IT_number 15
_symmetry_cell_setting 'monoclinic'
loop_
_space_group_symop_operation_xyz
x,y,z
-x,y,1/2-z
-x,-y,-z
x,-y,1/2+z
1/2+x,1/2+y,z
1/2-x,1/2+y,1/2-z
1/2-x,1/2-y,-z
1/2+x,1/2-y,1/2+z
loop_
_atom_site_type_symbol
_atom_site_label
_atom_site_fract_x
_atom_site_fract_y
_atom_site_fract_z
Si Si1 0.139326 0.987735 0.383549
Si Si2 0.823599 0.707732 0.199967
Si Si3 0.656494 0.235044 0.475619
Si Si4 0.495130 0.001763 0.313547
Si Si5 0.279324 0.450252 0.879418
Si Si6 0.539968 0.720831 0.095662
Si Si7 0.811010 0.294651 0.831292
O O1 0.129081 0.868285 0.332082
O O2 0.134325 0.895228 0.443531
O O3 0.244406 0.065667 0.364571
O O4 0.058883 0.123653 0.391804
O O5 0.730243 0.648900 0.177870
O O6 0.789963 0.741237 0.268610
O O7 0.900485 0.565562 0.184602
O O8 0.750000 0.250000 0.500000
O O9 0.680563 0.088579 0.429454
O O10 0.564173 0.206797 0.529828
O O11 0.500000 0.927157 0.250000
O O12 0.465109 0.865877 0.360779
O O13 0.420996 0.150616 0.324834
O O14 0.374829 0.396565 0.898035
O O15 0.287891 0.637712 0.870126
#
# Coordination Sequence:
#
# PCOD8141571 Si02
#       7
#     8   8   8   8   8   8   8
#     4  11  22  37  60  85 114 152 190 232 286 341
#     4  10  21  38  57  84 117 148 188 235 281 337
#     4   9  20  40  59  81 113 149 192 240 282 334
#     4  10  22  38  59  85 116 150 190 234 283 339
#     4  10  21  37  59  85 113 150 191 234 283 335
#     4  11  22  39  59  83 115 151 189 234 285 338
#     4  11  21  37  58  85 116 150 187 233 284 338
#
# _framework density 20.407429
#
# number of rings (size 3 to 8) (size 9 to 14) (size 15 to 20)
#    0.000    1.714    0.000    5.571    0.000    4.571 
#    0.000   14.286    0.000    0.000    0.000    0.000 
#    0.000    0.000    0.000    0.000    0.000    0.000 
#
# Total GULP energy -347211.756425 kJ/mol
# GULP energy per Si atom -12400.419872 kJ/mol
# Density = 2.036098 g / cm^3
# Si number density = 20.407429 Si / 1000 Ang^3
#
#
#
# Elastic Constant Matrix: (Units=GPa)
#
#
# Indices 1 2 3 4 5 6 
#
# 1 55.8086 3.6345 16.8766 0.0000 2.2301 0.0000
# 2 3.6345 96.4674 63.7347 0.0000 0.4759 0.0000
# 3 16.8766 63.7347 126.1984 0.0000 -5.1608 0.0000
# 4 0.0000 0.0000 0.0000 28.4078 0.0000 -11.0306
# 5 2.2301 0.4759 -5.1608 0.0000 28.6697 0.0000
# 6 0.0000 0.0000 0.0000 -11.0306 0.0000 24.6831
#
#
#
# Elastic Compliance Matrix: (Units=1/GPa)
#
#
# Indices 1 2 3 4 5 6 
#
# 1 0.018929 0.001541 -0.003396 0.000000 -0.002109 0.000000
# 2 0.001541 0.015764 -0.008244 0.000000 -0.001865 0.000000
# 3 -0.003396 -0.008244 0.012651 0.000000 0.002678 0.000000
# 4 0.000000 0.000000 0.000000 0.042592 0.000000 0.019034
# 5 -0.002109 -0.001865 0.002678 0.000000 0.035557 0.000000
# 6 0.000000 0.000000 0.000000 0.019034 0.000000 0.049020
#
#
# Mechanical properties :
#
#
# Convention : Reuss Voigt Hill
#
# Bulk Modulus (GPa) = 36.83687 49.66290 43.24988
# Shear Modulus (GPa) = 24.53872 29.30069 26.91971
#
# Velocity S-wave (km/s) = 3.47138 3.79329 3.63590
# Velocity P-wave (km/s) = 5.84442 6.60105 6.23423
#
# Compressibility (1/GPa) = 0.02714672
#
# Stress axis : x y z
#
# Youngs Moduli (GPa) = 52.82839 63.43656 79.04514
#
# Poissons Ratio (x) = -0.09774 0.26842
# Poissons Ratio (y) = -0.08140 0.65162
# Poissons Ratio (z) = 0.17940 0.52295
#
# Static dielectric constant tensor:
#      x y z
#    x 3.675160 0.000000 0.022870 
#    y 0.000000 3.599310 0.000000 
#    z 0.022870 0.000000 4.280770 
# 
# 
# High freq. dielectric constant tensor:
#      x y z
#    x 1.797500 0.000000 0.002780 
#    y 0.000000 1.792750 0.000000 
#    z 0.002780 0.000000 1.809980 
# 
# From -- ./inp_files/272622.got.cif
#   From: 2010.06.25/outbox.cif.g09.slc.cpg/sg15_137_cif.got.tgz:272622.got - 2010.06.28 07:06:18.
