data_PCOD8141585
_publ_section_title
;
Structure prediction by ZEFSAII (Michael W. Deem and Ramdas Pophale) SiO2 
 PCOD8141585
Probable space group: C 2/C
;
_chemical_formula_sum "Si O2"
_cell_formula_units_Z 52
_cell_length_a 7.932152
_cell_length_b 11.398672
_cell_length_c 30.079916
_cell_angle_alpha 90.000000
_cell_angle_beta 101.879461
_cell_angle_gamma 90.000000
_cell_volume 2661.457283
_symmetry_space_group_name_H-M "C 2/C"
_symmetry_group_IT_number 15
_symmetry_cell_setting 'monoclinic'
loop_
_space_group_symop_operation_xyz
x,y,z
-x,y,1/2-z
-x,-y,-z
x,-y,1/2+z
1/2+x,1/2+y,z
1/2-x,1/2+y,1/2-z
1/2-x,1/2-y,-z
1/2+x,1/2-y,1/2+z
loop_
_atom_site_type_symbol
_atom_site_label
_atom_site_fract_x
_atom_site_fract_y
_atom_site_fract_z
Si Si1 0.544147 0.697848 0.356307
Si Si2 0.781168 0.149864 0.674999
Si Si3 0.809550 0.908115 0.719134
Si Si4 0.204178 0.810440 0.064248
Si Si5 0.669577 0.073110 0.016083
Si Si6 0.922917 0.042244 0.597197
Si Si7 0.500000 0.211685 0.250000
O O1 0.374833 0.759699 0.328781
O O2 0.677187 0.677841 0.322864
O O3 0.626956 0.780442 0.398175
O O4 0.494513 0.571420 0.374479
O O5 0.809878 0.117698 0.625285
O O6 0.951763 0.209433 0.704793
O O7 0.737510 0.034196 0.700666
O O8 0.668852 0.862976 0.746480
O O9 0.000000 0.919717 0.750000
O O10 0.122179 0.690842 0.040518
O O11 0.072233 0.873629 0.089078
O O12 0.251748 0.898020 0.027407
O O13 0.805741 0.994083 0.049520
O O14 0.500000 0.000000 0.000000
#
# Coordination Sequence:
#
# PCOD8141585 Si02
#       7
#     8   8   8   8   8   8   4
#     4  10  22  40  60  85 122 158 195 259 303 358
#     4  11  23  40  61  87 120 157 204 253 313 370
#     4  11  23  41  59  87 121 150 203 258 299 372
#     4  10  21  38  59  88 121 159 201 248 306 358
#     4  10  21  37  59  88 123 158 202 250 302 363
#     4  10  22  38  60  87 122 157 204 253 299 375
#     4  12  24  38  64  88 112 164 202 246 324 368
#
# _framework density 19.538167000000001
#
# number of rings (size 3 to 8) (size 9 to 14) (size 15 to 20)
#    0.000    1.538    2.308    2.308    0.000    4.308 
#    0.000    0.000    0.000    0.000    0.000    0.000 
#    0.000    0.000    0.000    0.000    0.000    0.000 
#
# Total GULP energy -322481.871361 kJ/mol
# GULP energy per Si atom -12403.148898 kJ/mol
# Density = 1.949370 g / cm^3
# Si number density = 19.538167 Si / 1000 Ang^3
#
#
#
# Elastic Constant Matrix: (Units=GPa)
#
#
# Indices 1 2 3 4 5 6 
#
# 1 95.6645 56.7383 35.9370 0.0000 -0.8028 0.0000
# 2 56.7383 90.8223 32.5856 0.0000 -2.0027 0.0000
# 3 35.9370 32.5856 92.6760 0.0000 1.1470 0.0000
# 4 0.0000 0.0000 0.0000 39.6231 0.0000 4.0181
# 5 -0.8028 -2.0027 1.1470 0.0000 32.0733 0.0000
# 6 0.0000 0.0000 0.0000 4.0181 0.0000 28.4725
#
#
#
# Elastic Compliance Matrix: (Units=1/GPa)
#
#
# Indices 1 2 3 4 5 6 
#
# 1 0.017476 -0.009713 -0.003361 0.000000 -0.000049 0.000000
# 2 -0.009713 0.018027 -0.002584 0.000000 0.000975 0.000000
# 3 -0.003361 -0.002584 0.013011 0.000000 -0.000711 0.000000
# 4 0.000000 0.000000 0.000000 0.025604 0.000000 -0.003613
# 5 -0.000049 0.000975 -0.000711 0.000000 0.031264 0.000000
# 6 0.000000 0.000000 0.000000 -0.003613 0.000000 0.035631
#
#
# Mechanical properties :
#
#
# Convention : Reuss Voigt Hill
#
# Bulk Modulus (GPa) = 58.14604 58.85384 58.49994
# Shear Modulus (GPa) = 28.08018 30.29393 29.18706
#
# Velocity S-wave (km/s) = 3.79515 3.94191 3.86923
# Velocity P-wave (km/s) = 7.00208 7.13485 7.06878
#
# Compressibility (1/GPa) = 0.01719808
#
# Stress axis : x y z
#
# Youngs Moduli (GPa) = 57.22152 55.47270 76.85821
#
# Poissons Ratio (x) = 0.53879 0.25832
# Poissons Ratio (y) = 0.55578 0.19861
# Poissons Ratio (z) = 0.19232 0.14335
#
# Static dielectric constant tensor:
#      x y z
#    x 3.245480 0.000000 0.036930 
#    y 0.000000 3.628430 0.000000 
#    z 0.036930 0.000000 3.753170 
# 
# 
# High freq. dielectric constant tensor:
#      x y z
#    x 1.746360 0.000000 0.004050 
#    y 0.000000 1.770800 0.000000 
#    z 0.004050 0.000000 1.782240 
# 
# From -- ./inp_files/287706.got.cif
#   From: 2010.06.25/outbox.cif.g09.slc.cpg/sg15_144_cif.got.tgz:287706.got - 2010.06.28 07:06:18.
