data_PCOD8141846
_publ_section_title
;
Structure prediction by ZEFSAII (Michael W. Deem and Ramdas Pophale) SiO2 
 PCOD8141846
Probable space group: C 2/C
;
_chemical_formula_sum "Si O2"
_cell_formula_units_Z 64
_cell_length_a 12.486042
_cell_length_b 30.966256
_cell_length_c 18.785909
_cell_angle_alpha 90.000000
_cell_angle_beta 153.899209
_cell_angle_gamma 90.000000
_cell_volume 3195.586479
_symmetry_space_group_name_H-M "C 2/C"
_symmetry_group_IT_number 15
_symmetry_cell_setting 'monoclinic'
loop_
_space_group_symop_operation_xyz
x,y,z
-x,y,1/2-z
-x,-y,-z
x,-y,1/2+z
1/2+x,1/2+y,z
1/2-x,1/2+y,1/2-z
1/2-x,1/2-y,-z
1/2+x,1/2-y,1/2+z
loop_
_atom_site_type_symbol
_atom_site_label
_atom_site_fract_x
_atom_site_fract_y
_atom_site_fract_z
Si Si1 0.855538 0.126370 0.772479
Si Si2 0.737092 0.032638 0.077146
Si Si3 0.855440 0.437413 0.462520
Si Si4 0.211184 0.293850 0.732848
Si Si5 0.082754 0.627843 0.377325
Si Si6 0.025804 0.596319 0.848392
Si Si7 0.069697 0.711886 0.576786
Si Si8 0.847646 0.173706 0.089383
O O1 0.836832 0.089463 0.700585
O O2 0.732814 0.110024 0.772216
O O3 0.717659 0.167627 0.659009
O O4 0.131509 0.139125 0.953451
O O5 0.000000 0.052587 0.250000
O O6 0.766671 0.981309 0.082733
O O7 0.584983 0.048020 0.053835
O O8 0.616558 0.050875 0.933552
O O9 0.960511 0.409836 0.591082
O O10 0.245808 0.251077 0.800425
O O11 0.480330 0.308334 0.869720
O O12 0.075714 0.330201 0.697668
O O13 0.053729 0.279583 0.571986
O O14 0.000000 0.611622 0.250000
O O15 0.000000 0.590471 0.750000
O O16 0.228864 0.631169 0.987344
O O17 0.862703 0.708215 0.514833
O O18 0.000000 0.160719 0.250000
#
# Coordination Sequence:
#
# PCOD8141846 Si02
#       8
#     8   8   8   8   8   8   8   8
#     4  10  22  44  61  83 122 168 210 243 313 376
#     4  10  21  37  69  98 120 160 216 255 301 376
#     4  10  22  44  65  90 124 170 208 254 312 371
#     4  11  24  39  62  90 124 162 207 261 309 372
#     4  12  27  40  60  88 122 170 208 253 313 373
#     4  10  22  35  63  97 128 158 195 263 314 363
#     4  10  22  40  63  91 118 159 207 265 308 363
#     4   9  20  39  63  90 125 165 205 247 318 379
#
# _framework density 20.027622999999998
#
# number of rings (size 3 to 8) (size 9 to 14) (size 15 to 20)
#    0.000    1.750    1.250    1.875    7.000    2.000 
#    0.000    0.625    0.000    6.000    0.000    0.000 
#    0.000    0.000    0.000    0.000    0.000    0.000 
#
# Total GULP energy -396849.995152 kJ/mol
# GULP energy per Si atom -12401.562348 kJ/mol
# Density = 1.998204 g / cm^3
# Si number density = 20.027623 Si / 1000 Ang^3
#
#
#
# Elastic Constant Matrix: (Units=GPa)
#
#
# Indices 1 2 3 4 5 6 
#
# 1 86.7833 54.5631 43.8155 0.0012 -15.0563 0.0078
# 2 54.5631 119.8591 54.7522 0.0002 -9.2660 -0.0031
# 3 43.8155 54.7522 106.2752 0.0061 1.1370 0.0218
# 4 0.0012 0.0002 0.0061 27.0099 0.0017 -3.7781
# 5 -15.0563 -9.2660 1.1370 0.0017 34.0229 0.0074
# 6 0.0078 -0.0031 0.0218 -3.7781 0.0074 -6.4962
#
#
#
# Elastic Compliance Matrix: (Units=1/GPa)
#
#
# Indices 1 2 3 4 5 6 
#
# 1 0.018825 -0.005828 -0.004832 0.000002 0.006905 0.000016
# 2 -0.005828 0.013066 -0.004341 -0.000002 0.001124 -0.000025
# 3 -0.004832 -0.004341 0.013679 0.000002 -0.003778 0.000036
# 4 0.000002 -0.000002 0.000002 0.034238 0.000003 -0.019913
# 5 0.006905 0.001124 -0.003778 0.000003 0.032880 0.000031
# 6 0.000016 -0.000025 0.000036 -0.019913 0.000031 -0.142356
#
#
# Mechanical properties :
#
#
# Convention : Reuss Voigt Hill
#
# Bulk Modulus (GPa) = 64.23900 68.79771 66.51835
# Shear Modulus (GPa) = 905.13407 21.55978 463.34692
#
# Velocity S-wave (km/s) = 21.28201 3.28457 15.22682
# Velocity P-wave (km/s) = 25.21990 6.98645 18.50478
#
# Compressibility (1/GPa) = 0.01556687
#
# Stress axis : x y z
#
# Youngs Moduli (GPa) = 53.12011 76.53376 73.10738
#
# Poissons Ratio (x) = 0.44608 0.35329
# Poissons Ratio (y) = 0.30961 0.31733
# Poissons Ratio (z) = 0.25670 0.33220
#
# Static dielectric constant tensor:
#      x y z
#    x 3.723500 0.000000 0.063400 
#    y 0.000000 3.675280 0.000000 
#    z 0.063400 0.000000 3.822000 
# 
# 
# High freq. dielectric constant tensor:
#      x y z
#    x 1.784160 0.000000 0.011650 
#    y 0.000000 1.782930 0.000000 
#    z 0.011650 0.000000 1.785180 
# 
# From -- ./inp_files/201503.got.cif
#   From: 2010.06.25/outbox.cif.g09.slc.cpg/sg15_101_cif.got.tgz:201503.got - 2010.06.28 07:06:18.
