data_PCOD8141437
_publ_section_title
;
Structure prediction by ZEFSAII (Michael W. Deem and Ramdas Pophale) SiO2 
 PCOD8141437
Probable space group: C 2/C
;
_chemical_formula_sum "Si O2"
_cell_formula_units_Z 44
_cell_length_a 17.930254
_cell_length_b 19.650160
_cell_length_c 5.252605
_cell_angle_alpha 90.000000
_cell_angle_beta 99.394366
_cell_angle_gamma 90.000000
_cell_volume 1825.842029
_symmetry_space_group_name_H-M "C 2/C"
_symmetry_group_IT_number 15
_symmetry_cell_setting 'monoclinic'
loop_
_space_group_symop_operation_xyz
x,y,z
-x,y,1/2-z
-x,-y,-z
x,-y,1/2+z
1/2+x,1/2+y,z
1/2-x,1/2+y,1/2-z
1/2-x,1/2-y,-z
1/2+x,1/2-y,1/2+z
loop_
_atom_site_type_symbol
_atom_site_label
_atom_site_fract_x
_atom_site_fract_y
_atom_site_fract_z
Si Si1 0.000000 0.732394 0.250000
Si Si2 0.698430 0.958765 0.141768
Si Si3 0.710660 0.704633 0.270550
Si Si4 0.625387 0.458678 0.292261
Si Si5 0.348144 0.826747 0.583493
Si Si6 0.559543 0.350453 0.597198
O O1 0.071792 0.683498 0.229049
O O2 0.020564 0.778401 0.505059
O O3 0.786597 0.940056 0.166285
O O4 0.649086 0.888837 0.114940
O O5 0.675187 0.005056 0.889403
O O6 0.750000 0.750000 0.500000
O O7 0.777995 0.652880 0.229160
O O8 0.637780 0.658898 0.306521
O O9 0.676677 0.753047 0.033725
O O10 0.603652 0.486713 0.002020
O O11 0.577709 0.391417 0.345196
O O12 0.500000 0.388663 0.750000
#
# Coordination Sequence:
#
# PCOD8141437 Si02
#       6
#     4   8   8   8   8   8
#     4  10  24  42  60  92 132 160 214 268 332 380
#     4  10  22  41  67  97 126 168 220 275 321 384
#     4  10  21  36  64  91 120 170 218 266 324 381
#     4  10  23  40  63  92 127 173 219 264 315 380
#     4  10  21  40  62  93 124 167 214 269 326 383
#     4  11  23  39  59  91 129 170 212 265 320 383
#
# _framework density 24.098471
#
# number of rings (size 3 to 8) (size 9 to 14) (size 15 to 20)
#    0.000    1.818    1.818    1.091    5.091    2.182 
#    0.000    0.909    0.000    0.000    0.000    0.000 
#    0.000    0.000    0.000    0.000    0.000    0.000 
#
# Total GULP energy -272616.117437 kJ/mol
# GULP energy per Si atom -12391.641702 kJ/mol
# Density = 2.404362 g / cm^3
# Si number density = 24.098471 Si / 1000 Ang^3
#
#
#
# Elastic Constant Matrix: (Units=GPa)
#
#
# Indices 1 2 3 4 5 6 
#
# 1 146.4146 24.9709 18.9797 0.0000 23.5370 0.0000
# 2 24.9709 59.7008 -19.8238 0.0000 13.3598 0.0000
# 3 18.9797 -19.8238 47.2063 0.0000 7.2784 0.0000
# 4 0.0000 0.0000 0.0000 31.3375 0.0000 4.6058
# 5 23.5370 13.3598 7.2784 0.0000 26.8609 0.0000
# 6 0.0000 0.0000 0.0000 4.6058 0.0000 28.2984
#
#
#
# Elastic Compliance Matrix: (Units=1/GPa)
#
#
# Indices 1 2 3 4 5 6 
#
# 1 0.008873 -0.004294 -0.004698 0.000000 -0.004367 0.000000
# 2 -0.004294 0.026525 0.014943 0.000000 -0.013479 0.000000
# 3 -0.004698 0.014943 0.031161 0.000000 -0.011760 0.000000
# 4 0.000000 0.000000 0.000000 0.032693 0.000000 -0.005321
# 5 -0.004367 -0.013479 -0.011760 0.000000 0.050946 0.000000
# 6 0.000000 0.000000 0.000000 -0.005321 0.000000 0.036204
#
#
# Mechanical properties :
#
#
# Convention : Reuss Voigt Hill
#
# Bulk Modulus (GPa) = 12.74501 33.50836 23.12669
# Shear Modulus (GPa) = 24.91892 32.57902 28.74897
#
# Velocity S-wave (km/s) = 3.21915 3.68082 3.45770
# Velocity P-wave (km/s) = 4.37235 5.65682 5.05554
#
# Compressibility (1/GPa) = 0.07846205
#
# Stress axis : x y z
#
# Youngs Moduli (GPa) = 112.69949 37.70093 32.09169
#
# Poissons Ratio (x) = 0.16189 0.15075
# Poissons Ratio (y) = 0.48393 -0.47956
# Poissons Ratio (z) = 0.52941 -0.56338
#
# Static dielectric constant tensor:
#      x y z
#    x 4.735990 0.000000 0.073740 
#    y 0.000000 4.484690 0.000000 
#    z 0.073740 0.000000 4.409740 
# 
# 
# High freq. dielectric constant tensor:
#      x y z
#    x 1.952940 0.000000 0.008710 
#    y 0.000000 1.947230 0.000000 
#    z 0.008710 0.000000 1.941120 
# 
# From -- ./inp_files/10268.got.cif
#   From: 2010.06.25/outbox.cif.g09.slc.cpg/sg15_6_cif.got.tgz:10268.got - 2010.06.28 07:06:18.
