data_PCOD8141416
_publ_section_title
;
Structure prediction by ZEFSAII (Michael W. Deem and Ramdas Pophale) SiO2 
 PCOD8141416
Probable space group: C 2/C
;
_chemical_formula_sum "Si O2"
_cell_formula_units_Z 56
_cell_length_a 14.507092
_cell_length_b 8.791501
_cell_length_c 26.052034
_cell_angle_alpha 90.000000
_cell_angle_beta 59.242957
_cell_angle_gamma 90.000000
_cell_volume 2855.300725
_symmetry_space_group_name_H-M "C 2/C"
_symmetry_group_IT_number 15
_symmetry_cell_setting 'monoclinic'
loop_
_space_group_symop_operation_xyz
x,y,z
-x,y,1/2-z
-x,-y,-z
x,-y,1/2+z
1/2+x,1/2+y,z
1/2-x,1/2+y,1/2-z
1/2-x,1/2-y,-z
1/2+x,1/2-y,1/2+z
loop_
_atom_site_type_symbol
_atom_site_label
_atom_site_fract_x
_atom_site_fract_y
_atom_site_fract_z
Si Si1 0.776564 0.044575 0.619850
Si Si2 0.563243 0.120368 0.929259
Si Si3 0.248923 0.238599 0.439035
Si Si4 0.360152 0.471175 0.880171
Si Si5 0.591313 0.348181 0.839084
Si Si6 0.622047 0.276157 0.718029
Si Si7 0.858199 0.332148 0.546690
O O1 0.684900 0.135353 0.675894
O O2 0.856673 0.160677 0.568253
O O3 0.728550 0.930058 0.590219
O O4 0.839101 0.957272 0.645943
O O5 0.632091 0.208311 0.953064
O O6 0.585782 0.181697 0.866140
O O7 0.595309 0.942845 0.921529
O O8 0.437756 0.151488 0.975959
O O9 0.250000 0.250000 0.500000
O O10 0.342908 0.348172 0.390421
O O11 0.473347 0.420844 0.870639
O O12 0.355904 0.428064 0.821232
O O13 0.261397 0.384133 0.936866
O O14 0.650681 0.322095 0.768046
O O15 0.500000 0.223353 0.750000
#
# Coordination Sequence:
#
# PCOD8141416 Si02
#       7
#     8   8   8   8   8   8   8
#     4  10  22  37  60  86 112 150 195 239 288 342
#     4   9  20  37  55  83 119 149 195 233 288 349
#     4  10  22  37  55  86 121 150 185 240 291 351
#     4   9  20  39  57  80 118 151 190 229 293 345
#     4  10  21  36  63  84 111 155 186 242 290 341
#     4   9  20  43  57  80 112 150 192 234 279 344
#     4   9  19  38  54  82 120 149 189 240 283 348
#
# _framework density 19.612645000000001
#
# number of rings (size 3 to 8) (size 9 to 14) (size 15 to 20)
#    0.000    2.571    0.000    0.000    4.000    6.286 
#   20.571    3.571    0.000    0.000    0.000    0.000 
#    0.000    0.000    0.000    0.000    0.000    0.000 
#
# Total GULP energy -347063.072118 kJ/mol
# GULP energy per Si atom -12395.109719 kJ/mol
# Density = 1.956801 g / cm^3
# Si number density = 19.612645 Si / 1000 Ang^3
#
#
#
# Elastic Constant Matrix: (Units=GPa)
#
#
# Indices 1 2 3 4 5 6 
#
# 1 68.6558 33.9010 53.8688 0.0000 6.9710 0.0000
# 2 33.9010 150.3796 66.9165 0.0000 15.7784 0.0000
# 3 53.8688 66.9165 115.0409 0.0000 11.8266 0.0000
# 4 0.0000 0.0000 0.0000 33.2794 0.0000 -1.4479
# 5 6.9710 15.7784 11.8266 0.0000 35.2254 0.0000
# 6 0.0000 0.0000 0.0000 -1.4479 0.0000 15.9528
#
#
#
# Elastic Compliance Matrix: (Units=1/GPa)
#
#
# Indices 1 2 3 4 5 6 
#
# 1 0.023080 -0.000464 -0.010450 0.000000 -0.000851 0.000000
# 2 -0.000464 0.009173 -0.004874 0.000000 -0.002381 0.000000
# 3 -0.010450 -0.004874 0.016555 0.000000 -0.001307 0.000000
# 4 0.000000 0.000000 0.000000 0.030168 0.000000 0.002738
# 5 -0.000851 -0.002381 -0.001307 0.000000 0.030062 0.000000
# 6 0.000000 0.000000 0.000000 0.002738 0.000000 0.062934
#
#
# Mechanical properties :
#
#
# Convention : Reuss Voigt Hill
#
# Bulk Modulus (GPa) = 58.02798 71.49430 64.76114
# Shear Modulus (GPa) = 23.89003 28.85084 26.37044
#
# Velocity S-wave (km/s) = 3.49391 3.83957 3.67081
# Velocity P-wave (km/s) = 6.77700 7.49591 7.14550
#
# Compressibility (1/GPa) = 0.01723307
#
# Stress axis : x y z
#
# Youngs Moduli (GPa) = 43.32688 109.01647 60.40318
#
# Poissons Ratio (x) = 0.05054 0.63124
# Poissons Ratio (y) = 0.02009 0.29440
# Poissons Ratio (z) = 0.45278 0.53133
#
# Static dielectric constant tensor:
#      x y z
#    x 3.571220 0.000000 -0.127510 
#    y 0.000000 3.753900 0.000000 
#    z -0.127510 0.000000 3.786810 
# 
# 
# High freq. dielectric constant tensor:
#      x y z
#    x 1.758500 0.000000 -0.005390 
#    y 0.000000 1.766920 0.000000 
#    z -0.005390 0.000000 1.762250 
# 
# From -- ./inp_files/295056.got.cif
#   From: 2010.06.25/outbox.cif.g09.slc.cpg/sg15_148_cif.got.tgz:295056.got - 2010.06.28 07:06:18.
