data_PCOD8141244
_publ_section_title
;
Structure prediction by ZEFSAII (Michael W. Deem and Ramdas Pophale) SiO2 
 PCOD8141244
Probable space group: C 2/C
;
_chemical_formula_sum "Si O2"
_cell_formula_units_Z 60
_cell_length_a 32.320003
_cell_length_b 8.413724
_cell_length_c 12.196614
_cell_angle_alpha 90.000000
_cell_angle_beta 119.728983
_cell_angle_gamma 90.000000
_cell_volume 2880.110391
_symmetry_space_group_name_H-M "C 2/C"
_symmetry_group_IT_number 15
_symmetry_cell_setting 'monoclinic'
loop_
_space_group_symop_operation_xyz
x,y,z
-x,y,1/2-z
-x,-y,-z
x,-y,1/2+z
1/2+x,1/2+y,z
1/2-x,1/2+y,1/2-z
1/2-x,1/2-y,-z
1/2+x,1/2-y,1/2+z
loop_
_atom_site_type_symbol
_atom_site_label
_atom_site_fract_x
_atom_site_fract_y
_atom_site_fract_z
Si Si1 0.736608 0.023695 0.937488
Si Si2 0.076780 0.666745 0.955164
Si Si3 0.107085 0.933583 0.848103
Si Si4 0.313461 0.685173 0.181572
Si Si5 0.500000 0.943085 0.750000
Si Si6 0.183849 0.112699 0.083257
Si Si7 0.076115 0.734563 0.212283
Si Si8 0.650010 0.072006 0.459341
O O1 0.703256 0.133720 0.815078
O O2 0.763530 0.885084 0.904328
O O3 0.703432 0.961496 0.990516
O O4 0.779913 0.124071 0.041810
O O5 0.071227 0.823795 0.871543
O O6 0.126476 0.576509 0.991857
O O7 0.033692 0.549646 0.870509
O O8 0.074839 0.718676 0.079272
O O9 0.131725 0.822814 0.787596
O O10 0.080875 0.080930 0.754724
O O11 0.148449 0.986278 0.984957
O O12 0.308009 0.570648 0.279096
O O13 0.472203 0.830910 0.798146
O O14 0.156448 0.281143 0.049799
O O15 0.119628 0.628696 0.314091
#
# Coordination Sequence:
#
# PCOD8141244 Si02
#       8
#     8   8   8   8   4   8   8   8
#     4  10  21  37  51  85 122 156 211 261 294 355
#     4  11  22  41  70  91 122 165 199 250 320 369
#     4  10  21  42  60  92 122 156 213 249 296 371
#     4  10  21  36  55  82 124 161 206 259 297 350
#     4  10  24  44  64 102 128 146 202 248 306 396
#     4  10  22  35  56  84 120 167 204 251 309 347
#     4  10  23  42  66  92 127 159 197 258 313 372
#     4  10  22  38  59  90 119 159 215 257 297 372
#
# _framework density 20.832535
#
# number of rings (size 3 to 8) (size 9 to 14) (size 15 to 20)
#    0.000    1.867    1.333    1.600    3.733    0.533 
#    0.000    5.333    0.000    0.000    0.000    0.000 
#    0.000    0.000    0.000    0.000    0.000    0.000 
#
# Total GULP energy -371802.672369 kJ/mol
# GULP energy per Si atom -12393.422412 kJ/mol
# Density = 2.078512 g / cm^3
# Si number density = 20.832535 Si / 1000 Ang^3
#
#
#
# Elastic Constant Matrix: (Units=GPa)
#
#
# Indices 1 2 3 4 5 6 
#
# 1 122.6274 53.3059 48.6119 0.0000 -14.9080 0.0000
# 2 53.3059 108.8103 43.7469 0.0000 -6.7887 0.0000
# 3 48.6119 43.7469 93.7006 0.0000 -21.9732 0.0000
# 4 0.0000 0.0000 0.0000 16.1060 0.0000 -3.0161
# 5 -14.9080 -6.7887 -21.9732 0.0000 30.6775 0.0000
# 6 0.0000 0.0000 0.0000 -3.0161 0.0000 36.4956
#
#
#
# Elastic Compliance Matrix: (Units=1/GPa)
#
#
# Indices 1 2 3 4 5 6 
#
# 1 0.011637 -0.004115 -0.003610 0.000000 0.002159 0.000000
# 2 -0.004115 0.012830 -0.004397 0.000000 -0.002310 0.000000
# 3 -0.003610 -0.004397 0.016776 0.000000 0.009289 0.000000
# 4 0.000000 0.000000 0.000000 0.063065 0.000000 0.005212
# 5 0.002159 -0.002310 0.009289 0.000000 0.039789 0.000000
# 6 0.000000 0.000000 0.000000 0.005212 0.000000 0.027831
#
#
# Mechanical properties :
#
#
# Convention : Reuss Voigt Hill
#
# Bulk Modulus (GPa) = 58.82409 68.49641 63.66025
# Shear Modulus (GPa) = 24.77242 28.62071 26.69656
#
# Velocity S-wave (km/s) = 3.45211 3.71057 3.58367
# Velocity P-wave (km/s) = 6.64735 7.16300 6.90999
#
# Compressibility (1/GPa) = 0.01699984
#
# Stress axis : x y z
#
# Youngs Moduli (GPa) = 85.93272 77.94340 59.60840
#
# Poissons Ratio (x) = 0.32073 0.21518
# Poissons Ratio (y) = 0.35361 0.26209
# Poissons Ratio (z) = 0.31020 0.34270
#
# Static dielectric constant tensor:
#      x y z
#    x 3.821790 0.000000 0.008200 
#    y 0.000000 3.935530 0.000000 
#    z 0.008200 0.000000 3.585140 
# 
# 
# High freq. dielectric constant tensor:
#      x y z
#    x 1.815910 0.000000 -0.007070 
#    y 0.000000 1.817050 0.000000 
#    z -0.007070 0.000000 1.804730 
# 
# From -- ./inp_files/125953.got.cif
#   From: 2010.06.25/outbox.cif.g09.slc.cpg/sg15_63_cif.got.tgz:125953.got - 2010.06.28 07:06:18.
