data_PCOD8141034
_publ_section_title
;
Structure prediction by ZEFSAII (Michael W. Deem and Ramdas Pophale) SiO2 
 PCOD8141034
Probable space group: C 2/C
;
_chemical_formula_sum "Si O2"
_cell_formula_units_Z 56
_cell_length_a 19.142403
_cell_length_b 14.616315
_cell_length_c 10.165059
_cell_angle_alpha 90.000000
_cell_angle_beta 74.370311
_cell_angle_gamma 90.000000
_cell_volume 2738.930129
_symmetry_space_group_name_H-M "C 2/C"
_symmetry_group_IT_number 15
_symmetry_cell_setting 'monoclinic'
loop_
_space_group_symop_operation_xyz
x,y,z
-x,y,1/2-z
-x,-y,-z
x,-y,1/2+z
1/2+x,1/2+y,z
1/2-x,1/2+y,1/2-z
1/2-x,1/2-y,-z
1/2+x,1/2-y,1/2+z
loop_
_atom_site_type_symbol
_atom_site_label
_atom_site_fract_x
_atom_site_fract_y
_atom_site_fract_z
Si Si1 0.807684 0.907130 0.244423
Si Si2 0.385881 0.585942 0.258242
Si Si3 0.571013 0.277387 0.295201
Si Si4 0.334689 0.989911 0.063644
Si Si5 0.240709 0.855296 0.518769
Si Si6 0.482599 0.598661 0.454809
Si Si7 0.918582 0.434633 0.764431
O O1 0.851298 0.821214 0.288350
O O2 0.786771 0.894954 0.103968
O O3 0.866115 0.987781 0.208179
O O4 0.737463 0.930536 0.368521
O O5 0.312581 0.638995 0.328698
O O6 0.428845 0.570321 0.368628
O O7 0.439194 0.640456 0.131809
O O8 0.500000 0.307806 0.250000
O O9 0.556322 0.320957 0.445159
O O10 0.580145 0.168587 0.291567
O O11 0.383037 0.000218 0.171149
O O12 0.313605 0.090949 0.022556
O O13 0.376693 0.938096 0.925107
O O14 0.250000 0.750000 0.500000
O O15 0.500000 0.500000 0.500000
O O16 0.000000 0.469949 0.750000
#
# Coordination Sequence:
#
# PCOD8141034 Si02
#       7
#     8   8   8   8   8   8   8
#     4  11  21  40  66  95 137 175 223 274 339 409
#     4  10  21  34  61  91 125 172 214 257 326 400
#     4  11  23  40  64  98 142 178 220 282 335 403
#     4  11  24  45  71  98 130 181 229 280 352 403
#     4  11  22  41  63  92 131 170 220 280 330 397
#     4  11  19  35  60  92 130 171 216 256 330 402
#     4  11  25  48  72  97 133 178 234 287 343 410
#
# _framework density 20.44594
#
# number of rings (size 3 to 8) (size 9 to 14) (size 15 to 20)
#    0.000    1.143    4.286    2.143    0.000    1.714 
#    5.143    0.000    0.000    0.000    0.000    0.000 
#    0.000    0.000    0.000    0.000    0.000    0.000 
#
# Total GULP energy -346920.430602 kJ/mol
# GULP energy per Si atom -12390.015379 kJ/mol
# Density = 2.039940 g / cm^3
# Si number density = 20.445940 Si / 1000 Ang^3
#
#
#
# Elastic Constant Matrix: (Units=GPa)
#
#
# Indices 1 2 3 4 5 6 
#
# 1 122.5094 29.3712 42.8426 0.0000 -0.5587 0.0000
# 2 29.3712 79.9189 43.3366 0.0000 -3.5513 0.0000
# 3 42.8426 43.3366 119.6980 0.0000 -8.6157 0.0000
# 4 0.0000 0.0000 0.0000 23.0973 0.0000 1.6612
# 5 -0.5587 -3.5513 -8.6157 0.0000 36.3532 0.0000
# 6 0.0000 0.0000 0.0000 1.6612 0.0000 27.3594
#
#
#
# Elastic Compliance Matrix: (Units=1/GPa)
#
#
# Indices 1 2 3 4 5 6 
#
# 1 0.009616 -0.002080 -0.002740 0.000000 -0.000705 0.000000
# 2 -0.002080 0.016020 -0.005031 0.000000 0.000341 0.000000
# 3 -0.002740 -0.005031 0.011311 0.000000 0.002147 0.000000
# 4 0.000000 0.000000 0.000000 0.043485 0.000000 -0.002640
# 5 -0.000705 0.000341 0.002147 0.000000 0.028039 0.000000
# 6 0.000000 0.000000 0.000000 -0.002640 0.000000 0.036711
#
#
# Mechanical properties :
#
#
# Convention : Reuss Voigt Hill
#
# Bulk Modulus (GPa) = 57.98341 61.46967 59.72654
# Shear Modulus (GPa) = 29.30274 31.13371 30.21823
#
# Velocity S-wave (km/s) = 3.78985 3.90645 3.84859
# Velocity P-wave (km/s) = 6.89721 7.10471 7.00173
#
# Compressibility (1/GPa) = 0.01724631
#
# Stress axis : x y z
#
# Youngs Moduli (GPa) = 103.99237 62.42035 88.40946
#
# Poissons Ratio (x) = 0.12982 0.24220
# Poissons Ratio (y) = 0.21628 0.44481
# Poissons Ratio (z) = 0.28489 0.31405
#
# Static dielectric constant tensor:
#      x y z
#    x 2.956510 0.000000 1.003140 
#    y 0.000000 3.396420 0.000000 
#    z 1.003140 0.000000 2.380270 
# 
# 
# High freq. dielectric constant tensor:
#      x y z
#    x 1.822140 0.000000 -0.007070 
#    y 0.000000 1.775790 0.000000 
#    z -0.007070 0.000000 1.805380 
# 
# From -- ./inp_files/105268.got.cif
#   From: 2010.06.25/outbox.cif.g09.slc.cpg/sg15_53_cif.got.tgz:105268.got - 2010.06.28 07:06:18.
