data_PCOD8141106
_publ_section_title
;
Structure prediction by ZEFSAII (Michael W. Deem and Ramdas Pophale) SiO2 
 PCOD8141106
Probable space group: C 2/C
;
_chemical_formula_sum "Si O2"
_cell_formula_units_Z 40
_cell_length_a 11.203449
_cell_length_b 15.568136
_cell_length_c 12.052751
_cell_angle_alpha 90.000000
_cell_angle_beta 82.352671
_cell_angle_gamma 90.000000
_cell_volume 2083.505384
_symmetry_space_group_name_H-M "C 2/C"
_symmetry_group_IT_number 15
_symmetry_cell_setting 'monoclinic'
loop_
_space_group_symop_operation_xyz
x,y,z
-x,y,1/2-z
-x,-y,-z
x,-y,1/2+z
1/2+x,1/2+y,z
1/2-x,1/2+y,1/2-z
1/2-x,1/2-y,-z
1/2+x,1/2-y,1/2+z
loop_
_atom_site_type_symbol
_atom_site_label
_atom_site_fract_x
_atom_site_fract_y
_atom_site_fract_z
Si Si1 0.091004 0.758666 0.592509
Si Si2 0.626248 0.450654 0.988367
Si Si3 0.134717 0.167507 0.700824
Si Si4 0.721163 0.621250 0.922390
Si Si5 0.836432 0.201553 0.177840
O O1 0.152797 0.666762 0.563461
O O2 0.111015 0.822805 0.487113
O O3 0.152136 0.806235 0.690727
O O4 0.949271 0.740750 0.622037
O O5 0.636483 0.397217 0.098615
O O6 0.500000 0.500000 0.000000
O O7 0.727007 0.525496 0.971332
O O8 0.650264 0.391985 0.877762
O O9 0.199439 0.117870 0.793350
O O10 0.211277 0.252731 0.659641
O O11 0.000000 0.195971 0.750000
#
# Coordination Sequence:
#
# PCOD8141106 Si02
#       5
#     8   8   8   8   8
#     4   9  19  38  58  81 113 150 185 218 292 339
#     4  12  22  34  59  88 113 142 193 239 275 324
#     4  11  22  37  57  82 116 147 188 232 284 331
#     4  10  21  35  57  86 111 145 184 239 272 336
#     4  10  21  36  60  82 113 150 185 229 281 344
#
# _framework density 19.198414
#
# number of rings (size 3 to 8) (size 9 to 14) (size 15 to 20)
#    0.000    1.600    4.000    0.600    2.800    0.000 
#    0.000    1.000    8.800    0.000    0.000    0.000 
#    0.000    0.000    0.000    0.000    0.000    0.000 
#
# Total GULP energy -247982.729489 kJ/mol
# GULP energy per Si atom -12399.136474 kJ/mol
# Density = 1.915472 g / cm^3
# Si number density = 19.198414 Si / 1000 Ang^3
#
#
#
# Elastic Constant Matrix: (Units=GPa)
#
#
# Indices 1 2 3 4 5 6 
#
# 1 86.4461 60.5600 21.3317 0.0000 -13.7549 0.0000
# 2 60.5600 140.5538 51.0920 0.0000 -7.9564 0.0000
# 3 21.3317 51.0920 91.2560 0.0000 -2.6517 0.0000
# 4 0.0000 0.0000 0.0000 29.5644 0.0000 -4.6712
# 5 -13.7549 -7.9564 -2.6517 0.0000 26.5767 0.0000
# 6 0.0000 0.0000 0.0000 -4.6712 0.0000 28.1676
#
#
#
# Elastic Compliance Matrix: (Units=1/GPa)
#
#
# Indices 1 2 3 4 5 6 
#
# 1 0.017773 -0.007312 0.000144 0.000000 0.007024 0.000000
# 2 -0.007312 0.012069 -0.005068 0.000000 -0.000677 0.000000
# 3 0.000144 -0.005068 0.013760 0.000000 -0.000070 0.000000
# 4 0.000000 0.000000 0.000000 0.034735 0.000000 0.005760
# 5 0.007024 -0.000677 -0.000070 0.000000 0.041052 0.000000
# 6 0.000000 0.000000 0.000000 0.005760 0.000000 0.036457
#
#
# Mechanical properties :
#
#
# Convention : Reuss Voigt Hill
#
# Bulk Modulus (GPa) = 52.27660 64.91370 58.59515
# Shear Modulus (GPa) = 26.78173 29.21321 27.99747
#
# Velocity S-wave (km/s) = 3.73902 3.90506 3.82294
# Velocity P-wave (km/s) = 6.77710 7.36329 7.07627
#
# Compressibility (1/GPa) = 0.01912902
#
# Stress axis : x y z
#
# Youngs Moduli (GPa) = 56.26626 82.85626 72.67548
#
# Poissons Ratio (x) = 0.60587 -0.01043
# Poissons Ratio (y) = 0.41143 0.36829
# Poissons Ratio (z) = -0.00808 0.41988
#
# Static dielectric constant tensor:
#      x y z
#    x 3.510530 0.000000 -0.169190 
#    y 0.000000 3.670610 0.000000 
#    z -0.169190 0.000000 3.768340 
# 
# 
# High freq. dielectric constant tensor:
#      x y z
#    x 1.731860 0.000000 -0.009890 
#    y 0.000000 1.730420 0.000000 
#    z -0.009890 0.000000 1.766420 
# 
# From -- ./inp_files/85491.got.cif
#   From: 2010.06.25/outbox.cif.g09.slc.cpg/sg15_43_cif.got.tgz:85491.got - 2010.06.28 07:06:18.
