data_PCOD8141149
_publ_section_title
;
Structure prediction by ZEFSAII (Michael W. Deem and Ramdas Pophale) SiO2 
 PCOD8141149
Probable space group: C 2/C
;
_chemical_formula_sum "Si O2"
_cell_formula_units_Z 64
_cell_length_a 21.937898
_cell_length_b 11.511059
_cell_length_c 26.617024
_cell_angle_alpha 90.000000
_cell_angle_beta 30.726028
_cell_angle_gamma 90.000000
_cell_volume 3434.267703
_symmetry_space_group_name_H-M "C 2/C"
_symmetry_group_IT_number 15
_symmetry_cell_setting 'monoclinic'
loop_
_space_group_symop_operation_xyz
x,y,z
-x,y,1/2-z
-x,-y,-z
x,-y,1/2+z
1/2+x,1/2+y,z
1/2-x,1/2+y,1/2-z
1/2-x,1/2-y,-z
1/2+x,1/2-y,1/2+z
loop_
_atom_site_type_symbol
_atom_site_label
_atom_site_fract_x
_atom_site_fract_y
_atom_site_fract_z
Si Si1 0.536060 0.846739 0.899603
Si Si2 0.693577 0.377384 0.781804
Si Si3 0.253010 0.169004 0.045393
Si Si4 0.139676 0.666886 0.882493
Si Si5 0.991408 0.422947 0.122059
Si Si6 0.392223 0.739000 0.257678
Si Si7 0.096875 0.100738 0.813637
Si Si8 0.950428 0.974764 0.835623
O O1 0.665658 0.896499 0.820527
O O2 0.542451 0.714491 0.877249
O O3 0.490134 0.936724 0.888713
O O4 0.447937 0.852946 0.009160
O O5 0.651748 0.302921 0.859525
O O6 0.671525 0.313401 0.745309
O O7 0.621182 0.498800 0.837079
O O8 0.192538 0.239033 0.134123
O O9 0.190912 0.046088 0.072728
O O10 0.250000 0.250000 0.000000
O O11 0.383662 0.141575 0.972905
O O12 0.088363 0.600963 0.870578
O O13 0.273023 0.622986 0.803740
O O14 0.930668 0.371401 0.216008
O O15 0.505256 0.658154 0.189295
O O16 0.992711 0.058652 0.849940
O O17 0.000000 0.033297 0.750000
#
# Coordination Sequence:
#
# PCOD8141149 Si02
#       8
#     8   8   8   8   8   8   8   8
#     4  11  22  35  56  88 118 150 189 233 288 350
#     4   9  19  37  56  83 115 152 186 238 282 338
#     4  11  21  35  58  88 112 147 193 239 287 337
#     4  10  21  35  60  87 112 150 194 237 289 339
#     4  11  21  35  57  88 118 145 189 239 290 338
#     4   9  19  35  57  83 113 143 187 238 287 326
#     4  10  21  39  58  81 117 151 192 232 290 350
#     4   9  19  36  60  77 103 148 192 236 276 331
#
# _framework density 18.635705000000002
#
# number of rings (size 3 to 8) (size 9 to 14) (size 15 to 20)
#    0.000    2.000    2.500    1.125    5.250    0.500 
#    0.000    3.125    2.750    0.000    0.000    0.000 
#    0.000    0.000    0.000    0.000    0.000    0.000 
#
# Total GULP energy -396430.453566 kJ/mol
# GULP energy per Si atom -12388.451674 kJ/mol
# Density = 1.859329 g / cm^3
# Si number density = 18.635705 Si / 1000 Ang^3
#
#
#
# Elastic Constant Matrix: (Units=GPa)
#
#
# Indices 1 2 3 4 5 6 
#
# 1 60.3118 28.3769 28.6949 0.0001 3.5703 0.0000
# 2 28.3769 114.3308 34.7001 0.0003 11.8068 -0.0001
# 3 28.6949 34.7001 83.8851 0.0007 4.2007 -0.0001
# 4 0.0001 0.0003 0.0007 18.7464 -0.0002 -3.3029
# 5 3.5703 11.8068 4.2007 -0.0002 20.3426 0.0000
# 6 0.0000 -0.0001 -0.0001 -3.3029 0.0000 17.5287
#
#
#
# Elastic Compliance Matrix: (Units=1/GPa)
#
#
# Indices 1 2 3 4 5 6 
#
# 1 0.020938 -0.003405 -0.005728 0.000000 -0.000516 0.000000
# 2 -0.003405 0.011087 -0.003162 0.000000 -0.005184 0.000000
# 3 -0.005728 -0.003162 0.015203 0.000000 -0.000299 0.000000
# 4 0.000000 0.000000 0.000000 0.055175 0.000001 0.010397
# 5 -0.000516 -0.005184 -0.000299 0.000001 0.052319 0.000000
# 6 0.000000 0.000000 0.000000 0.010397 0.000000 0.059008
#
#
# Mechanical properties :
#
#
# Convention : Reuss Voigt Hill
#
# Bulk Modulus (GPa) = 44.17240 49.11905 46.64572
# Shear Modulus (GPa) = 20.33617 22.44058 21.38837
#
# Velocity S-wave (km/s) = 3.30699 3.47388 3.39146
# Velocity P-wave (km/s) = 6.19162 6.51960 6.35772
#
# Compressibility (1/GPa) = 0.02263857
#
# Stress axis : x y z
#
# Youngs Moduli (GPa) = 47.75900 90.19842 65.77494
#
# Poissons Ratio (x) = 0.30714 0.37676
# Poissons Ratio (y) = 0.16263 0.20796
# Poissons Ratio (z) = 0.27357 0.28518
#
# Static dielectric constant tensor:
#      x y z
#    x 3.905720 0.000000 -0.266030 
#    y 0.000000 3.680810 0.000000 
#    z -0.266030 0.000000 3.422930 
# 
# 
# High freq. dielectric constant tensor:
#      x y z
#    x 1.716010 0.000000 -0.017150 
#    y 0.000000 1.716910 0.000000 
#    z -0.017150 0.000000 1.717310 
# 
# From -- ./inp_files/300825.got.cif
#   From: 2010.06.25/outbox.cif.g09.slc.cpg/sg15_151_cif.got.tgz:300825.got - 2010.06.28 07:06:18.
