data_PCOD8141299
_publ_section_title
;
Structure prediction by ZEFSAII (Michael W. Deem and Ramdas Pophale) SiO2 
 PCOD8141299
Probable space group: C 2/C
;
_chemical_formula_sum "Si O2"
_cell_formula_units_Z 56
_cell_length_a 17.544286
_cell_length_b 14.225883
_cell_length_c 13.761655
_cell_angle_alpha 90.000000
_cell_angle_beta 56.969041
_cell_angle_gamma 90.000000
_cell_volume 2879.549283
_symmetry_space_group_name_H-M "C 2/C"
_symmetry_group_IT_number 15
_symmetry_cell_setting 'monoclinic'
loop_
_space_group_symop_operation_xyz
x,y,z
-x,y,1/2-z
-x,-y,-z
x,-y,1/2+z
1/2+x,1/2+y,z
1/2-x,1/2+y,1/2-z
1/2-x,1/2-y,-z
1/2+x,1/2-y,1/2+z
loop_
_atom_site_type_symbol
_atom_site_label
_atom_site_fract_x
_atom_site_fract_y
_atom_site_fract_z
Si Si1 0.506876 0.783897 0.939881
Si Si2 0.891070 0.461791 0.961629
Si Si3 0.759778 0.934158 0.590416
Si Si4 0.479671 0.137974 0.658050
Si Si5 0.181720 0.248515 0.711813
Si Si6 0.708343 0.923800 0.280374
Si Si7 0.922104 0.133456 0.872425
O O1 0.445054 0.865204 0.937113
O O2 0.610141 0.798365 0.833319
O O3 0.470779 0.683049 0.929860
O O4 0.504565 0.785646 0.058641
O O5 0.830244 0.457557 0.907931
O O6 0.963066 0.544287 0.901446
O O7 0.827992 0.478715 0.099498
O O8 0.755829 0.826414 0.630306
O O9 0.851098 0.944159 0.461500
O O10 0.768393 0.004820 0.674802
O O11 0.500000 0.180901 0.750000
O O12 0.373760 0.113625 0.728137
O O13 0.229941 0.163249 0.732377
O O14 0.131441 0.212629 0.650542
O O15 0.000000 0.085838 0.750000
#
# Coordination Sequence:
#
# PCOD8141299 Si02
#       7
#     8   8   8   8   8   8   8
#     4  10  21  36  58  85 122 158 193 246 300 344
#     4  11  20  35  58  92 121 147 191 252 313 353
#     4  12  20  36  64  90 121 152 198 248 305 348
#     4  11  21  35  55  87 126 156 190 237 307 370
#     4  11  21  37  60  91 121 153 202 247 291 355
#     4  11  23  36  59  91 123 157 195 247 300 351
#     4  10  21  37  61  88 114 151 204 252 293 344
#
# _framework density 19.447489000000001
#
# number of rings (size 3 to 8) (size 9 to 14) (size 15 to 20)
#    0.000    1.143    4.286    5.571    0.000    0.000 
#    0.000    3.571    3.143    0.000    0.000    0.000 
#    0.000    0.000    0.000    0.000    0.000    0.000 
#
# Total GULP energy -347262.482769 kJ/mol
# GULP energy per Si atom -12402.231527 kJ/mol
# Density = 1.940323 g / cm^3
# Si number density = 19.447489 Si / 1000 Ang^3
#
#
#
# Elastic Constant Matrix: (Units=GPa)
#
#
# Indices 1 2 3 4 5 6 
#
# 1 76.0256 27.5435 41.9532 0.0000 7.5165 0.0000
# 2 27.5435 33.4364 35.2447 0.0000 2.8961 0.0000
# 3 41.9532 35.2447 135.8268 0.0000 -2.5127 0.0000
# 4 0.0000 0.0000 0.0000 26.5543 0.0000 0.2040
# 5 7.5165 2.8961 -2.5127 0.0000 41.0328 0.0000
# 6 0.0000 0.0000 0.0000 0.2040 0.0000 23.3402
#
#
#
# Elastic Compliance Matrix: (Units=1/GPa)
#
#
# Indices 1 2 3 4 5 6 
#
# 1 0.019686 -0.013083 -0.002738 0.000000 -0.002850 0.000000
# 2 -0.013083 0.050390 -0.009066 0.000000 -0.001715 0.000000
# 3 -0.002738 -0.009066 0.010594 0.000000 0.001790 0.000000
# 4 0.000000 0.000000 0.000000 0.037661 0.000000 -0.000329
# 5 -0.002850 -0.001715 0.001790 0.000000 0.025124 0.000000
# 6 0.000000 0.000000 0.000000 -0.000329 0.000000 0.042847
#
#
# Mechanical properties :
#
#
# Convention : Reuss Voigt Hill
#
# Bulk Modulus (GPa) = 32.36821 50.53017 41.44919
# Shear Modulus (GPa) = 20.29416 27.55528 23.92472
#
# Velocity S-wave (km/s) = 3.23389 3.76827 3.51126
# Velocity P-wave (km/s) = 5.53390 6.70615 6.14803
#
# Compressibility (1/GPa) = 0.03089451
#
# Stress axis : x y z
#
# Youngs Moduli (GPa) = 50.79632 19.84522 94.39571
#
# Poissons Ratio (x) = 0.25964 0.25849
# Poissons Ratio (y) = 0.66459 0.85578
# Poissons Ratio (z) = 0.13910 0.17992
#
# Static dielectric constant tensor:
#      x y z
#    x 3.638230 0.000000 0.003970 
#    y 0.000000 3.125270 0.000000 
#    z 0.003970 0.000000 3.960190 
# 
# 
# High freq. dielectric constant tensor:
#      x y z
#    x 1.757740 0.000000 -0.002950 
#    y 0.000000 1.713880 0.000000 
#    z -0.002950 0.000000 1.773910 
# 
# From -- ./inp_files/161860.got.cif
#   From: 2010.06.25/outbox.cif.g09.slc.cpg/sg15_81_cif.got.tgz:161860.got - 2010.06.28 07:06:18.
