data_PCOD8141162
_publ_section_title
;
Structure prediction by ZEFSAII (Michael W. Deem and Ramdas Pophale) SiO2 
 PCOD8141162
Probable space group: C 2/C
;
_chemical_formula_sum "Si O2"
_cell_formula_units_Z 64
_cell_length_a 11.400946
_cell_length_b 21.638733
_cell_length_c 13.773490
_cell_angle_alpha 90.000000
_cell_angle_beta 68.701226
_cell_angle_gamma 90.000000
_cell_volume 3165.864655
_symmetry_space_group_name_H-M "C 2/C"
_symmetry_group_IT_number 15
_symmetry_cell_setting 'monoclinic'
loop_
_space_group_symop_operation_xyz
x,y,z
-x,y,1/2-z
-x,-y,-z
x,-y,1/2+z
1/2+x,1/2+y,z
1/2-x,1/2+y,1/2-z
1/2-x,1/2-y,-z
1/2+x,1/2-y,1/2+z
loop_
_atom_site_type_symbol
_atom_site_label
_atom_site_fract_x
_atom_site_fract_y
_atom_site_fract_z
Si Si1 0.347501 0.718151 0.398490
Si Si2 0.728375 0.022595 0.849078
Si Si3 0.251322 0.816063 0.951643
Si Si4 0.907488 0.927857 0.448673
Si Si5 0.369081 0.252728 0.674963
Si Si6 0.204203 0.400085 0.964947
Si Si7 0.817783 0.966079 0.109808
Si Si8 0.072932 0.364774 0.458371
O O1 0.250000 0.750000 0.500000
O O2 0.490706 0.722815 0.390978
O O3 0.335660 0.751291 0.297838
O O4 0.316759 0.645453 0.399807
O O5 0.858093 0.042621 0.862664
O O6 0.739371 0.023601 0.730476
O O7 0.614966 0.066690 0.916394
O O8 0.691853 0.953174 0.888699
O O9 0.229265 0.801808 0.844125
O O10 0.250000 0.750000 0.000000
O O11 0.137259 0.857523 0.027487
O O12 0.381990 0.850027 0.943622
O O13 0.057701 0.927014 0.403212
O O14 0.854019 0.967492 0.554988
O O15 0.358490 0.183798 0.634226
O O16 0.230077 0.427874 0.063210
O O17 0.076603 0.359951 0.005687
#
# Coordination Sequence:
#
# PCOD8141162 Si02
#       8
#     8   8   8   8   8   8   8   8
#     4  11  23  39  63  93 128 158 206 263 310 380
#     4  10  22  37  61  88 116 165 206 251 314 374
#     4   9  19  38  63  83 115 163 204 250 303 368
#     4   9  19  38  56  86 121 153 201 257 306 366
#     4  10  22  40  65  91 118 171 202 251 325 363
#     4  11  23  40  60  92 125 161 207 263 312 374
#     4  10  21  35  61  86 119 160 200 256 315 369
#     4  10  21  41  63  83 128 158 207 256 306 378
#
# _framework density 20.215647000000001
#
# number of rings (size 3 to 8) (size 9 to 14) (size 15 to 20)
#    0.000    2.000    1.250    1.500    3.500    0.500 
#    4.500    0.625    0.000    0.000    0.000    0.000 
#    0.000    0.000    0.000    0.000    0.000    0.000 
#
# Total GULP energy -396778.415702 kJ/mol
# GULP energy per Si atom -12399.325491 kJ/mol
# Density = 2.016964 g / cm^3
# Si number density = 20.215647 Si / 1000 Ang^3
#
#
#
# Elastic Constant Matrix: (Units=GPa)
#
#
# Indices 1 2 3 4 5 6 
#
# 1 101.7138 20.8805 40.0017 0.0000 8.4153 0.0000
# 2 20.8805 112.8064 26.1437 0.0000 -1.8626 0.0000
# 3 40.0017 26.1437 89.8770 0.0000 9.0471 0.0000
# 4 0.0000 0.0000 0.0000 22.2026 0.0000 2.2667
# 5 8.4153 -1.8626 9.0471 0.0000 26.4635 0.0000
# 6 0.0000 0.0000 0.0000 2.2667 0.0000 35.4002
#
#
#
# Elastic Compliance Matrix: (Units=1/GPa)
#
#
# Indices 1 2 3 4 5 6 
#
# 1 0.012166 -0.001167 -0.004844 0.000000 -0.002295 0.000000
# 2 -0.001167 0.009689 -0.002491 0.000000 0.001905 0.000000
# 3 -0.004844 -0.002491 0.014364 0.000000 -0.003545 0.000000
# 4 0.000000 0.000000 0.000000 0.045336 0.000000 -0.002903
# 5 -0.002295 0.001905 -0.003545 0.000000 0.039864 0.000000
# 6 0.000000 0.000000 0.000000 -0.002903 0.000000 0.028434
#
#
# Mechanical properties :
#
#
# Convention : Reuss Voigt Hill
#
# Bulk Modulus (GPa) = 52.04273 53.16099 52.60186
# Shear Modulus (GPa) = 28.85788 31.30469 30.08129
#
# Velocity S-wave (km/s) = 3.78233 3.93942 3.86167
# Velocity P-wave (km/s) = 6.69883 6.85901 6.77939
#
# Compressibility (1/GPa) = 0.01921498
#
# Stress axis : x y z
#
# Youngs Moduli (GPa) = 82.19548 103.20464 69.61956
#
# Poissons Ratio (x) = 0.12045 0.33726
# Poissons Ratio (y) = 0.09593 0.17341
# Poissons Ratio (z) = 0.39818 0.25706
#
# Static dielectric constant tensor:
#      x y z
#    x 3.976060 0.000000 0.420460 
#    y 0.000000 3.776500 0.000000 
#    z 0.420460 0.000000 3.508500 
# 
# 
# High freq. dielectric constant tensor:
#      x y z
#    x 1.797600 0.000000 0.022670 
#    y 0.000000 1.800470 0.000000 
#    z 0.022670 0.000000 1.765320 
# 
# From -- ./inp_files/147134.got.cif
#   From: 2010.06.25/outbox.cif.g09.slc.cpg/sg15_74_cif.got.tgz:147134.got - 2010.06.28 07:06:18.
