data_PCOD8141488
_publ_section_title
;
Structure prediction by ZEFSAII (Michael W. Deem and Ramdas Pophale) SiO2 
 PCOD8141488
Probable space group: C 2/C
;
_chemical_formula_sum "Si O2"
_cell_formula_units_Z 64
_cell_length_a 32.638074
_cell_length_b 17.371635
_cell_length_c 9.171120
_cell_angle_alpha 90.000000
_cell_angle_beta 142.879996
_cell_angle_gamma 90.000000
_cell_volume 3138.015565
_symmetry_space_group_name_H-M "C 2/C"
_symmetry_group_IT_number 15
_symmetry_cell_setting 'monoclinic'
loop_
_space_group_symop_operation_xyz
x,y,z
-x,y,1/2-z
-x,-y,-z
x,-y,1/2+z
1/2+x,1/2+y,z
1/2-x,1/2+y,1/2-z
1/2-x,1/2-y,-z
1/2+x,1/2-y,1/2+z
loop_
_atom_site_type_symbol
_atom_site_label
_atom_site_fract_x
_atom_site_fract_y
_atom_site_fract_z
Si Si1 0.316094 0.087145 0.004670
Si Si2 0.782170 0.307099 0.903075
Si Si3 0.568419 0.348857 0.362887
Si Si4 0.781965 0.545656 0.208308
Si Si5 0.359538 0.539288 0.243662
Si Si6 0.166945 0.155104 0.577176
Si Si7 0.432971 0.387043 0.466667
Si Si8 0.846599 0.289615 0.378726
O O1 0.241379 0.121741 0.803831
O O2 0.362815 0.150533 0.056093
O O3 0.322558 0.009845 0.930227
O O4 0.333484 0.066613 0.221478
O O5 0.765460 0.376915 0.748633
O O6 0.710122 0.271213 0.734951
O O7 0.831248 0.243507 0.968845
O O8 0.819719 0.335170 0.158751
O O9 0.500000 0.373540 0.250000
O O10 0.627310 0.411594 0.570960
O O11 0.587716 0.262140 0.468588
O O12 0.557685 0.344806 0.159857
O O13 0.714073 0.501767 0.957731
O O14 0.370937 0.599544 0.144827
O O15 0.418474 0.476555 0.395688
O O16 0.129691 0.152201 0.626243
O O17 0.500000 0.375856 0.750000
#
# Coordination Sequence:
#
# PCOD8141488 Si02
#       8
#     8   8   8   8   8   8   8   8
#     4  10  22  35  57  91 121 155 201 251 320 375
#     4  10  21  37  60  85 121 160 204 256 321 369
#     4  12  26  42  62  85 127 177 219 255 307 368
#     4  11  22  35  61  92 127 159 198 256 320 381
#     4  11  22  40  58  86 124 170 208 253 308 371
#     4  10  21  37  55  84 119 156 206 257 307 367
#     4  12  25  37  58  85 121 167 222 265 299 359
#     4  10  22  39  61  85 119 167 212 258 312 374
#
# _framework density 20.395056
#
# number of rings (size 3 to 8) (size 9 to 14) (size 15 to 20)
#    0.000    1.250    2.500    3.375    7.000    2.500 
#    0.000    0.000    0.000    0.000    0.000    4.375 
#    0.000    0.000    0.000    0.000    0.000    0.000 
#
# Total GULP energy -396748.154570 kJ/mol
# GULP energy per Si atom -12398.379830 kJ/mol
# Density = 2.034864 g / cm^3
# Si number density = 20.395056 Si / 1000 Ang^3
#
#
#
# Elastic Constant Matrix: (Units=GPa)
#
#
# Indices 1 2 3 4 5 6 
#
# 1 96.2901 41.5351 22.9733 0.0000 -25.1170 0.0000
# 2 41.5351 100.2713 28.6305 0.0000 -6.4775 0.0000
# 3 22.9733 28.6305 55.6013 0.0000 -19.1550 0.0000
# 4 0.0000 0.0000 0.0000 22.7392 0.0000 -6.3942
# 5 -25.1170 -6.4775 -19.1550 0.0000 28.3031 0.0000
# 6 0.0000 0.0000 0.0000 -6.3942 0.0000 33.8435
#
#
#
# Elastic Compliance Matrix: (Units=1/GPa)
#
#
# Indices 1 2 3 4 5 6 
#
# 1 0.016442 -0.006265 0.001259 0.000000 0.014009 0.000000
# 2 -0.006265 0.014152 -0.007170 0.000000 -0.007173 0.000000
# 3 0.001259 -0.007170 0.027354 0.000000 0.017989 0.000000
# 4 0.000000 0.000000 0.000000 0.046444 0.000000 0.008775
# 5 0.014009 -0.007173 0.017989 0.000000 0.058297 0.000000
# 6 0.000000 0.000000 0.000000 0.008775 0.000000 0.031206
#
#
# Mechanical properties :
#
#
# Convention : Reuss Voigt Hill
#
# Bulk Modulus (GPa) = 29.76561 48.71560 39.24061
# Shear Modulus (GPa) = 21.79167 27.57876 24.68521
#
# Velocity S-wave (km/s) = 3.27230 3.68125 3.48279
# Velocity P-wave (km/s) = 5.37620 6.48126 5.95442
#
# Compressibility (1/GPa) = 0.03359582
#
# Stress axis : x y z
#
# Youngs Moduli (GPa) = 60.82147 70.66188 36.55716
#
# Poissons Ratio (x) = 0.44270 -0.04602
# Poissons Ratio (y) = 0.38105 0.26211
# Poissons Ratio (z) = -0.07657 0.50664
#
# Static dielectric constant tensor:
#      x y z
#    x 3.829380 0.000000 -0.414630 
#    y 0.000000 3.840510 0.000000 
#    z -0.414630 0.000000 3.547390 
# 
# 
# High freq. dielectric constant tensor:
#      x y z
#    x 1.790160 0.000000 -0.038440 
#    y 0.000000 1.798930 0.000000 
#    z -0.038440 0.000000 1.763830 
# 
# From -- ./inp_files/70608.got.cif
#   From: 2010.06.25/outbox.cif.g09.slc.cpg/sg15_36_cif.got.tgz:70608.got - 2010.06.28 07:06:18.
