data_PCOD8141867
_publ_section_title
;
Structure prediction by ZEFSAII (Michael W. Deem and Ramdas Pophale) SiO2 
 PCOD8141867
Probable space group: C 2/C
;
_chemical_formula_sum "Si O2"
_cell_formula_units_Z 44
_cell_length_a 15.366778
_cell_length_b 20.565052
_cell_length_c 15.192258
_cell_angle_alpha 90.000000
_cell_angle_beta 29.876236
_cell_angle_gamma 90.000000
_cell_volume 2391.531112
_symmetry_space_group_name_H-M "C 2/C"
_symmetry_group_IT_number 15
_symmetry_cell_setting 'monoclinic'
loop_
_space_group_symop_operation_xyz
x,y,z
-x,y,1/2-z
-x,-y,-z
x,-y,1/2+z
1/2+x,1/2+y,z
1/2-x,1/2+y,1/2-z
1/2-x,1/2-y,-z
1/2+x,1/2-y,1/2+z
loop_
_atom_site_type_symbol
_atom_site_label
_atom_site_fract_x
_atom_site_fract_y
_atom_site_fract_z
Si Si1 0.000000 0.623716 0.250000
Si Si2 0.500000 0.774987 0.250000
Si Si3 0.000000 0.058095 0.250000
Si Si4 0.754069 0.780705 0.593639
Si Si5 0.854668 0.831518 0.994074
Si Si6 0.678375 0.565951 0.633938
Si Si7 0.377146 0.333174 0.181556
O O1 0.909519 0.669716 0.255592
O O2 0.851220 0.580026 0.425517
O O3 0.338786 0.822020 0.373818
O O4 0.526976 0.729141 0.140961
O O5 0.074045 0.101018 0.106117
O O6 0.152305 0.012359 0.159108
O O7 0.750000 0.750000 0.500000
O O8 0.741110 0.725300 0.678288
O O9 0.925176 0.822246 0.462119
O O10 0.856699 0.836602 0.096022
O O11 0.500000 0.597730 0.750000
O O12 0.694944 0.598540 0.715768
#
# Coordination Sequence:
#
# PCOD8141867 Si02
#       7
#     4   4   4   8   8   8   8
#     4  12  20  34  58  84 122 170 188 224 296 372
#     4   9  20  41  60  87 116 151 192 238 338 351
#     4   9  22  43  58  79 114 165 198 246 316 333
#     4  12  19  31  54  88 128 159 179 234 303 363
#     4  10  21  38  64  85 115 153 194 259 291 365
#     4  10  21  38  56  82 120 164 196 237 292 354
#     4  12  20  33  57  91 119 152 206 243 288 353
#
# _framework density 18.398257000000001
#
# number of rings (size 3 to 8) (size 9 to 14) (size 15 to 20)
#    0.545    0.727    5.455    1.091    0.000    1.455 
#    0.000    0.000    0.000    3.273    0.000    0.000 
#    0.000    0.000    0.000    0.000    0.000    0.000 
#
# Total GULP energy -272706.805588 kJ/mol
# GULP energy per Si atom -12395.763890 kJ/mol
# Density = 1.835638 g / cm^3
# Si number density = 18.398257 Si / 1000 Ang^3
#
#
#
# Elastic Constant Matrix: (Units=GPa)
#
#
# Indices 1 2 3 4 5 6 
#
# 1 85.6912 56.6309 49.4602 0.0081 31.7119 -0.0106
# 2 56.6309 128.5614 64.3754 -0.0317 14.4165 0.0029
# 3 49.4602 64.3754 129.5394 -0.1207 11.5926 0.0399
# 4 0.0081 -0.0317 -0.1207 36.4901 0.0355 -3.1144
# 5 31.7119 14.4165 11.5926 0.0355 39.3294 -0.0035
# 6 -0.0106 0.0029 0.0399 -3.1144 -0.0035 13.4656
#
#
#
# Elastic Compliance Matrix: (Units=1/GPa)
#
#
# Indices 1 2 3 4 5 6 
#
# 1 0.024825 -0.006791 -0.004658 -0.000009 -0.016154 0.000029
# 2 -0.006791 0.012427 -0.003764 -0.000002 0.002030 0.000003
# 3 -0.004658 -0.003764 0.011205 0.000031 0.001833 -0.000029
# 4 -0.000009 -0.000002 0.000031 0.027957 -0.000026 0.006466
# 5 -0.016154 0.002030 0.001833 -0.000026 0.037167 -0.000015
# 6 0.000029 0.000003 -0.000029 0.006466 -0.000015 0.075759
#
#
# Mechanical properties :
#
#
# Convention : Reuss Voigt Hill
#
# Bulk Modulus (GPa) = 55.46447 76.08058 65.77252
# Shear Modulus (GPa) = 22.14576 29.41206 25.77891
#
# Velocity S-wave (km/s) = 3.47318 4.00263 3.74727
# Velocity P-wave (km/s) = 6.80412 7.92485 7.38577
#
# Compressibility (1/GPa) = 0.01802956
#
# Stress axis : x y z
#
# Youngs Moduli (GPa) = 40.28246 80.46798 89.24696
#
# Poissons Ratio (x) = 0.54649 0.41569
# Poissons Ratio (y) = 0.27357 0.33597
# Poissons Ratio (z) = 0.18763 0.30292
#
# Static dielectric constant tensor:
#      x y z
#    x 2.114300 -0.000020 0.176410 
#    y -0.000020 3.359740 0.000160 
#    z 0.176410 0.000160 3.505570 
# 
# 
# High freq. dielectric constant tensor:
#      x y z
#    x 1.687920 -0.000010 -0.001480 
#    y -0.000010 1.707010 0.000010 
#    z -0.001480 0.000010 1.730330 
# 
# From -- ./inp_files/49594.got.cif
#   From: 2010.06.25/outbox.cif.g09.slc.cpg/sg15_25_cif.got.tgz:49594.got - 2010.06.28 07:06:18.
