data_PCOD8141913
_publ_section_title
;
Structure prediction by ZEFSAII (Michael W. Deem and Ramdas Pophale) SiO2 
 PCOD8141913
Probable space group: C 2/C
;
_chemical_formula_sum "Si O2"
_cell_formula_units_Z 64
_cell_length_a 24.488059
_cell_length_b 13.980950
_cell_length_c 20.069956
_cell_angle_alpha 90.000000
_cell_angle_beta 28.457731
_cell_angle_gamma 90.000000
_cell_volume 3274.234321
_symmetry_space_group_name_H-M "C 2/C"
_symmetry_group_IT_number 15
_symmetry_cell_setting 'monoclinic'
loop_
_space_group_symop_operation_xyz
x,y,z
-x,y,1/2-z
-x,-y,-z
x,-y,1/2+z
1/2+x,1/2+y,z
1/2-x,1/2+y,1/2-z
1/2-x,1/2-y,-z
1/2+x,1/2-y,1/2+z
loop_
_atom_site_type_symbol
_atom_site_label
_atom_site_fract_x
_atom_site_fract_y
_atom_site_fract_z
Si Si1 0.743773 0.363330 0.360038
Si Si2 0.228819 0.363210 0.733862
Si Si3 0.682687 0.965028 0.921754
Si Si4 0.977923 0.937238 0.459440
Si Si5 0.012018 0.074896 0.165461
Si Si6 0.291956 0.690147 0.390005
Si Si7 0.054136 0.505176 0.369063
Si Si8 0.809573 0.147804 0.732268
O O1 0.644281 0.393659 0.517727
O O2 0.777476 0.254571 0.339575
O O3 0.861512 0.419885 0.240568
O O4 0.691252 0.382385 0.343934
O O5 0.197557 0.393335 0.842754
O O6 0.347396 0.412017 0.586241
O O7 0.130438 0.397849 0.787478
O O8 0.248934 0.250925 0.700666
O O9 0.721872 0.908295 0.947070
O O10 0.749308 0.064907 0.839961
O O11 0.549742 0.998233 0.072320
O O12 0.058783 0.844046 0.383228
O O13 0.000000 0.000000 0.500000
O O14 0.027074 0.996690 0.345243
O O15 0.000000 0.025693 0.250000
O O16 0.926506 0.166201 0.253401
O O17 0.250000 0.750000 0.500000
O O18 0.000000 0.500000 0.500000
#
# Coordination Sequence:
#
# PCOD8141913 Si02
#       8
#     8   8   8   8   8   8   8   8
#     4  12  23  38  62  93 132 177 216 272 335 403
#     4  11  22  36  60  94 130 168 218 270 340 399
#     4  11  22  40  57  92 134 169 212 271 332 402
#     4  12  21  41  63  93 130 169 224 286 334 390
#     4  12  24  42  66  92 133 177 227 272 332 403
#     4  12  26  41  62  96 136 179 221 264 334 411
#     4  10  21  38  58  87 131 170 213 270 344 394
#     4  12  23  35  64  96 130 171 216 276 344 391
#
# _framework density 19.546555000000001
#
# number of rings (size 3 to 8) (size 9 to 14) (size 15 to 20)
#    0.000    0.500   10.000    0.000    3.500    0.000 
#    0.000    0.000    0.000    0.750    0.000    0.000 
#    0.000    0.000    0.000    0.000    0.000    0.000 
#
# Total GULP energy -396524.780085 kJ/mol
# GULP energy per Si atom -12391.399378 kJ/mol
# Density = 1.950207 g / cm^3
# Si number density = 19.546555 Si / 1000 Ang^3
#
#
#
# Elastic Constant Matrix: (Units=GPa)
#
#
# Indices 1 2 3 4 5 6 
#
# 1 91.0959 41.5536 52.1068 0.0000 -9.1545 0.0000
# 2 41.5536 119.2215 43.8002 0.0000 -1.3462 0.0000
# 3 52.1068 43.8002 115.7302 0.0000 -20.1211 0.0000
# 4 0.0000 0.0000 0.0000 29.1949 0.0000 -1.6626
# 5 -9.1545 -1.3462 -20.1211 0.0000 34.3088 0.0000
# 6 0.0000 0.0000 0.0000 -1.6626 0.0000 37.8421
#
#
#
# Elastic Compliance Matrix: (Units=1/GPa)
#
#
# Indices 1 2 3 4 5 6 
#
# 1 0.015892 -0.003426 -0.005729 0.000000 0.000746 0.000000
# 2 -0.003426 0.010603 -0.002848 0.000000 -0.002168 0.000000
# 3 -0.005729 -0.002848 0.013377 0.000000 0.006205 0.000000
# 4 0.000000 0.000000 0.000000 0.034339 0.000000 0.001509
# 5 0.000746 -0.002168 0.006205 0.000000 0.032900 0.000000
# 6 0.000000 0.000000 0.000000 0.001509 0.000000 0.026492
#
#
# Mechanical properties :
#
#
# Convention : Reuss Voigt Hill
#
# Bulk Modulus (GPa) = 63.02222 66.77431 64.89827
# Shear Modulus (GPa) = 30.69433 32.84163 31.76798
#
# Velocity S-wave (km/s) = 3.96702 4.10344 4.03581
# Velocity P-wave (km/s) = 7.30035 7.52906 7.41559
#
# Compressibility (1/GPa) = 0.01586742
#
# Stress axis : x y z
#
# Youngs Moduli (GPa) = 62.92420 94.30872 74.75692
#
# Poissons Ratio (x) = 0.32309 0.42828
# Poissons Ratio (y) = 0.21557 0.21287
# Poissons Ratio (z) = 0.36049 0.26855
#
# Static dielectric constant tensor:
#      x y z
#    x 3.694190 0.000000 -0.243630 
#    y 0.000000 3.800020 0.000000 
#    z -0.243630 0.000000 3.442400 
# 
# 
# High freq. dielectric constant tensor:
#      x y z
#    x 1.756530 0.000000 -0.032810 
#    y 0.000000 1.753860 0.000000 
#    z -0.032810 0.000000 1.753040 
# 
# From -- ./inp_files/219728.got.cif
#   From: 2010.06.25/outbox.cif.g09.slc.cpg/sg15_110_cif.got.tgz:219728.got - 2010.06.28 07:06:18.
