data_PCOD8141144
_publ_section_title
;
Structure prediction by ZEFSAII (Michael W. Deem and Ramdas Pophale) SiO2 
 PCOD8141144
Probable space group: C 2/C
;
_chemical_formula_sum "Si O2"
_cell_formula_units_Z 28
_cell_length_a 14.906282
_cell_length_b 13.907455
_cell_length_c 10.241053
_cell_angle_alpha 90.000000
_cell_angle_beta 133.394211
_cell_angle_gamma 90.000000
_cell_volume 1542.706662
_symmetry_space_group_name_H-M "C 2/C"
_symmetry_group_IT_number 15
_symmetry_cell_setting 'monoclinic'
loop_
_space_group_symop_operation_xyz
x,y,z
-x,y,1/2-z
-x,-y,-z
x,-y,1/2+z
1/2+x,1/2+y,z
1/2-x,1/2+y,1/2-z
1/2-x,1/2-y,-z
1/2+x,1/2-y,1/2+z
loop_
_atom_site_type_symbol
_atom_site_label
_atom_site_fract_x
_atom_site_fract_y
_atom_site_fract_z
Si Si1 0.999982 0.373796 0.395150
Si Si2 0.363148 0.505131 0.113083
Si Si3 0.000000 0.189904 0.250000
Si Si4 0.793154 0.499992 0.293209
O O1 0.999991 0.257580 0.379638
O O2 0.877829 0.407314 0.348729
O O3 0.000000 0.422041 0.250000
O O4 0.122097 0.407345 0.593038
O O5 0.500000 0.457331 0.250000
O O6 0.378017 0.622191 0.127996
O O7 0.291344 0.471138 0.169286
O O8 0.291517 0.471155 0.913330
#
# Coordination Sequence:
#
# PCOD8141144 Si02
#       4
#     8   8   4   8
#     4   9  19  35  57  87 105 148 192 237 262 332
#     4  10  21  35  60  85 113 148 190 234 277 339
#     4   8  20  38  56  88 110 146 200 222 278 334
#     4  11  19  34  58  88 113 145 192 234 278 331
#
# _framework density 18.149919000000001
#
# number of rings (size 3 to 8) (size 9 to 14) (size 15 to 20)
#    1.714    0.571    2.857    0.857    0.000    4.571 
#    0.000    0.000    0.000   10.286    0.000    0.000 
#    0.000    0.000    0.000    0.000    0.000    0.000 
#
# Total GULP energy -173495.693833 kJ/mol
# GULP energy per Si atom -12392.549560 kJ/mol
# Density = 1.810861 g / cm^3
# Si number density = 18.149919 Si / 1000 Ang^3
#
#
#
# Elastic Constant Matrix: (Units=GPa)
#
#
# Indices 1 2 3 4 5 6 
#
# 1 156.2466 25.4651 64.4855 0.0000 0.8830 0.0000
# 2 25.4651 65.9394 24.7175 0.0000 -1.7320 0.0000
# 3 64.4855 24.7175 155.5423 0.0000 -5.0218 0.0000
# 4 0.0000 0.0000 0.0000 17.7507 0.0000 -4.2206
# 5 0.8830 -1.7320 -5.0218 0.0000 33.3166 0.0000
# 6 0.0000 0.0000 0.0000 -4.2206 0.0000 19.6167
#
#
#
# Elastic Compliance Matrix: (Units=1/GPa)
#
#
# Indices 1 2 3 4 5 6 
#
# 1 0.007970 -0.001967 -0.003016 0.000000 -0.000768 0.000000
# 2 -0.001967 0.016619 -0.001804 0.000000 0.000644 0.000000
# 3 -0.003016 -0.001804 0.008005 0.000000 0.001193 0.000000
# 4 0.000000 0.000000 0.000000 0.059373 0.000000 0.012774
# 5 -0.000768 0.000644 0.001193 0.000000 0.030249 0.000000
# 6 0.000000 0.000000 0.000000 0.012774 0.000000 0.053725
#
#
# Mechanical properties :
#
#
# Convention : Reuss Voigt Hill
#
# Bulk Modulus (GPa) = 52.58449 67.45161 60.01805
# Shear Modulus (GPa) = 25.52892 31.67415 28.60154
#
# Velocity S-wave (km/s) = 3.75448 4.18202 3.97400
# Velocity P-wave (km/s) = 6.91593 7.78224 7.36184
#
# Compressibility (1/GPa) = 0.01901701
#
# Stress axis : x y z
#
# Youngs Moduli (GPa) = 125.46969 60.17372 124.92299
#
# Poissons Ratio (x) = 0.11839 0.37682
# Poissons Ratio (y) = 0.24685 0.22541
# Poissons Ratio (z) = 0.37847 0.10858
#
# Static dielectric constant tensor:
#      x y z
#    x 3.365840 0.000000 0.031790 
#    y 0.000000 2.912820 0.000000 
#    z 0.031790 0.000000 3.380800 
# 
# 
# High freq. dielectric constant tensor:
#      x y z
#    x 1.706920 0.000000 0.009930 
#    y 0.000000 1.658940 0.000000 
#    z 0.009930 0.000000 1.711380 
# 
# From -- ./inp_files/38210.got.cif
#   From: 2010.06.25/outbox.cif.g09.slc.cpg/sg15_20_cif.got.tgz:38210.got - 2010.06.28 07:06:18.
