data_PCOD8141199
_publ_section_title
;
Structure prediction by ZEFSAII (Michael W. Deem and Ramdas Pophale) SiO2 
 PCOD8141199
Probable space group: C 2/C
;
_chemical_formula_sum "Si O2"
_cell_formula_units_Z 40
_cell_length_a 21.518510
_cell_length_b 10.147329
_cell_length_c 10.019975
_cell_angle_alpha 90.000000
_cell_angle_beta 64.935675
_cell_angle_gamma 90.000000
_cell_volume 1981.885653
_symmetry_space_group_name_H-M "C 2/C"
_symmetry_group_IT_number 15
_symmetry_cell_setting 'monoclinic'
loop_
_space_group_symop_operation_xyz
x,y,z
-x,y,1/2-z
-x,-y,-z
x,-y,1/2+z
1/2+x,1/2+y,z
1/2-x,1/2+y,1/2-z
1/2-x,1/2-y,-z
1/2+x,1/2-y,1/2+z
loop_
_atom_site_type_symbol
_atom_site_label
_atom_site_fract_x
_atom_site_fract_y
_atom_site_fract_z
Si Si1 0.137006 0.881874 0.540811
Si Si2 0.180490 0.052378 0.282582
Si Si3 0.944440 0.367138 0.464304
Si Si4 0.410981 0.952571 0.218911
Si Si5 0.268001 0.828199 0.282631
O O1 0.132323 0.926968 0.698092
O O2 0.077932 0.778698 0.557635
O O3 0.212693 0.816689 0.453699
O O4 0.130313 0.008713 0.449363
O O5 0.221359 0.183912 0.290865
O O6 0.236952 0.935005 0.205241
O O7 0.924040 0.472317 0.365545
O O8 0.909119 0.410299 0.636738
O O9 0.027046 0.366404 0.402474
O O10 0.340780 0.873541 0.272685
#
# Coordination Sequence:
#
# PCOD8141199 Si02
#       5
#     8   8   8   8   8
#     4  10  22  39  59  87 125 157 203 243 306 356
#     4  10  22  36  60  88 124 163 197 248 306 352
#     4  10  21  41  58  92 118 161 199 255 295 365
#     4  10  21  35  67  84 121 156 203 242 311 346
#     4  10  21  36  61  89 117 158 201 250 295 365
#
# _framework density 20.182797999999998
#
# number of rings (size 3 to 8) (size 9 to 14) (size 15 to 20)
#    1.200    0.800    2.000    1.800    2.800    0.800 
#    3.600    1.000    0.000    0.000    0.000    0.000 
#    0.000    0.000    0.000    0.000    0.000    0.000 
#
# Total GULP energy -247765.090577 kJ/mol
# GULP energy per Si atom -12388.254529 kJ/mol
# Density = 2.013686 g / cm^3
# Si number density = 20.182798 Si / 1000 Ang^3
#
#
#
# Elastic Constant Matrix: (Units=GPa)
#
#
# Indices 1 2 3 4 5 6 
#
# 1 75.5451 23.0395 13.2245 0.0000 0.4708 0.0000
# 2 23.0395 94.4718 6.5421 0.0000 17.7337 0.0000
# 3 13.2245 6.5421 33.3321 0.0000 6.7128 0.0000
# 4 0.0000 0.0000 0.0000 24.6118 0.0000 -1.2489
# 5 0.4708 17.7337 6.7128 0.0000 28.9582 0.0000
# 6 0.0000 0.0000 0.0000 -1.2489 0.0000 32.5109
#
#
#
# Elastic Compliance Matrix: (Units=1/GPa)
#
#
# Indices 1 2 3 4 5 6 
#
# 1 0.015515 -0.004044 -0.006094 0.000000 0.003637 0.000000
# 2 -0.004044 0.013041 0.000672 0.000000 -0.008076 0.000000
# 3 -0.006094 0.000672 0.033934 0.000000 -0.008178 0.000000
# 4 0.000000 0.000000 0.000000 0.040710 0.000000 0.001564
# 5 0.003637 -0.008076 -0.008178 0.000000 0.041315 0.000000
# 6 0.000000 0.000000 0.000000 0.001564 0.000000 0.030819
#
#
# Mechanical properties :
#
#
# Convention : Reuss Voigt Hill
#
# Bulk Modulus (GPa) = 22.95906 32.10680 27.53293
# Shear Modulus (GPa) = 23.94787 27.91904 25.93346
#
# Velocity S-wave (km/s) = 3.44837 3.72332 3.58848
# Velocity P-wave (km/s) = 5.22066 5.86743 5.55346
#
# Compressibility (1/GPa) = 0.04355580
#
# Stress axis : x y z
#
# Youngs Moduli (GPa) = 64.45489 76.68112 29.46880
#
# Poissons Ratio (x) = 0.31013 0.17959
# Poissons Ratio (y) = 0.26068 -0.01979
# Poissons Ratio (z) = 0.39280 -0.05149
#
# Static dielectric constant tensor:
#      x y z
#    x 3.519450 0.000000 0.012310 
#    y 0.000000 3.595510 0.000000 
#    z 0.012310 0.000000 3.580450 
# 
# 
# High freq. dielectric constant tensor:
#      x y z
#    x 1.784600 0.000000 0.001590 
#    y 0.000000 1.770860 0.000000 
#    z 0.001590 0.000000 1.772160 
# 
# From -- ./inp_files/109540.got.cif
#   From: 2010.06.25/outbox.cif.g09.slc.cpg/sg15_55_cif.got.tgz:109540.got - 2010.06.28 07:06:18.
