data_PCOD8141558
_publ_section_title
;
Structure prediction by ZEFSAII (Michael W. Deem and Ramdas Pophale) SiO2 
 PCOD8141558
Probable space group: C 2/C
;
_chemical_formula_sum "Si O2"
_cell_formula_units_Z 60
_cell_length_a 17.551982
_cell_length_b 22.628085
_cell_length_c 8.721472
_cell_angle_alpha 90.000000
_cell_angle_beta 60.375123
_cell_angle_gamma 90.000000
_cell_volume 3011.089311
_symmetry_space_group_name_H-M "C 2/C"
_symmetry_group_IT_number 15
_symmetry_cell_setting 'monoclinic'
loop_
_space_group_symop_operation_xyz
x,y,z
-x,y,1/2-z
-x,-y,-z
x,-y,1/2+z
1/2+x,1/2+y,z
1/2-x,1/2+y,1/2-z
1/2-x,1/2-y,-z
1/2+x,1/2-y,1/2+z
loop_
_atom_site_type_symbol
_atom_site_label
_atom_site_fract_x
_atom_site_fract_y
_atom_site_fract_z
Si Si1 0.537249 0.444341 0.046442
Si Si2 0.769353 0.063149 0.219827
Si Si3 0.371834 0.749982 0.497020
Si Si4 0.483277 0.313495 0.445901
Si Si5 0.438034 0.949147 0.124398
Si Si6 0.194874 0.193975 0.231550
Si Si7 0.328818 0.017714 0.463330
Si Si8 0.000000 0.345820 0.250000
O O1 0.500000 0.444302 0.250000
O O2 0.512031 0.381101 0.995483
O O3 0.500000 0.500000 0.000000
O O4 0.640342 0.453735 0.949151
O O5 0.770163 0.128034 0.287352
O O6 0.699283 0.058295 0.151760
O O7 0.749620 0.018858 0.379550
O O8 0.443385 0.724452 0.541858
O O9 0.281020 0.765757 0.674674
O O10 0.345668 0.701174 0.397649
O O11 0.414116 0.806510 0.369455
O O12 0.500000 0.309462 0.250000
O O13 0.384090 0.289641 0.572984
O O14 0.483069 0.886284 0.115619
O O15 0.397594 0.969967 0.327566
O O16 0.368240 0.939687 0.056219
O O17 0.500000 0.000000 0.000000
#
# Coordination Sequence:
#
# PCOD8141558 Si02
#       8
#     8   8   8   8   8   8   8   4
#     4  10  21  37  62  90 120 160 202 253 315 376
#     4  10  21  38  60  90 132 161 208 259 312 384
#     4  11  23  42  67  89 123 170 220 260 313 380
#     4  10  22  43  63  92 130 159 207 273 320 376
#     4  11  21  38  61  88 127 164 203 257 308 376
#     4  10  22  42  64  91 121 170 215 263 312 376
#     4  10  21  37  58  91 127 166 201 252 321 370
#     4  12  22  40  66  92 126 164 224 254 314 394
#
# _framework density 19.926342999999999
#
# number of rings (size 3 to 8) (size 9 to 14) (size 15 to 20)
#    0.000    1.600    2.667    1.600    1.867    3.733 
#    2.400   12.000    0.000    0.000    0.000    0.000 
#    0.000    0.000    0.000    0.000    0.000    0.000 
#
# Total GULP energy -371877.254282 kJ/mol
# GULP energy per Si atom -12395.908476 kJ/mol
# Density = 1.988099 g / cm^3
# Si number density = 19.926343 Si / 1000 Ang^3
#
#
#
# Elastic Constant Matrix: (Units=GPa)
#
#
# Indices 1 2 3 4 5 6 
#
# 1 101.7810 65.6980 45.8574 0.0000 -2.7351 0.0000
# 2 65.6980 107.2421 47.9756 0.0000 5.5409 0.0000
# 3 45.8574 47.9756 120.5907 0.0000 -17.2361 0.0000
# 4 0.0000 0.0000 0.0000 30.2505 0.0000 2.1202
# 5 -2.7351 5.5409 -17.2361 0.0000 40.5889 0.0000
# 6 0.0000 0.0000 0.0000 2.1202 0.0000 34.5518
#
#
#
# Elastic Compliance Matrix: (Units=1/GPa)
#
#
# Indices 1 2 3 4 5 6 
#
# 1 0.017072 -0.009378 -0.002570 0.000000 0.001340 0.000000
# 2 -0.009378 0.017039 -0.003870 0.000000 -0.004602 0.000000
# 3 -0.002570 -0.003870 0.011562 0.000000 0.005265 0.000000
# 4 0.000000 0.000000 0.000000 0.033200 0.000000 -0.002037
# 5 0.001340 -0.004602 0.005265 0.000000 0.027591 0.000000
# 6 0.000000 0.000000 0.000000 -0.002037 0.000000 0.029067
#
#
# Mechanical properties :
#
#
# Convention : Reuss Voigt Hill
#
# Bulk Modulus (GPa) = 71.24027 72.07510 71.65768
# Shear Modulus (GPa) = 29.09556 32.41709 30.75632
#
# Velocity S-wave (km/s) = 3.82534 4.03779 3.93300
# Velocity P-wave (km/s) = 7.43911 7.61496 7.52755
#
# Compressibility (1/GPa) = 0.01403700
#
# Stress axis : x y z
#
# Youngs Moduli (GPa) = 58.57408 58.68828 86.49108
#
# Poissons Ratio (x) = 0.55041 0.22225
# Poissons Ratio (y) = 0.54934 0.33473
# Poissons Ratio (z) = 0.15051 0.22713
#
# Static dielectric constant tensor:
#      x y z
#    x 4.002960 0.000000 -0.127270 
#    y 0.000000 3.630950 0.000000 
#    z -0.127270 0.000000 3.876530 
# 
# 
# High freq. dielectric constant tensor:
#      x y z
#    x 1.781770 0.000000 -0.013590 
#    y 0.000000 1.768260 0.000000 
#    z -0.013590 0.000000 1.788790 
# 
# From -- ./inp_files/50629.got.cif
#   From: 2010.06.25/outbox.cif.g09.slc.cpg/sg15_26_cif.got.tgz:50629.got - 2010.06.28 07:06:18.
