data_PCOD8141365
_publ_section_title
;
Structure prediction by ZEFSAII (Michael W. Deem and Ramdas Pophale) SiO2 
 PCOD8141365
Probable space group: C 2/C
;
_chemical_formula_sum "Si O2"
_cell_formula_units_Z 52
_cell_length_a 14.296914
_cell_length_b 6.604580
_cell_length_c 25.949911
_cell_angle_alpha 90.000000
_cell_angle_beta 97.242510
_cell_angle_gamma 90.000000
_cell_volume 2430.773205
_symmetry_space_group_name_H-M "C 2/C"
_symmetry_group_IT_number 15
_symmetry_cell_setting 'monoclinic'
loop_
_space_group_symop_operation_xyz
x,y,z
-x,y,1/2-z
-x,-y,-z
x,-y,1/2+z
1/2+x,1/2+y,z
1/2-x,1/2+y,1/2-z
1/2-x,1/2-y,-z
1/2+x,1/2-y,1/2+z
loop_
_atom_site_type_symbol
_atom_site_label
_atom_site_fract_x
_atom_site_fract_y
_atom_site_fract_z
Si Si1 0.865834 0.614711 0.775081
Si Si2 0.440866 0.729319 0.828113
Si Si3 0.121850 0.368183 0.009245
Si Si4 0.763383 0.031386 0.436944
Si Si5 0.000000 0.049491 0.250000
Si Si6 0.943943 0.245074 0.945996
Si Si7 0.764148 0.047803 0.319107
O O1 0.937848 0.463596 0.809328
O O2 0.818417 0.482555 0.727424
O O3 0.799890 0.720457 0.813693
O O4 0.910998 0.805494 0.749239
O O5 0.515668 0.597887 0.800331
O O6 0.472200 0.709510 0.888990
O O7 0.339067 0.628467 0.812851
O O8 0.201169 0.255435 0.047427
O O9 0.075591 0.518724 0.046874
O O10 0.170947 0.500121 0.966416
O O11 0.041209 0.206310 0.984698
O O12 0.850516 0.879971 0.455350
O O13 0.729283 0.022249 0.375465
#
# Coordination Sequence:
#
# PCOD8141365 Si02
#       7
#     8   8   8   8   4   8   8
#     4  11  20  39  58  84 119 154 194 247 290 365
#     4  10  21  39  58  86 119 157 194 243 299 357
#     4  10  21  38  60  87 114 155 202 249 305 358
#     4  10  21  38  58  88 118 151 201 251 300 366
#     4  10  24  36  56  86 120 154 198 240 296 354
#     4  10  21  39  61  83 119 159 195 251 307 358
#     4  10  21  36  61  86 115 157 195 236 306 352
#
# _framework density 21.392371000000001
#
# number of rings (size 3 to 8) (size 9 to 14) (size 15 to 20)
#    0.000    1.846    1.538    2.308    0.000    2.462 
#    0.000    7.692    0.000    0.000    0.000    0.000 
#    0.000    0.000    0.000    0.000    0.000    0.000 
#
# Total GULP energy -322229.602405 kJ/mol
# GULP energy per Si atom -12393.446246 kJ/mol
# Density = 2.134368 g / cm^3
# Si number density = 21.392371 Si / 1000 Ang^3
#
#
#
# Elastic Constant Matrix: (Units=GPa)
#
#
# Indices 1 2 3 4 5 6 
#
# 1 43.7305 2.4782 1.7652 0.0000 -6.6662 0.0000
# 2 2.4782 83.1851 14.5540 0.0000 -7.3002 0.0000
# 3 1.7652 14.5540 55.9276 0.0000 -8.7507 0.0000
# 4 0.0000 0.0000 0.0000 26.4065 0.0000 -3.3156
# 5 -6.6662 -7.3002 -8.7507 0.0000 28.2089 0.0000
# 6 0.0000 0.0000 0.0000 -3.3156 0.0000 37.5850
#
#
#
# Elastic Compliance Matrix: (Units=1/GPa)
#
#
# Indices 1 2 3 4 5 6 
#
# 1 0.023728 -0.000249 0.000192 0.000000 0.005602 0.000000
# 2 -0.000249 0.012748 -0.002946 0.000000 0.002327 0.000000
# 3 0.000192 -0.002946 0.019474 0.000000 0.005324 0.000000
# 4 0.000000 0.000000 0.000000 0.038294 0.000000 0.003378
# 5 0.005602 0.002327 0.005324 0.000000 0.039027 0.000000
# 6 0.000000 0.000000 0.000000 0.003378 0.000000 0.026904
#
#
# Mechanical properties :
#
#
# Convention : Reuss Voigt Hill
#
# Bulk Modulus (GPa) = 20.02175 24.49312 22.25743
# Shear Modulus (GPa) = 27.34814 29.37648 28.36231
#
# Velocity S-wave (km/s) = 3.57936 3.70972 3.64512
# Velocity P-wave (km/s) = 5.14413 5.46111 5.30498
#
# Compressibility (1/GPa) = 0.04994570
#
# Stress axis : x y z
#
# Youngs Moduli (GPa) = 42.14486 78.44166 51.35117
#
# Poissons Ratio (x) = 0.01952 -0.00988
# Poissons Ratio (y) = 0.01049 0.15126
# Poissons Ratio (z) = -0.00811 0.23106
#
# Static dielectric constant tensor:
#      x y z
#    x 3.822070 0.000000 -0.259710 
#    y 0.000000 3.880430 0.000000 
#    z -0.259710 0.000000 3.903520 
# 
# 
# High freq. dielectric constant tensor:
#      x y z
#    x 1.824340 0.000000 -0.010380 
#    y 0.000000 1.841280 0.000000 
#    z -0.010380 0.000000 1.840430 
# 
# From -- ./inp_files/297496.got.cif
#   From: 2010.06.25/outbox.cif.g09.slc.cpg/sg15_149_cif.got.tgz:297496.got - 2010.06.28 07:06:18.
