data_PCOD8141023
_publ_section_title
;
Structure prediction by ZEFSAII (Michael W. Deem and Ramdas Pophale) SiO2 
 PCOD8141023
Probable space group: C 2/C
;
_chemical_formula_sum "Si O2"
_cell_formula_units_Z 56
_cell_length_a 24.316830
_cell_length_b 14.620834
_cell_length_c 9.119143
_cell_angle_alpha 90.000000
_cell_angle_beta 117.948714
_cell_angle_gamma 90.000000
_cell_volume 2864.010014
_symmetry_space_group_name_H-M "C 2/C"
_symmetry_group_IT_number 15
_symmetry_cell_setting 'monoclinic'
loop_
_space_group_symop_operation_xyz
x,y,z
-x,y,1/2-z
-x,-y,-z
x,-y,1/2+z
1/2+x,1/2+y,z
1/2-x,1/2+y,1/2-z
1/2-x,1/2-y,-z
1/2+x,1/2-y,1/2+z
loop_
_atom_site_type_symbol
_atom_site_label
_atom_site_fract_x
_atom_site_fract_y
_atom_site_fract_z
Si Si1 0.215277 0.656011 0.991521
Si Si2 0.895097 0.900148 0.218555
Si Si3 0.958477 0.957105 0.576677
Si Si4 0.848564 0.400708 0.814778
Si Si5 0.843594 0.597399 0.864916
Si Si6 0.428852 0.197791 0.189394
Si Si7 0.744635 0.544209 0.954639
O O1 0.162862 0.636881 0.805159
O O2 0.250000 0.750000 0.000000
O O3 0.176916 0.668173 0.093697
O O4 0.260858 0.566970 0.061837
O O5 0.907793 0.905286 0.412221
O O6 0.920264 0.804697 0.194772
O O7 0.821796 0.910346 0.103396
O O8 0.927767 0.970431 0.148910
O O9 0.000000 0.898436 0.750000
O O10 0.000000 0.000000 0.500000
O O11 0.874650 0.496319 0.912575
O O12 0.905719 0.352980 0.805963
O O13 0.790322 0.426467 0.640867
O O14 0.773893 0.587882 0.844380
O O15 0.887689 0.667830 0.001253
O O16 0.500000 0.172070 0.250000
#
# Coordination Sequence:
#
# PCOD8141023 Si02
#       7
#     8   8   8   8   8   8   8
#     4  10  21  34  59  92 126 149 200 251 305 371
#     4  11  23  36  64  90 121 165 213 249 304 377
#     4   9  20  39  55  79 124 167 202 249 292 349
#     4   9  21  41  59  86 125 155 196 263 311 372
#     4   9  21  41  60  85 125 154 195 263 312 371
#     4  11  24  41  64  88 118 167 220 252 302 376
#     4   9  21  37  58  86 124 161 194 243 324 369
#
# _framework density 19.553004000000001
#
# number of rings (size 3 to 8) (size 9 to 14) (size 15 to 20)
#    0.000    2.286    0.000    2.143   10.000    1.714 
#    0.000    3.571    0.000    0.000    0.000    0.000 
#    0.000    0.000    0.000    0.000    0.000    0.000 
#
# Total GULP energy -346891.744767 kJ/mol
# GULP energy per Si atom -12388.990885 kJ/mol
# Density = 1.950850 g / cm^3
# Si number density = 19.553004 Si / 1000 Ang^3
#
#
#
# Elastic Constant Matrix: (Units=GPa)
#
#
# Indices 1 2 3 4 5 6 
#
# 1 132.9103 40.6575 43.3455 0.0000 -6.9117 0.0000
# 2 40.6575 85.2486 37.2699 0.0000 0.3497 0.0000
# 3 43.3455 37.2699 87.2763 0.0000 -15.9193 0.0000
# 4 0.0000 0.0000 0.0000 11.1973 0.0000 -2.6620
# 5 -6.9117 0.3497 -15.9193 0.0000 28.8193 0.0000
# 6 0.0000 0.0000 0.0000 -2.6620 0.0000 26.5028
#
#
#
# Elastic Compliance Matrix: (Units=1/GPa)
#
#
# Indices 1 2 3 4 5 6 
#
# 1 0.009593 -0.003115 -0.003345 0.000000 0.000491 0.000000
# 2 -0.003115 0.015857 -0.006000 0.000000 -0.004254 0.000000
# 3 -0.003345 -0.006000 0.017290 0.000000 0.008822 0.000000
# 4 0.000000 0.000000 0.000000 0.091492 0.000000 0.009190
# 5 0.000491 -0.004254 0.008822 0.000000 0.039741 0.000000
# 6 0.000000 0.000000 0.000000 0.009190 0.000000 0.038655
#
#
# Mechanical properties :
#
#
# Convention : Reuss Voigt Hill
#
# Bulk Modulus (GPa) = 56.11523 60.88676 58.50099
# Shear Modulus (GPa) = 20.53489 25.58135 23.05812
#
# Velocity S-wave (km/s) = 3.24422 3.62098 3.43776
# Velocity P-wave (km/s) = 6.54176 6.97774 6.76327
#
# Compressibility (1/GPa) = 0.01782048
#
# Stress axis : x y z
#
# Youngs Moduli (GPa) = 104.24216 63.06478 57.83591
#
# Poissons Ratio (x) = 0.19645 0.19344
# Poissons Ratio (y) = 0.32471 0.34703
# Poissons Ratio (z) = 0.34865 0.37840
#
# Static dielectric constant tensor:
#      x y z
#    x 3.586030 0.000000 -0.258780 
#    y 0.000000 3.545670 0.000000 
#    z -0.258780 0.000000 4.034670 
# 
# 
# High freq. dielectric constant tensor:
#      x y z
#    x 1.758800 0.000000 -0.019000 
#    y 0.000000 1.749220 0.000000 
#    z -0.019000 0.000000 1.772950 
# 
# From -- ./inp_files/61988.got.cif
#   From: 2010.06.25/outbox.cif.g09.slc.cpg/sg15_31_cif.got.tgz:61988.got - 2010.06.28 07:06:18.
