data_PCOD8141103
_publ_section_title
;
Structure prediction by ZEFSAII (Michael W. Deem and Ramdas Pophale) SiO2 
 PCOD8141103
Probable space group: C 2/C
;
_chemical_formula_sum "Si O2"
_cell_formula_units_Z 56
_cell_length_a 20.935154
_cell_length_b 17.181151
_cell_length_c 9.000240
_cell_angle_alpha 90.000000
_cell_angle_beta 125.735895
_cell_angle_gamma 90.000000
_cell_volume 2627.771317
_symmetry_space_group_name_H-M "C 2/C"
_symmetry_group_IT_number 15
_symmetry_cell_setting 'monoclinic'
loop_
_space_group_symop_operation_xyz
x,y,z
-x,y,1/2-z
-x,-y,-z
x,-y,1/2+z
1/2+x,1/2+y,z
1/2-x,1/2+y,1/2-z
1/2-x,1/2-y,-z
1/2+x,1/2-y,1/2+z
loop_
_atom_site_type_symbol
_atom_site_label
_atom_site_fract_x
_atom_site_fract_y
_atom_site_fract_z
Si Si1 0.319616 0.603976 0.601792
Si Si2 0.638974 0.098078 0.326859
Si Si3 0.048789 0.839888 0.664213
Si Si4 0.905915 0.704351 0.621295
Si Si5 0.840217 0.449658 0.974916
Si Si6 0.339236 0.466192 0.815039
Si Si7 0.915466 0.244020 0.817846
O O1 0.228039 0.624711 0.479990
O O2 0.351575 0.557639 0.791806
O O3 0.341196 0.547952 0.492910
O O4 0.362421 0.686325 0.648802
O O5 0.630721 0.061314 0.152585
O O6 0.580696 0.173168 0.267122
O O7 0.618496 0.029186 0.413959
O O8 0.114628 0.773518 0.790781
O O9 0.091680 0.916909 0.667789
O O10 0.000000 0.858740 0.750000
O O11 0.996828 0.801408 0.460832
O O12 0.868303 0.622424 0.615973
O O13 0.874050 0.731578 0.416664
O O14 0.000000 0.695245 0.750000
O O15 0.746444 0.447921 0.869010
#
# Coordination Sequence:
#
# PCOD8141103 Si02
#       7
#     8   8   8   8   8   8   8
#     4  10  21  35  57  83 109 145 184 233 279 331
#     4   9  18  36  58  82 111 144 185 226 282 334
#     4   9  20  37  54  79 109 149 188 225 278 340
#     4   8  17  35  59  80 109 148 184 214 281 339
#     4   9  18  36  57  84 109 145 182 234 274 328
#     4  10  22  36  55  82 114 139 191 231 276 330
#     4   9  18  35  56  75 109 150 181 222 277 331
#
# _framework density 21.310834
#
# number of rings (size 3 to 8) (size 9 to 14) (size 15 to 20)
#    0.000    3.143    0.000    0.429    4.000    1.714 
#    2.571    6.429    0.000    0.000    0.000    0.000 
#    0.000    0.000    0.000    0.000    0.000    0.000 
#
# Total GULP energy -346888.686191 kJ/mol
# GULP energy per Si atom -12388.881650 kJ/mol
# Density = 2.126233 g / cm^3
# Si number density = 21.310834 Si / 1000 Ang^3
#
#
#
# Elastic Constant Matrix: (Units=GPa)
#
#
# Indices 1 2 3 4 5 6 
#
# 1 34.2966 18.3986 4.8227 0.0000 -0.1399 0.0000
# 2 18.3986 114.6397 32.8355 0.0000 3.3875 0.0000
# 3 4.8227 32.8355 67.1162 0.0000 1.3948 0.0000
# 4 0.0000 0.0000 0.0000 41.0363 0.0000 3.2602
# 5 -0.1399 3.3875 1.3948 0.0000 10.9369 0.0000
# 6 0.0000 0.0000 0.0000 3.2602 0.0000 29.9139
#
#
#
# Elastic Compliance Matrix: (Units=1/GPa)
#
#
# Indices 1 2 3 4 5 6 
#
# 1 0.031951 -0.005254 0.000233 0.000000 0.002006 0.000000
# 2 -0.005254 0.011078 -0.004983 0.000000 -0.002863 0.000000
# 3 0.000233 -0.004983 0.017334 0.000000 -0.000664 0.000000
# 4 0.000000 0.000000 0.000000 0.024582 0.000000 -0.002679
# 5 0.002006 -0.002863 -0.000664 0.000000 0.092431 0.000000
# 6 0.000000 0.000000 0.000000 -0.002679 0.000000 0.033721
#
#
# Mechanical properties :
#
#
# Convention : Reuss Voigt Hill
#
# Bulk Modulus (GPa) = 24.77944 36.46290 30.62117
# Shear Modulus (GPa) = 20.44514 27.04377 23.74446
#
# Velocity S-wave (km/s) = 3.10074 3.56619 3.34158
# Velocity P-wave (km/s) = 4.94695 5.83987 5.41186
#
# Compressibility (1/GPa) = 0.04035603
#
# Stress axis : x y z
#
# Youngs Moduli (GPa) = 31.29760 90.26962 57.68908
#
# Poissons Ratio (x) = 0.47426 -0.01343
# Poissons Ratio (y) = 0.16443 0.28745
# Poissons Ratio (z) = -0.00728 0.44978
#
# Static dielectric constant tensor:
#      x y z
#    x 3.332420 0.000000 0.066970 
#    y 0.000000 4.152140 0.000000 
#    z 0.066970 0.000000 3.946020 
# 
# 
# High freq. dielectric constant tensor:
#      x y z
#    x 1.784800 0.000000 0.007010 
#    y 0.000000 1.852410 0.000000 
#    z 0.007010 0.000000 1.839410 
# 
# From -- ./inp_files/61997.got.cif
#   From: 2010.06.25/outbox.cif.g09.slc.cpg/sg15_31_cif.got.tgz:61997.got - 2010.06.28 07:06:18.
