data_PCOD8141974
_publ_section_title
;
Structure prediction by ZEFSAII (Michael W. Deem and Ramdas Pophale) SiO2 
 PCOD8141974
Probable space group: C 2/C
;
_chemical_formula_sum "Si O2"
_cell_formula_units_Z 28
_cell_length_a 14.642912
_cell_length_b 12.530984
_cell_length_c 8.267248
_cell_angle_alpha 90.000000
_cell_angle_beta 58.169742
_cell_angle_gamma 90.000000
_cell_volume 1288.829301
_symmetry_space_group_name_H-M "C 2/C"
_symmetry_group_IT_number 15
_symmetry_cell_setting 'monoclinic'
loop_
_space_group_symop_operation_xyz
x,y,z
-x,y,1/2-z
-x,-y,-z
x,-y,1/2+z
1/2+x,1/2+y,z
1/2-x,1/2+y,1/2-z
1/2-x,1/2-y,-z
1/2+x,1/2-y,1/2+z
loop_
_atom_site_type_symbol
_atom_site_label
_atom_site_fract_x
_atom_site_fract_y
_atom_site_fract_z
Si Si1 0.629431 0.875151 0.353395
Si Si2 0.582048 0.362612 0.936345
Si Si3 0.361047 0.425228 0.266483
Si Si4 0.500000 0.015721 0.250000
O O1 0.619613 0.749684 0.329703
O O2 0.751179 0.901010 0.279787
O O3 0.547926 0.906544 0.571331
O O4 0.596198 0.940852 0.225135
O O5 0.609830 0.449390 0.772835
O O6 0.454863 0.358373 0.090582
O O7 0.647424 0.392327 0.038308
#
# Coordination Sequence:
#
# PCOD8141974 Si02
#       4
#     8   8   8   4
#     4  11  22  41  60  83 119 154 186 241 288 330
#     4  10  22  38  60  88 116 149 193 235 283 343
#     4  10  21  38  60  86 115 151 194 234 282 343
#     4  10  24  38  58  90 114 148 202 228 278 360
#
# _framework density 21.725142999999999
#
# number of rings (size 3 to 8) (size 9 to 14) (size 15 to 20)
#    0.000    1.714    0.000    4.286    0.000    9.143 
#    0.000    4.286    0.000    0.000    0.000    0.000 
#    0.000    0.000    0.000    0.000    0.000    0.000 
#
# Total GULP energy -173681.961059 kJ/mol
# GULP energy per Si atom -12405.854361 kJ/mol
# Density = 2.167570 g / cm^3
# Si number density = 21.725143 Si / 1000 Ang^3
#
#
#
# Elastic Constant Matrix: (Units=GPa)
#
#
# Indices 1 2 3 4 5 6 
#
# 1 144.0756 10.7229 -5.6963 0.0000 -17.3506 0.0000
# 2 10.7229 113.1834 7.6871 0.0000 -5.3757 0.0000
# 3 -5.6963 7.6871 14.4037 0.0000 -2.5830 0.0000
# 4 0.0000 0.0000 0.0000 18.0444 0.0000 -1.9000
# 5 -17.3506 -5.3757 -2.5830 0.0000 26.8773 0.0000
# 6 0.0000 0.0000 0.0000 -1.9000 0.0000 10.9446
#
#
#
# Elastic Compliance Matrix: (Units=1/GPa)
#
#
# Indices 1 2 3 4 5 6 
#
# 1 0.007817 -0.000791 0.004467 0.000000 0.005317 0.000000
# 2 -0.000791 0.009299 -0.005122 0.000000 0.000857 0.000000
# 3 0.004467 -0.005122 0.075563 0.000000 0.009121 0.000000
# 4 0.000000 0.000000 0.000000 0.056451 0.000000 0.009800
# 5 0.005317 0.000857 0.009121 0.000000 0.041686 0.000000
# 6 0.000000 0.000000 0.000000 0.009800 0.000000 0.093071
#
#
# Mechanical properties :
#
#
# Convention : Reuss Voigt Hill
#
# Bulk Modulus (GPa) = 11.13768 33.01003 22.07385
# Shear Modulus (GPa) = 15.78747 28.43650 22.11198
#
# Velocity S-wave (km/s) = 2.69865 3.62183 3.19377
# Velocity P-wave (km/s) = 3.85331 5.71993 4.87676
#
# Compressibility (1/GPa) = 0.08978529
#
# Stress axis : x y z
#
# Youngs Moduli (GPa) = 127.93242 107.54120 13.23408
#
# Poissons Ratio (x) = 0.08511 -0.05912
# Poissons Ratio (y) = 0.10125 0.06779
# Poissons Ratio (z) = -0.57149 0.55083
#
# Static dielectric constant tensor:
#      x y z
#    x 4.055250 0.000000 0.038310 
#    y 0.000000 3.922930 0.000000 
#    z 0.038310 0.000000 3.713800 
# 
# 
# High freq. dielectric constant tensor:
#      x y z
#    x 1.867600 0.000000 -0.001660 
#    y 0.000000 1.857110 0.000000 
#    z -0.001660 0.000000 1.838160 
# 
# From -- ./inp_files/27560.got.cif
#   From: 2010.06.25/outbox.cif.g09.slc.cpg/sg15_14_cif.got.tgz:27560.got - 2010.06.28 07:06:18.
