data_PCOD8141462
_publ_section_title
;
Structure prediction by ZEFSAII (Michael W. Deem and Ramdas Pophale) SiO2 
 PCOD8141462
Probable space group: C 2/C
;
_chemical_formula_sum "Si O2"
_cell_formula_units_Z 56
_cell_length_a 19.916441
_cell_length_b 8.488436
_cell_length_c 20.551379
_cell_angle_alpha 90.000000
_cell_angle_beta 46.194819
_cell_angle_gamma 90.000000
_cell_volume 2507.469533
_symmetry_space_group_name_H-M "C 2/C"
_symmetry_group_IT_number 15
_symmetry_cell_setting 'monoclinic'
loop_
_space_group_symop_operation_xyz
x,y,z
-x,y,1/2-z
-x,-y,-z
x,-y,1/2+z
1/2+x,1/2+y,z
1/2-x,1/2+y,1/2-z
1/2-x,1/2-y,-z
1/2+x,1/2-y,1/2+z
loop_
_atom_site_type_symbol
_atom_site_label
_atom_site_fract_x
_atom_site_fract_y
_atom_site_fract_z
Si Si1 0.729997 0.921062 0.217121
Si Si2 0.024156 0.591937 0.806106
Si Si3 0.268585 0.239954 0.649933
Si Si4 0.602994 0.287762 0.163323
Si Si5 0.605932 0.363789 0.610862
Si Si6 0.630771 0.085435 0.025249
Si Si7 0.269918 0.769704 0.576164
O O1 0.629573 0.936774 0.252590
O O2 0.728675 0.886439 0.293896
O O3 0.781305 0.777416 0.144216
O O4 0.782260 0.085679 0.169400
O O5 0.992870 0.775622 0.833211
O O6 0.000000 0.528345 0.750000
O O7 0.970458 0.490828 0.898180
O O8 0.169500 0.213249 0.681218
O O9 0.357136 0.205930 0.543319
O O10 0.500000 0.224391 0.250000
O O11 0.587106 0.459353 0.143703
O O12 0.654419 0.176811 0.076093
O O13 0.668474 0.357878 0.503878
O O14 0.660861 0.258905 0.628588
O O15 0.704787 0.948224 0.959844
#
# Coordination Sequence:
#
# PCOD8141462 Si02
#       7
#     8   8   8   8   8   8   8
#     4  12  26  45  68  96 138 176 229 271 337 401
#     4  11  22  41  69 100 131 172 222 285 331 390
#     4  12  27  43  66  95 134 185 221 274 337 401
#     4  12  25  41  67 103 136 168 226 283 326 391
#     4  10  21  36  68  99 128 165 216 272 331 382
#     4  11  23  42  68  99 135 172 225 273 338 395
#     4  10  21  39  67  99 128 172 219 274 330 395
#
# _framework density 22.333272999999998
#
# number of rings (size 3 to 8) (size 9 to 14) (size 15 to 20)
#    0.000    0.857    2.857    4.714    4.000    0.571 
#    0.000    2.857    0.000    8.571    0.000    0.000 
#    0.000    0.000    0.000    0.000    0.000    0.000 
#
# Total GULP energy -347094.056867 kJ/mol
# GULP energy per Si atom -12396.216317 kJ/mol
# Density = 2.228244 g / cm^3
# Si number density = 22.333273 Si / 1000 Ang^3
#
#
#
# Elastic Constant Matrix: (Units=GPa)
#
#
# Indices 1 2 3 4 5 6 
#
# 1 68.3587 30.5098 40.0459 0.0002 22.9675 -0.0005
# 2 30.5098 132.2151 56.9843 0.0002 7.3131 -0.0005
# 3 40.0459 56.9843 127.1215 0.0000 24.3074 0.0000
# 4 0.0002 0.0002 0.0000 45.3382 -0.0001 9.5411
# 5 22.9675 7.3131 24.3074 -0.0001 32.6314 0.0004
# 6 -0.0005 -0.0005 0.0000 9.5411 0.0004 16.1087
#
#
#
# Elastic Compliance Matrix: (Units=1/GPa)
#
#
# Indices 1 2 3 4 5 6 
#
# 1 0.022035 -0.003012 -0.003212 0.000000 -0.012441 0.000001
# 2 -0.003012 0.009827 -0.004012 0.000000 0.002906 0.000000
# 3 -0.003212 -0.004012 0.011746 0.000000 -0.005589 0.000000
# 4 0.000000 0.000000 0.000000 0.025197 0.000000 -0.014924
# 5 -0.012441 0.002906 -0.005589 0.000000 0.042914 -0.000002
# 6 0.000001 0.000000 0.000000 -0.014924 -0.000002 0.070918
#
#
# Mechanical properties :
#
#
# Convention : Reuss Voigt Hill
#
# Bulk Modulus (GPa) = 43.22483 64.75279 53.98881
# Shear Modulus (GPa) = 23.71680 32.15934 27.93807
#
# Velocity S-wave (km/s) = 3.26229 3.79882 3.54073
# Velocity P-wave (km/s) = 5.79539 6.94969 6.39862
#
# Compressibility (1/GPa) = 0.02313485
#
# Stress axis : x y z
#
# Youngs Moduli (GPa) = 45.38230 101.76186 85.13843
#
# Poissons Ratio (x) = 0.30652 0.27349
# Poissons Ratio (y) = 0.13670 0.34157
# Poissons Ratio (z) = 0.14578 0.40826
#
# Static dielectric constant tensor:
#      x y z
#    x 3.527250 0.000000 0.044260 
#    y 0.000000 4.177980 0.000000 
#    z 0.044260 0.000000 4.453940 
# 
# 
# High freq. dielectric constant tensor:
#      x y z
#    x 1.830320 0.000000 0.000780 
#    y 0.000000 1.901250 0.000000 
#    z 0.000780 0.000000 1.902350 
# 
# From -- ./inp_files/251814.got.cif
#   From: 2010.06.25/outbox.cif.g09.slc.cpg/sg15_126_cif.got.tgz:251814.got - 2010.06.28 07:06:18.
