data_PCOD8141028
_publ_section_title
;
Structure prediction by ZEFSAII (Michael W. Deem and Ramdas Pophale) SiO2 
 PCOD8141028
Probable space group: C 2/C
;
_chemical_formula_sum "Si O2"
_cell_formula_units_Z 52
_cell_length_a 22.245143
_cell_length_b 5.577476
_cell_length_c 21.570297
_cell_angle_alpha 90.000000
_cell_angle_beta 104.482925
_cell_angle_gamma 90.000000
_cell_volume 2591.218762
_symmetry_space_group_name_H-M "C 2/C"
_symmetry_group_IT_number 15
_symmetry_cell_setting 'monoclinic'
loop_
_space_group_symop_operation_xyz
x,y,z
-x,y,1/2-z
-x,-y,-z
x,-y,1/2+z
1/2+x,1/2+y,z
1/2-x,1/2+y,1/2-z
1/2-x,1/2-y,-z
1/2+x,1/2-y,1/2+z
loop_
_atom_site_type_symbol
_atom_site_label
_atom_site_fract_x
_atom_site_fract_y
_atom_site_fract_z
Si Si1 0.491007 0.632791 0.140451
Si Si2 0.000000 0.795188 0.250000
Si Si3 0.724224 0.971480 0.819066
Si Si4 0.073953 0.553961 0.586158
Si Si5 0.595848 0.012763 0.347309
Si Si6 0.542827 0.747893 0.954620
Si Si7 0.293823 0.030289 0.328600
O O1 0.520856 0.440871 0.194484
O O2 0.545517 0.819089 0.139727
O O3 0.431356 0.743743 0.160113
O O4 0.465717 0.526503 0.068787
O O5 0.060831 0.645548 0.282408
O O6 0.668651 0.978517 0.854070
O O7 0.697593 0.971858 0.742887
O O8 0.760612 0.221480 0.840370
O O9 0.761491 0.722042 0.840870
O O10 0.080041 0.734078 0.528780
O O11 0.140400 0.451429 0.620747
O O12 0.027424 0.342998 0.554772
O O13 0.581595 0.117287 0.411440
#
# Coordination Sequence:
#
# PCOD8141028 Si02
#       7
#     8   4   8   8   8   8   8
#     4  10  21  34  60  91 121 159 195 258 315 369
#     4  10  22  32  56  96 118 158 200 250 334 364
#     4  10  24  42  61  89 126 162 213 260 307 379
#     4  10  21  39  63  88 125 157 214 249 308 375
#     4  10  22  38  58  89 125 155 203 261 314 366
#     4   9  21  39  60  94 120 160 199 263 311 364
#     4  10  24  41  63  89 119 174 207 255 316 369
#
# _framework density 20.067779000000002
#
# number of rings (size 3 to 8) (size 9 to 14) (size 15 to 20)
#    0.000    2.154    0.000    0.923   15.077    1.231 
#    0.000    1.538    0.000    0.000    0.000    0.000 
#    0.000    0.000    0.000    0.000    0.000    0.000 
#
# Total GULP energy -322253.304310 kJ/mol
# GULP energy per Si atom -12394.357858 kJ/mol
# Density = 2.002210 g / cm^3
# Si number density = 20.067779 Si / 1000 Ang^3
#
#
#
# Elastic Constant Matrix: (Units=GPa)
#
#
# Indices 1 2 3 4 5 6 
#
# 1 133.3878 41.7389 42.4656 0.0001 1.7858 0.0000
# 2 41.7389 110.7646 12.9895 0.0000 3.2923 0.0000
# 3 42.4656 12.9895 61.6880 0.0000 8.5587 0.0000
# 4 0.0001 0.0000 0.0000 8.4856 0.0000 7.5455
# 5 1.7858 3.2923 8.5587 0.0000 28.7227 0.0000
# 6 0.0000 0.0000 0.0000 7.5455 0.0000 12.2464
#
#
#
# Elastic Compliance Matrix: (Units=1/GPa)
#
#
# Indices 1 2 3 4 5 6 
#
# 1 0.010702 -0.003273 -0.006924 0.000000 0.001773 0.000000
# 2 -0.003273 0.010265 0.000237 0.000000 -0.001044 0.000000
# 3 -0.006924 0.000237 0.021771 0.000000 -0.006084 0.000000
# 4 0.000000 0.000000 0.000000 0.260650 0.000000 -0.160596
# 5 0.001773 -0.001044 -0.006084 0.000000 0.036638 0.000000
# 6 0.000000 0.000000 0.000000 -0.160596 0.000000 0.180606
#
#
# Mechanical properties :
#
#
# Convention : Reuss Voigt Hill
#
# Bulk Modulus (GPa) = 43.82704 55.58094 49.70399
# Shear Modulus (GPa) = 9.12145 23.80068 16.46107
#
# Velocity S-wave (km/s) = 2.13429 3.44759 2.86715
# Velocity P-wave (km/s) = 5.28777 6.60338 5.98185
#
# Compressibility (1/GPa) = 0.02281696
#
# Stress axis : x y z
#
# Youngs Moduli (GPa) = 93.44253 97.41905 45.93242
#
# Poissons Ratio (x) = 0.31890 0.31802
# Poissons Ratio (y) = 0.30588 -0.01087
# Poissons Ratio (z) = 0.64697 -0.02306
#
# Static dielectric constant tensor:
#      x y z
#    x 3.359340 0.000000 -0.099680 
#    y 0.000000 3.949470 0.000000 
#    z -0.099680 0.000000 3.629830 
# 
# 
# High freq. dielectric constant tensor:
#      x y z
#    x 1.760970 0.000000 -0.011470 
#    y 0.000000 1.797040 0.000000 
#    z -0.011470 0.000000 1.780750 
# 
# From -- ./inp_files/251048.got.cif
#   From: 2010.06.25/outbox.cif.g09.slc.cpg/sg15_126_cif.got.tgz:251048.got - 2010.06.28 07:06:18.
