data_PCOD8141434
_publ_section_title
;
Structure prediction by ZEFSAII (Michael W. Deem and Ramdas Pophale) SiO2 
 PCOD8141434
Probable space group: C 2/C
;
_chemical_formula_sum "Si O2"
_cell_formula_units_Z 52
_cell_length_a 11.632311
_cell_length_b 27.809391
_cell_length_c 9.215118
_cell_angle_alpha 90.000000
_cell_angle_beta 55.177148
_cell_angle_gamma 90.000000
_cell_volume 2447.146807
_symmetry_space_group_name_H-M "C 2/C"
_symmetry_group_IT_number 15
_symmetry_cell_setting 'monoclinic'
loop_
_space_group_symop_operation_xyz
x,y,z
-x,y,1/2-z
-x,-y,-z
x,-y,1/2+z
1/2+x,1/2+y,z
1/2-x,1/2+y,1/2-z
1/2-x,1/2-y,-z
1/2+x,1/2-y,1/2+z
loop_
_atom_site_type_symbol
_atom_site_label
_atom_site_fract_x
_atom_site_fract_y
_atom_site_fract_z
Si Si1 0.357577 0.378738 0.927408
Si Si2 0.354496 0.256066 0.582772
Si Si3 0.851556 0.774618 0.040377
Si Si4 0.000000 0.698785 0.250000
Si Si5 0.228701 0.644406 0.228756
Si Si6 0.829079 0.048995 0.011144
Si Si7 0.840960 0.043688 0.674152
O O1 0.500000 0.400005 0.750000
O O2 0.240856 0.369868 0.888766
O O3 0.393736 0.328512 0.974244
O O4 0.297942 0.413523 0.095255
O O5 0.227835 0.227485 0.748918
O O6 0.503302 0.245309 0.555293
O O7 0.375620 0.232644 0.406692
O O8 0.335688 0.313690 0.601469
O O9 0.750000 0.750000 0.000000
O O10 0.928542 0.664078 0.182607
O O11 0.259661 0.597979 0.111916
O O12 0.778283 0.003954 0.143778
O O13 0.776935 0.044974 0.881919
O O14 0.994300 0.048090 0.917539
#
# Coordination Sequence:
#
# PCOD8141434 Si02
#       7
#     8   8   8   4   8   8   8
#     4  12  21  38  63  97 133 171 213 276 335 402
#     4  12  24  41  63  92 133 181 225 281 325 396
#     4  12  22  39  63  96 132 177 228 271 337 396
#     4  12  28  44  60  90 134 184 228 278 330 404
#     4  12  24  42  64  92 132 177 223 273 338 390
#     4  10  21  37  62  96 132 167 201 275 330 407
#     4  10  21  36  63  99 131 160 211 263 346 394
#
# _framework density 21.249236
#
# number of rings (size 3 to 8) (size 9 to 14) (size 15 to 20)
#    0.000    0.615    6.154    1.846    4.308    1.231 
#    0.000    0.000    0.000    3.692    0.000    0.000 
#    0.000    0.000    0.000    0.000    0.000    0.000 
#
# Total GULP energy -322275.883613 kJ/mol
# GULP energy per Si atom -12395.226293 kJ/mol
# Density = 2.120087 g / cm^3
# Si number density = 21.249236 Si / 1000 Ang^3
#
#
#
# Elastic Constant Matrix: (Units=GPa)
#
#
# Indices 1 2 3 4 5 6 
#
# 1 92.3305 33.2639 33.1218 0.0000 25.4342 0.0000
# 2 33.2639 117.6221 60.5487 0.0000 24.6848 0.0000
# 3 33.1218 60.5487 112.0155 0.0000 31.7837 0.0000
# 4 0.0000 0.0000 0.0000 42.3115 0.0000 9.2260
# 5 25.4342 24.6848 31.7837 0.0000 45.4142 0.0000
# 6 0.0000 0.0000 0.0000 9.2260 0.0000 27.8388
#
#
#
# Elastic Compliance Matrix: (Units=1/GPa)
#
#
# Indices 1 2 3 4 5 6 
#
# 1 0.013563 -0.001962 -0.001369 0.000000 -0.005572 0.000000
# 2 -0.001962 0.012282 -0.005585 0.000000 -0.001668 0.000000
# 3 -0.001369 -0.005585 0.014066 0.000000 -0.006041 0.000000
# 4 0.000000 0.000000 0.000000 0.025475 0.000000 -0.008443
# 5 -0.005572 -0.001668 -0.006041 0.000000 0.030275 0.000000
# 6 0.000000 0.000000 0.000000 -0.008443 0.000000 0.038719
#
#
# Mechanical properties :
#
#
# Convention : Reuss Voigt Hill
#
# Bulk Modulus (GPa) = 45.29401 63.98188 54.63794
# Shear Modulus (GPa) = 31.33388 36.11516 33.72452
#
# Velocity S-wave (km/s) = 3.84420 4.12709 3.98816
# Velocity P-wave (km/s) = 6.40826 7.27228 6.85390
#
# Compressibility (1/GPa) = 0.02207797
#
# Stress axis : x y z
#
# Youngs Moduli (GPa) = 73.72791 81.42071 71.09583
#
# Poissons Ratio (x) = 0.15971 0.09735
# Poissons Ratio (y) = 0.14462 0.39711
# Poissons Ratio (z) = 0.10096 0.45478
#
# Static dielectric constant tensor:
#      x y z
#    x 2.819110 0.000000 3.524380 
#    y 0.000000 3.947630 0.000000 
#    z 3.524380 0.000000 -5.208270 
# 
# 
# High freq. dielectric constant tensor:
#      x y z
#    x 1.834890 0.000000 0.033070 
#    y 0.000000 1.831610 0.000000 
#    z 0.033070 0.000000 1.820860 
# 
# From -- ./inp_files/34070.got.cif
#   From: 2010.06.25/outbox.cif.g09.slc.cpg/sg15_18_cif.got.tgz:34070.got - 2010.06.28 07:06:18.
