data_PCOD8141934
_publ_section_title
;
Structure prediction by ZEFSAII (Michael W. Deem and Ramdas Pophale) SiO2 
 PCOD8141934
Probable space group: C 2/C
;
_chemical_formula_sum "Si O2"
_cell_formula_units_Z 48
_cell_length_a 15.500314
_cell_length_b 28.027358
_cell_length_c 8.277421
_cell_angle_alpha 90.000000
_cell_angle_beta 140.436299
_cell_angle_gamma 90.000000
_cell_volume 2290.410374
_symmetry_space_group_name_H-M "C 2/C"
_symmetry_group_IT_number 15
_symmetry_cell_setting 'monoclinic'
loop_
_space_group_symop_operation_xyz
x,y,z
-x,y,1/2-z
-x,-y,-z
x,-y,1/2+z
1/2+x,1/2+y,z
1/2-x,1/2+y,1/2-z
1/2-x,1/2-y,-z
1/2+x,1/2-y,1/2+z
loop_
_atom_site_type_symbol
_atom_site_label
_atom_site_fract_x
_atom_site_fract_y
_atom_site_fract_z
Si Si1 0.858565 0.066675 0.589325
Si Si2 0.191954 0.706940 0.642271
Si Si3 0.915833 0.725068 0.367792
Si Si4 0.139489 0.376121 0.614853
Si Si5 0.837610 0.390738 0.212076
Si Si6 0.863522 0.966755 0.457976
O O1 0.742410 0.106641 0.403554
O O2 0.878002 0.043909 0.791523
O O3 0.000000 0.092471 0.750000
O O4 0.829838 0.022697 0.426687
O O5 0.145009 0.707454 0.389792
O O6 0.340009 0.731784 0.851044
O O7 0.205826 0.654240 0.737878
O O8 0.076915 0.736235 0.578970
O O9 0.891981 0.679684 0.444794
O O10 0.205623 0.386002 0.536777
O O11 0.997650 0.401664 0.450435
O O12 0.764648 0.437491 0.167600
O O13 0.000000 0.952021 0.750000
#
# Coordination Sequence:
#
# PCOD8141934 Si02
#       6
#     8   8   8   8   8   8
#     4  11  22  39  61  86 118 154 192 241 292 350
#     4   9  18  35  56  80 114 153 195 245 297 347
#     4   9  18  35  55  81 115 151 197 245 295 351
#     4  10  21  38  59  85 115 155 197 242 290 344
#     4  10  21  38  59  83 118 154 196 243 290 345
#     4  11  22  39  61  86 120 152 192 239 293 348
#
# _framework density 20.956942999999999
#
# number of rings (size 3 to 8) (size 9 to 14) (size 15 to 20)
#    0.000    2.000    0.000    5.000    0.000    3.333 
#   12.000    0.000    0.000    0.000    0.000    0.000 
#    0.000    0.000    0.000    0.000    0.000    0.000 
#
# Total GULP energy -297422.875378 kJ/mol
# GULP energy per Si atom -12392.619807 kJ/mol
# Density = 2.090924 g / cm^3
# Si number density = 20.956943 Si / 1000 Ang^3
#
#
#
# Elastic Constant Matrix: (Units=GPa)
#
#
# Indices 1 2 3 4 5 6 
#
# 1 96.8027 29.2673 23.2632 0.0000 10.9430 0.0000
# 2 29.2673 51.9421 20.1781 0.0000 16.3870 0.0000
# 3 23.2632 20.1781 70.9696 0.0000 5.3889 0.0000
# 4 0.0000 0.0000 0.0000 64.3959 0.0000 -33.9733
# 5 10.9430 16.3870 5.3889 0.0000 38.3503 0.0000
# 6 0.0000 0.0000 0.0000 -33.9733 0.0000 84.3579
#
#
#
# Elastic Compliance Matrix: (Units=1/GPa)
#
#
# Indices 1 2 3 4 5 6 
#
# 1 0.012827 -0.006053 -0.002428 0.000000 -0.000732 0.000000
# 2 -0.006053 0.027616 -0.005158 0.000000 -0.009348 0.000000
# 3 -0.002428 -0.005158 0.016307 0.000000 0.000605 0.000000
# 4 0.000000 0.000000 0.000000 0.019718 0.000000 0.007941
# 5 -0.000732 -0.009348 0.000605 0.000000 0.030194 0.000000
# 6 0.000000 0.000000 0.000000 0.007941 0.000000 0.015052
#
#
# Mechanical properties :
#
#
# Convention : Reuss Voigt Hill
#
# Bulk Modulus (GPa) = 33.93063 40.57020 37.25041
# Shear Modulus (GPa) = 31.48315 47.22121 39.35218
#
# Velocity S-wave (km/s) = 3.88013 4.75199 4.33802
# Velocity P-wave (km/s) = 6.02492 7.03629 6.55015
#
# Compressibility (1/GPa) = 0.02947190
#
# Stress axis : x y z
#
# Youngs Moduli (GPa) = 77.96288 36.21122 61.32396
#
# Poissons Ratio (x) = 0.21919 0.14888
# Poissons Ratio (y) = 0.47192 0.31629
# Poissons Ratio (z) = 0.18928 0.18677
#
# Static dielectric constant tensor:
#      x y z
#    x 4.067710 0.000000 0.071590 
#    y 0.000000 3.531760 0.000000 
#    z 0.071590 0.000000 3.827930 
# 
# 
# High freq. dielectric constant tensor:
#      x y z
#    x 1.844240 0.000000 -0.000250 
#    y 0.000000 1.799270 0.000000 
#    z -0.000250 0.000000 1.814340 
# 
# From -- ./inp_files/43949.got.cif
#   From: 2010.06.25/outbox.cif.g09.slc.cpg/sg15_22_cif.got.tgz:43949.got - 2010.06.28 07:06:18.
