data_PCOD8141333
_publ_section_title
;
Structure prediction by ZEFSAII (Michael W. Deem and Ramdas Pophale) SiO2 
 PCOD8141333
Probable space group: C 2/C
;
_chemical_formula_sum "Si O2"
_cell_formula_units_Z 64
_cell_length_a 12.463017
_cell_length_b 18.274779
_cell_length_c 31.573855
_cell_angle_alpha 90.000000
_cell_angle_beta 154.995532
_cell_angle_gamma 90.000000
_cell_volume 3039.651619
_symmetry_space_group_name_H-M "C 2/C"
_symmetry_group_IT_number 15
_symmetry_cell_setting 'monoclinic'
loop_
_space_group_symop_operation_xyz
x,y,z
-x,y,1/2-z
-x,-y,-z
x,-y,1/2+z
1/2+x,1/2+y,z
1/2-x,1/2+y,1/2-z
1/2-x,1/2-y,-z
1/2+x,1/2-y,1/2+z
loop_
_atom_site_type_symbol
_atom_site_label
_atom_site_fract_x
_atom_site_fract_y
_atom_site_fract_z
Si Si1 0.307590 0.131766 0.144864
Si Si2 0.072553 0.038589 0.446998
Si Si3 0.498555 0.487433 0.822249
Si Si4 0.914386 0.676249 0.562638
Si Si5 0.028532 0.574739 0.383991
Si Si6 0.259953 0.139355 0.363470
Si Si7 0.586829 0.775626 0.040503
Si Si8 0.055004 0.150946 0.720887
O O1 0.500000 0.161804 0.250000
O O2 0.457579 0.119179 0.154836
O O3 0.085404 0.191662 0.056293
O O4 0.182699 0.056406 0.117622
O O5 0.246046 0.108447 0.514624
O O6 0.208775 0.968381 0.515745
O O7 0.007021 0.025763 0.375020
O O8 0.214251 0.477333 0.703830
O O9 0.697512 0.433663 0.869168
O O10 0.547107 0.571455 0.829508
O O11 0.750000 0.750000 0.500000
O O12 0.028416 0.665960 0.556750
O O13 0.149042 0.673961 0.680694
O O14 0.978975 0.625462 0.407035
O O15 0.370416 0.208751 0.428559
O O16 0.000000 0.168062 0.250000
O O17 0.876938 0.793707 0.129749
O O18 0.000000 0.163399 0.750000
#
# Coordination Sequence:
#
# PCOD8141333 Si02
#       8
#     8   8   8   8   8   8   8   8
#     4  12  25  44  65  90 129 178 219 258 313 388
#     4  12  23  39  68  94 125 170 217 259 321 378
#     4  11  21  38  66  96 128 161 206 272 327 385
#     4  11  21  37  62  95 129 162 212 271 317 375
#     4  11  24  42  65  92 128 168 212 264 319 381
#     4  10  23  41  66  97 129 167 209 265 341 382
#     4  11  23  39  64  95 127 167 212 265 323 389
#     4  10  21  36  59  97 131 156 209 269 328 380
#
# _framework density 21.055045
#
# number of rings (size 3 to 8) (size 9 to 14) (size 15 to 20)
#    0.000    1.000    5.000    3.375    1.750    1.500 
#    0.000    0.000    2.750    0.000    0.000    0.000 
#    0.000    0.000    0.000    0.000    0.000    0.000 
#
# Total GULP energy -396522.166420 kJ/mol
# GULP energy per Si atom -12391.317701 kJ/mol
# Density = 2.100712 g / cm^3
# Si number density = 21.055045 Si / 1000 Ang^3
#
#
#
# Elastic Constant Matrix: (Units=GPa)
#
#
# Indices 1 2 3 4 5 6 
#
# 1 81.1740 25.5180 28.5969 -0.0014 -10.5622 -0.0010
# 2 25.5180 70.5146 50.4374 -0.0035 -4.6436 -0.0003
# 3 28.5969 50.4374 117.6468 -0.0072 -7.8787 -0.0001
# 4 -0.0014 -0.0035 -0.0072 32.9490 -0.0008 2.9504
# 5 -10.5622 -4.6436 -7.8787 -0.0008 27.7084 -0.0001
# 6 -0.0010 -0.0003 -0.0001 2.9504 -0.0001 23.8720
#
#
#
# Elastic Compliance Matrix: (Units=1/GPa)
#
#
# Indices 1 2 3 4 5 6 
#
# 1 0.014687 -0.003866 -0.001612 0.000000 0.004492 0.000001
# 2 -0.003866 0.021496 -0.008291 0.000000 -0.000229 0.000000
# 3 -0.001612 -0.008291 0.012551 0.000002 0.001565 0.000000
# 4 0.000000 0.000000 0.000002 0.030690 0.000001 -0.003793
# 5 0.004492 -0.000229 0.001565 0.000001 0.038209 0.000000
# 6 0.000001 0.000000 0.000000 -0.003793 0.000000 0.042359
#
#
# Mechanical properties :
#
#
# Convention : Reuss Voigt Hill
#
# Bulk Modulus (GPa) = 47.17934 53.16002 50.16968
# Shear Modulus (GPa) = 25.69429 27.89141 26.79285
#
# Velocity S-wave (km/s) = 3.49712 3.64358 3.57110
# Velocity P-wave (km/s) = 6.22598 6.55773 6.39400
#
# Compressibility (1/GPa) = 0.02119572
#
# Stress axis : x y z
#
# Youngs Moduli (GPa) = 68.08771 46.52001 79.67369
#
# Poissons Ratio (x) = 0.17986 0.12840
# Poissons Ratio (y) = 0.26325 0.66060
# Poissons Ratio (z) = 0.10973 0.38571
#
# Static dielectric constant tensor:
#      x y z
#    x 3.892000 0.000000 0.292110 
#    y 0.000000 3.688780 -0.000010 
#    z 0.292110 -0.000010 4.312140 
# 
# 
# High freq. dielectric constant tensor:
#      x y z
#    x 1.812970 0.000000 0.007740 
#    y 0.000000 1.806990 0.000000 
#    z 0.007740 0.000000 1.839180 
# 
# From -- ./inp_files/311666.got.cif
#   From: 2010.06.25/outbox.cif.g09.slc.cpg/sg15_156_cif.got.tgz:311666.got - 2010.06.28 07:06:18.
