data_PCOD8141982
_publ_section_title
;
Structure prediction by ZEFSAII (Michael W. Deem and Ramdas Pophale) SiO2 
 PCOD8141982
Probable space group: C 2/C
;
_chemical_formula_sum "Si O2"
_cell_formula_units_Z 64
_cell_length_a 17.505458
_cell_length_b 22.690891
_cell_length_c 13.779694
_cell_angle_alpha 90.000000
_cell_angle_beta 147.656443
_cell_angle_gamma 90.000000
_cell_volume 2928.290379
_symmetry_space_group_name_H-M "C 2/C"
_symmetry_group_IT_number 15
_symmetry_cell_setting 'monoclinic'
loop_
_space_group_symop_operation_xyz
x,y,z
-x,y,1/2-z
-x,-y,-z
x,-y,1/2+z
1/2+x,1/2+y,z
1/2-x,1/2+y,1/2-z
1/2-x,1/2-y,-z
1/2+x,1/2-y,1/2+z
loop_
_atom_site_type_symbol
_atom_site_label
_atom_site_fract_x
_atom_site_fract_y
_atom_site_fract_z
Si Si1 0.287735 0.594044 0.969010
Si Si2 0.457119 0.059342 0.904612
Si Si3 0.238052 0.541947 0.113900
Si Si4 0.496140 0.596349 0.463281
Si Si5 0.973502 0.225717 0.490427
Si Si6 0.128173 0.286587 0.314822
Si Si7 0.778553 0.410067 0.380954
Si Si8 0.764121 0.281224 0.411659
O O1 0.199233 0.653473 0.856956
O O2 0.178179 0.544895 0.809380
O O3 0.311455 0.577268 0.105153
O O4 0.437538 0.599060 0.074571
O O5 0.398270 0.102899 0.926280
O O6 0.598581 0.079907 0.998057
O O7 0.500000 0.000000 0.000000
O O8 0.366801 0.548354 0.330988
O O9 0.193864 0.474283 0.039739
O O10 0.427920 0.658527 0.421798
O O11 0.620395 0.579468 0.670258
O O12 0.939667 0.258635 0.354290
O O13 0.899632 0.253029 0.505457
O O14 0.139592 0.228538 0.698914
O O15 0.250000 0.250000 0.500000
O O16 0.000000 0.298865 0.250000
O O17 0.783199 0.352024 0.453895
O O18 0.750000 0.250000 0.500000
#
# Coordination Sequence:
#
# PCOD8141982 Si02
#       8
#     8   8   8   8   8   8   8   8
#     4  11  22  37  54  85 127 158 195 249 299 367
#     4   9  19  36  57  81 114 155 197 242 298 363
#     4  11  20  36  61  91 120 159 200 243 306 374
#     4  10  21  38  60  87 119 158 200 247 307 377
#     4  11  23  42  65  90 125 165 207 262 317 366
#     4  12  23  37  60  92 127 167 209 254 315 386
#     4   9  21  41  62  86 122 155 199 259 311 360
#     4  11  24  45  67  92 122 163 216 268 315 367
#
# _framework density 21.855757000000001
#
# number of rings (size 3 to 8) (size 9 to 14) (size 15 to 20)
#    0.000    1.500    0.000    6.750    0.000    2.000 
#    0.000   15.000    0.000    0.000    0.000    0.000 
#    0.000    0.000    0.000    0.000    0.000    0.000 
#
# Total GULP energy -396432.635870 kJ/mol
# GULP energy per Si atom -12388.519871 kJ/mol
# Density = 2.180601 g / cm^3
# Si number density = 21.855757 Si / 1000 Ang^3
#
#
#
# Elastic Constant Matrix: (Units=GPa)
#
#
# Indices 1 2 3 4 5 6 
#
# 1 65.5465 25.0134 20.2575 0.0000 3.2516 0.0000
# 2 25.0134 112.8557 30.5013 0.0000 1.3873 0.0000
# 3 20.2575 30.5013 83.7587 0.0000 8.9174 0.0000
# 4 0.0000 0.0000 0.0000 34.7662 0.0000 -1.5738
# 5 3.2516 1.3873 8.9174 0.0000 39.0767 0.0000
# 6 0.0000 0.0000 0.0000 -1.5738 0.0000 34.1299
#
#
#
# Elastic Compliance Matrix: (Units=1/GPa)
#
#
# Indices 1 2 3 4 5 6 
#
# 1 0.017380 -0.003024 -0.003033 0.000000 -0.000647 0.000000
# 2 -0.003024 0.010363 -0.003105 0.000000 0.000592 0.000000
# 3 -0.003033 -0.003105 0.014108 0.000000 -0.002857 0.000000
# 4 0.000000 0.000000 0.000000 0.028824 0.000000 0.001329
# 5 -0.000647 0.000592 -0.002857 0.000000 0.026275 0.000000
# 6 0.000000 0.000000 0.000000 0.001329 0.000000 0.029361
#
#
# Mechanical properties :
#
#
# Convention : Reuss Voigt Hill
#
# Bulk Modulus (GPa) = 42.50844 45.96727 44.23786
# Shear Modulus (GPa) = 32.79142 34.02047 33.40594
#
# Velocity S-wave (km/s) = 3.87765 3.94965 3.91381
# Velocity P-wave (km/s) = 6.28808 6.47127 6.38033
#
# Compressibility (1/GPa) = 0.02352474
#
# Stress axis : x y z
#
# Youngs Moduli (GPa) = 57.53738 96.49517 70.88338
#
# Poissons Ratio (x) = 0.29184 0.21501
# Poissons Ratio (y) = 0.17401 0.22012
# Poissons Ratio (z) = 0.17453 0.29966
#
# Static dielectric constant tensor:
#      x y z
#    x 4.477240 0.000000 0.469180 
#    y 0.000000 3.983480 0.000000 
#    z 0.469180 0.000000 4.213510 
# 
# 
# High freq. dielectric constant tensor:
#      x y z
#    x 1.855000 0.000000 0.014000 
#    y 0.000000 1.856380 0.000000 
#    z 0.014000 0.000000 1.870080 
# 
# From -- ./inp_files/164275.got.cif
#   From: 2010.06.25/outbox.cif.g09.slc.cpg/sg15_83_cif.got.tgz:164275.got - 2010.06.28 07:06:18.
