data_PCOD8141569
_publ_section_title
;
Structure prediction by ZEFSAII (Michael W. Deem and Ramdas Pophale) SiO2 
 PCOD8141569
Probable space group: C 2/C
;
_chemical_formula_sum "Si O2"
_cell_formula_units_Z 40
_cell_length_a 17.669201
_cell_length_b 18.077305
_cell_length_c 9.160093
_cell_angle_alpha 90.000000
_cell_angle_beta 41.150767
_cell_angle_gamma 90.000000
_cell_volume 1925.327191
_symmetry_space_group_name_H-M "C 2/C"
_symmetry_group_IT_number 15
_symmetry_cell_setting 'monoclinic'
loop_
_space_group_symop_operation_xyz
x,y,z
-x,y,1/2-z
-x,-y,-z
x,-y,1/2+z
1/2+x,1/2+y,z
1/2-x,1/2+y,1/2-z
1/2-x,1/2-y,-z
1/2+x,1/2-y,1/2+z
loop_
_atom_site_type_symbol
_atom_site_label
_atom_site_fract_x
_atom_site_fract_y
_atom_site_fract_z
Si Si1 0.615540 0.471969 0.149583
Si Si2 0.849681 0.837923 0.214464
Si Si3 0.145534 0.430406 0.787742
Si Si4 0.000000 0.510330 0.750000
Si Si5 0.382825 0.203038 0.351682
Si Si6 0.500000 0.386406 0.750000
O O1 0.500000 0.434862 0.250000
O O2 0.645386 0.425549 0.252121
O O3 0.585907 0.559406 0.219784
O O4 0.727494 0.466418 0.882442
O O5 0.717902 0.810472 0.381160
O O6 0.898136 0.787627 0.277005
O O7 0.925812 0.830969 0.958377
O O8 0.075475 0.463195 0.752353
O O9 0.153554 0.343275 0.740085
O O10 0.084796 0.438901 0.031502
O O11 0.500000 0.173640 0.250000
#
# Coordination Sequence:
#
# PCOD8141569 Si02
#       6
#     8   8   8   4   8   4
#     4   9  21  35  59  83 117 152 188 244 291 347
#     4  10  21  38  57  86 114 157 194 239 297 353
#     4  10  21  37  59  84 118 155 200 236 304 344
#     4  10  22  35  55  88 112 152 194 254 282 358
#     4  10  21  39  60  79 117 158 196 239 293 357
#     4  10  22  35  59  86 120 144 198 250 288 346
#
# _framework density 20.775689
#
# number of rings (size 3 to 8) (size 9 to 14) (size 15 to 20)
#    0.600    1.600    1.000    1.200    5.600    0.800 
#    0.000    1.000    0.000    0.000    0.000    0.000 
#    0.000    0.000    0.000    0.000    0.000    0.000 
#
# Total GULP energy -247769.473299 kJ/mol
# GULP energy per Si atom -12388.473665 kJ/mol
# Density = 2.072840 g / cm^3
# Si number density = 20.775689 Si / 1000 Ang^3
#
#
#
# Elastic Constant Matrix: (Units=GPa)
#
#
# Indices 1 2 3 4 5 6 
#
# 1 71.5234 16.5787 54.2770 0.0000 -21.3576 0.0000
# 2 16.5787 69.0712 50.1325 0.0000 -2.5741 0.0000
# 3 54.2770 50.1325 218.9818 0.0000 -10.6992 0.0000
# 4 0.0000 0.0000 0.0000 23.4368 0.0000 -5.9446
# 5 -21.3576 -2.5741 -10.6992 0.0000 36.8121 0.0000
# 6 0.0000 0.0000 0.0000 -5.9446 0.0000 13.3407
#
#
#
# Elastic Compliance Matrix: (Units=1/GPa)
#
#
# Indices 1 2 3 4 5 6 
#
# 1 0.020774 -0.001475 -0.004288 0.000000 0.010703 0.000000
# 2 -0.001475 0.017468 -0.003668 0.000000 -0.000700 0.000000
# 3 -0.004288 -0.003668 0.006426 0.000000 -0.000877 0.000000
# 4 0.000000 0.000000 0.000000 0.048105 0.000000 0.021435
# 5 0.010703 -0.000700 -0.000877 0.000000 0.033071 0.000000
# 6 0.000000 0.000000 0.000000 0.021435 0.000000 0.084510
#
#
# Mechanical properties :
#
#
# Convention : Reuss Voigt Hill
#
# Bulk Modulus (GPa) = 38.75054 66.83920 52.79487
# Shear Modulus (GPa) = 21.02453 30.62377 25.82415
#
# Velocity S-wave (km/s) = 3.18461 3.84346 3.52944
# Velocity P-wave (km/s) = 5.67580 7.20680 6.48663
#
# Compressibility (1/GPa) = 0.02580609
#
# Stress axis : x y z
#
# Youngs Moduli (GPa) = 48.13797 57.24850 155.60966
#
# Poissons Ratio (x) = 0.08443 0.66732
# Poissons Ratio (y) = 0.07099 0.57072
# Poissons Ratio (z) = 0.20644 0.20997
#
# Static dielectric constant tensor:
#      x y z
#    x 3.381150 0.000000 -0.331060 
#    y 0.000000 3.604300 0.000000 
#    z -0.331060 0.000000 3.945860 
# 
# 
# High freq. dielectric constant tensor:
#      x y z
#    x 1.781130 0.000000 -0.028710 
#    y 0.000000 1.802530 0.000000 
#    z -0.028710 0.000000 1.824550 
# 
# From -- ./inp_files/49996.got.cif
#   From: 2010.06.25/outbox.cif.g09.slc.cpg/sg15_25_cif.got.tgz:49996.got - 2010.06.28 07:06:18.
