data_PCOD8141450
_publ_section_title
;
Structure prediction by ZEFSAII (Michael W. Deem and Ramdas Pophale) SiO2 
 PCOD8141450
Probable space group: C 2/C
;
_chemical_formula_sum "Si O2"
_cell_formula_units_Z 56
_cell_length_a 16.419993
_cell_length_b 8.507244
_cell_length_c 29.231047
_cell_angle_alpha 90.000000
_cell_angle_beta 140.284124
_cell_angle_gamma 90.000000
_cell_volume 2609.120652
_symmetry_space_group_name_H-M "C 2/C"
_symmetry_group_IT_number 15
_symmetry_cell_setting 'monoclinic'
loop_
_space_group_symop_operation_xyz
x,y,z
-x,y,1/2-z
-x,-y,-z
x,-y,1/2+z
1/2+x,1/2+y,z
1/2-x,1/2+y,1/2-z
1/2-x,1/2-y,-z
1/2+x,1/2-y,1/2+z
loop_
_atom_site_type_symbol
_atom_site_label
_atom_site_fract_x
_atom_site_fract_y
_atom_site_fract_z
Si Si1 0.210106 0.880928 0.168440
Si Si2 0.359014 0.114889 0.295297
Si Si3 0.056232 0.617498 0.915926
Si Si4 0.795707 0.571279 0.610715
Si Si5 0.270165 0.402196 0.040098
Si Si6 0.567418 0.245668 0.323487
Si Si7 0.449202 0.453246 0.551228
O O1 0.219694 0.725795 0.204014
O O2 0.281669 0.830908 0.151956
O O3 0.269332 0.034390 0.218750
O O4 0.068454 0.934707 0.092671
O O5 0.463240 0.231236 0.318532
O O6 0.425495 0.973480 0.351207
O O7 0.130742 0.656456 0.899887
O O8 0.017907 0.769240 0.928685
O O9 0.144276 0.508319 0.986288
O O10 0.878217 0.425233 0.663538
O O11 0.655209 0.518464 0.533585
O O12 0.312925 0.353248 0.109571
O O13 0.389076 0.500665 0.073480
O O14 0.250000 0.250000 0.000000
O O15 0.500000 0.319401 0.250000
#
# Coordination Sequence:
#
# PCOD8141450 Si02
#       7
#     8   8   8   8   8   8   8
#     4  12  23  40  62  88 128 160 205 246 318 371
#     4  11  23  40  61  88 123 168 199 253 310 377
#     4  10  22  40  66  88 120 160 212 252 309 358
#     4  10  21  36  66  89 115 160 210 252 293 375
#     4  11  17  35  66  92 115 157 210 255 296 361
#     4  11  20  38  63  93 118 159 214 250 299 370
#     4  11  21  39  62  93 123 161 201 258 312 369
#
# _framework density 21.463170000000002
#
# number of rings (size 3 to 8) (size 9 to 14) (size 15 to 20)
#    0.000    1.143    7.143    3.000    0.000    0.000 
#    0.000    3.571    0.000    0.000    0.000    0.000 
#    0.000    0.000    0.000    0.000    0.000    0.000 
#
# Total GULP energy -347042.835391 kJ/mol
# GULP energy per Si atom -12394.386978 kJ/mol
# Density = 2.141432 g / cm^3
# Si number density = 21.463170 Si / 1000 Ang^3
#
#
#
# Elastic Constant Matrix: (Units=GPa)
#
#
# Indices 1 2 3 4 5 6 
#
# 1 53.6087 11.5428 20.1319 0.0000 -13.0300 0.0000
# 2 11.5428 57.9053 14.3944 0.0001 -7.1402 -0.0001
# 3 20.1319 14.3944 113.0338 0.0000 -14.8317 0.0000
# 4 0.0000 0.0001 0.0000 22.3301 0.0000 0.0547
# 5 -13.0300 -7.1402 -14.8317 0.0000 30.0425 0.0000
# 6 0.0000 -0.0001 0.0000 0.0547 0.0000 24.6993
#
#
#
# Elastic Compliance Matrix: (Units=1/GPa)
#
#
# Indices 1 2 3 4 5 6 
#
# 1 0.022083 -0.002821 -0.002572 0.000000 0.007638 0.000000
# 2 -0.002821 0.018512 -0.001538 0.000000 0.002417 0.000000
# 3 -0.002572 -0.001538 0.009951 0.000000 0.003432 0.000000
# 4 0.000000 0.000000 0.000000 0.044783 0.000000 -0.000099
# 5 0.007638 0.002417 0.003432 0.000000 0.038868 0.000000
# 6 0.000000 0.000000 0.000000 -0.000099 0.000000 0.040487
#
#
# Mechanical properties :
#
#
# Convention : Reuss Voigt Hill
#
# Bulk Modulus (GPa) = 27.25870 35.18735 31.22303
# Shear Modulus (GPa) = 24.90361 27.31294 26.10828
#
# Velocity S-wave (km/s) = 3.41001 3.57115 3.49151
# Velocity P-wave (km/s) = 5.31338 5.78222 5.55275
#
# Compressibility (1/GPa) = 0.03668553
#
# Stress axis : x y z
#
# Youngs Moduli (GPa) = 45.28307 54.01832 100.49138
#
# Poissons Ratio (x) = 0.15238 0.25843
# Poissons Ratio (y) = 0.12774 0.15454
# Poissons Ratio (z) = 0.11645 0.08307
#
# Static dielectric constant tensor:
#      x y z
#    x 3.785650 0.000000 0.081340 
#    y 0.000000 3.750560 0.000000 
#    z 0.081340 0.000000 4.030160 
# 
# 
# High freq. dielectric constant tensor:
#      x y z
#    x 1.815520 0.000000 0.005440 
#    y 0.000000 1.822690 0.000000 
#    z 0.005440 0.000000 1.859430 
# 
# From -- ./inp_files/315549.got.cif
#   From: 2010.06.25/outbox.cif.g09.slc.cpg/sg15_158_cif.got.tgz:315549.got - 2010.06.28 07:06:18.
