data_PCOD8141979
_publ_section_title
;
Structure prediction by ZEFSAII (Michael W. Deem and Ramdas Pophale) SiO2 
 PCOD8141979
Probable space group: C 2/C
;
_chemical_formula_sum "Si O2"
_cell_formula_units_Z 64
_cell_length_a 17.877453
_cell_length_b 10.512589
_cell_length_c 16.741068
_cell_angle_alpha 90.000000
_cell_angle_beta 95.332554
_cell_angle_gamma 90.000000
_cell_volume 3132.671161
_symmetry_space_group_name_H-M "C 2/C"
_symmetry_group_IT_number 15
_symmetry_cell_setting 'monoclinic'
loop_
_space_group_symop_operation_xyz
x,y,z
-x,y,1/2-z
-x,-y,-z
x,-y,1/2+z
1/2+x,1/2+y,z
1/2-x,1/2+y,1/2-z
1/2-x,1/2-y,-z
1/2+x,1/2-y,1/2+z
loop_
_atom_site_type_symbol
_atom_site_label
_atom_site_fract_x
_atom_site_fract_y
_atom_site_fract_z
Si Si1 0.566108 0.852708 0.567663
Si Si2 0.491609 0.413857 0.074496
Si Si3 0.796708 0.665608 0.161781
Si Si4 0.435240 0.584432 0.295166
Si Si5 0.805144 0.535569 0.326105
Si Si6 0.406964 0.059304 0.047278
Si Si7 0.152917 0.937583 0.342497
Si Si8 0.354905 0.783038 0.391527
O O1 0.534435 0.712886 0.551979
O O2 0.635937 0.858905 0.636105
O O3 0.492241 0.930619 0.589014
O O4 0.599316 0.917346 0.490054
O O5 0.532368 0.460680 0.157860
O O6 0.402531 0.411927 0.087814
O O7 0.500000 0.500000 0.000000
O O8 0.776780 0.580839 0.236919
O O9 0.849502 0.576033 0.113614
O O10 0.835665 0.796907 0.193442
O O11 0.722590 0.704459 0.104349
O O12 0.500000 0.652157 0.250000
O O13 0.372842 0.533848 0.228742
O O14 0.412202 0.684472 0.359338
O O15 0.732370 0.504810 0.376175
O O16 0.847550 0.399452 0.327877
O O17 0.388126 0.167414 0.978720
#
# Coordination Sequence:
#
# PCOD8141979 Si02
#       8
#     8   8   8   8   8   8   8   8
#     4  10  21  41  59  91 126 159 211 262 314 374
#     4  11  22  40  65  89 121 167 209 256 318 389
#     4  11  20  38  67  90 122 165 208 259 325 377
#     4  10  21  38  60  86 120 163 203 255 312 377
#     4  10  22  39  62  93 125 163 208 270 312 379
#     4  10  21  38  62  92 125 162 207 265 312 386
#     4  10  21  40  60  91 123 161 210 257 315 382
#     4  10  21  40  61  90 129 160 212 258 322 381
#
# _framework density 20.429850999999999
#
# number of rings (size 3 to 8) (size 9 to 14) (size 15 to 20)
#    0.000    1.750    2.500    1.875    0.000    0.500 
#   11.250    0.625    0.000    0.000    0.000    0.000 
#    0.000    0.000    0.000    0.000    0.000    0.000 
#
# Total GULP energy -396432.975687 kJ/mol
# GULP energy per Si atom -12388.530490 kJ/mol
# Density = 2.038335 g / cm^3
# Si number density = 20.429851 Si / 1000 Ang^3
#
#
#
# Elastic Constant Matrix: (Units=GPa)
#
#
# Indices 1 2 3 4 5 6 
#
# 1 138.8867 55.3919 46.9192 0.0000 -7.3760 0.0000
# 2 55.3919 90.1908 30.4048 0.0000 -13.5056 0.0000
# 3 46.9192 30.4048 61.9185 0.0000 -5.4191 0.0000
# 4 0.0000 0.0000 0.0000 24.5703 0.0000 -5.2379
# 5 -7.3760 -13.5056 -5.4191 0.0000 31.8030 0.0000
# 6 0.0000 0.0000 0.0000 -5.2379 0.0000 38.0956
#
#
#
# Elastic Compliance Matrix: (Units=1/GPa)
#
#
# Indices 1 2 3 4 5 6 
#
# 1 0.011191 -0.004886 -0.006126 0.000000 -0.000523 0.000000
# 2 -0.004886 0.016118 -0.003769 0.000000 0.005069 0.000000
# 3 -0.006126 -0.003769 0.022717 0.000000 0.000850 0.000000
# 4 0.000000 0.000000 0.000000 0.041928 0.000000 0.005765
# 5 -0.000523 0.005069 0.000850 0.000000 0.033620 0.000000
# 6 0.000000 0.000000 0.000000 0.005765 0.000000 0.027042
#
#
# Mechanical properties :
#
#
# Convention : Reuss Voigt Hill
#
# Bulk Modulus (GPa) = 48.86581 61.82532 55.34557
# Shear Modulus (GPa) = 26.45505 29.44578 27.95041
#
# Velocity S-wave (km/s) = 3.60241 3.80058 3.70282
# Velocity P-wave (km/s) = 6.42447 7.04181 6.74022
#
# Compressibility (1/GPa) = 0.02046421
#
# Stress axis : x y z
#
# Youngs Moduli (GPa) = 89.36083 62.04263 44.01899
#
# Poissons Ratio (x) = 0.30314 0.26967
# Poissons Ratio (y) = 0.43661 0.16589
# Poissons Ratio (z) = 0.54745 0.23382
#
# Static dielectric constant tensor:
#      x y z
#    x 4.020500 0.000000 0.112290 
#    y 0.000000 3.760970 0.000000 
#    z 0.112290 0.000000 3.557100 
# 
# 
# High freq. dielectric constant tensor:
#      x y z
#    x 1.815440 0.000000 0.010800 
#    y 0.000000 1.794480 0.000000 
#    z 0.010800 0.000000 1.777180 
# 
# From -- ./inp_files/210344.got.cif
#   From: 2010.06.25/outbox.cif.g09.slc.cpg/sg15_106_cif.got.tgz:210344.got - 2010.06.28 07:06:18.
