data_PCOD8141601
_publ_section_title
;
Structure prediction by ZEFSAII (Michael W. Deem and Ramdas Pophale) SiO2 
 PCOD8141601
Probable space group: C 2/C
;
_chemical_formula_sum "Si O2"
_cell_formula_units_Z 40
_cell_length_a 12.063070
_cell_length_b 9.779473
_cell_length_c 17.764664
_cell_angle_alpha 90.000000
_cell_angle_beta 66.699585
_cell_angle_gamma 90.000000
_cell_volume 1924.787326
_symmetry_space_group_name_H-M "C 2/C"
_symmetry_group_IT_number 15
_symmetry_cell_setting 'monoclinic'
loop_
_space_group_symop_operation_xyz
x,y,z
-x,y,1/2-z
-x,-y,-z
x,-y,1/2+z
1/2+x,1/2+y,z
1/2-x,1/2+y,1/2-z
1/2-x,1/2-y,-z
1/2+x,1/2-y,1/2+z
loop_
_atom_site_type_symbol
_atom_site_label
_atom_site_fract_x
_atom_site_fract_y
_atom_site_fract_z
Si Si1 0.000000 0.382375 0.250000
Si Si2 0.000000 0.933501 0.250000
Si Si3 0.329754 0.653415 0.248060
Si Si4 0.157843 0.461258 0.915156
Si Si5 0.713740 0.262522 0.136310
Si Si6 0.901869 0.463781 0.916263
O O1 0.901382 0.294501 0.232650
O O2 0.925110 0.470193 0.329361
O O3 0.086955 0.839176 0.178479
O O4 0.076361 0.028261 0.287690
O O5 0.258703 0.626821 0.345417
O O6 0.240742 0.665733 0.201402
O O7 0.179894 0.626221 0.902177
O O8 0.029825 0.415762 0.915906
O O9 0.158953 0.434003 0.005430
O O10 0.691620 0.162226 0.071267
#
# Coordination Sequence:
#
# PCOD8141601 Si02
#       6
#     4   4   8   8   8   8
#     4  11  21  38  60  86 117 155 202 240 290 361
#     4   9  21  34  56  88 113 145 204 236 276 351
#     4  10  21  37  60  85 118 155 197 242 289 348
#     4  10  22  39  57  89 121 152 196 248 289 348
#     4  11  20  38  63  85 117 161 192 241 294 346
#     4  11  22  37  61  88 117 154 201 241 294 350
#
# _framework density 20.781516
#
# number of rings (size 3 to 8) (size 9 to 14) (size 15 to 20)
#    0.000    1.600    2.000    3.600    2.800    0.800 
#    0.000    0.000    0.000    4.800    0.000    0.000 
#    0.000    0.000    0.000    0.000    0.000    0.000 
#
# Total GULP energy -247889.513202 kJ/mol
# GULP energy per Si atom -12394.475660 kJ/mol
# Density = 2.073422 g / cm^3
# Si number density = 20.781516 Si / 1000 Ang^3
#
#
#
# Elastic Constant Matrix: (Units=GPa)
#
#
# Indices 1 2 3 4 5 6 
#
# 1 89.1942 28.8179 35.0725 0.0000 3.6500 0.0000
# 2 28.8179 58.2637 19.5278 0.0000 10.3721 0.0000
# 3 35.0725 19.5278 88.4627 0.0000 9.1550 0.0000
# 4 0.0000 0.0000 0.0000 9.1546 0.0000 1.2852
# 5 3.6500 10.3721 9.1550 0.0000 26.9390 0.0000
# 6 0.0000 0.0000 0.0000 1.2852 0.0000 21.3731
#
#
#
# Elastic Compliance Matrix: (Units=1/GPa)
#
#
# Indices 1 2 3 4 5 6 
#
# 1 0.015008 -0.006168 -0.004793 0.000000 0.001970 0.000000
# 2 -0.006168 0.022039 -0.001688 0.000000 -0.007076 0.000000
# 3 -0.004793 -0.001688 0.013932 0.000000 -0.003436 0.000000
# 4 0.000000 0.000000 0.000000 0.110165 0.000000 -0.006625
# 5 0.001970 -0.007076 -0.003436 0.000000 0.040746 0.000000
# 6 0.000000 0.000000 0.000000 -0.006625 0.000000 0.047186
#
#
# Mechanical properties :
#
#
# Convention : Reuss Voigt Hill
#
# Bulk Modulus (GPa) = 38.93418 44.75078 41.84248
# Shear Modulus (GPa) = 17.67198 21.66016 19.66607
#
# Velocity S-wave (km/s) = 2.91927 3.23194 3.07958
# Velocity P-wave (km/s) = 5.48986 5.95885 5.72916
#
# Compressibility (1/GPa) = 0.02568437
#
# Stress axis : x y z
#
# Youngs Moduli (GPa) = 66.63074 45.37356 71.77527
#
# Poissons Ratio (x) = 0.27984 0.34399
# Poissons Ratio (y) = 0.41095 0.12112
# Poissons Ratio (z) = 0.31933 0.07657
#
# Static dielectric constant tensor:
#      x y z
#    x 3.846760 0.000000 -0.079550 
#    y 0.000000 3.703720 0.000000 
#    z -0.079550 0.000000 3.832270 
# 
# 
# High freq. dielectric constant tensor:
#      x y z
#    x 1.820820 0.000000 -0.000780 
#    y 0.000000 1.800370 0.000000 
#    z -0.000780 0.000000 1.808840 
# 
# From -- ./inp_files/141786.got.cif
#   From: 2010.06.25/outbox.cif.g09.slc.cpg/sg15_71_cif.got.tgz:141786.got - 2010.06.28 07:06:18.
