data_PCOD8141156
_publ_section_title
;
Structure prediction by ZEFSAII (Michael W. Deem and Ramdas Pophale) SiO2 
 PCOD8141156
Probable space group: C 2/C
;
_chemical_formula_sum "Si O2"
_cell_formula_units_Z 40
_cell_length_a 19.057659
_cell_length_b 6.153744
_cell_length_c 23.435944
_cell_angle_alpha 90.000000
_cell_angle_beta 49.603450
_cell_angle_gamma 90.000000
_cell_volume 2093.174512
_symmetry_space_group_name_H-M "C 2/C"
_symmetry_group_IT_number 15
_symmetry_cell_setting 'monoclinic'
loop_
_space_group_symop_operation_xyz
x,y,z
-x,y,1/2-z
-x,-y,-z
x,-y,1/2+z
1/2+x,1/2+y,z
1/2-x,1/2+y,1/2-z
1/2-x,1/2-y,-z
1/2+x,1/2-y,1/2+z
loop_
_atom_site_type_symbol
_atom_site_label
_atom_site_fract_x
_atom_site_fract_y
_atom_site_fract_z
Si Si1 0.468544 0.546873 0.605120
Si Si2 0.260710 0.562442 0.825492
Si Si3 0.936679 0.202757 0.229328
Si Si4 0.148776 0.591675 0.283555
Si Si5 0.925909 0.308358 0.035358
O O1 0.487188 0.468199 0.660110
O O2 0.394455 0.739943 0.648007
O O3 0.558736 0.652438 0.527654
O O4 0.430155 0.343191 0.589230
O O5 0.335247 0.379134 0.803600
O O6 0.228423 0.526836 0.777081
O O7 0.311629 0.794637 0.794349
O O8 0.175371 0.580319 0.914637
O O9 0.927691 0.425773 0.199285
O O10 0.000000 0.240717 0.250000
O O11 0.000000 0.500000 0.000000
#
# Coordination Sequence:
#
# PCOD8141156 Si02
#       5
#     8   8   8   8   8
#     4  10  21  35  60  90 123 153 199 245 306 350
#     4  11  20  34  61  91 113 157 204 252 294 356
#     4  11  24  39  58  87 125 160 201 253 306 356
#     4  11  19  36  60  88 117 151 205 248 292 350
#     4  11  20  35  61  96 124 152 199 256 299 353
#
# _framework density 19.109729999999999
#
# number of rings (size 3 to 8) (size 9 to 14) (size 15 to 20)
#    0.000    1.200    6.000    1.200    0.000    3.200 
#    0.000    1.000    0.000    6.000    0.000    0.000 
#    0.000    0.000    0.000    0.000    0.000    0.000 
#
# Total GULP energy -247875.520305 kJ/mol
# GULP energy per Si atom -12393.776015 kJ/mol
# Density = 1.906624 g / cm^3
# Si number density = 19.109730 Si / 1000 Ang^3
#
#
#
# Elastic Constant Matrix: (Units=GPa)
#
#
# Indices 1 2 3 4 5 6 
#
# 1 100.6789 40.6968 38.0960 0.0315 2.9780 0.0548
# 2 40.6968 101.6051 39.7099 0.0079 -6.7426 0.0108
# 3 38.0960 39.7099 93.7049 0.0154 -24.9133 0.0403
# 4 0.0315 0.0079 0.0154 37.9556 0.0153 -4.9496
# 5 2.9780 -6.7426 -24.9133 0.0153 29.7120 0.0180
# 6 0.0548 0.0108 0.0403 -4.9496 0.0180 18.5226
#
#
#
# Elastic Compliance Matrix: (Units=1/GPa)
#
#
# Indices 1 2 3 4 5 6 
#
# 1 0.013929 -0.003706 -0.006032 -0.000008 -0.007294 -0.000021
# 2 -0.003706 0.012870 -0.003954 0.000004 -0.000023 0.000013
# 3 -0.006032 -0.003954 0.018945 -0.000013 0.015593 -0.000040
# 4 -0.000008 0.000004 -0.000013 0.027298 -0.000028 0.007295
# 5 -0.007294 -0.000023 0.015593 -0.000028 0.047457 -0.000066
# 6 -0.000021 0.000013 -0.000040 0.007295 -0.000066 0.055938
#
#
# Mechanical properties :
#
#
# Convention : Reuss Voigt Hill
#
# Bulk Modulus (GPa) = 54.46109 59.22159 56.84134
# Shear Modulus (GPa) = 23.81653 29.07044 26.44349
#
# Velocity S-wave (km/s) = 3.53413 3.90454 3.72394
# Velocity P-wave (km/s) = 6.72417 7.16832 6.94979
#
# Compressibility (1/GPa) = 0.01836173
#
# Stress axis : x y z
#
# Youngs Moduli (GPa) = 71.79478 77.70063 52.78424
#
# Poissons Ratio (x) = 0.28793 0.31838
# Poissons Ratio (y) = 0.26605 0.20869
# Poissons Ratio (z) = 0.43304 0.30719
#
# Static dielectric constant tensor:
#      x y z
#    x 3.019630 -0.000060 -0.256870 
#    y -0.000060 3.810030 0.000050 
#    z -0.256870 0.000050 3.572240 
# 
# 
# High freq. dielectric constant tensor:
#      x y z
#    x 1.687840 -0.000010 -0.025580 
#    y -0.000010 1.770430 0.000000 
#    z -0.025580 0.000000 1.740410 
# 
# From -- ./inp_files/246199.got.cif
#   From: 2010.06.25/outbox.cif.g09.slc.cpg/sg15_124_cif.got.tgz:246199.got - 2010.06.28 07:06:18.
