data_PCOD8141756
_publ_section_title
;
Structure prediction by ZEFSAII (Michael W. Deem and Ramdas Pophale) SiO2 
 PCOD8141756
Probable space group: C 2/C
;
_chemical_formula_sum "Si O2"
_cell_formula_units_Z 36
_cell_length_a 21.426150
_cell_length_b 15.443992
_cell_length_c 8.141732
_cell_angle_alpha 90.000000
_cell_angle_beta 139.027426
_cell_angle_gamma 90.000000
_cell_volume 1766.542816
_symmetry_space_group_name_H-M "C 2/C"
_symmetry_group_IT_number 15
_symmetry_cell_setting 'monoclinic'
loop_
_space_group_symop_operation_xyz
x,y,z
-x,y,1/2-z
-x,-y,-z
x,-y,1/2+z
1/2+x,1/2+y,z
1/2-x,1/2+y,1/2-z
1/2-x,1/2-y,-z
1/2+x,1/2-y,1/2+z
loop_
_atom_site_type_symbol
_atom_site_label
_atom_site_fract_x
_atom_site_fract_y
_atom_site_fract_z
Si Si1 0.471041 0.710041 0.509655
Si Si2 0.410082 0.416450 0.466138
Si Si3 0.106461 0.391904 0.210580
Si Si4 0.676462 0.578618 0.372213
Si Si5 0.500000 0.989283 0.750000
O O1 0.500000 0.736673 0.750000
O O2 0.556557 0.669367 0.567967
O O3 0.426957 0.793261 0.331530
O O4 0.387744 0.640601 0.365983
O O5 0.363288 0.482154 0.242847
O O6 0.331502 0.396176 0.450109
O O7 0.500000 0.454810 0.750000
O O8 0.216433 0.405948 0.472510
O O9 0.043533 0.449176 0.202527
O O10 0.084128 0.427171 0.983959
#
# Coordination Sequence:
#
# PCOD8141756 Si02
#       5
#     8   8   8   8   4
#     4  11  22  39  60  90 127 159 193 250 305 359
#     4  10  21  37  63  94 125 157 196 246 312 358
#     4  11  23  42  63  88 120 158 210 245 303 357
#     4  11  21  38  64  94 119 158 202 252 293 365
#     4  10  24  42  64  80 118 168 196 250 306 368
#
# _framework density 20.378786000000002
#
# number of rings (size 3 to 8) (size 9 to 14) (size 15 to 20)
#    0.000    1.333    1.111    6.667    4.667    0.000 
#    0.000    1.111    0.000    0.000    0.000    0.000 
#    0.000    0.000    0.000    0.000    0.000    0.000 
#
# Total GULP energy -223106.410682 kJ/mol
# GULP energy per Si atom -12394.800593 kJ/mol
# Density = 2.033240 g / cm^3
# Si number density = 20.378786 Si / 1000 Ang^3
#
#
#
# Elastic Constant Matrix: (Units=GPa)
#
#
# Indices 1 2 3 4 5 6 
#
# 1 76.6820 28.3469 29.8575 0.0000 5.2717 0.0000
# 2 28.3469 114.7264 24.8939 0.0000 11.1319 0.0000
# 3 29.8575 24.8939 59.9695 0.0000 7.8609 0.0000
# 4 0.0000 0.0000 0.0000 41.0127 0.0000 4.0483
# 5 5.2717 11.1319 7.8609 0.0000 32.0461 0.0000
# 6 0.0000 0.0000 0.0000 4.0483 0.0000 23.8386
#
#
#
# Elastic Compliance Matrix: (Units=1/GPa)
#
#
# Indices 1 2 3 4 5 6 
#
# 1 0.016841 -0.002567 -0.007308 0.000000 -0.000086 0.000000
# 2 -0.002567 0.010157 -0.002615 0.000000 -0.002465 0.000000
# 3 -0.007308 -0.002615 0.021824 0.000000 -0.003243 0.000000
# 4 0.000000 0.000000 0.000000 0.024798 0.000000 -0.004211
# 5 -0.000086 -0.002465 -0.003243 0.000000 0.032871 0.000000
# 6 0.000000 0.000000 0.000000 -0.004211 0.000000 0.042664
#
#
# Mechanical properties :
#
#
# Convention : Reuss Voigt Hill
#
# Bulk Modulus (GPa) = 41.94238 46.39715 44.16977
# Shear Modulus (GPa) = 27.45986 30.59813 29.02899
#
# Velocity S-wave (km/s) = 3.67478 3.87908 3.77831
# Velocity P-wave (km/s) = 6.21541 6.54827 6.38401
#
# Compressibility (1/GPa) = 0.02384223
#
# Stress axis : x y z
#
# Youngs Moduli (GPa) = 59.37798 98.45168 45.82046
#
# Poissons Ratio (x) = 0.25274 0.33486
# Poissons Ratio (y) = 0.15243 0.11983
# Poissons Ratio (z) = 0.43393 0.25747
#
# Static dielectric constant tensor:
#      x y z
#    x 3.762520 0.000000 -0.208130 
#    y 0.000000 3.688910 0.000000 
#    z -0.208130 0.000000 3.913860 
# 
# 
# High freq. dielectric constant tensor:
#      x y z
#    x 1.796600 0.000000 -0.007300 
#    y 0.000000 1.795570 0.000000 
#    z -0.007300 0.000000 1.791740 
# 
# From -- ./inp_files/37517.got.cif
#   From: 2010.06.25/outbox.cif.g09.slc.cpg/sg15_19_cif.got.tgz:37517.got - 2010.06.28 07:06:18.
