data_PCOD8141195
_publ_section_title
;
Structure prediction by ZEFSAII (Michael W. Deem and Ramdas Pophale) SiO2 
 PCOD8141195
Probable space group: C 2/C
;
_chemical_formula_sum "Si O2"
_cell_formula_units_Z 52
_cell_length_a 19.817950
_cell_length_b 12.458325
_cell_length_c 18.737300
_cell_angle_alpha 90.000000
_cell_angle_beta 35.476134
_cell_angle_gamma 90.000000
_cell_volume 2684.885104
_symmetry_space_group_name_H-M "C 2/C"
_symmetry_group_IT_number 15
_symmetry_cell_setting 'monoclinic'
loop_
_space_group_symop_operation_xyz
x,y,z
-x,y,1/2-z
-x,-y,-z
x,-y,1/2+z
1/2+x,1/2+y,z
1/2-x,1/2+y,1/2-z
1/2-x,1/2-y,-z
1/2+x,1/2-y,1/2+z
loop_
_atom_site_type_symbol
_atom_site_label
_atom_site_fract_x
_atom_site_fract_y
_atom_site_fract_z
Si Si1 0.720394 0.254016 0.255434
Si Si2 0.959560 0.525376 0.857882
Si Si3 0.608334 0.645653 0.276902
Si Si4 0.672459 0.026476 0.264920
Si Si5 0.000000 0.271476 0.250000
Si Si6 0.782163 0.540522 0.622872
Si Si7 0.587342 0.415064 0.458606
O O1 0.818186 0.216773 0.229197
O O2 0.673765 0.153719 0.250204
O O3 0.767399 0.334488 0.154161
O O4 0.612376 0.312462 0.386943
O O5 0.927774 0.649397 0.866051
O O6 0.000000 0.463837 0.750000
O O7 0.068390 0.531859 0.816190
O O8 0.852529 0.467250 0.988393
O O9 0.595495 0.702822 0.211307
O O10 0.663242 0.527576 0.217745
O O11 0.474964 0.629734 0.417312
O O12 0.650968 0.011434 0.367802
O O13 0.790508 0.973854 0.132807
O O14 0.500000 0.500000 0.500000
#
# Coordination Sequence:
#
# PCOD8141195 Si02
#       7
#     8   8   8   8   4   8   8
#     4  10  21  35  65  91 117 160 205 253 310 349
#     4  10  24  40  57  88 125 162 201 250 302 369
#     4  11  23  39  61  97 120 166 194 256 310 364
#     4  10  21  38  64  92 121 161 201 260 303 356
#     4  10  24  38  60  84 126 164 196 232 322 370
#     4  10  21  39  60  89 124 148 217 252 295 362
#     4  11  20  39  58  94 128 145 206 260 301 356
#
# _framework density 19.367681000000001
#
# number of rings (size 3 to 8) (size 9 to 14) (size 15 to 20)
#    0.462    1.231    4.615    2.308    6.462    1.846 
#    0.000    0.769    1.692    0.000    0.000    0.000 
#    0.000    0.000    0.000    0.000    0.000    0.000 
#
# Total GULP energy -322127.091318 kJ/mol
# GULP energy per Si atom -12389.503512 kJ/mol
# Density = 1.932360 g / cm^3
# Si number density = 19.367681 Si / 1000 Ang^3
#
#
#
# Elastic Constant Matrix: (Units=GPa)
#
#
# Indices 1 2 3 4 5 6 
#
# 1 68.5716 28.3742 22.9056 0.0000 13.3105 0.0000
# 2 28.3742 114.6303 29.9576 0.0000 9.3533 0.0000
# 3 22.9056 29.9576 129.1451 0.0000 17.0465 0.0000
# 4 0.0000 0.0000 0.0000 30.5101 0.0000 0.8384
# 5 13.3105 9.3533 17.0465 0.0000 23.3603 0.0000
# 6 0.0000 0.0000 0.0000 0.8384 0.0000 34.0067
#
#
#
# Elastic Compliance Matrix: (Units=1/GPa)
#
#
# Indices 1 2 3 4 5 6 
#
# 1 0.017995 -0.003459 -0.001349 0.000000 -0.007885 0.000000
# 2 -0.003459 0.010072 -0.001605 0.000000 -0.000891 0.000000
# 3 -0.001349 -0.001605 0.009039 0.000000 -0.005185 0.000000
# 4 0.000000 0.000000 0.000000 0.032798 0.000000 -0.000809
# 5 -0.007885 -0.000891 -0.005185 0.000000 0.051440 0.000000
# 6 0.000000 0.000000 0.000000 -0.000809 0.000000 0.029426
#
#
# Mechanical properties :
#
#
# Convention : Reuss Voigt Hill
#
# Bulk Modulus (GPa) = 41.18394 52.75795 46.97095
# Shear Modulus (GPa) = 29.12222 32.98273 31.05247
#
# Velocity S-wave (km/s) = 3.88190 4.13119 4.00848
# Velocity P-wave (km/s) = 6.43449 7.07496 6.76231
#
# Compressibility (1/GPa) = 0.02428131
#
# Stress axis : x y z
#
# Youngs Moduli (GPa) = 55.56968 99.28501 110.62911
#
# Poissons Ratio (x) = 0.34338 0.14921
# Poissons Ratio (y) = 0.19219 0.17761
# Poissons Ratio (z) = 0.07495 0.15939
#
# Static dielectric constant tensor:
#      x y z
#    x 3.363760 0.000000 0.156630 
#    y 0.000000 3.792880 0.000000 
#    z 0.156630 0.000000 4.357340 
# 
# 
# High freq. dielectric constant tensor:
#      x y z
#    x 1.727200 0.000000 0.001260 
#    y 0.000000 1.761220 0.000000 
#    z 0.001260 0.000000 1.750390 
# 
# From -- ./inp_files/252704.got.cif
#   From: 2010.06.25/outbox.cif.g09.slc.cpg/sg15_127_cif.got.tgz:252704.got - 2010.06.28 07:06:18.
