data_PCOD8141803
_publ_section_title
;
Structure prediction by ZEFSAII (Michael W. Deem and Ramdas Pophale) SiO2 
 PCOD8141803
Probable space group: C 2/C
;
_chemical_formula_sum "Si O2"
_cell_formula_units_Z 48
_cell_length_a 15.829354
_cell_length_b 29.635777
_cell_length_c 9.582027
_cell_angle_alpha 90.000000
_cell_angle_beta 33.313217
_cell_angle_gamma 90.000000
_cell_volume 2468.765107
_symmetry_space_group_name_H-M "C 2/C"
_symmetry_group_IT_number 15
_symmetry_cell_setting 'monoclinic'
loop_
_space_group_symop_operation_xyz
x,y,z
-x,y,1/2-z
-x,-y,-z
x,-y,1/2+z
1/2+x,1/2+y,z
1/2-x,1/2+y,1/2-z
1/2-x,1/2-y,-z
1/2+x,1/2-y,1/2+z
loop_
_atom_site_type_symbol
_atom_site_label
_atom_site_fract_x
_atom_site_fract_y
_atom_site_fract_z
Si Si1 0.825335 0.041735 0.140807
Si Si2 0.584938 0.118879 0.487204
Si Si3 0.176088 0.043539 0.679898
Si Si4 0.871889 0.624474 0.531455
Si Si5 0.177226 0.806490 0.469322
Si Si6 0.663289 0.207998 0.472346
O O1 0.721943 0.084324 0.317737
O O2 0.767036 0.998455 0.306514
O O3 0.808105 0.029616 0.002629
O O4 0.997024 0.054906 0.953707
O O5 0.465965 0.103823 0.532249
O O6 0.653637 0.169857 0.363175
O O7 0.500000 0.123381 0.750000
O O8 0.282467 0.085676 0.571055
O O9 0.744436 0.659823 0.759700
O O10 0.000000 0.645906 0.250000
O O11 0.253037 0.815580 0.513689
O O12 0.230649 0.756910 0.335355
O O13 0.000000 0.815582 0.750000
O O14 0.500000 0.224824 0.750000
#
# Coordination Sequence:
#
# PCOD8141803 Si02
#       6
#     8   8   8   8   8   8
#     4  10  23  44  62  89 122 158 206 250 307 372
#     4  11  22  39  63  90 123 165 205 251 304 373
#     4  10  24  42  64  87 123 161 200 256 306 368
#     4  12  24  41  60  95 134 160 201 261 316 360
#     4  10  21  37  65  92 121 164 216 253 296 368
#     4   9  18  38  62  89 121 160 213 254 295 356
#
# _framework density 19.442919
#
# number of rings (size 3 to 8) (size 9 to 14) (size 15 to 20)
#    0.000    1.667    5.000    0.000    4.667    1.333 
#    3.000    0.833    3.667    0.000    0.000    0.000 
#    0.000    0.000    0.000    0.000    0.000    0.000 
#
# Total GULP energy -297384.604959 kJ/mol
# GULP energy per Si atom -12391.025207 kJ/mol
# Density = 1.939867 g / cm^3
# Si number density = 19.442919 Si / 1000 Ang^3
#
#
#
# Elastic Constant Matrix: (Units=GPa)
#
#
# Indices 1 2 3 4 5 6 
#
# 1 103.6139 36.3057 28.6183 0.0000 -1.5129 0.0000
# 2 36.3057 126.4718 53.4513 0.0000 -1.4362 0.0000
# 3 28.6183 53.4513 95.5354 0.0000 -2.4246 0.0000
# 4 0.0000 0.0000 0.0000 22.7948 0.0000 -9.6655
# 5 -1.5129 -1.4362 -2.4246 0.0000 22.8358 0.0000
# 6 0.0000 0.0000 0.0000 -9.6655 0.0000 20.8880
#
#
#
# Elastic Compliance Matrix: (Units=1/GPa)
#
#
# Indices 1 2 3 4 5 6 
#
# 1 0.011019 -0.002315 -0.001996 0.000000 0.000373 0.000000
# 2 -0.002315 0.010842 -0.005374 0.000000 -0.000042 0.000000
# 3 -0.001996 -0.005374 0.014098 0.000000 0.001027 0.000000
# 4 0.000000 0.000000 0.000000 0.054578 0.000000 0.025255
# 5 0.000373 -0.000042 0.001027 0.000000 0.043922 0.000000
# 6 0.000000 0.000000 0.000000 0.025255 0.000000 0.059561
#
#
# Mechanical properties :
#
#
# Convention : Reuss Voigt Hill
#
# Bulk Modulus (GPa) = 60.28016 62.48576 61.38296
# Shear Modulus (GPa) = 22.83939 27.12009 24.97974
#
# Velocity S-wave (km/s) = 3.43109 3.73883 3.58826
# Velocity P-wave (km/s) = 6.83868 7.13066 6.98619
#
# Compressibility (1/GPa) = 0.01658921
#
# Stress axis : x y z
#
# Youngs Moduli (GPa) = 90.75020 92.23258 70.93335
#
# Poissons Ratio (x) = 0.21356 0.14158
# Poissons Ratio (y) = 0.21013 0.38116
# Poissons Ratio (z) = 0.18113 0.49562
#
# Static dielectric constant tensor:
#      x y z
#    x 3.661040 0.000000 -0.073700 
#    y 0.000000 3.630090 0.000000 
#    z -0.073700 0.000000 3.413710 
# 
# 
# High freq. dielectric constant tensor:
#      x y z
#    x 1.770380 0.000000 -0.016090 
#    y 0.000000 1.759350 0.000000 
#    z -0.016090 0.000000 1.739190 
# 
# From -- ./inp_files/43832.got.cif
#   From: 2010.06.25/outbox.cif.g09.slc.cpg/sg15_22_cif.got.tgz:43832.got - 2010.06.28 07:06:18.
