data_PCOD8141182
_publ_section_title
;
Structure prediction by ZEFSAII (Michael W. Deem and Ramdas Pophale) SiO2 
 PCOD8141182
Probable space group: C 2/C
;
_chemical_formula_sum "Si O2"
_cell_formula_units_Z 64
_cell_length_a 18.735642
_cell_length_b 21.465225
_cell_length_c 21.250353
_cell_angle_alpha 90.000000
_cell_angle_beta 20.485778
_cell_angle_gamma 90.000000
_cell_volume 2990.935399
_symmetry_space_group_name_H-M "C 2/C"
_symmetry_group_IT_number 15
_symmetry_cell_setting 'monoclinic'
loop_
_space_group_symop_operation_xyz
x,y,z
-x,y,1/2-z
-x,-y,-z
x,-y,1/2+z
1/2+x,1/2+y,z
1/2-x,1/2+y,1/2-z
1/2-x,1/2-y,-z
1/2+x,1/2-y,1/2+z
loop_
_atom_site_type_symbol
_atom_site_label
_atom_site_fract_x
_atom_site_fract_y
_atom_site_fract_z
Si Si1 0.955150 0.091843 0.436302
Si Si2 0.514930 0.312198 0.387778
Si Si3 0.574409 0.824784 0.520654
Si Si4 0.295729 0.017219 0.391593
Si Si5 0.303510 0.361418 0.450164
Si Si6 0.923798 0.322001 0.242216
Si Si7 0.164233 0.182147 0.169231
Si Si8 0.786132 0.090594 0.161921
O O1 0.756545 0.129802 0.624060
O O2 0.107451 0.135363 0.271691
O O3 0.076087 0.062844 0.395917
O O4 0.884430 0.033268 0.452071
O O5 0.522804 0.243223 0.409689
O O6 0.361686 0.310353 0.454621
O O7 0.430338 0.359785 0.508278
O O8 0.738135 0.334987 0.181574
O O9 0.634044 0.831959 0.544931
O O10 0.404283 0.875952 0.646868
O O11 0.500000 0.984217 0.250000
O O12 0.276534 0.076772 0.451298
O O13 0.298105 0.037690 0.315933
O O14 0.500000 0.382977 0.250000
O O15 0.838262 0.252418 0.302554
O O16 0.000000 0.330414 0.250000
O O17 0.110741 0.334950 0.040802
O O18 0.000000 0.174917 0.250000
#
# Coordination Sequence:
#
# PCOD8141182 Si02
#       8
#     8   8   8   8   8   8   8   8
#     4  12  26  41  65 100 129 169 217 262 328 388
#     4  10  21  35  62  95 129 169 213 256 320 394
#     4  11  19  38  61  95 129 169 211 260 322 387
#     4  11  23  45  69  87 121 175 224 268 319 377
#     4   9  20  37  63  92 124 161 216 279 316 360
#     4  11  20  42  67  98 132 167 208 262 324 386
#     4  11  21  40  69  98 133 164 207 268 321 384
#     4  11  25  43  61  91 137 171 209 273 320 384
#
# _framework density 21.397987000000001
#
# number of rings (size 3 to 8) (size 9 to 14) (size 15 to 20)
#    0.000    1.250    5.000    1.875    0.000    2.500 
#    0.000    0.000    0.000    4.500    0.000    0.000 
#    0.000    0.000    0.000    0.000    0.000    0.000 
#
# Total GULP energy -396787.662830 kJ/mol
# GULP energy per Si atom -12399.614463 kJ/mol
# Density = 2.134928 g / cm^3
# Si number density = 21.397987 Si / 1000 Ang^3
#
#
#
# Elastic Constant Matrix: (Units=GPa)
#
#
# Indices 1 2 3 4 5 6 
#
# 1 86.4450 16.9926 27.0975 -0.2878 -18.0991 0.0998
# 2 16.9926 66.9511 25.3513 0.3189 -5.5215 0.3276
# 3 27.0975 25.3513 129.0111 -1.8261 2.6224 0.0146
# 4 -0.2878 0.3189 -1.8261 -11.4053 0.0554 -10.6812
# 5 -18.0991 -5.5215 2.6224 0.0554 26.2189 -0.1290
# 6 0.0998 0.3276 0.0146 -10.6812 -0.1290 19.3092
#
#
#
# Elastic Compliance Matrix: (Units=1/GPa)
#
#
# Indices 1 2 3 4 5 6 
#
# 1 0.015023 -0.001827 -0.003005 0.000051 0.010286 0.000053
# 2 -0.001827 0.016720 -0.002942 0.000814 0.002553 0.000195
# 3 -0.003005 -0.002942 0.009020 -0.000988 -0.003596 -0.000512
# 4 0.000051 0.000814 -0.000988 -0.057631 0.000271 -0.031891
# 5 0.010286 0.002553 -0.003596 0.000271 0.046140 0.000364
# 6 0.000053 0.000195 -0.000512 -0.031891 0.000364 0.034147
#
#
# Mechanical properties :
#
#
# Convention : Reuss Voigt Hill
#
# Bulk Modulus (GPa) = 39.66033 46.80999 43.23516
# Shear Modulus (GPa) = 57.22714 21.02227 39.12470
#
# Velocity S-wave (km/s) = 5.17709 3.13779 4.28065
# Velocity P-wave (km/s) = 7.36961 5.92039 6.68439
#
# Compressibility (1/GPa) = 0.02521411
#
# Stress axis : x y z
#
# Youngs Moduli (GPa) = 66.56507 59.80921 110.86856
#
# Poissons Ratio (x) = 0.10929 0.33313
# Poissons Ratio (y) = 0.12164 0.32619
# Poissons Ratio (z) = 0.20001 0.17597
#
# Static dielectric constant tensor:
#      x y z
#    x 3.835550 -0.000300 -0.072470 
#    y -0.000300 3.725420 0.001300 
#    z -0.072470 0.001300 3.992130 
# 
# 
# High freq. dielectric constant tensor:
#      x y z
#    x 1.831250 -0.000030 -0.007010 
#    y -0.000030 1.829340 0.000120 
#    z -0.007010 0.000120 1.846100 
# 
# From -- ./inp_files/250259.got.cif
#   From: 2010.06.25/outbox.cif.g09.slc.cpg/sg15_126_cif.got.tgz:250259.got - 2010.06.28 07:06:18.
