data_PCOD8141412
_publ_section_title
;
Structure prediction by ZEFSAII (Michael W. Deem and Ramdas Pophale) SiO2 
 PCOD8141412
Probable space group: C 2/C
;
_chemical_formula_sum "Si O2"
_cell_formula_units_Z 64
_cell_length_a 27.923590
_cell_length_b 15.611550
_cell_length_c 24.308026
_cell_angle_alpha 90.000000
_cell_angle_beta 15.770113
_cell_angle_gamma 90.000000
_cell_volume 2879.928684
_symmetry_space_group_name_H-M "C 2/C"
_symmetry_group_IT_number 15
_symmetry_cell_setting 'monoclinic'
loop_
_space_group_symop_operation_xyz
x,y,z
-x,y,1/2-z
-x,-y,-z
x,-y,1/2+z
1/2+x,1/2+y,z
1/2-x,1/2+y,1/2-z
1/2-x,1/2-y,-z
1/2+x,1/2-y,1/2+z
loop_
_atom_site_type_symbol
_atom_site_label
_atom_site_fract_x
_atom_site_fract_y
_atom_site_fract_z
Si Si1 0.244419 0.920751 0.138821
Si Si2 0.932950 0.708029 0.023298
Si Si3 0.303669 0.670266 0.308734
Si Si4 0.977980 0.571372 0.835490
Si Si5 0.795054 0.654563 0.468731
Si Si6 0.195886 0.366783 0.311254
Si Si7 0.670947 0.499943 0.529171
Si Si8 0.074258 0.977943 0.514007
O O1 0.341100 0.875548 0.082935
O O2 0.050783 0.949660 0.374696
O O3 0.212853 0.861807 0.120056
O O4 0.359803 0.003362 0.998038
O O5 0.104596 0.735844 0.795690
O O6 0.007386 0.654736 0.992419
O O7 0.792053 0.652052 0.144940
O O8 0.842739 0.793840 0.144548
O O9 0.455626 0.605139 0.157796
O O10 0.134118 0.661065 0.537736
O O11 0.176070 0.572867 0.640262
O O12 0.000000 0.538246 0.750000
O O13 0.750000 0.750000 0.500000
O O14 0.726393 0.588300 0.498353
O O15 0.000000 0.642011 0.250000
O O16 0.267580 0.453351 0.202175
O O17 0.500000 0.462957 0.750000
O O18 0.637381 0.517175 0.502212
#
# Coordination Sequence:
#
# PCOD8141412 Si02
#       8
#     8   8   8   8   8   8   8   8
#     4  11  21  41  61  88 130 162 216 255 309 371
#     4   9  19  40  60  89 126 164 207 248 313 380
#     4   9  19  37  65  88 124 164 201 260 315 364
#     4  11  20  39  61  88 119 160 206 264 308 357
#     4  12  25  43  65  90 129 171 208 262 312 372
#     4  10  21  38  62  90 125 168 206 257 313 371
#     4  12  20  39  64  91 122 161 211 256 314 371
#     4  10  21  36  62  95 122 165 209 262 307 365
#
# _framework density 22.222771999999999
#
# number of rings (size 3 to 8) (size 9 to 14) (size 15 to 20)
#    0.000    1.500    3.750    2.250    0.000    1.000 
#    0.000    8.750    0.000    5.250    0.000    0.000 
#    0.000    0.000    0.000    0.000    0.000    0.000 
#
# Total GULP energy -396448.362675 kJ/mol
# GULP energy per Si atom -12389.011334 kJ/mol
# Density = 2.217219 g / cm^3
# Si number density = 22.222772 Si / 1000 Ang^3
#
#
#
# Elastic Constant Matrix: (Units=GPa)
#
#
# Indices 1 2 3 4 5 6 
#
# 1 146.0343 41.9703 29.4559 0.0574 -4.3044 0.0066
# 2 41.9703 41.3591 2.8166 -0.0398 6.0559 -0.0166
# 3 29.4559 2.8166 53.6945 0.1106 -6.4382 -0.0963
# 4 0.0574 -0.0398 0.1106 22.9758 -0.0684 -2.1263
# 5 -4.3044 6.0559 -6.4382 -0.0684 37.1388 0.0365
# 6 0.0066 -0.0166 -0.0963 -2.1263 0.0365 30.5115
#
#
#
# Elastic Compliance Matrix: (Units=1/GPa)
#
#
# Indices 1 2 3 4 5 6 
#
# 1 0.011259 -0.011392 -0.005310 -0.000018 0.002242 -0.000029
# 2 -0.011392 0.036472 0.003538 0.000059 -0.006654 0.000046
# 3 -0.005310 0.003538 0.021659 -0.000071 0.002562 0.000063
# 4 -0.000018 0.000059 -0.000071 0.043807 0.000054 0.003053
# 5 0.002242 -0.006654 0.002562 0.000054 0.028715 -0.000027
# 6 -0.000029 0.000046 0.000063 0.003053 -0.000027 0.032988
#
#
# Mechanical properties :
#
#
# Convention : Reuss Voigt Hill
#
# Bulk Modulus (GPa) = 23.22204 43.28595 33.25399
# Shear Modulus (GPa) = 23.19309 29.24822 26.22065
#
# Velocity S-wave (km/s) = 3.23408 3.63180 3.43869
# Velocity P-wave (km/s) = 4.94146 6.09156 5.54640
#
# Compressibility (1/GPa) = 0.04306254
#
# Stress axis : x y z
#
# Youngs Moduli (GPa) = 88.81834 27.41809 46.17071
#
# Poissons Ratio (x) = 0.31235 0.24517
# Poissons Ratio (y) = 1.01182 -0.16337
# Poissons Ratio (z) = 0.47163 -0.09702
#
# Static dielectric constant tensor:
#      x y z
#    x 4.158410 -0.002050 -0.314970 
#    y -0.002050 4.148310 0.003950 
#    z -0.314970 0.003950 4.510010 
# 
# 
# High freq. dielectric constant tensor:
#      x y z
#    x 1.879980 -0.000020 -0.019390 
#    y -0.000020 1.844090 0.000040 
#    z -0.019390 0.000040 1.880250 
# 
# From -- ./inp_files/255993.got.cif
#   From: 2010.06.25/outbox.cif.g09.slc.cpg/sg15_128_cif.got.tgz:255993.got - 2010.06.28 07:06:18.
