data_PCOD8141752
_publ_section_title
;
Structure prediction by ZEFSAII (Michael W. Deem and Ramdas Pophale) SiO2 
 PCOD8141752
Probable space group: C 2/C
;
_chemical_formula_sum "Si O2"
_cell_formula_units_Z 64
_cell_length_a 28.390665
_cell_length_b 8.082998
_cell_length_c 13.193674
_cell_angle_alpha 90.000000
_cell_angle_beta 97.912945
_cell_angle_gamma 90.000000
_cell_volume 2998.877929
_symmetry_space_group_name_H-M "C 2/C"
_symmetry_group_IT_number 15
_symmetry_cell_setting 'monoclinic'
loop_
_space_group_symop_operation_xyz
x,y,z
-x,y,1/2-z
-x,-y,-z
x,-y,1/2+z
1/2+x,1/2+y,z
1/2-x,1/2+y,1/2-z
1/2-x,1/2-y,-z
1/2+x,1/2-y,1/2+z
loop_
_atom_site_type_symbol
_atom_site_label
_atom_site_fract_x
_atom_site_fract_y
_atom_site_fract_z
Si Si1 0.798668 0.276603 0.788828
Si Si2 0.468834 0.931638 0.641942
Si Si3 0.152680 0.998997 0.985871
Si Si4 0.068967 0.007809 0.602468
Si Si5 0.199734 0.663623 0.998324
Si Si6 0.107743 0.796747 0.295816
Si Si7 0.508044 0.745689 0.459361
Si Si8 0.743432 0.538645 0.116490
O O1 0.849820 0.282870 0.753765
O O2 0.756334 0.319314 0.699175
O O3 0.785368 0.100034 0.830110
O O4 0.803388 0.402924 0.886361
O O5 0.500000 0.908945 0.750000
O O6 0.417415 0.854359 0.652160
O O7 0.491058 0.831882 0.556486
O O8 0.466894 0.124801 0.609793
O O9 0.158775 0.800709 0.966111
O O10 0.127873 0.070986 0.880154
O O11 0.204224 0.090560 0.019697
O O12 0.121555 0.035644 0.077570
O O13 0.036650 0.843876 0.609533
O O14 0.071647 0.107908 0.709033
O O15 0.047056 0.111933 0.502658
O O16 0.205072 0.514985 0.918233
O O17 0.250000 0.750000 0.000000
#
# Coordination Sequence:
#
# PCOD8141752 Si02
#       8
#     8   8   8   8   8   8   8   8
#     4  10  22  39  61  90 124 168 214 264 315 377
#     4  11  23  44  64  94 131 167 199 265 332 391
#     4  10  21  37  63  92 124 166 218 266 312 375
#     4  11  21  42  68  99 121 168 219 274 311 396
#     4   8  18  37  59  82 126 164 208 264 322 360
#     4  12  23  39  67  95 130 166 221 263 321 388
#     4  10  24  42  68  94 130 162 211 266 334 384
#     4  10  22  39  62  90 128 171 216 265 322 378
#
# _framework density 21.341317
#
# number of rings (size 3 to 8) (size 9 to 14) (size 15 to 20)
#    0.000    2.000    5.000    0.000    5.250    2.500 
#    0.000    1.250    0.000    0.000    0.000    0.000 
#    0.000    0.000    0.000    0.000    0.000    0.000 
#
# Total GULP energy -396514.098470 kJ/mol
# GULP energy per Si atom -12391.065577 kJ/mol
# Density = 2.129274 g / cm^3
# Si number density = 21.341317 Si / 1000 Ang^3
#
#
#
# Elastic Constant Matrix: (Units=GPa)
#
#
# Indices 1 2 3 4 5 6 
#
# 1 87.8337 39.0042 59.3418 0.0000 0.3873 0.0000
# 2 39.0042 69.1095 43.4467 0.0000 4.4734 0.0000
# 3 59.3418 43.4467 98.7534 0.0000 -3.1320 0.0000
# 4 0.0000 0.0000 0.0000 31.3246 0.0000 9.1582
# 5 0.3873 4.4734 -3.1320 0.0000 36.1580 0.0000
# 6 0.0000 0.0000 0.0000 9.1582 0.0000 39.8866
#
#
#
# Elastic Compliance Matrix: (Units=1/GPa)
#
#
# Indices 1 2 3 4 5 6 
#
# 1 0.020479 -0.005231 -0.010018 0.000000 -0.000440 0.000000
# 2 -0.005231 0.021725 -0.006516 0.000000 -0.003196 0.000000
# 3 -0.010018 -0.006516 0.019094 0.000000 0.002567 0.000000
# 4 0.000000 0.000000 0.000000 0.034221 0.000000 -0.007857
# 5 -0.000440 -0.003196 0.002567 0.000000 0.028279 0.000000
# 6 0.000000 0.000000 0.000000 -0.007857 0.000000 0.026875
#
#
# Mechanical properties :
#
#
# Convention : Reuss Voigt Hill
#
# Bulk Modulus (GPa) = 56.28238 59.92023 58.10131
# Shear Modulus (GPa) = 24.98413 29.06743 27.02578
#
# Velocity S-wave (km/s) = 3.42525 3.69457 3.56246
# Velocity P-wave (km/s) = 6.48636 6.80719 6.64871
#
# Compressibility (1/GPa) = 0.01776755
#
# Stress axis : x y z
#
# Youngs Moduli (GPa) = 48.83155 46.02896 52.37114
#
# Poissons Ratio (x) = 0.24078 0.52467
# Poissons Ratio (y) = 0.25544 0.34125
# Poissons Ratio (z) = 0.48921 0.29993
#
# Static dielectric constant tensor:
#      x y z
#    x 4.071000 0.000000 -0.451660 
#    y 0.000000 4.143430 0.000000 
#    z -0.451660 0.000000 5.223410 
# 
# 
# High freq. dielectric constant tensor:
#      x y z
#    x 1.837920 0.000000 -0.007820 
#    y 0.000000 1.811370 0.000000 
#    z -0.007820 0.000000 1.847960 
# 
# From -- ./inp_files/176601.got.cif
#   From: 2010.06.25/outbox.cif.g09.slc.cpg/sg15_89_cif.got.tgz:176601.got - 2010.06.28 07:06:18.
