data_PCOD8141312
_publ_section_title
;
Structure prediction by ZEFSAII (Michael W. Deem and Ramdas Pophale) SiO2 
 PCOD8141312
Probable space group: C 2/C
;
_chemical_formula_sum "Si O2"
_cell_formula_units_Z 40
_cell_length_a 9.735993
_cell_length_b 18.595248
_cell_length_c 13.212355
_cell_angle_alpha 90.000000
_cell_angle_beta 50.397284
_cell_angle_gamma 90.000000
_cell_volume 1843.000858
_symmetry_space_group_name_H-M "C 2/C"
_symmetry_group_IT_number 15
_symmetry_cell_setting 'monoclinic'
loop_
_space_group_symop_operation_xyz
x,y,z
-x,y,1/2-z
-x,-y,-z
x,-y,1/2+z
1/2+x,1/2+y,z
1/2-x,1/2+y,1/2-z
1/2-x,1/2-y,-z
1/2+x,1/2-y,1/2+z
loop_
_atom_site_type_symbol
_atom_site_label
_atom_site_fract_x
_atom_site_fract_y
_atom_site_fract_z
Si Si1 0.296179 0.417183 0.379493
Si Si2 0.299750 0.434597 0.809093
Si Si3 0.692583 0.726600 0.709844
Si Si4 0.212394 0.379925 0.642117
Si Si5 0.709994 0.279997 0.629115
O O1 0.500000 0.419825 0.250000
O O2 0.199724 0.491682 0.390573
O O3 0.202894 0.346501 0.372359
O O4 0.282498 0.412453 0.505973
O O5 0.500000 0.441315 0.750000
O O6 0.291880 0.430589 0.691580
O O7 0.215594 0.362098 0.897457
O O8 0.500000 0.720460 0.750000
O O9 0.787682 0.798325 0.621172
O O10 0.688101 0.731914 0.834347
O O11 0.000000 0.378817 0.750000
O O12 0.500000 0.277872 0.750000
O O13 0.750000 0.250000 0.500000
#
# Coordination Sequence:
#
# PCOD8141312 Si02
#       5
#     8   8   8   8   8
#     4  10  21  36  59  84 108 146 193 228 267 331
#     4   9  21  38  57  81 113 148 183 226 278 330
#     4   9  20  37  60  84 110 147 192 231 273 330
#     4  10  21  37  56  82 115 144 179 234 284 321
#     4  10  22  39  59  84 115 148 184 230 281 331
#
# _framework density 21.703734000000001
#
# number of rings (size 3 to 8) (size 9 to 14) (size 15 to 20)
#    0.000    2.400    0.000    0.600    0.000   20.000 
#    0.000    2.000    0.000    0.000    0.000    0.000 
#    0.000    0.000    0.000    0.000    0.000    0.000 
#
# Total GULP energy -247833.961484 kJ/mol
# GULP energy per Si atom -12391.698074 kJ/mol
# Density = 2.165434 g / cm^3
# Si number density = 21.703734 Si / 1000 Ang^3
#
#
#
# Elastic Constant Matrix: (Units=GPa)
#
#
# Indices 1 2 3 4 5 6 
#
# 1 83.1907 42.3267 47.0418 0.0000 30.8349 0.0000
# 2 42.3267 204.5781 97.3023 0.0000 51.3230 0.0000
# 3 47.0418 97.3023 180.9950 0.0000 44.3111 0.0000
# 4 0.0000 0.0000 0.0000 29.6417 0.0000 15.1780
# 5 30.8349 51.3230 44.3111 0.0000 51.3380 0.0000
# 6 0.0000 0.0000 0.0000 15.1780 0.0000 18.3133
#
#
#
# Elastic Compliance Matrix: (Units=1/GPa)
#
#
# Indices 1 2 3 4 5 6 
#
# 1 0.016225 -0.000476 -0.002145 0.000000 -0.007418 0.000000
# 2 -0.000476 0.007500 -0.002717 0.000000 -0.004867 0.000000
# 3 -0.002145 -0.002717 0.008321 0.000000 -0.003178 0.000000
# 4 0.000000 0.000000 0.000000 0.058609 0.000000 -0.048575
# 5 -0.007418 -0.004867 -0.003178 0.000000 0.031543 0.000000
# 6 0.000000 0.000000 0.000000 -0.048575 0.000000 0.094864
#
#
# Mechanical properties :
#
#
# Convention : Reuss Voigt Hill
#
# Bulk Modulus (GPa) = 46.79266 93.56728 70.17997
# Shear Modulus (GPa) = 21.28931 38.66481 29.97706
#
# Velocity S-wave (km/s) = 3.13534 4.22534 3.72047
# Velocity P-wave (km/s) = 5.89183 8.18593 7.13173
#
# Compressibility (1/GPa) = 0.02137088
#
# Stress axis : x y z
#
# Youngs Moduli (GPa) = 61.63253 133.34074 120.17801
#
# Poissons Ratio (x) = 0.06342 0.25781
# Poissons Ratio (y) = 0.02931 0.32648
# Poissons Ratio (z) = 0.13222 0.36223
#
# Static dielectric constant tensor:
#      x y z
#    x 3.834170 0.000000 0.271070 
#    y 0.000000 5.590630 0.000000 
#    z 0.271070 0.000000 3.548050 
# 
# 
# High freq. dielectric constant tensor:
#      x y z
#    x 1.840390 0.000000 0.023060 
#    y 0.000000 1.873830 0.000000 
#    z 0.023060 0.000000 1.836470 
# 
# From -- ./inp_files/77634.got.cif
#   From: 2010.06.25/outbox.cif.g09.slc.cpg/sg15_39_cif.got.tgz:77634.got - 2010.06.28 07:06:18.
