data_PCOD8141675
_publ_section_title
;
Structure prediction by ZEFSAII (Michael W. Deem and Ramdas Pophale) SiO2 
 PCOD8141675
Probable space group: C 2/C
;
_chemical_formula_sum "Si O2"
_cell_formula_units_Z 56
_cell_length_a 19.502094
_cell_length_b 20.846119
_cell_length_c 16.315001
_cell_angle_alpha 90.000000
_cell_angle_beta 22.543941
_cell_angle_gamma 90.000000
_cell_volume 2542.941955
_symmetry_space_group_name_H-M "C 2/C"
_symmetry_group_IT_number 15
_symmetry_cell_setting 'monoclinic'
loop_
_space_group_symop_operation_xyz
x,y,z
-x,y,1/2-z
-x,-y,-z
x,-y,1/2+z
1/2+x,1/2+y,z
1/2-x,1/2+y,1/2-z
1/2-x,1/2-y,-z
1/2+x,1/2-y,1/2+z
loop_
_atom_site_type_symbol
_atom_site_label
_atom_site_fract_x
_atom_site_fract_y
_atom_site_fract_z
Si Si1 0.738349 0.075428 0.093564
Si Si2 0.439744 0.325932 0.079142
Si Si3 0.378280 0.294681 0.960640
Si Si4 0.936909 0.524732 0.910346
Si Si5 0.877515 0.938901 0.262900
Si Si6 0.184947 0.305688 0.757157
Si Si7 0.992689 0.666265 0.893831
O O1 0.687027 0.147588 0.177142
O O2 0.576505 0.026952 0.294365
O O3 0.771852 0.085143 0.960246
O O4 0.915106 0.047686 0.943976
O O5 0.359511 0.390169 0.207296
O O6 0.327226 0.269695 0.250592
O O7 0.430349 0.326416 0.990640
O O8 0.647092 0.320470 0.871117
O O9 0.500000 0.316337 0.750000
O O10 0.367518 0.217014 0.982385
O O11 0.188454 0.321817 0.142402
O O12 0.000000 0.538912 0.750000
O O13 0.934232 0.592854 0.956684
O O14 0.730524 0.502035 0.145964
O O15 0.008936 0.317427 0.007498
#
# Coordination Sequence:
#
# PCOD8141675 Si02
#       7
#     8   8   8   8   8   8   8
#     4   9  20  40  60  93 127 168 208 253 305 363
#     4  10  21  38  61  91 122 167 204 260 317 357
#     4  11  23  41  63  89 123 157 206 263 312 375
#     4  10  22  40  64  91 125 167 208 254 310 374
#     4   9  20  41  63  88 133 165 207 257 301 372
#     4  10  21  37  61  90 127 159 211 258 305 373
#     4  11  23  41  62  92 120 162 205 257 318 373
#
# _framework density 22.021737999999999
#
# number of rings (size 3 to 8) (size 9 to 14) (size 15 to 20)
#    0.000    2.000    0.000    4.286    4.000    2.286 
#   10.286    1.429    0.000    0.000    0.000    0.000 
#    0.000    0.000    0.000    0.000    0.000    0.000 
#
# Total GULP energy -347003.397314 kJ/mol
# GULP energy per Si atom -12392.978475 kJ/mol
# Density = 2.197162 g / cm^3
# Si number density = 22.021738 Si / 1000 Ang^3
#
#
#
# Elastic Constant Matrix: (Units=GPa)
#
#
# Indices 1 2 3 4 5 6 
#
# 1 81.6698 51.9250 21.1102 -0.0598 6.3428 0.0219
# 2 51.9250 98.8495 27.0077 0.1325 5.5160 -0.1984
# 3 21.1102 27.0077 81.7496 0.2542 6.3619 -0.2594
# 4 -0.0598 0.1325 0.2542 28.6715 -0.0419 -11.4419
# 5 6.3428 5.5160 6.3619 -0.0419 20.4678 0.0070
# 6 0.0219 -0.1984 -0.2594 -11.4419 0.0070 13.4528
#
#
#
# Elastic Compliance Matrix: (Units=1/GPa)
#
#
# Indices 1 2 3 4 5 6 
#
# 1 0.018763 -0.009272 -0.001562 0.000020 -0.002830 -0.000179
# 2 -0.009272 0.015774 -0.002777 0.000014 -0.000515 0.000206
# 3 -0.001562 -0.002777 0.013792 -0.000039 -0.003054 0.000196
# 4 0.000020 0.000014 -0.000039 0.052799 0.000095 0.044906
# 5 -0.002830 -0.000515 -0.003054 0.000095 0.050823 -0.000008
# 6 -0.000179 0.000206 0.000196 0.044906 -0.000008 0.112535
#
#
# Mechanical properties :
#
#
# Convention : Reuss Voigt Hill
#
# Bulk Modulus (GPa) = 47.37574 51.37274 49.37424
# Shear Modulus (GPa) = 16.73681 23.33349 20.03515
#
# Velocity S-wave (km/s) = 2.75982 3.25863 3.01954
# Velocity P-wave (km/s) = 5.63164 6.12675 5.88440
#
# Compressibility (1/GPa) = 0.02110785
#
# Stress axis : x y z
#
# Youngs Moduli (GPa) = 53.29640 63.39363 72.50747
#
# Poissons Ratio (x) = 0.58776 0.11329
# Poissons Ratio (y) = 0.49415 0.20132
# Poissons Ratio (z) = 0.08327 0.17601
#
# Static dielectric constant tensor:
#      x y z
#    x 3.875840 -0.000140 -0.033460 
#    y -0.000140 3.965990 0.000330 
#    z -0.033460 0.000330 4.176830 
# 
# 
# High freq. dielectric constant tensor:
#      x y z
#    x 1.856680 -0.000020 -0.001000 
#    y -0.000020 1.857090 0.000030 
#    z -0.001000 0.000030 1.877850 
# 
# From -- ./inp_files/216629.got.cif
#   From: 2010.06.25/outbox.cif.g09.slc.cpg/sg15_109_cif.got.tgz:216629.got - 2010.06.28 07:06:18.
