data_PCOD8141735
_publ_section_title
;
Structure prediction by ZEFSAII (Michael W. Deem and Ramdas Pophale) SiO2 
 PCOD8141735
Probable space group: C 2/C
;
_chemical_formula_sum "Si O2"
_cell_formula_units_Z 40
_cell_length_a 23.199233
_cell_length_b 8.933524
_cell_length_c 20.455873
_cell_angle_alpha 90.000000
_cell_angle_beta 26.427175
_cell_angle_gamma 90.000000
_cell_volume 1886.830890
_symmetry_space_group_name_H-M "C 2/C"
_symmetry_group_IT_number 15
_symmetry_cell_setting 'monoclinic'
loop_
_space_group_symop_operation_xyz
x,y,z
-x,y,1/2-z
-x,-y,-z
x,-y,1/2+z
1/2+x,1/2+y,z
1/2-x,1/2+y,1/2-z
1/2-x,1/2-y,-z
1/2+x,1/2-y,1/2+z
loop_
_atom_site_type_symbol
_atom_site_label
_atom_site_fract_x
_atom_site_fract_y
_atom_site_fract_z
Si Si1 0.927889 0.626151 0.254170
Si Si2 0.677788 0.558244 0.021609
Si Si3 0.496938 0.088273 0.569734
Si Si4 0.740063 0.709021 0.155643
Si Si5 0.081214 0.970750 0.258456
O O1 0.785135 0.567995 0.409316
O O2 0.000000 0.623964 0.250000
O O3 0.004344 0.525387 0.123886
O O4 0.907213 0.793609 0.249874
O O5 0.730481 0.721816 0.946741
O O6 0.620452 0.552781 0.151604
O O7 0.568652 0.514024 0.078663
O O8 0.363153 0.181711 0.704516
O O9 0.624711 0.193611 0.442615
O O10 0.500000 0.000000 0.500000
O O11 0.674039 0.545251 0.218241
#
# Coordination Sequence:
#
# PCOD8141735 Si02
#       5
#     8   8   8   8   8
#     4  11  23  40  67  99 135 171 220 273 332 389
#     4  10  21  37  62  98 137 168 220 265 333 388
#     4  11  27  48  69  97 132 177 223 271 331 395
#     4  11  23  46  67  93 132 178 225 268 330 394
#     4  11  21  36  66 102 136 172 217 272 333 387
#
# _framework density 21.199567999999999
#
# number of rings (size 3 to 8) (size 9 to 14) (size 15 to 20)
#    0.000    1.200    4.000    2.400    2.800    3.200 
#    3.600    2.000    0.000    0.000    0.000    0.000 
#    0.000    0.000    0.000    0.000    0.000    0.000 
#
# Total GULP energy -247902.211354 kJ/mol
# GULP energy per Si atom -12395.110568 kJ/mol
# Density = 2.115132 g / cm^3
# Si number density = 21.199568 Si / 1000 Ang^3
#
#
#
# Elastic Constant Matrix: (Units=GPa)
#
#
# Indices 1 2 3 4 5 6 
#
# 1 59.7736 47.6372 42.4663 -0.0001 -1.4269 0.0000
# 2 47.6372 141.4368 53.0932 0.0001 -9.8973 -0.0002
# 3 42.4663 53.0932 105.7570 0.0001 -21.4268 0.0000
# 4 -0.0001 0.0001 0.0001 8.9037 -0.0001 -4.6096
# 5 -1.4269 -9.8973 -21.4268 -0.0001 36.7086 0.0001
# 6 0.0000 -0.0002 0.0000 -4.6096 0.0001 35.0337
#
#
#
# Elastic Compliance Matrix: (Units=1/GPa)
#
#
# Indices 1 2 3 4 5 6 
#
# 1 0.028424 -0.006471 -0.009407 0.000000 -0.006131 0.000000
# 2 -0.006471 0.010187 -0.002280 0.000000 0.001164 0.000000
# 3 -0.009407 -0.002280 0.016081 0.000000 0.008406 0.000000
# 4 0.000000 0.000000 0.000000 0.120523 0.000000 0.015858
# 5 -0.006131 0.001164 0.008406 0.000000 0.032224 0.000000
# 6 0.000000 0.000000 0.000000 0.015858 0.000000 0.030630
#
#
# Mechanical properties :
#
#
# Convention : Reuss Voigt Hill
#
# Bulk Modulus (GPa) = 54.41971 65.92897 60.17434
# Shear Modulus (GPa) = 17.82468 27.04724 22.43596
#
# Velocity S-wave (km/s) = 2.90281 3.57576 3.25671
# Velocity P-wave (km/s) = 6.07955 6.94369 6.52594
#
# Compressibility (1/GPa) = 0.01837570
#
# Stress axis : x y z
#
# Youngs Moduli (GPa) = 35.18167 98.16271 62.18683
#
# Poissons Ratio (x) = 0.63523 0.58498
# Poissons Ratio (y) = 0.22767 0.14178
# Poissons Ratio (z) = 0.33095 0.22380
#
# Static dielectric constant tensor:
#      x y z
#    x 3.642580 0.000000 -0.369950 
#    y 0.000000 3.916970 0.000000 
#    z -0.369950 0.000000 4.218280 
# 
# 
# High freq. dielectric constant tensor:
#      x y z
#    x 1.805190 0.000000 -0.030730 
#    y 0.000000 1.840610 0.000000 
#    z -0.030730 0.000000 1.843760 
# 
# From -- ./inp_files/116158.got.cif
#   From: 2010.06.25/outbox.cif.g09.slc.cpg/sg15_59_cif.got.tgz:116158.got - 2010.06.28 07:06:18.
