data_PCOD8141750
_publ_section_title
;
Structure prediction by ZEFSAII (Michael W. Deem and Ramdas Pophale) SiO2 
 PCOD8141750
Probable space group: C 2/C
;
_chemical_formula_sum "Si O2"
_cell_formula_units_Z 48
_cell_length_a 12.093975
_cell_length_b 13.813489
_cell_length_c 24.060697
_cell_angle_alpha 90.000000
_cell_angle_beta 147.218849
_cell_angle_gamma 90.000000
_cell_volume 2176.327747
_symmetry_space_group_name_H-M "C 2/C"
_symmetry_group_IT_number 15
_symmetry_cell_setting 'monoclinic'
loop_
_space_group_symop_operation_xyz
x,y,z
-x,y,1/2-z
-x,-y,-z
x,-y,1/2+z
1/2+x,1/2+y,z
1/2-x,1/2+y,1/2-z
1/2-x,1/2-y,-z
1/2+x,1/2-y,1/2+z
loop_
_atom_site_type_symbol
_atom_site_label
_atom_site_fract_x
_atom_site_fract_y
_atom_site_fract_z
Si Si1 0.848362 0.934479 0.354176
Si Si2 0.601386 0.341715 0.848299
Si Si3 0.524148 0.853985 0.362356
Si Si4 0.938214 0.662974 0.945629
Si Si5 0.420567 0.564481 0.656030
Si Si6 0.009184 0.874112 0.967817
O O1 0.963947 0.891898 0.348196
O O2 0.610084 0.903778 0.243582
O O3 0.959238 0.885887 0.452953
O O4 0.866879 0.049071 0.375044
O O5 0.500000 0.303872 0.750000
O O6 0.525187 0.264647 0.862348
O O7 0.545815 0.450763 0.839956
O O8 0.837879 0.335081 0.934709
O O9 0.434717 0.890483 0.383801
O O10 0.762562 0.883564 0.461662
O O11 0.810356 0.604512 0.938291
O O12 0.880952 0.774678 0.909572
O O13 0.500000 0.599158 0.750000
#
# Coordination Sequence:
#
# PCOD8141750 Si02
#       6
#     8   8   8   8   8   8
#     4  11  22  41  64  91 131 170 214 266 314 393
#     4  10  21  37  63  92 120 166 221 264 312 383
#     4  11  20  39  68  90 123 169 215 265 314 385
#     4  11  21  39  64  93 129 163 208 273 325 383
#     4  11  22  39  59  93 130 167 211 267 329 377
#     4  10  23  40  64  94 125 168 219 261 324 379
#
# _framework density 22.055501
#
# number of rings (size 3 to 8) (size 9 to 14) (size 15 to 20)
#    0.000    1.333    1.667    7.000    0.000    0.667 
#    0.000    3.333    0.000    0.000    0.000    0.000 
#    0.000    0.000    0.000    0.000    0.000    0.000 
#
# Total GULP energy -297325.803010 kJ/mol
# GULP energy per Si atom -12388.575125 kJ/mol
# Density = 2.200530 g / cm^3
# Si number density = 22.055501 Si / 1000 Ang^3
#
#
#
# Elastic Constant Matrix: (Units=GPa)
#
#
# Indices 1 2 3 4 5 6 
#
# 1 98.8906 26.6048 11.0104 0.0003 -3.6104 -0.0001
# 2 26.6048 47.4083 31.6924 0.0001 -8.5449 0.0002
# 3 11.0104 31.6924 95.0713 0.0011 -10.3639 0.0001
# 4 0.0003 0.0001 0.0011 23.6775 0.0000 9.0628
# 5 -3.6104 -8.5449 -10.3639 0.0000 21.6895 0.0001
# 6 -0.0001 0.0002 0.0001 9.0628 0.0001 14.3554
#
#
#
# Elastic Compliance Matrix: (Units=1/GPa)
#
#
# Indices 1 2 3 4 5 6 
#
# 1 0.012003 -0.007535 0.001072 0.000000 -0.000458 0.000000
# 2 -0.007535 0.032833 -0.009283 0.000001 0.007245 -0.000001
# 3 0.001072 -0.009283 0.013830 -0.000001 0.003130 0.000001
# 4 0.000000 0.000001 -0.000001 0.055692 0.000000 -0.035159
# 5 -0.000458 0.007245 0.003130 0.000000 0.050379 0.000000
# 6 0.000000 -0.000001 0.000001 -0.035159 0.000000 0.091857
#
#
# Mechanical properties :
#
#
# Convention : Reuss Voigt Hill
#
# Bulk Modulus (GPa) = 36.79929 42.22061 39.50995
# Shear Modulus (GPa) = 16.82686 23.41530 20.12108
#
# Velocity S-wave (km/s) = 2.76512 3.26184 3.02370
# Velocity P-wave (km/s) = 5.18802 5.77673 5.49027
#
# Compressibility (1/GPa) = 0.02717444
#
# Stress axis : x y z
#
# Youngs Moduli (GPa) = 83.31028 30.45688 72.30720
#
# Poissons Ratio (x) = 0.22950 -0.07750
# Poissons Ratio (y) = 0.62776 0.67120
# Poissons Ratio (z) = -0.08929 0.28272
#
# Static dielectric constant tensor:
#      x y z
#    x 4.018720 0.000000 -0.140780 
#    y 0.000000 4.170300 0.000000 
#    z -0.140780 0.000000 3.972990 
# 
# 
# High freq. dielectric constant tensor:
#      x y z
#    x 1.872590 0.000000 -0.018790 
#    y 0.000000 1.857810 0.000000 
#    z -0.018790 0.000000 1.863870 
# 
# From -- ./inp_files/293127.got.cif
#   From: 2010.06.25/outbox.cif.g09.slc.cpg/sg15_147_cif.got.tgz:293127.got - 2010.06.28 07:06:18.
