data_PCOD8141316
_publ_section_title
;
Structure prediction by ZEFSAII (Michael W. Deem and Ramdas Pophale) SiO2 
 PCOD8141316
Probable space group: C 2/C
;
_chemical_formula_sum "Si O2"
_cell_formula_units_Z 44
_cell_length_a 14.524450
_cell_length_b 21.375198
_cell_length_c 10.681964
_cell_angle_alpha 90.000000
_cell_angle_beta 43.857810
_cell_angle_gamma 90.000000
_cell_volume 2297.806077
_symmetry_space_group_name_H-M "C 2/C"
_symmetry_group_IT_number 15
_symmetry_cell_setting 'monoclinic'
loop_
_space_group_symop_operation_xyz
x,y,z
-x,y,1/2-z
-x,-y,-z
x,-y,1/2+z
1/2+x,1/2+y,z
1/2-x,1/2+y,1/2-z
1/2-x,1/2-y,-z
1/2+x,1/2-y,1/2+z
loop_
_atom_site_type_symbol
_atom_site_label
_atom_site_fract_x
_atom_site_fract_y
_atom_site_fract_z
Si Si1 0.289384 0.119320 0.851948
Si Si2 0.364797 0.015434 0.205739
Si Si3 0.018786 0.814807 0.585513
Si Si4 0.995730 0.316617 0.517049
Si Si5 0.745392 0.619338 0.181260
Si Si6 0.500000 0.109346 0.250000
O O1 0.424415 0.149266 0.670633
O O2 0.287671 0.045683 0.826085
O O3 0.292228 0.129735 0.995258
O O4 0.161124 0.153905 0.919433
O O5 0.265188 0.048225 0.205741
O O6 0.390504 0.062435 0.297399
O O7 0.500000 0.000000 0.000000
O O8 0.996546 0.757319 0.512295
O O9 0.908922 0.864980 0.652686
O O10 0.000000 0.794828 0.750000
O O11 0.057643 0.343305 0.586865
O O12 0.840219 0.334997 0.668602
#
# Coordination Sequence:
#
# PCOD8141316 Si02
#       6
#     8   8   8   8   8   4
#     4  11  21  35  62  87 111 154 188 241 289 332
#     4  11  20  36  61  84 114 145 199 239 280 340
#     4  10  22  39  57  86 120 146 190 238 292 341
#     4  11  21  37  61  85 115 151 192 235 282 345
#     4  10  21  36  59  87 112 149 190 244 282 334
#     4  10  22  36  58  92 110 150 194 242 280 330
#
# _framework density 19.148700999999999
#
# number of rings (size 3 to 8) (size 9 to 14) (size 15 to 20)
#    0.000    1.455    3.636    3.818    0.000    3.636 
#    0.000    8.182    0.000    0.000    0.000    0.000 
#    0.000    0.000    0.000    0.000    0.000    0.000 
#
# Total GULP energy -272697.816866 kJ/mol
# GULP energy per Si atom -12395.355312 kJ/mol
# Density = 1.910512 g / cm^3
# Si number density = 19.148701 Si / 1000 Ang^3
#
#
#
# Elastic Constant Matrix: (Units=GPa)
#
#
# Indices 1 2 3 4 5 6 
#
# 1 85.8633 49.6538 26.0907 0.0000 -2.0908 0.0000
# 2 49.6538 134.7260 28.8145 0.0000 4.0808 0.0000
# 3 26.0907 28.8145 39.6530 0.0000 -2.8345 0.0000
# 4 0.0000 0.0000 0.0000 24.5642 0.0000 1.5667
# 5 -2.0908 4.0808 -2.8345 0.0000 23.7253 0.0000
# 6 0.0000 0.0000 0.0000 1.5667 0.0000 37.8047
#
#
#
# Elastic Compliance Matrix: (Units=1/GPa)
#
#
# Indices 1 2 3 4 5 6 
#
# 1 0.016594 -0.004549 -0.007516 0.000000 0.001347 0.000000
# 2 -0.004549 0.010161 -0.004583 0.000000 -0.002696 0.000000
# 3 -0.007516 -0.004583 0.033793 0.000000 0.004163 0.000000
# 4 0.000000 0.000000 0.000000 0.040818 0.000000 -0.001692
# 5 0.001347 -0.002696 0.004163 0.000000 0.043229 0.000000
# 6 0.000000 0.000000 0.000000 -0.001692 0.000000 0.026522
#
#
# Mechanical properties :
#
#
# Convention : Reuss Voigt Hill
#
# Bulk Modulus (GPa) = 36.69732 52.15114 44.42423
# Shear Modulus (GPa) = 23.41964 27.59773 25.50869
#
# Velocity S-wave (km/s) = 3.50099 3.80048 3.65380
# Velocity P-wave (km/s) = 5.96227 6.82291 6.40705
#
# Compressibility (1/GPa) = 0.02724995
#
# Stress axis : x y z
#
# Youngs Moduli (GPa) = 60.26355 98.41652 29.59233
#
# Poissons Ratio (x) = 0.44769 0.22243
# Poissons Ratio (y) = 0.27413 0.13563
# Poissons Ratio (z) = 0.45297 0.45107
#
# Static dielectric constant tensor:
#      x y z
#    x 3.637530 0.000000 0.077050 
#    y 0.000000 3.578350 0.000000 
#    z 0.077050 0.000000 3.416110 
# 
# 
# High freq. dielectric constant tensor:
#      x y z
#    x 1.742510 0.000000 0.002750 
#    y 0.000000 1.753550 0.000000 
#    z 0.002750 0.000000 1.724200 
# 
# From -- ./inp_files/42004.got.cif
#   From: 2010.06.25/outbox.cif.g09.slc.cpg/sg15_22_cif.got.tgz:42004.got - 2010.06.28 07:06:18.
