data_PCOD8141391
_publ_section_title
;
Structure prediction by ZEFSAII (Michael W. Deem and Ramdas Pophale) SiO2 
 PCOD8141391
Probable space group: C 2/C
;
_chemical_formula_sum "Si O2"
_cell_formula_units_Z 56
_cell_length_a 15.547811
_cell_length_b 23.295258
_cell_length_c 9.474067
_cell_angle_alpha 90.000000
_cell_angle_beta 54.968641
_cell_angle_gamma 90.000000
_cell_volume 2809.772866
_symmetry_space_group_name_H-M "C 2/C"
_symmetry_group_IT_number 15
_symmetry_cell_setting 'monoclinic'
loop_
_space_group_symop_operation_xyz
x,y,z
-x,y,1/2-z
-x,-y,-z
x,-y,1/2+z
1/2+x,1/2+y,z
1/2-x,1/2+y,1/2-z
1/2-x,1/2-y,-z
1/2+x,1/2-y,1/2+z
loop_
_atom_site_type_symbol
_atom_site_label
_atom_site_fract_x
_atom_site_fract_y
_atom_site_fract_z
Si Si1 0.148827 0.573817 0.025865
Si Si2 0.746871 0.137907 0.690699
Si Si3 0.478629 0.668431 0.434436
Si Si4 0.435273 0.892868 0.611057
Si Si5 0.540637 0.790448 0.370439
Si Si6 0.050058 0.951393 0.857139
Si Si7 0.279173 0.948890 0.542139
O O1 0.237659 0.604191 0.847515
O O2 0.183266 0.511070 0.045170
O O3 0.132023 0.611548 0.182311
O O4 0.041142 0.570030 0.036612
O O5 0.855158 0.172375 0.583293
O O6 0.658675 0.186438 0.759659
O O7 0.742648 0.090938 0.571090
O O8 0.500000 0.664114 0.250000
O O9 0.535779 0.725782 0.438830
O O10 0.525361 0.609812 0.455903
O O11 0.465400 0.828639 0.538589
O O12 0.371510 0.921856 0.546304
O O13 0.500000 0.790582 0.250000
O O14 0.175280 0.957281 0.733439
O O15 0.000000 0.956362 0.750000
O O16 0.000000 0.000000 0.000000
#
# Coordination Sequence:
#
# PCOD8141391 Si02
#       7
#     8   8   8   8   8   8   8
#     4  10  23  37  60  86 130 159 195 251 309 363
#     4  11  21  39  62  90 119 163 201 252 307 353
#     4  10  21  40  60  90 120 155 202 254 300 347
#     4  10  22  39  56  92 121 161 201 250 301 364
#     4  10  21  36  62  86 119 152 206 252 296 353
#     4  11  24  41  61  89 124 157 200 255 302 361
#     4  12  21  36  63  88 119 163 207 240 303 364
#
# _framework density 19.930437000000001
#
# number of rings (size 3 to 8) (size 9 to 14) (size 15 to 20)
#    0.000    1.429    4.286    2.143    2.000    6.857 
#    0.000    0.714    6.286    0.000    0.000    0.000 
#    0.000    0.000    0.000    0.000    0.000    0.000 
#
# Total GULP energy -347211.693219 kJ/mol
# GULP energy per Si atom -12400.417615 kJ/mol
# Density = 1.988507 g / cm^3
# Si number density = 19.930437 Si / 1000 Ang^3
#
#
#
# Elastic Constant Matrix: (Units=GPa)
#
#
# Indices 1 2 3 4 5 6 
#
# 1 35.0144 35.3462 21.9670 0.0000 -16.6684 0.0000
# 2 35.3462 180.3042 62.8835 0.0000 -17.2375 0.0000
# 3 21.9670 62.8835 121.4959 0.0000 -21.3589 0.0000
# 4 0.0000 0.0000 0.0000 43.6191 0.0000 -6.4270
# 5 -16.6684 -17.2375 -21.3589 0.0000 29.3098 0.0000
# 6 0.0000 0.0000 0.0000 -6.4270 0.0000 24.3840
#
#
#
# Elastic Compliance Matrix: (Units=1/GPa)
#
#
# Indices 1 2 3 4 5 6 
#
# 1 0.046201 -0.006595 -0.001150 0.000000 0.021558 0.000000
# 2 -0.006595 0.007778 -0.003084 0.000000 -0.001423 0.000000
# 3 -0.001150 -0.003084 0.011012 0.000000 0.005557 0.000000
# 4 0.000000 0.000000 0.000000 0.023852 0.000000 0.006287
# 5 0.021558 -0.001423 0.005557 0.000000 0.049591 0.000000
# 6 0.000000 0.000000 0.000000 0.006287 0.000000 0.042667
#
#
# Mechanical properties :
#
#
# Convention : Reuss Voigt Hill
#
# Bulk Modulus (GPa) = 23.07682 64.13422 43.60552
# Shear Modulus (GPa) = 23.01986 33.90377 28.46182
#
# Velocity S-wave (km/s) = 3.40223 4.12892 3.78306
# Velocity P-wave (km/s) = 5.19975 7.41482 6.40378
#
# Compressibility (1/GPa) = 0.04333353
#
# Stress axis : x y z
#
# Youngs Moduli (GPa) = 21.64446 128.55971 90.81297
#
# Poissons Ratio (x) = 0.84785 0.10445
# Poissons Ratio (y) = 0.14275 0.28004
# Poissons Ratio (z) = 0.02489 0.39645
#
# Static dielectric constant tensor:
#      x y z
#    x 3.569170 0.000000 -0.191640 
#    y 0.000000 4.105620 0.000000 
#    z -0.191640 0.000000 3.777130 
# 
# 
# High freq. dielectric constant tensor:
#      x y z
#    x 1.762070 0.000000 -0.018200 
#    y 0.000000 1.783700 0.000000 
#    z -0.018200 0.000000 1.783450 
# 
# From -- ./inp_files/42534.got.cif
#   From: 2010.06.25/outbox.cif.g09.slc.cpg/sg15_22_cif.got.tgz:42534.got - 2010.06.28 07:06:18.
