data_PCOD8141724
_publ_section_title
;
Structure prediction by ZEFSAII (Michael W. Deem and Ramdas Pophale) SiO2 
 PCOD8141724
Probable space group: C 2/C
;
_chemical_formula_sum "Si O2"
_cell_formula_units_Z 40
_cell_length_a 10.905221
_cell_length_b 17.907697
_cell_length_c 17.670684
_cell_angle_alpha 90.000000
_cell_angle_beta 34.755142
_cell_angle_gamma 90.000000
_cell_volume 1967.234518
_symmetry_space_group_name_H-M "C 2/C"
_symmetry_group_IT_number 15
_symmetry_cell_setting 'monoclinic'
loop_
_space_group_symop_operation_xyz
x,y,z
-x,y,1/2-z
-x,-y,-z
x,-y,1/2+z
1/2+x,1/2+y,z
1/2-x,1/2+y,1/2-z
1/2-x,1/2-y,-z
1/2+x,1/2-y,1/2+z
loop_
_atom_site_type_symbol
_atom_site_label
_atom_site_fract_x
_atom_site_fract_y
_atom_site_fract_z
Si Si1 0.031963 0.671373 0.649662
Si Si2 0.653269 0.094795 0.891310
Si Si3 0.799673 0.065697 0.303090
Si Si4 0.467121 0.679017 0.109781
Si Si5 0.776509 0.752703 0.395554
O O1 0.282784 0.665052 0.506260
O O2 0.000000 0.645819 0.750000
O O3 0.909966 0.610702 0.662294
O O4 0.919818 0.751266 0.689612
O O5 0.777098 0.161216 0.870003
O O6 0.810367 0.024027 0.801851
O O7 0.435547 0.085753 0.049067
O O8 0.831956 0.105653 0.204608
O O9 0.000000 0.097858 0.250000
O O10 0.408572 0.703682 0.052989
O O11 0.750000 0.750000 0.500000
O O12 0.000000 0.718756 0.250000
#
# Coordination Sequence:
#
# PCOD8141724 Si02
#       5
#     8   8   8   8   8
#     4  10  21  37  62  94 119 152 210 269 308 368
#     4  10  23  38  63  90 126 164 206 256 315 382
#     4  11  20  40  62  91 124 167 208 251 318 383
#     4  10  22  37  66  91 119 163 209 264 316 375
#     4  11  24  41  62  94 129 166 210 267 322 381
#
# _framework density 20.333112
#
# number of rings (size 3 to 8) (size 9 to 14) (size 15 to 20)
#    0.000    1.600    2.000    2.400   11.200    0.000 
#    0.000    6.000    0.000    0.000    0.000    0.000 
#    0.000    0.000    0.000    0.000    0.000    0.000 
#
# Total GULP energy -247820.377126 kJ/mol
# GULP energy per Si atom -12391.018856 kJ/mol
# Density = 2.028683 g / cm^3
# Si number density = 20.333112 Si / 1000 Ang^3
#
#
#
# Elastic Constant Matrix: (Units=GPa)
#
#
# Indices 1 2 3 4 5 6 
#
# 1 117.4955 30.5558 36.0787 0.0206 25.4205 0.0231
# 2 30.5558 87.2444 32.5806 0.0166 10.4935 0.0218
# 3 36.0787 32.5806 72.7611 0.1004 17.8635 0.0167
# 4 0.0206 0.0166 0.1004 19.3984 -0.0396 12.0478
# 5 25.4205 10.4935 17.8635 -0.0396 42.3738 -0.0095
# 6 0.0231 0.0218 0.0167 12.0478 -0.0095 12.4981
#
#
#
# Elastic Compliance Matrix: (Units=1/GPa)
#
#
# Indices 1 2 3 4 5 6 
#
# 1 0.011119 -0.002042 -0.003442 0.000020 -0.004714 -0.000035
# 2 -0.002042 0.014170 -0.005323 0.000065 -0.000040 -0.000077
# 3 -0.003442 -0.005323 0.018966 -0.000227 -0.004613 0.000206
# 4 0.000020 0.000065 -0.000227 0.128460 0.000160 -0.123831
# 5 -0.004714 -0.000040 -0.004613 0.000160 0.028382 -0.000118
# 6 -0.000035 -0.000077 0.000206 -0.123831 -0.000118 0.199381
#
#
# Mechanical properties :
#
#
# Convention : Reuss Voigt Hill
#
# Bulk Modulus (GPa) = 44.16509 52.88126 48.52318
# Shear Modulus (GPa) = 11.63775 26.73978 19.18877
#
# Velocity S-wave (km/s) = 2.39499 3.63035 3.07534
# Velocity P-wave (km/s) = 5.42364 6.60579 6.04369
#
# Compressibility (1/GPa) = 0.02264232
#
# Stress axis : x y z
#
# Youngs Moduli (GPa) = 89.93938 70.57318 52.72514
#
# Poissons Ratio (x) = 0.14410 0.18146
# Poissons Ratio (y) = 0.18365 0.28063
# Poissons Ratio (z) = 0.30954 0.37563
#
# Static dielectric constant tensor:
#      x y z
#    x 3.747520 -0.000050 -0.122780 
#    y -0.000050 3.747990 0.000130 
#    z -0.122780 0.000130 3.824470 
# 
# 
# High freq. dielectric constant tensor:
#      x y z
#    x 1.800670 0.000000 -0.013050 
#    y 0.000000 1.781930 0.000010 
#    z -0.013050 0.000010 1.792290 
# 
# From -- ./inp_files/30429.got.cif
#   From: 2010.06.25/outbox.cif.g09.slc.cpg/sg15_16_cif.got.tgz:30429.got - 2010.06.28 07:06:18.
