data_PCOD8141789
_publ_section_title
;
Structure prediction by ZEFSAII (Michael W. Deem and Ramdas Pophale) SiO2 
 PCOD8141789
Probable space group: C 2/C
;
_chemical_formula_sum "Si O2"
_cell_formula_units_Z 64
_cell_length_a 32.066449
_cell_length_b 9.277391
_cell_length_c 19.732779
_cell_angle_alpha 90.000000
_cell_angle_beta 33.967830
_cell_angle_gamma 90.000000
_cell_volume 3279.932453
_symmetry_space_group_name_H-M "C 2/C"
_symmetry_group_IT_number 15
_symmetry_cell_setting 'monoclinic'
loop_
_space_group_symop_operation_xyz
x,y,z
-x,y,1/2-z
-x,-y,-z
x,-y,1/2+z
1/2+x,1/2+y,z
1/2-x,1/2+y,1/2-z
1/2-x,1/2-y,-z
1/2+x,1/2-y,1/2+z
loop_
_atom_site_type_symbol
_atom_site_label
_atom_site_fract_x
_atom_site_fract_y
_atom_site_fract_z
Si Si1 0.200617 0.472941 0.983078
Si Si2 0.628247 0.306505 0.911629
Si Si3 0.223338 0.295031 0.163743
Si Si4 0.501571 0.075135 0.424816
Si Si5 0.333810 0.066870 0.324032
Si Si6 0.054087 0.633180 0.614933
Si Si7 0.643917 0.372515 0.425040
Si Si8 0.738522 0.280339 0.177179
O O1 0.236330 0.313612 0.943552
O O2 0.258282 0.561866 0.859624
O O3 0.189371 0.562298 0.066669
O O4 0.122856 0.460254 0.048770
O O5 0.673340 0.299416 0.781176
O O6 0.609056 0.473675 0.951677
O O7 0.680088 0.249275 0.901857
O O8 0.553538 0.211175 0.006729
O O9 0.168645 0.402199 0.198359
O O10 0.284689 0.389779 0.121750
O O11 0.584410 0.133624 0.297717
O O12 0.500000 0.000000 0.500000
O O13 0.486146 0.956361 0.388913
O O14 0.275512 0.162385 0.361433
O O15 0.078816 0.784852 0.549616
O O16 0.000000 0.668820 0.750000
O O17 0.672151 0.280573 0.321910
#
# Coordination Sequence:
#
# PCOD8141789 Si02
#       8
#     8   8   8   8   8   8   8   8
#     4  11  22  40  66  92 131 169 214 270 331 388
#     4  11  21  40  65  94 126 168 216 271 324 386
#     4  10  21  37  64  95 125 162 219 271 322 378
#     4  12  24  40  67  95 129 176 222 271 320 396
#     4  12  23  39  61  97 131 169 216 272 329 388
#     4  11  23  44  65  95 131 177 218 262 333 401
#     4  10  22  39  67  92 125 173 219 268 319 390
#     4  11  22  39  64  97 127 164 220 273 320 388
#
# _framework density 19.512597
#
# number of rings (size 3 to 8) (size 9 to 14) (size 15 to 20)
#    0.000    1.000    6.250    1.500    0.000    0.000 
#    0.000    5.625    0.000    0.000    0.000    0.000 
#    0.000    0.000    0.000    0.000    0.000    0.000 
#
# Total GULP energy -396826.566406 kJ/mol
# GULP energy per Si atom -12400.830200 kJ/mol
# Density = 1.946819 g / cm^3
# Si number density = 19.512597 Si / 1000 Ang^3
#
#
#
# Elastic Constant Matrix: (Units=GPa)
#
#
# Indices 1 2 3 4 5 6 
#
# 1 88.3286 37.6555 40.9227 -0.0002 6.5272 0.0001
# 2 37.6555 94.7815 41.7570 -0.0041 4.5715 0.0020
# 3 40.9227 41.7570 112.8883 -0.0042 1.3909 0.0010
# 4 -0.0002 -0.0041 -0.0042 27.0472 -0.0002 0.2194
# 5 6.5272 4.5715 1.3909 -0.0002 26.4808 0.0005
# 6 0.0001 0.0020 0.0010 0.2194 0.0005 36.7236
#
#
#
# Elastic Compliance Matrix: (Units=1/GPa)
#
#
# Indices 1 2 3 4 5 6 
#
# 1 0.015106 -0.004144 -0.003909 -0.000001 -0.002803 0.000000
# 2 -0.004144 0.013841 -0.003603 0.000002 -0.001179 -0.000001
# 3 -0.003909 -0.003603 0.011596 0.000001 0.000976 0.000000
# 4 -0.000001 0.000002 0.000001 0.036974 0.000000 -0.000221
# 5 -0.002803 -0.001179 0.000976 0.000000 0.038606 0.000000
# 6 0.000000 -0.000001 0.000000 -0.000221 0.000000 0.027232
#
#
# Mechanical properties :
#
#
# Convention : Reuss Voigt Hill
#
# Bulk Modulus (GPa) = 58.03313 59.62987 58.83150
# Shear Modulus (GPa) = 29.00048 29.76120 29.38084
#
# Velocity S-wave (km/s) = 3.85937 3.90966 3.88459
# Velocity P-wave (km/s) = 7.04738 7.14189 7.09479
#
# Compressibility (1/GPa) = 0.01723154
#
# Stress axis : x y z
#
# Youngs Moduli (GPa) = 66.19857 72.24784 86.23758
#
# Poissons Ratio (x) = 0.29942 0.33706
# Poissons Ratio (y) = 0.27435 0.31071
# Poissons Ratio (z) = 0.25874 0.26031
#
# Static dielectric constant tensor:
#      x y z
#    x 3.711540 0.000010 0.070250 
#    y 0.000010 3.406420 0.000010 
#    z 0.070250 0.000010 3.506870 
# 
# 
# High freq. dielectric constant tensor:
#      x y z
#    x 1.761630 0.000000 0.008890 
#    y 0.000000 1.758620 0.000000 
#    z 0.008890 0.000000 1.758680 
# 
# From -- ./inp_files/224571.got.cif
#   From: 2010.06.25/outbox.cif.g09.slc.cpg/sg15_113_cif.got.tgz:224571.got - 2010.06.28 07:06:18.
