data_PCOD8141707
_publ_section_title
;
Structure prediction by ZEFSAII (Michael W. Deem and Ramdas Pophale) SiO2 
 PCOD8141707
Probable space group: C 2/C
;
_chemical_formula_sum "Si O2"
_cell_formula_units_Z 48
_cell_length_a 9.279129
_cell_length_b 9.762911
_cell_length_c 23.469663
_cell_angle_alpha 90.000000
_cell_angle_beta 94.933150
_cell_angle_gamma 90.000000
_cell_volume 2118.271661
_symmetry_space_group_name_H-M "C 2/C"
_symmetry_group_IT_number 15
_symmetry_cell_setting 'monoclinic'
loop_
_space_group_symop_operation_xyz
x,y,z
-x,y,1/2-z
-x,-y,-z
x,-y,1/2+z
1/2+x,1/2+y,z
1/2-x,1/2+y,1/2-z
1/2-x,1/2-y,-z
1/2+x,1/2-y,1/2+z
loop_
_atom_site_type_symbol
_atom_site_label
_atom_site_fract_x
_atom_site_fract_y
_atom_site_fract_z
Si Si1 0.335860 0.188402 0.261097
Si Si2 0.641612 0.198786 0.947593
Si Si3 0.870874 0.602347 0.791281
Si Si4 0.918707 0.990849 0.557768
Si Si5 0.596859 0.007117 0.580318
Si Si6 0.612119 0.701149 0.618592
O O1 0.500000 0.166054 0.250000
O O2 0.235231 0.265516 0.212139
O O3 0.340068 0.285787 0.315472
O O4 0.278727 0.034509 0.271527
O O5 0.560491 0.334372 0.920626
O O6 0.526904 0.082254 0.962590
O O7 0.745223 0.133604 0.903881
O O8 0.750000 0.250000 0.000000
O O9 0.919121 0.582766 0.858627
O O10 0.000000 0.629163 0.750000
O O11 0.747489 0.027661 0.551521
O O12 0.982958 0.093976 0.606526
O O13 0.000000 0.000000 0.500000
O O14 0.567209 0.845753 0.587937
#
# Coordination Sequence:
#
# PCOD8141707 Si02
#       6
#     8   8   8   8   8   8
#     4  10  21  37  62  89 123 155 195 246 298 362
#     4  11  23  42  59  87 119 158 204 250 303 356
#     4  10  21  39  61  93 120 156 199 242 305 364
#     4  11  23  41  59  89 119 157 210 245 300 363
#     4  10  24  40  63  87 124 160 201 254 305 360
#     4  10  22  41  60  88 123 157 200 251 300 363
#
# _framework density 22.659983
#
# number of rings (size 3 to 8) (size 9 to 14) (size 15 to 20)
#    0.000    1.667    1.667    2.000    0.000    6.667 
#    0.000    0.000    0.000    0.000    0.000    0.000 
#    0.000    0.000    0.000    0.000    0.000    0.000 
#
# Total GULP energy -297372.460584 kJ/mol
# GULP energy per Si atom -12390.519191 kJ/mol
# Density = 2.260841 g / cm^3
# Si number density = 22.659983 Si / 1000 Ang^3
#
#
#
# Elastic Constant Matrix: (Units=GPa)
#
#
# Indices 1 2 3 4 5 6 
#
# 1 107.3421 51.2482 13.1271 0.0000 -6.0511 0.0000
# 2 51.2482 107.2313 -3.5460 0.0000 20.6338 0.0000
# 3 13.1271 -3.5460 45.7905 0.0000 -15.5752 0.0000
# 4 0.0000 0.0000 0.0000 35.5808 0.0000 5.4367
# 5 -6.0511 20.6338 -15.5752 0.0000 32.0237 0.0000
# 6 0.0000 0.0000 0.0000 5.4367 0.0000 50.5346
#
#
#
# Elastic Compliance Matrix: (Units=1/GPa)
#
#
# Indices 1 2 3 4 5 6 
#
# 1 0.013746 -0.007910 -0.002320 0.000000 0.006565 0.000000
# 2 -0.007910 0.015323 -0.000494 0.000000 -0.011608 0.000000
# 3 -0.002320 -0.000494 0.026870 0.000000 0.012949 0.000000
# 4 0.000000 0.000000 0.000000 0.028575 0.000000 -0.003074
# 5 0.006565 -0.011608 0.012949 0.000000 0.046245 0.000000
# 6 0.000000 0.000000 0.000000 -0.003074 0.000000 0.020119
#
#
# Mechanical properties :
#
#
# Convention : Reuss Voigt Hill
#
# Bulk Modulus (GPa) = 28.99299 42.44697 35.71998
# Shear Modulus (GPa) = 27.20014 36.93013 32.06514
#
# Velocity S-wave (km/s) = 3.46838 4.04140 3.76580
# Velocity P-wave (km/s) = 5.37235 6.36789 5.89118
#
# Compressibility (1/GPa) = 0.03449110
#
# Stress axis : x y z
#
# Youngs Moduli (GPa) = 72.74769 65.26064 37.21659
#
# Poissons Ratio (x) = 0.51619 0.08634
# Poissons Ratio (y) = 0.57541 0.01840
# Poissons Ratio (z) = 0.16878 0.03226
#
# Static dielectric constant tensor:
#      x y z
#    x 4.086780 0.000000 -0.119760 
#    y 0.000000 4.285530 0.000000 
#    z -0.119760 0.000000 4.045850 
# 
# 
# High freq. dielectric constant tensor:
#      x y z
#    x 1.887770 0.000000 -0.016550 
#    y 0.000000 1.900720 0.000000 
#    z -0.016550 0.000000 1.893610 
# 
# From -- ./inp_files/306666.got.cif
#   From: 2010.06.25/outbox.cif.g09.slc.cpg/sg15_154_cif.got.tgz:306666.got - 2010.06.28 07:06:18.
