data_PCOD8141911
_publ_section_title
;
Structure prediction by ZEFSAII (Michael W. Deem and Ramdas Pophale) SiO2 
 PCOD8141911
Probable space group: C 2/C
;
_chemical_formula_sum "Si O2"
_cell_formula_units_Z 48
_cell_length_a 13.222740
_cell_length_b 6.499378
_cell_length_c 27.162276
_cell_angle_alpha 90.000000
_cell_angle_beta 117.382376
_cell_angle_gamma 90.000000
_cell_volume 2072.770878
_symmetry_space_group_name_H-M "C 2/C"
_symmetry_group_IT_number 15
_symmetry_cell_setting 'monoclinic'
loop_
_space_group_symop_operation_xyz
x,y,z
-x,y,1/2-z
-x,-y,-z
x,-y,1/2+z
1/2+x,1/2+y,z
1/2-x,1/2+y,1/2-z
1/2-x,1/2-y,-z
1/2+x,1/2-y,1/2+z
loop_
_atom_site_type_symbol
_atom_site_label
_atom_site_fract_x
_atom_site_fract_y
_atom_site_fract_z
Si Si1 0.197748 0.804230 0.134458
Si Si2 0.116105 0.747658 0.464285
Si Si3 0.496974 0.595881 0.392266
Si Si4 0.403298 0.932482 0.439224
Si Si5 0.178342 0.325347 0.877850
Si Si6 0.401486 0.458060 0.689916
O O1 0.117130 0.960288 0.147194
O O2 0.116541 0.670400 0.080501
O O3 0.284222 0.651606 0.183205
O O4 0.285066 0.944610 0.123855
O O5 0.250000 0.750000 0.500000
O O6 0.054035 0.600597 0.492371
O O7 0.089631 0.658319 0.403630
O O8 0.066955 0.979637 0.451674
O O9 0.470960 0.815257 0.411009
O O10 0.566948 0.626692 0.357613
O O11 0.283488 0.817127 0.418014
O O12 0.118206 0.205620 0.818539
O O13 0.500000 0.405156 0.750000
#
# Coordination Sequence:
#
# PCOD8141911 Si02
#       6
#     8   8   8   8   8   8
#     4  10  21  39  58  87 120 156 197 250 311 368
#     4   9  17  33  58  86 120 167 203 243 301 359
#     4  10  21  38  58  86 123 156 201 260 306 360
#     4   9  18  34  56  85 123 157 197 242 293 369
#     4   8  18  36  57  83 121 151 196 252 294 361
#     4  10  22  42  62  86 113 153 205 254 319 369
#
# _framework density 23.157406000000002
#
# number of rings (size 3 to 8) (size 9 to 14) (size 15 to 20)
#    0.000    2.667    0.000    1.500    0.000    4.667 
#    9.000    3.333    0.000    0.000    0.000    0.000 
#    0.000    0.000    0.000    0.000    0.000    0.000 
#
# Total GULP energy -297314.303312 kJ/mol
# GULP energy per Si atom -12388.095971 kJ/mol
# Density = 2.310470 g / cm^3
# Si number density = 23.157406 Si / 1000 Ang^3
#
#
#
# Elastic Constant Matrix: (Units=GPa)
#
#
# Indices 1 2 3 4 5 6 
#
# 1 78.0458 28.3991 17.2641 0.0000 8.0718 0.0000
# 2 28.3991 114.6112 22.3681 0.0000 0.4008 0.0000
# 3 17.2641 22.3681 64.7958 0.0000 20.6070 0.0000
# 4 0.0000 0.0000 0.0000 16.8518 0.0000 4.7472
# 5 8.0718 0.4008 20.6070 0.0000 36.9776 0.0000
# 6 0.0000 0.0000 0.0000 4.7472 0.0000 52.5892
#
#
#
# Elastic Compliance Matrix: (Units=1/GPa)
#
#
# Indices 1 2 3 4 5 6 
#
# 1 0.014662 -0.003200 -0.002181 0.000000 -0.001950 0.000000
# 2 -0.003200 0.010186 -0.003465 0.000000 0.002519 0.000000
# 3 -0.002181 -0.003465 0.020719 0.000000 -0.011033 0.000000
# 4 0.000000 0.000000 0.000000 0.060889 0.000000 -0.005496
# 5 -0.001950 0.002519 -0.011033 0.000000 0.033590 0.000000
# 6 0.000000 0.000000 0.000000 -0.005496 0.000000 0.019511
#
#
# Mechanical properties :
#
#
# Convention : Reuss Voigt Hill
#
# Bulk Modulus (GPa) = 35.87630 43.72393 39.80011
# Shear Modulus (GPa) = 26.80375 33.91181 30.35778
#
# Velocity S-wave (km/s) = 3.40584 3.83091 3.62461
# Velocity P-wave (km/s) = 5.56707 6.20403 5.89416
#
# Compressibility (1/GPa) = 0.02787355
#
# Stress axis : x y z
#
# Youngs Moduli (GPa) = 68.20442 98.17862 48.26481
#
# Poissons Ratio (x) = 0.31421 0.10529
# Poissons Ratio (y) = 0.21828 0.16721
# Poissons Ratio (z) = 0.14879 0.34014
#
# Static dielectric constant tensor:
#      x y z
#    x 4.780980 0.000000 -0.143880 
#    y 0.000000 4.388550 0.000000 
#    z -0.143880 0.000000 4.223900 
# 
# 
# High freq. dielectric constant tensor:
#      x y z
#    x 1.952510 0.000000 0.016310 
#    y 0.000000 1.922510 0.000000 
#    z 0.016310 0.000000 1.870900 
# 
# From -- ./inp_files/312145.got.cif
#   From: 2010.06.25/outbox.cif.g09.slc.cpg/sg15_157_cif.got.tgz:312145.got - 2010.06.28 07:06:18.
