data_PCOD8141638
_publ_section_title
;
Structure prediction by ZEFSAII (Michael W. Deem and Ramdas Pophale) SiO2 
 PCOD8141638
Probable space group: C 2/C
;
_chemical_formula_sum "Si O2"
_cell_formula_units_Z 64
_cell_length_a 9.395716
_cell_length_b 17.813406
_cell_length_c 32.467880
_cell_angle_alpha 90.000000
_cell_angle_beta 37.283128
_cell_angle_gamma 90.000000
_cell_volume 3291.752416
_symmetry_space_group_name_H-M "C 2/C"
_symmetry_group_IT_number 15
_symmetry_cell_setting 'monoclinic'
loop_
_space_group_symop_operation_xyz
x,y,z
-x,y,1/2-z
-x,-y,-z
x,-y,1/2+z
1/2+x,1/2+y,z
1/2-x,1/2+y,1/2-z
1/2-x,1/2-y,-z
1/2+x,1/2-y,1/2+z
loop_
_atom_site_type_symbol
_atom_site_label
_atom_site_fract_x
_atom_site_fract_y
_atom_site_fract_z
Si Si1 0.941414 0.257785 0.370836
Si Si2 0.866524 0.811234 0.591891
Si Si3 0.915812 0.408629 0.332739
Si Si4 0.915707 0.750518 0.225112
Si Si5 0.952696 0.018276 0.057173
Si Si6 0.362883 0.608161 0.683382
Si Si7 0.783456 0.554174 0.543518
Si Si8 0.925377 0.722227 0.494448
O O1 0.937616 0.348103 0.364730
O O2 0.690561 0.224224 0.415784
O O3 0.991878 0.238065 0.406991
O O4 0.144863 0.223403 0.293660
O O5 0.590841 0.815008 0.668992
O O6 0.966370 0.895173 0.567101
O O7 0.903802 0.775689 0.538791
O O8 0.805021 0.486331 0.373239
O O9 0.754593 0.372747 0.333763
O O10 0.173355 0.431342 0.256688
O O11 0.944297 0.813946 0.184169
O O12 0.000000 0.782476 0.250000
O O13 0.157663 0.972327 0.031523
O O14 0.000000 0.000000 0.000000
O O15 0.589643 0.553734 0.625259
O O16 0.872371 0.638059 0.518852
O O17 0.000000 0.500000 0.500000
O O18 0.750000 0.750000 0.500000
#
# Coordination Sequence:
#
# PCOD8141638 Si02
#       8
#     8   8   8   8   8   8   8   8
#     4  10  21  37  60  96 120 156 203 252 307 361
#     4  11  22  40  63  90 125 159 205 260 302 359
#     4   9  19  36  64  89 114 164 206 246 295 374
#     4   9  19  37  60  92 124 154 200 254 304 362
#     4  11  23  42  59  88 124 162 203 248 302 366
#     4   9  17  38  59  88 119 159 206 243 300 369
#     4  11  23  39  59  88 121 158 196 253 305 355
#     4  12  23  39  63  89 119 163 205 247 304 362
#
# _framework density 19.442532
#
# number of rings (size 3 to 8) (size 9 to 14) (size 15 to 20)
#    0.000    1.750    1.250    4.125    0.000    1.000 
#   18.000    0.000    0.000    0.000    0.000    0.000 
#    0.000    0.000    0.000    0.000    0.000    0.000 
#
# Total GULP energy -396631.350239 kJ/mol
# GULP energy per Si atom -12394.729695 kJ/mol
# Density = 1.939828 g / cm^3
# Si number density = 19.442532 Si / 1000 Ang^3
#
#
#
# Elastic Constant Matrix: (Units=GPa)
#
#
# Indices 1 2 3 4 5 6 
#
# 1 76.2889 28.0689 61.5501 -0.0079 -4.5869 0.0060
# 2 28.0689 92.6922 44.5132 -0.0136 2.1951 0.0049
# 3 61.5501 44.5132 134.6746 -0.0333 -20.3078 0.0080
# 4 -0.0079 -0.0136 -0.0333 32.7937 0.0113 -4.8717
# 5 -4.5869 2.1951 -20.3078 0.0113 41.7299 -0.0044
# 6 0.0060 0.0049 0.0080 -4.8717 -0.0044 32.5977
#
#
#
# Elastic Compliance Matrix: (Units=1/GPa)
#
#
# Indices 1 2 3 4 5 6 
#
# 1 0.021273 -0.001861 -0.009432 -0.000005 -0.002154 -0.000002
# 2 -0.001861 0.013333 -0.003985 0.000002 -0.002845 -0.000001
# 3 -0.009432 -0.003985 0.013952 0.000008 0.005963 0.000001
# 4 -0.000005 0.000002 0.000008 0.031186 -0.000005 0.004661
# 5 -0.002154 -0.002845 0.005963 -0.000005 0.026778 0.000002
# 6 -0.000002 -0.000001 0.000001 0.004661 0.000002 0.031374
#
#
# Mechanical properties :
#
#
# Convention : Reuss Voigt Hill
#
# Bulk Modulus (GPa) = 55.55115 63.54666 59.54891
# Shear Modulus (GPa) = 28.66071 32.72582 30.69326
#
# Velocity S-wave (km/s) = 3.84360 4.10714 3.97755
# Velocity P-wave (km/s) = 6.95210 7.43282 7.19647
#
# Compressibility (1/GPa) = 0.01800143
#
# Stress axis : x y z
#
# Youngs Moduli (GPa) = 47.00744 75.00013 71.67224
#
# Poissons Ratio (x) = 0.13961 0.67601
# Poissons Ratio (y) = 0.08750 0.28564
# Poissons Ratio (z) = 0.44338 0.29890
#
# Static dielectric constant tensor:
#      x y z
#    x 3.603820 0.000040 -0.247360 
#    y 0.000040 3.396430 -0.000080 
#    z -0.247360 -0.000080 4.207540 
# 
# 
# High freq. dielectric constant tensor:
#      x y z
#    x 1.757100 0.000000 -0.009280 
#    y 0.000000 1.730000 0.000000 
#    z -0.009280 0.000000 1.782890 
# 
# From -- ./inp_files/308758.got.cif
#   From: 2010.06.25/outbox.cif.g09.slc.cpg/sg15_155_cif.got.tgz:308758.got - 2010.06.28 07:06:18.
