data_PCOD8141928
_publ_section_title
;
Structure prediction by ZEFSAII (Michael W. Deem and Ramdas Pophale) SiO2 
 PCOD8141928
Probable space group: C 2/C
;
_chemical_formula_sum "Si O2"
_cell_formula_units_Z 64
_cell_length_a 30.214201
_cell_length_b 27.690584
_cell_length_c 8.857702
_cell_angle_alpha 90.000000
_cell_angle_beta 151.581089
_cell_angle_gamma 90.000000
_cell_volume 3526.900836
_symmetry_space_group_name_H-M "C 2/C"
_symmetry_group_IT_number 15
_symmetry_cell_setting 'monoclinic'
loop_
_space_group_symop_operation_xyz
x,y,z
-x,y,1/2-z
-x,-y,-z
x,-y,1/2+z
1/2+x,1/2+y,z
1/2-x,1/2+y,1/2-z
1/2-x,1/2-y,-z
1/2+x,1/2-y,1/2+z
loop_
_atom_site_type_symbol
_atom_site_label
_atom_site_fract_x
_atom_site_fract_y
_atom_site_fract_z
Si Si1 0.606268 0.049887 0.891110
Si Si2 0.393731 0.049886 0.253499
Si Si3 0.718528 0.135576 0.081666
Si Si4 0.105375 0.171053 0.741675
Si Si5 0.894627 0.828947 0.609432
Si Si6 0.892708 0.717168 0.255984
Si Si7 0.107290 0.282832 0.399728
Si Si8 0.218530 0.364425 0.229507
O O1 0.499999 0.060768 0.524268
O O2 0.640981 0.000000 0.922943
O O3 0.616338 0.045491 0.099013
O O4 0.670564 0.092545 0.026675
O O5 0.329434 0.092545 0.003287
O O6 0.826314 0.138383 0.453693
O O7 0.668882 0.185899 0.971853
O O8 0.711135 0.125218 0.883405
O O9 0.123448 0.160800 0.620343
O O10 0.123974 0.227123 0.833418
O O11 0.000001 0.157259 0.469412
O O12 0.876029 0.772877 0.589588
O O13 0.826317 0.861618 0.504200
O O14 0.862041 0.706364 0.336126
O O15 0.999999 0.703055 0.556147
O O16 0.831114 0.685899 0.958557
#
# Coordination Sequence:
#
# PCOD8141928 Si02
#       8
#     8   8   8   8   8   8   8   8
#     4  10  21  38  59  81 106 135 168 209 256 306
#     4  10  21  38  59  81 106 135 168 209 256 306
#     4  12  23  32  49  78 109 140 173 210 256 311
#     4   9  19  36  55  73  98 137 182 223 261 302
#     4   9  19  36  55  73  98 137 182 223 261 302
#     4   9  18  33  52  74 102 138 179 219 258 303
#     4   9  18  33  52  74 102 138 179 219 258 303
#     4  12  23  32  49  78 109 140 173 210 256 311
#
# _framework density 18.146242000000001
#
# number of rings (size 3 to 8) (size 9 to 14) (size 15 to 20)
#    0.000    2.000    0.000    6.000    0.000    9.500 
#    0.000    2.500    0.000    0.750    0.000    0.000 
#    0.000    0.000    0.000    0.000    0.000    0.000 
#
# Total GULP energy -396914.170822 kJ/mol
# GULP energy per Si atom -12403.567838 kJ/mol
# Density = 1.810494 g / cm^3
# Si number density = 18.146242 Si / 1000 Ang^3
#
#
#
# Elastic Constant Matrix: (Units=GPa)
#
#
# Indices 1 2 3 4 5 6 
#
# 1 73.6881 31.8889 33.6357 0.0000 6.7439 0.0000
# 2 31.8889 66.4321 44.8497 0.0000 9.6293 0.0000
# 3 33.6357 44.8497 92.1440 0.0000 6.9696 0.0000
# 4 0.0000 0.0000 0.0000 23.4708 0.0000 -3.8867
# 5 6.7439 9.6293 6.9696 0.0000 24.7320 0.0000
# 6 0.0000 0.0000 0.0000 -3.8867 0.0000 28.7032
#
#
#
# Elastic Compliance Matrix: (Units=1/GPa)
#
#
# Indices 1 2 3 4 5 6 
#
# 1 0.017910 -0.006013 -0.003493 0.000000 -0.001558 0.000000
# 2 -0.006013 0.025277 -0.009695 0.000000 -0.005470 0.000000
# 3 -0.003493 -0.009695 0.016848 0.000000 -0.000021 0.000000
# 4 0.000000 0.000000 0.000000 0.043583 0.000000 0.005902
# 5 -0.001558 -0.005470 -0.000021 0.000000 0.042994 0.000000
# 6 0.000000 0.000000 0.000000 0.005902 0.000000 0.035638
#
#
# Mechanical properties :
#
#
# Convention : Reuss Voigt Hill
#
# Bulk Modulus (GPa) = 46.22440 50.33474 48.27957
# Shear Modulus (GPa) = 21.94295 23.50721 22.72508
#
# Velocity S-wave (km/s) = 3.48117 3.60311 3.54267
# Velocity P-wave (km/s) = 6.45652 6.71629 6.58768
#
# Compressibility (1/GPa) = 0.02163360
#
# Stress axis : x y z
#
# Youngs Moduli (GPa) = 55.83492 39.56125 59.35428
#
# Poissons Ratio (x) = 0.23788 0.20733
# Poissons Ratio (y) = 0.33574 0.57542
# Poissons Ratio (z) = 0.19504 0.38353
#
# Static dielectric constant tensor:
#      x y z
#    x 3.321110 0.000000 0.075360 
#    y 0.000000 3.247060 0.000000 
#    z 0.075360 0.000000 3.422540 
# 
# 
# High freq. dielectric constant tensor:
#      x y z
#    x 1.701470 0.000000 0.003350 
#    y 0.000000 1.684440 0.000000 
#    z 0.003350 0.000000 1.705980 
# 
# From -- ./inp_files/70977.got.cif
#   From: 2010.06.25/outbox.cif.g09.slc.cpg/sg15_36_cif.got.tgz:70977.got - 2010.06.28 07:06:18.
