data_PCOD8141403
_publ_section_title
;
Structure prediction by ZEFSAII (Michael W. Deem and Ramdas Pophale) SiO2 
 PCOD8141403
Probable space group: C 2/C
;
_chemical_formula_sum "Si O2"
_cell_formula_units_Z 60
_cell_length_a 27.359457
_cell_length_b 19.013640
_cell_length_c 5.284672
_cell_angle_alpha 90.000000
_cell_angle_beta 103.381635
_cell_angle_gamma 90.000000
_cell_volume 2674.463717
_symmetry_space_group_name_H-M "C 2/C"
_symmetry_group_IT_number 15
_symmetry_cell_setting 'monoclinic'
loop_
_space_group_symop_operation_xyz
x,y,z
-x,y,1/2-z
-x,-y,-z
x,-y,1/2+z
1/2+x,1/2+y,z
1/2-x,1/2+y,1/2-z
1/2-x,1/2-y,-z
1/2+x,1/2-y,1/2+z
loop_
_atom_site_type_symbol
_atom_site_label
_atom_site_fract_x
_atom_site_fract_y
_atom_site_fract_z
Si Si1 0.553939 0.321504 0.932145
Si Si2 0.591094 0.530090 0.353756
Si Si3 0.684323 0.237943 0.658118
Si Si4 0.701437 0.525164 0.849931
Si Si5 0.500000 0.760899 0.750000
Si Si6 0.082874 0.687306 0.688649
Si Si7 0.707793 0.318248 0.184969
Si Si8 0.559516 0.039571 0.830442
O O1 0.500000 0.337999 0.750000
O O2 0.588023 0.390377 0.953636
O O3 0.584865 0.259566 0.842316
O O4 0.543019 0.291916 0.198238
O O5 0.565111 0.482763 0.547925
O O6 0.648784 0.508812 0.383799
O O7 0.634885 0.188445 0.596057
O O8 0.684661 0.271720 0.381254
O O9 0.732005 0.187371 0.752313
O O10 0.684820 0.295882 0.885455
O O11 0.729744 0.479945 0.658888
O O12 0.693378 0.602678 0.735514
O O13 0.470063 0.813315 0.528757
O O14 0.081656 0.618546 0.862874
O O15 0.500000 0.041671 0.750000
O O16 0.579721 0.999040 0.605661
#
# Coordination Sequence:
#
# PCOD8141403 Si02
#       8
#     8   8   8   8   4   8   8   8
#     4  10  24  41  59  88 131 174 223 279 319 379
#     4  10  24  37  57  87 121 171 222 266 316 376
#     4  10  24  40  71  94 131 170 217 278 333 391
#     4  10  21  36  62  91 126 168 217 268 322 384
#     4  10  24  42  64  94 138 170 232 280 334 382
#     4  11  25  40  69 100 129 177 220 276 334 403
#     4  10  22  44  63 100 130 169 223 277 326 394
#     4  10  23  41  65  93 130 168 211 264 328 405
#
# _framework density 22.434405999999999
#
# number of rings (size 3 to 8) (size 9 to 14) (size 15 to 20)
#    0.000    1.867    0.000    2.000   17.733    0.533 
#    0.000    1.333    0.000    0.000    0.000    0.000 
#    0.000    0.000    0.000    0.000    0.000    0.000 
#
# Total GULP energy -371654.596504 kJ/mol
# GULP energy per Si atom -12388.486550 kJ/mol
# Density = 2.238334 g / cm^3
# Si number density = 22.434406 Si / 1000 Ang^3
#
#
#
# Elastic Constant Matrix: (Units=GPa)
#
#
# Indices 1 2 3 4 5 6 
#
# 1 75.5628 42.5143 22.2043 0.0000 -14.0913 0.0000
# 2 42.5143 112.3601 23.0526 0.0000 -3.6037 0.0000
# 3 22.2043 23.0526 137.0949 0.0000 -28.0622 0.0000
# 4 0.0000 0.0000 0.0000 67.6918 0.0000 -6.0736
# 5 -14.0913 -3.6037 -28.0622 0.0000 15.0463 0.0000
# 6 0.0000 0.0000 0.0000 -6.0736 0.0000 19.0405
#
#
#
# Elastic Compliance Matrix: (Units=1/GPa)
#
#
# Indices 1 2 3 4 5 6 
#
# 1 0.021071 -0.007764 0.002510 0.000000 0.022555 0.000000
# 2 -0.007764 0.012090 -0.002703 0.000000 -0.009417 0.000000
# 3 0.002510 -0.002703 0.012440 0.000000 0.024904 0.000000
# 4 0.000000 0.000000 0.000000 0.015208 0.000000 0.004851
# 5 0.022555 -0.009417 0.024904 0.000000 0.131777 0.000000
# 6 0.000000 0.000000 0.000000 0.004851 0.000000 0.054067
#
#
# Mechanical properties :
#
#
# Convention : Reuss Voigt Hill
#
# Bulk Modulus (GPa) = 33.68617 55.61781 44.65199
# Shear Modulus (GPa) = 18.35105 36.17217 27.26161
#
# Velocity S-wave (km/s) = 2.86315 4.01977 3.48971
# Velocity P-wave (km/s) = 5.09688 6.81101 6.01531
#
# Compressibility (1/GPa) = 0.02968578
#
# Stress axis : x y z
#
# Youngs Moduli (GPa) = 47.45835 82.71078 80.38608
#
# Poissons Ratio (x) = 0.64219 -0.20173
# Poissons Ratio (y) = 0.36848 0.21729
# Poissons Ratio (z) = -0.11910 0.22357
#
# Static dielectric constant tensor:
#      x y z
#    x 3.887190 0.000000 -0.207480 
#    y 0.000000 3.900560 0.000000 
#    z -0.207480 0.000000 5.306020 
# 
# 
# High freq. dielectric constant tensor:
#      x y z
#    x 1.859540 0.000000 -0.020570 
#    y 0.000000 1.877130 0.000000 
#    z -0.020570 0.000000 1.901910 
# 
# From -- ./inp_files/17204.got.cif
#   From: 2010.06.25/outbox.cif.g09.slc.cpg/sg15_9_cif.got.tgz:17204.got - 2010.06.28 07:06:18.
