data_PCOD8141663
_publ_section_title
;
Structure prediction by ZEFSAII (Michael W. Deem and Ramdas Pophale) SiO2 
 PCOD8141663
Probable space group: C 2/C
;
_chemical_formula_sum "Si O2"
_cell_formula_units_Z 64
_cell_length_a 9.028325
_cell_length_b 15.060214
_cell_length_c 31.823953
_cell_angle_alpha 90.000000
_cell_angle_beta 45.959135
_cell_angle_gamma 90.000000
_cell_volume 3110.478508
_symmetry_space_group_name_H-M "C 2/C"
_symmetry_group_IT_number 15
_symmetry_cell_setting 'monoclinic'
loop_
_space_group_symop_operation_xyz
x,y,z
-x,y,1/2-z
-x,-y,-z
x,-y,1/2+z
1/2+x,1/2+y,z
1/2-x,1/2+y,1/2-z
1/2-x,1/2-y,-z
1/2+x,1/2-y,1/2+z
loop_
_atom_site_type_symbol
_atom_site_label
_atom_site_fract_x
_atom_site_fract_y
_atom_site_fract_z
Si Si1 0.061923 0.599052 0.091580
Si Si2 0.852777 0.758615 0.316363
Si Si3 0.192553 0.338173 0.484928
Si Si4 0.317236 0.848454 0.494489
Si Si5 0.643020 0.067673 0.683470
Si Si6 0.446298 0.285131 0.137139
Si Si7 0.445712 0.915025 0.132581
Si Si8 0.377208 0.597363 0.105292
O O1 0.931545 0.690861 0.115607
O O2 0.902383 0.519608 0.132843
O O3 0.251508 0.603532 0.086580
O O4 0.162685 0.584190 0.025355
O O5 0.002059 0.759570 0.326098
O O6 0.759612 0.856807 0.328737
O O7 0.673410 0.685370 0.357298
O O8 0.000000 0.729475 0.250000
O O9 0.250000 0.250000 0.500000
O O10 0.384522 0.352372 0.416104
O O11 0.990623 0.340144 0.495847
O O12 0.250000 0.750000 0.500000
O O13 0.392017 0.886089 0.434999
O O14 0.121970 0.906358 0.548752
O O15 0.500000 0.034734 0.750000
O O16 0.528647 0.091692 0.663214
O O17 0.734918 0.162126 0.679023
O O18 0.812105 0.990762 0.643265
#
# Coordination Sequence:
#
# PCOD8141663 Si02
#       8
#     8   8   8   8   8   8   8   8
#     4   9  22  39  59  89 127 166 199 251 322 378
#     4  11  21  41  63  85 120 168 212 259 312 377
#     4  10  21  37  61  88 128 165 198 254 323 384
#     4  12  22  38  63 100 130 159 214 265 320 387
#     4  11  25  43  64  94 127 169 218 263 310 376
#     4  10  21  40  60  86 120 166 209 250 319 367
#     4  11  24  39  63  94 129 160 212 265 310 378
#     4  10  23  41  64  93 126 166 208 264 320 378
#
# _framework density 20.575612
#
# number of rings (size 3 to 8) (size 9 to 14) (size 15 to 20)
#    0.000    1.500    2.500    2.625    7.000    2.500 
#    0.000    0.625    0.000    0.000    0.000    0.000 
#    0.000    0.000    0.000    0.000    0.000    0.000 
#
# Total GULP energy -396601.080791 kJ/mol
# GULP energy per Si atom -12393.783775 kJ/mol
# Density = 2.052878 g / cm^3
# Si number density = 20.575612 Si / 1000 Ang^3
#
#
#
# Elastic Constant Matrix: (Units=GPa)
#
#
# Indices 1 2 3 4 5 6 
#
# 1 60.5033 26.9739 41.2690 -0.0013 14.7847 0.0012
# 2 26.9739 95.2998 26.0459 -0.0012 1.2623 0.0009
# 3 41.2690 26.0459 135.7270 -0.0021 16.9593 0.0015
# 4 -0.0013 -0.0012 -0.0021 26.1389 0.0014 -8.3542
# 5 14.7847 1.2623 16.9593 0.0014 26.9131 -0.0010
# 6 0.0012 0.0009 0.0015 -8.3542 -0.0010 20.8294
#
#
#
# Elastic Compliance Matrix: (Units=1/GPa)
#
#
# Indices 1 2 3 4 5 6 
#
# 1 0.025091 -0.005519 -0.005297 0.000001 -0.010187 -0.000001
# 2 -0.005519 0.012308 -0.001075 0.000000 0.003132 0.000000
# 3 -0.005297 -0.001075 0.009568 0.000001 -0.003069 0.000000
# 4 0.000001 0.000000 0.000001 0.043882 -0.000002 0.017600
# 5 -0.010187 0.003132 -0.003069 -0.000002 0.044540 0.000002
# 6 -0.000001 0.000000 0.000000 0.017600 0.000002 0.055068
#
#
# Mechanical properties :
#
#
# Convention : Reuss Voigt Hill
#
# Bulk Modulus (GPa) = 43.13287 53.34528 48.23907
# Shear Modulus (GPa) = 22.52577 27.92570 25.22573
#
# Velocity S-wave (km/s) = 3.31234 3.68805 3.50523
# Velocity P-wave (km/s) = 5.96970 6.64216 6.31489
#
# Compressibility (1/GPa) = 0.02318418
#
# Stress axis : x y z
#
# Youngs Moduli (GPa) = 39.85478 81.25007 104.51342
#
# Poissons Ratio (x) = 0.44843 0.55362
# Poissons Ratio (y) = 0.21997 0.11236
# Poissons Ratio (z) = 0.21112 0.08735
#
# Static dielectric constant tensor:
#      x y z
#    x 3.191710 0.000000 0.228380 
#    y 0.000000 3.953110 0.000010 
#    z 0.228380 0.000010 4.027350 
# 
# 
# High freq. dielectric constant tensor:
#      x y z
#    x 1.789750 0.000000 0.019900 
#    y 0.000000 1.811850 0.000000 
#    z 0.019900 0.000000 1.811120 
# 
# From -- ./inp_files/308235.got.cif
#   From: 2010.06.25/outbox.cif.g09.slc.cpg/sg15_155_cif.got.tgz:308235.got - 2010.06.28 07:06:18.
