data_PCOD8141179
_publ_section_title
;
Structure prediction by ZEFSAII (Michael W. Deem and Ramdas Pophale) SiO2 
 PCOD8141179
Probable space group: C 2/C
;
_chemical_formula_sum "Si O2"
_cell_formula_units_Z 64
_cell_length_a 31.029087
_cell_length_b 11.610881
_cell_length_c 18.302006
_cell_angle_alpha 90.000000
_cell_angle_beta 26.926224
_cell_angle_gamma 90.000000
_cell_volume 2985.935096
_symmetry_space_group_name_H-M "C 2/C"
_symmetry_group_IT_number 15
_symmetry_cell_setting 'monoclinic'
loop_
_space_group_symop_operation_xyz
x,y,z
-x,y,1/2-z
-x,-y,-z
x,-y,1/2+z
1/2+x,1/2+y,z
1/2-x,1/2+y,1/2-z
1/2-x,1/2-y,-z
1/2+x,1/2-y,1/2+z
loop_
_atom_site_type_symbol
_atom_site_label
_atom_site_fract_x
_atom_site_fract_y
_atom_site_fract_z
Si Si1 0.900930 0.045707 0.583038
Si Si2 0.550060 0.078537 0.595879
Si Si3 0.914953 0.118875 0.928744
Si Si4 0.098297 0.350902 0.305651
Si Si5 0.115544 0.904813 0.761068
Si Si6 0.099965 0.335615 0.462400
Si Si7 0.205226 0.032430 0.977150
Si Si8 0.812163 0.788373 0.114224
O O1 0.838882 0.152487 0.650180
O O2 0.003132 0.099433 0.447195
O O3 0.916902 0.947929 0.500416
O O4 0.843646 0.985992 0.736276
O O5 0.500000 0.066669 0.750000
O O6 0.474908 0.115986 0.647451
O O7 0.636565 0.167073 0.471895
O O8 0.601749 0.960604 0.495761
O O9 0.000000 0.074203 0.750000
O O10 0.937145 0.251038 0.917935
O O11 0.816902 0.089518 0.031591
O O12 0.149312 0.228305 0.210439
O O13 0.045599 0.344278 0.465433
O O14 0.181647 0.448369 0.183088
O O15 0.149134 0.967271 0.637457
O O16 0.199241 0.278585 0.287073
O O17 0.157235 0.132345 0.000288
#
# Coordination Sequence:
#
# PCOD8141179 Si02
#       8
#     8   8   8   8   8   8   8   8
#     4  10  21  35  62  92 126 168 215 270 334 397
#     4  12  26  46  71  99 139 185 231 281 350 415
#     4  11  21  42  66  92 134 175 225 275 336 404
#     4  11  23  42  65  99 139 176 225 279 345 407
#     4  11  19  37  60  99 130 170 216 277 341 397
#     4  11  26  44  67  97 134 183 227 281 339 411
#     4  10  23  37  65 101 134 172 220 287 335 398
#     4  10  24  40  67  97 129 175 230 279 336 402
#
# _framework density 21.433823
#
# number of rings (size 3 to 8) (size 9 to 14) (size 15 to 20)
#    0.000    1.250    3.750    1.875    5.250    2.000 
#    0.000    0.000    0.000    2.250    0.000    0.000 
#    0.000    0.000    0.000    0.000    0.000    0.000 
#
# Total GULP energy -396560.612321 kJ/mol
# GULP energy per Si atom -12392.519135 kJ/mol
# Density = 2.138504 g / cm^3
# Si number density = 21.433823 Si / 1000 Ang^3
#
#
#
# Elastic Constant Matrix: (Units=GPa)
#
#
# Indices 1 2 3 4 5 6 
#
# 1 119.3456 39.2566 43.6088 0.0000 24.1351 0.0000
# 2 39.2566 97.6915 24.7959 0.0000 14.9275 0.0000
# 3 43.6088 24.7959 67.3398 0.0000 11.6081 0.0000
# 4 0.0000 0.0000 0.0000 13.5645 0.0000 -7.2814
# 5 24.1351 14.9275 11.6081 0.0000 34.2668 0.0000
# 6 0.0000 0.0000 0.0000 -7.2814 0.0000 15.7368
#
#
#
# Elastic Compliance Matrix: (Units=1/GPa)
#
#
# Indices 1 2 3 4 5 6 
#
# 1 0.012681 -0.002641 -0.006264 0.000000 -0.005659 0.000000
# 2 -0.002641 0.012309 -0.002356 0.000000 -0.002704 0.000000
# 3 -0.006264 -0.002356 0.020005 0.000000 -0.001338 0.000000
# 4 0.000000 0.000000 0.000000 0.098083 0.000000 0.045382
# 5 -0.005659 -0.002704 -0.001338 0.000000 0.034800 0.000000
# 6 0.000000 0.000000 0.000000 0.045382 0.000000 0.084544
#
#
# Mechanical properties :
#
#
# Convention : Reuss Voigt Hill
#
# Bulk Modulus (GPa) = 44.49905 55.52218 50.01061
# Shear Modulus (GPa) = 17.09787 24.49467 20.79627
#
# Velocity S-wave (km/s) = 2.82743 3.38421 3.11827
# Velocity P-wave (km/s) = 5.60940 6.42111 6.02893
#
# Compressibility (1/GPa) = 0.02247239
#
# Stress axis : x y z
#
# Youngs Moduli (GPa) = 78.85723 81.24321 49.98769
#
# Poissons Ratio (x) = 0.21457 0.31313
# Poissons Ratio (y) = 0.20827 0.11776
# Poissons Ratio (z) = 0.49398 0.19140
#
# Static dielectric constant tensor:
#      x y z
#    x 4.300740 0.000000 0.184190 
#    y 0.000000 3.971270 0.000000 
#    z 0.184190 0.000000 3.654940 
# 
# 
# High freq. dielectric constant tensor:
#      x y z
#    x 1.859640 0.000000 0.015710 
#    y 0.000000 1.837210 0.000000 
#    z 0.015710 0.000000 1.819690 
# 
# From -- ./inp_files/225137.got.cif
#   From: 2010.06.25/outbox.cif.g09.slc.cpg/sg15_113_cif.got.tgz:225137.got - 2010.06.28 07:06:18.
