data_PCOD8141720
_publ_section_title
;
Structure prediction by ZEFSAII (Michael W. Deem and Ramdas Pophale) SiO2 
 PCOD8141720
Probable space group: C 2/C
;
_chemical_formula_sum "Si O2"
_cell_formula_units_Z 56
_cell_length_a 14.825375
_cell_length_b 13.485938
_cell_length_c 14.059679
_cell_angle_alpha 90.000000
_cell_angle_beta 88.785923
_cell_angle_gamma 90.000000
_cell_volume 2810.378050
_symmetry_space_group_name_H-M "C 2/C"
_symmetry_group_IT_number 15
_symmetry_cell_setting 'monoclinic'
loop_
_space_group_symop_operation_xyz
x,y,z
-x,y,1/2-z
-x,-y,-z
x,-y,1/2+z
1/2+x,1/2+y,z
1/2-x,1/2+y,1/2-z
1/2-x,1/2-y,-z
1/2+x,1/2-y,1/2+z
loop_
_atom_site_type_symbol
_atom_site_label
_atom_site_fract_x
_atom_site_fract_y
_atom_site_fract_z
Si Si1 0.268339 0.474645 0.603613
Si Si2 0.229652 0.966775 0.113781
Si Si3 0.686857 0.658116 0.226874
Si Si4 0.500000 0.252886 0.750000
Si Si5 0.324361 0.660335 0.717914
Si Si6 0.934218 0.407742 0.108725
Si Si7 0.935347 0.578740 0.391723
Si Si8 0.500000 0.762728 0.750000
O O1 0.300282 0.456095 0.494908
O O2 0.308148 0.386871 0.667046
O O3 0.301344 0.582108 0.636166
O O4 0.160659 0.474273 0.613932
O O5 0.219715 0.080043 0.147281
O O6 0.170204 0.893191 0.179313
O O7 0.331391 0.933739 0.129367
O O8 0.582215 0.681489 0.208058
O O9 0.749464 0.754218 0.216903
O O10 0.539539 0.189755 0.835399
O O11 0.425399 0.699098 0.695077
O O12 0.991296 0.500278 0.145948
O O13 0.955746 0.386774 0.998287
O O14 0.940946 0.674195 0.325269
#
# Coordination Sequence:
#
# PCOD8141720 Si02
#       8
#     8   8   8   4   8   8   8   4
#     4  10  23  42  62  88 128 168 206 253 310 373
#     4  10  23  42  62  88 128 168 206 253 310 373
#     4  11  23  40  63  94 124 167 206 256 315 360
#     4  12  23  37  64  92 126 158 210 258 300 370
#     4  11  23  40  63  94 124 167 206 256 315 360
#     4  10  21  37  62  92 120 159 209 262 311 358
#     4  10  21  37  62  92 120 159 209 262 311 358
#     4  12  23  37  64  92 126 158 210 258 300 370
#
# _framework density 19.926144000000001
#
# number of rings (size 3 to 8) (size 9 to 14) (size 15 to 20)
#    0.000    1.429    2.857    2.143    4.000    5.714 
#    0.000    1.429    0.000    0.000    0.000    0.000 
#    0.000    0.000    0.000    0.000    0.000    0.000 
#
# Total GULP energy -347326.650845 kJ/mol
# GULP energy per Si atom -12404.523244 kJ/mol
# Density = 1.988079 g / cm^3
# Si number density = 19.926144 Si / 1000 Ang^3
#
#
#
# Elastic Constant Matrix: (Units=GPa)
#
#
# Indices 1 2 3 4 5 6 
#
# 1 79.3413 17.4495 26.9750 0.0000 19.8553 0.0000
# 2 17.4495 79.6043 29.4193 0.0000 12.7061 0.0000
# 3 26.9750 29.4193 96.3628 0.0000 4.5721 0.0000
# 4 0.0000 0.0000 0.0000 13.0367 0.0000 6.9316
# 5 19.8553 12.7061 4.5721 0.0000 20.7572 0.0000
# 6 0.0000 0.0000 0.0000 6.9316 0.0000 42.0852
#
#
#
# Elastic Compliance Matrix: (Units=1/GPa)
#
#
# Indices 1 2 3 4 5 6 
#
# 1 0.018190 0.000286 -0.004391 0.000000 -0.016608 0.000000
# 2 0.000286 0.015534 -0.004404 0.000000 -0.008813 0.000000
# 3 -0.004391 -0.004404 0.012758 0.000000 0.004087 0.000000
# 4 0.000000 0.000000 0.000000 0.084069 0.000000 -0.013847
# 5 -0.016608 -0.008813 0.004087 0.000000 0.068556 0.000000
# 6 0.000000 0.000000 0.000000 -0.013847 0.000000 0.026042
#
#
# Mechanical properties :
#
#
# Convention : Reuss Voigt Hill
#
# Bulk Modulus (GPa) = 33.94163 44.77732 39.35948
# Shear Modulus (GPa) = 19.84225 27.27347 23.55786
#
# Velocity S-wave (km/s) = 3.15904 3.70365 3.44213
# Velocity P-wave (km/s) = 5.51151 6.38825 5.96601
#
# Compressibility (1/GPa) = 0.02946235
#
# Stress axis : x y z
#
# Youngs Moduli (GPa) = 54.97565 64.37613 78.38522
#
# Poissons Ratio (x) = -0.01844 0.34422
# Poissons Ratio (y) = -0.01575 0.34524
# Poissons Ratio (z) = 0.24142 0.28354
#
# Static dielectric constant tensor:
#      x y z
#    x 1.964560 0.000000 0.211630 
#    y 0.000000 3.667890 0.000000 
#    z 0.211630 0.000000 3.646360 
# 
# 
# High freq. dielectric constant tensor:
#      x y z
#    x 1.779940 0.000000 0.003260 
#    y 0.000000 1.782090 0.000000 
#    z 0.003260 0.000000 1.778960 
# 
# From -- ./inp_files/152664.got.cif
#   From: 2010.06.25/outbox.cif.g09.slc.cpg/sg15_77_cif.got.tgz:152664.got - 2010.06.28 07:06:18.
