data_PCOD8141197
_publ_section_title
;
Structure prediction by ZEFSAII (Michael W. Deem and Ramdas Pophale) SiO2 
 PCOD8141197
Probable space group: C 2/C
;
_chemical_formula_sum "Si O2"
_cell_formula_units_Z 52
_cell_length_a 22.337007
_cell_length_b 13.280302
_cell_length_c 15.929889
_cell_angle_alpha 90.000000
_cell_angle_beta 32.727146
_cell_angle_gamma 90.000000
_cell_volume 2554.777117
_symmetry_space_group_name_H-M "C 2/C"
_symmetry_group_IT_number 15
_symmetry_cell_setting 'monoclinic'
loop_
_space_group_symop_operation_xyz
x,y,z
-x,y,1/2-z
-x,-y,-z
x,-y,1/2+z
1/2+x,1/2+y,z
1/2-x,1/2+y,1/2-z
1/2-x,1/2-y,-z
1/2+x,1/2-y,1/2+z
loop_
_atom_site_type_symbol
_atom_site_label
_atom_site_fract_x
_atom_site_fract_y
_atom_site_fract_z
Si Si1 0.769431 0.124239 0.343990
Si Si2 0.874307 0.061207 0.392462
Si Si3 0.877378 0.849830 0.313745
Si Si4 0.007794 0.117343 0.503483
Si Si5 0.000000 0.678365 0.250000
Si Si6 0.817782 0.403465 0.073235
Si Si7 0.192456 0.172432 0.872246
O O1 0.812955 0.115367 0.387444
O O2 0.869522 0.150599 0.163419
O O3 0.692150 0.220781 0.421357
O O4 0.706524 0.022479 0.391775
O O5 0.810169 0.086306 0.553619
O O6 0.000000 0.101826 0.250000
O O7 0.872636 0.940732 0.385519
O O8 0.766042 0.848130 0.391290
O O9 0.897408 0.744703 0.336919
O O10 0.985071 0.862553 0.127707
O O11 0.918793 0.174124 0.551044
O O12 0.000000 0.000000 0.500000
O O13 0.943650 0.610955 0.390329
O O14 0.798591 0.353132 0.187526
#
# Coordination Sequence:
#
# PCOD8141197 Si02
#       7
#     8   8   8   8   4   8   8
#     4  11  22  39  61  92 128 163 203 259 307 376
#     4  11  19  35  60  96 120 157 203 256 300 359
#     4  10  21  35  65  93 114 158 213 267 299 366
#     4  11  18  39  65  88 125 157 209 263 302 354
#     4  12  22  40  62  86 122 166 210 260 322 358
#     4  10  24  41  59  88 125 162 204 260 312 364
#     4  11  22  37  63  95 120 163 207 249 316 364
#
# _framework density 20.354026000000001
#
# number of rings (size 3 to 8) (size 9 to 14) (size 15 to 20)
#    0.000    1.231    6.923    1.846    0.000    1.231 
#    1.385    3.077    0.000    8.308    0.000    0.000 
#    0.000    0.000    0.000    0.000    0.000    0.000 
#
# Total GULP energy -322330.932484 kJ/mol
# GULP energy per Si atom -12397.343557 kJ/mol
# Density = 2.030770 g / cm^3
# Si number density = 20.354026 Si / 1000 Ang^3
#
#
#
# Elastic Constant Matrix: (Units=GPa)
#
#
# Indices 1 2 3 4 5 6 
#
# 1 68.0831 50.6678 20.2421 0.0000 8.7458 0.0000
# 2 50.6678 98.9583 53.3997 0.0000 5.2288 0.0000
# 3 20.2421 53.3997 129.3862 0.0000 17.8374 0.0000
# 4 0.0000 0.0000 0.0000 27.6561 0.0000 -1.3277
# 5 8.7458 5.2288 17.8374 0.0000 28.2235 0.0000
# 6 0.0000 0.0000 0.0000 -1.3277 0.0000 32.4541
#
#
#
# Elastic Compliance Matrix: (Units=1/GPa)
#
#
# Indices 1 2 3 4 5 6 
#
# 1 0.025213 -0.014063 0.002824 0.000000 -0.006992 0.000000
# 2 -0.014063 0.020875 -0.007102 0.000000 0.004979 0.000000
# 3 0.002824 -0.007102 0.011127 0.000000 -0.006591 0.000000
# 4 0.000000 0.000000 0.000000 0.036230 0.000000 0.001482
# 5 -0.006992 0.004979 -0.006591 0.000000 0.040841 0.000000
# 6 0.000000 0.000000 0.000000 0.001482 0.000000 0.030873
#
#
# Mechanical properties :
#
#
# Convention : Reuss Voigt Hill
#
# Bulk Modulus (GPa) = 48.70554 60.56076 54.63315
# Shear Modulus (GPa) = 23.95950 29.14127 26.55039
#
# Velocity S-wave (km/s) = 3.43467 3.78791 3.61561
# Velocity P-wave (km/s) = 6.30162 6.99638 6.65807
#
# Compressibility (1/GPa) = 0.02053154
#
# Stress axis : x y z
#
# Youngs Moduli (GPa) = 39.66263 47.90417 89.87388
#
# Poissons Ratio (x) = 0.67370 -0.25377
# Poissons Ratio (y) = 0.55779 0.63825
# Poissons Ratio (z) = -0.11199 0.34020
#
# Static dielectric constant tensor:
#      x y z
#    x 3.322290 0.000000 0.423340 
#    y 0.000000 3.536880 0.000000 
#    z 0.423340 0.000000 3.325010 
# 
# 
# High freq. dielectric constant tensor:
#      x y z
#    x 1.787300 0.000000 0.017830 
#    y 0.000000 1.785620 0.000000 
#    z 0.017830 0.000000 1.796480 
# 
# From -- ./inp_files/222438.got.cif
#   From: 2010.06.25/outbox.cif.g09.slc.cpg/sg15_112_cif.got.tgz:222438.got - 2010.06.28 07:06:18.
