data_PCOD8141780
_publ_section_title
;
Structure prediction by ZEFSAII (Michael W. Deem and Ramdas Pophale) SiO2 
 PCOD8141780
Probable space group: C 2/C
;
_chemical_formula_sum "Si O2"
_cell_formula_units_Z 48
_cell_length_a 12.270623
_cell_length_b 14.118313
_cell_length_c 25.807003
_cell_angle_alpha 90.000000
_cell_angle_beta 148.540945
_cell_angle_gamma 90.000000
_cell_volume 2333.271245
_symmetry_space_group_name_H-M "C 2/C"
_symmetry_group_IT_number 15
_symmetry_cell_setting 'monoclinic'
loop_
_space_group_symop_operation_xyz
x,y,z
-x,y,1/2-z
-x,-y,-z
x,-y,1/2+z
1/2+x,1/2+y,z
1/2-x,1/2+y,1/2-z
1/2-x,1/2-y,-z
1/2+x,1/2-y,1/2+z
loop_
_atom_site_type_symbol
_atom_site_label
_atom_site_fract_x
_atom_site_fract_y
_atom_site_fract_z
Si Si1 0.793302 0.469730 0.783352
Si Si2 0.542465 0.126502 0.826893
Si Si3 0.534916 0.624288 0.824742
Si Si4 0.210882 0.228950 0.210949
Si Si5 0.122101 0.756826 0.001335
Si Si6 0.008667 0.401821 0.531057
O O1 0.583865 0.531515 0.702358
O O2 0.733059 0.383341 0.722420
O O3 0.872556 0.418336 0.867296
O O4 0.975964 0.535756 0.833901
O O5 0.500000 0.105217 0.750000
O O6 0.430402 0.223535 0.801047
O O7 0.791217 0.147834 0.935199
O O8 0.500000 0.618060 0.750000
O O9 0.433976 0.720684 0.805131
O O10 0.769935 0.631328 0.941083
O O11 0.117828 0.242629 0.114934
O O12 0.250000 0.750000 0.000000
O O13 0.143305 0.670398 0.050533
O O14 0.000000 0.500000 0.500000
#
# Coordination Sequence:
#
# PCOD8141780 Si02
#       6
#     8   8   8   8   8   8
#     4  11  25  39  66  96 123 171 215 259 318 381
#     4  10  22  42  61  91 129 164 216 264 314 388
#     4  11  22  40  63  94 131 158 211 265 308 381
#     4  10  22  41  62  91 126 168 206 260 323 371
#     4  10  21  37  64  92 128 165 209 262 318 383
#     4  12  22  38  65  98 125 165 212 265 321 368
#
# _framework density 20.571975999999999
#
# number of rings (size 3 to 8) (size 9 to 14) (size 15 to 20)
#    0.000    1.333    3.333    3.000    7.000    2.000 
#    0.000    0.833    0.000    0.000    0.000    0.000 
#    0.000    0.000    0.000    0.000    0.000    0.000 
#
# Total GULP energy -297402.115193 kJ/mol
# GULP energy per Si atom -12391.754800 kJ/mol
# Density = 2.052515 g / cm^3
# Si number density = 20.571976 Si / 1000 Ang^3
#
#
#
# Elastic Constant Matrix: (Units=GPa)
#
#
# Indices 1 2 3 4 5 6 
#
# 1 81.7335 52.6971 28.8592 -0.0001 -9.2619 0.0001
# 2 52.6971 132.2926 21.4414 -0.0003 4.3514 0.0001
# 3 28.8592 21.4414 72.2155 -0.0015 -2.3770 0.0005
# 4 -0.0001 -0.0003 -0.0015 27.3994 0.0000 2.7972
# 5 -9.2619 4.3514 -2.3770 0.0000 37.6624 0.0000
# 6 0.0001 0.0001 0.0005 2.7972 0.0000 32.2393
#
#
#
# Elastic Compliance Matrix: (Units=1/GPa)
#
#
# Indices 1 2 3 4 5 6 
#
# 1 0.019225 -0.006945 -0.005450 0.000000 0.005186 0.000000
# 2 -0.006945 0.010493 -0.000437 0.000000 -0.002948 0.000000
# 3 -0.005450 -0.000437 0.016146 0.000001 -0.000271 0.000000
# 4 0.000000 0.000000 0.000001 0.036823 0.000000 -0.003195
# 5 0.005186 -0.002948 -0.000271 0.000000 0.028151 0.000000
# 6 0.000000 0.000000 0.000000 -0.003195 0.000000 0.031295
#
#
# Mechanical properties :
#
#
# Convention : Reuss Voigt Hill
#
# Bulk Modulus (GPa) = 49.50529 54.69300 52.09915
# Shear Modulus (GPa) = 28.64818 31.67649 30.16233
#
# Velocity S-wave (km/s) = 3.73578 3.92827 3.83323
# Velocity P-wave (km/s) = 6.53642 6.87161 6.70611
#
# Compressibility (1/GPa) = 0.02019986
#
# Stress axis : x y z
#
# Youngs Moduli (GPa) = 52.01626 95.29846 61.93395
#
# Poissons Ratio (x) = 0.66187 0.33753
# Poissons Ratio (y) = 0.36126 0.02707
# Poissons Ratio (z) = 0.28348 0.04166
#
# Static dielectric constant tensor:
#      x y z
#    x 4.053760 0.000000 0.348130 
#    y 0.000000 3.758940 0.000000 
#    z 0.348130 0.000000 4.232650 
# 
# 
# High freq. dielectric constant tensor:
#      x y z
#    x 1.793330 0.000000 -0.003460 
#    y 0.000000 1.803830 0.000000 
#    z -0.003460 0.000000 1.813250 
# 
# From -- ./inp_files/238952.got.cif
#   From: 2010.06.25/outbox.cif.g09.slc.cpg/sg15_120_cif.got.tgz:238952.got - 2010.06.28 07:06:18.
