data_PCOD8141587
_publ_section_title
;
Structure prediction by ZEFSAII (Michael W. Deem and Ramdas Pophale) SiO2 
 PCOD8141587
Probable space group: C 2/C
;
_chemical_formula_sum "Si O2"
_cell_formula_units_Z 64
_cell_length_a 8.782788
_cell_length_b 15.213251
_cell_length_c 26.671898
_cell_angle_alpha 90.000000
_cell_angle_beta 125.575849
_cell_angle_gamma 90.000000
_cell_volume 2898.569516
_symmetry_space_group_name_H-M "C 2/C"
_symmetry_group_IT_number 15
_symmetry_cell_setting 'monoclinic'
loop_
_space_group_symop_operation_xyz
x,y,z
-x,y,1/2-z
-x,-y,-z
x,-y,1/2+z
1/2+x,1/2+y,z
1/2-x,1/2+y,1/2-z
1/2-x,1/2-y,-z
1/2+x,1/2-y,1/2+z
loop_
_atom_site_type_symbol
_atom_site_label
_atom_site_fract_x
_atom_site_fract_y
_atom_site_fract_z
Si Si1 0.907648 0.580470 0.321207
Si Si2 0.299103 0.441003 0.520908
Si Si3 0.818308 0.870851 0.886093
Si Si4 0.908140 0.356933 0.934916
Si Si5 0.558803 0.103890 0.705810
Si Si6 0.810623 0.863172 0.996036
Si Si7 0.208760 0.729367 0.273383
Si Si8 0.214682 0.828131 0.077926
O O1 0.890487 0.604442 0.376053
O O2 0.836912 0.480750 0.298792
O O3 0.786757 0.650319 0.266243
O O4 0.121316 0.579020 0.341941
O O5 0.507282 0.437761 0.585028
O O6 0.145773 0.432161 0.535577
O O7 0.270147 0.531936 0.486168
O O8 0.272009 0.362156 0.476292
O O9 0.823869 0.825903 0.941975
O O10 0.831958 0.796772 0.845618
O O11 0.762852 0.277387 0.916139
O O12 0.123896 0.321870 0.986107
O O13 0.500000 0.078433 0.750000
O O14 0.701867 0.184873 0.734329
O O15 0.371289 0.126112 0.640187
O O16 0.006979 0.847281 0.062002
O O17 0.000000 0.753586 0.250000
#
# Coordination Sequence:
#
# PCOD8141587 Si02
#       8
#     8   8   8   8   8   8   8   8
#     4  10  22  42  63  86 123 164 202 248 307 367
#     4  11  21  37  61  90 121 158 206 253 298 356
#     4   9  18  37  62  85 117 159 200 245 300 359
#     4  11  22  38  57  90 128 160 198 255 306 350
#     4  12  24  42  67  93 118 157 207 253 301 366
#     4  10  21  37  59  88 123 163 203 243 302 367
#     4  10  22  42  65  89 119 158 201 253 310 365
#     4  11  22  39  62  89 120 159 204 246 302 368
#
# _framework density 22.079857000000001
#
# number of rings (size 3 to 8) (size 9 to 14) (size 15 to 20)
#    0.000    1.500    0.000    7.500    0.000    1.000 
#    0.000   11.875    0.000    0.000    0.000    0.000 
#    0.000    0.000    0.000    0.000    0.000    0.000 
#
# Total GULP energy -396783.734910 kJ/mol
# GULP energy per Si atom -12399.491716 kJ/mol
# Density = 2.202960 g / cm^3
# Si number density = 22.079857 Si / 1000 Ang^3
#
#
#
# Elastic Constant Matrix: (Units=GPa)
#
#
# Indices 1 2 3 4 5 6 
#
# 1 86.5296 20.6267 39.7584 0.0000 -11.6549 0.0000
# 2 20.6267 116.8301 45.3294 0.0000 -11.4001 0.0000
# 3 39.7584 45.3294 106.4046 0.0000 -4.6503 0.0000
# 4 0.0000 0.0000 0.0000 31.4896 0.0000 0.1440
# 5 -11.6549 -11.4001 -4.6503 0.0000 31.1117 0.0000
# 6 0.0000 0.0000 0.0000 0.1440 0.0000 30.5544
#
#
#
# Elastic Compliance Matrix: (Units=1/GPa)
#
#
# Indices 1 2 3 4 5 6 
#
# 1 0.014601 -0.000103 -0.005209 0.000000 0.004654 0.000000
# 2 -0.000103 0.010566 -0.004324 0.000000 0.003187 0.000000
# 3 -0.005209 -0.004324 0.013117 0.000000 -0.001575 0.000000
# 4 0.000000 0.000000 0.000000 0.031757 0.000000 -0.000150
# 5 0.004654 0.003187 -0.001575 0.000000 0.034818 0.000000
# 6 0.000000 0.000000 0.000000 -0.000150 0.000000 0.032729
#
#
# Mechanical properties :
#
#
# Convention : Reuss Voigt Hill
#
# Bulk Modulus (GPa) = 52.59102 57.91040 55.25071
# Shear Modulus (GPa) = 30.63775 32.23446 31.43610
#
# Velocity S-wave (km/s) = 3.72908 3.82501 3.77735
# Velocity P-wave (km/s) = 6.51242 6.76700 6.64093
#
# Compressibility (1/GPa) = 0.01901465
#
# Stress axis : x y z
#
# Youngs Moduli (GPa) = 68.48700 94.64249 76.23493
#
# Poissons Ratio (x) = 0.00974 0.39708
# Poissons Ratio (y) = 0.00705 0.32960
# Poissons Ratio (z) = 0.35672 0.40919
#
# Static dielectric constant tensor:
#      x y z
#    x 4.015260 0.000000 0.123610 
#    y 0.000000 3.942730 0.000000 
#    z 0.123610 0.000000 4.101440 
# 
# 
# High freq. dielectric constant tensor:
#      x y z
#    x 1.863630 0.000000 0.004760 
#    y 0.000000 1.869050 0.000000 
#    z 0.004760 0.000000 1.866560 
# 
# From -- ./inp_files/308295.got.cif
#   From: 2010.06.25/outbox.cif.g09.slc.cpg/sg15_155_cif.got.tgz:308295.got - 2010.06.28 07:06:18.
