data_PCOD8141613
_publ_section_title
;
Structure prediction by ZEFSAII (Michael W. Deem and Ramdas Pophale) SiO2 
 PCOD8141613
Probable space group: C 2/C
;
_chemical_formula_sum "Si O2"
_cell_formula_units_Z 40
_cell_length_a 8.742979
_cell_length_b 13.402861
_cell_length_c 18.164147
_cell_angle_alpha 90.000000
_cell_angle_beta 59.642504
_cell_angle_gamma 90.000000
_cell_volume 1836.651685
_symmetry_space_group_name_H-M "C 2/C"
_symmetry_group_IT_number 15
_symmetry_cell_setting 'monoclinic'
loop_
_space_group_symop_operation_xyz
x,y,z
-x,y,1/2-z
-x,-y,-z
x,-y,1/2+z
1/2+x,1/2+y,z
1/2-x,1/2+y,1/2-z
1/2-x,1/2-y,-z
1/2+x,1/2-y,1/2+z
loop_
_atom_site_type_symbol
_atom_site_label
_atom_site_fract_x
_atom_site_fract_y
_atom_site_fract_z
Si Si1 0.898630 0.094531 0.553430
Si Si2 0.880530 0.786292 0.605544
Si Si3 0.993493 0.596245 0.667652
Si Si4 0.336908 0.900213 0.734640
Si Si5 0.986172 0.212717 0.839445
O O1 0.692635 0.067712 0.595434
O O2 0.956389 0.186284 0.486922
O O3 0.958134 0.120371 0.622639
O O4 0.000000 0.000000 0.500000
O O5 0.838069 0.878978 0.672723
O O6 0.709794 0.756595 0.597608
O O7 0.929282 0.688775 0.637761
O O8 0.000000 0.630617 0.750000
O O9 0.849112 0.505732 0.688062
O O10 0.500000 0.911434 0.750000
O O11 0.373136 0.802181 0.676094
O O12 0.000000 0.180691 0.750000
#
# Coordination Sequence:
#
# PCOD8141613 Si02
#       5
#     8   8   8   8   8
#     4  12  23  38  60  90 122 155 193 245 300 346
#     4  10  21  37  60  89 118 153 200 248 290 341
#     4  11  21  38  61  88 122 158 194 242 294 350
#     4   8  17  36  60  82 111 159 199 228 284 353
#     4   9  19  39  62  83 113 161 203 235 281 354
#
# _framework density 21.778762
#
# number of rings (size 3 to 8) (size 9 to 14) (size 15 to 20)
#    0.000    2.400    0.000    7.200    0.000    0.000 
#    0.000    9.000    0.000    0.000    0.000    0.000 
#    0.000    0.000    0.000    0.000    0.000    0.000 
#
# Total GULP energy -247778.020442 kJ/mol
# GULP energy per Si atom -12388.901022 kJ/mol
# Density = 2.172919 g / cm^3
# Si number density = 21.778762 Si / 1000 Ang^3
#
#
#
# Elastic Constant Matrix: (Units=GPa)
#
#
# Indices 1 2 3 4 5 6 
#
# 1 39.7112 34.4667 33.6365 0.0000 -6.0976 0.0000
# 2 34.4667 115.4909 52.5599 0.0000 22.2243 0.0000
# 3 33.6365 52.5599 117.8086 0.0000 -6.5090 0.0000
# 4 0.0000 0.0000 0.0000 47.2726 0.0000 4.4308
# 5 -6.0976 22.2243 -6.5090 0.0000 34.4123 0.0000
# 6 0.0000 0.0000 0.0000 4.4308 0.0000 19.1754
#
#
#
# Elastic Compliance Matrix: (Units=1/GPa)
#
#
# Indices 1 2 3 4 5 6 
#
# 1 0.044174 -0.013576 -0.005698 0.000000 0.015517 0.000000
# 2 -0.013576 0.017778 -0.004874 0.000000 -0.014809 0.000000
# 3 -0.005698 -0.004874 0.012539 0.000000 0.004509 0.000000
# 4 0.000000 0.000000 0.000000 0.021622 0.000000 -0.004996
# 5 0.015517 -0.014809 0.004509 0.000000 0.042226 0.000000
# 6 0.000000 0.000000 0.000000 -0.004996 0.000000 0.053305
#
#
# Mechanical properties :
#
#
# Convention : Reuss Voigt Hill
#
# Bulk Modulus (GPa) = 38.17495 57.14853 47.66174
# Shear Modulus (GPa) = 20.10691 30.32856 25.21774
#
# Velocity S-wave (km/s) = 3.04177 3.73577 3.40649
# Velocity P-wave (km/s) = 5.46837 6.70115 6.11590
#
# Compressibility (1/GPa) = 0.02619519
#
# Stress axis : x y z
#
# Youngs Moduli (GPa) = 22.63775 56.24962 79.75235
#
# Poissons Ratio (x) = 0.76364 0.45446
# Poissons Ratio (y) = 0.30733 0.38868
# Poissons Ratio (z) = 0.12900 0.27414
#
# Static dielectric constant tensor:
#      x y z
#    x 3.725110 0.000000 -0.576160 
#    y 0.000000 5.029490 0.000000 
#    z -0.576160 0.000000 4.690100 
# 
# 
# High freq. dielectric constant tensor:
#      x y z
#    x 1.809610 0.000000 -0.023420 
#    y 0.000000 1.866890 0.000000 
#    z -0.023420 0.000000 1.864590 
# 
# From -- ./inp_files/237366.got.cif
#   From: 2010.06.25/outbox.cif.g09.slc.cpg/sg15_119_cif.got.tgz:237366.got - 2010.06.28 07:06:18.
