data_PCOD8141798
_publ_section_title
;
Structure prediction by ZEFSAII (Michael W. Deem and Ramdas Pophale) SiO2 
 PCOD8141798
Probable space group: C 2/C
;
_chemical_formula_sum "Si O2"
_cell_formula_units_Z 56
_cell_length_a 16.186139
_cell_length_b 12.908148
_cell_length_c 14.006129
_cell_angle_alpha 90.000000
_cell_angle_beta 72.405160
_cell_angle_gamma 90.000000
_cell_volume 2789.443124
_symmetry_space_group_name_H-M "C 2/C"
_symmetry_group_IT_number 15
_symmetry_cell_setting 'monoclinic'
loop_
_space_group_symop_operation_xyz
x,y,z
-x,y,1/2-z
-x,-y,-z
x,-y,1/2+z
1/2+x,1/2+y,z
1/2-x,1/2+y,1/2-z
1/2-x,1/2-y,-z
1/2+x,1/2-y,1/2+z
loop_
_atom_site_type_symbol
_atom_site_label
_atom_site_fract_x
_atom_site_fract_y
_atom_site_fract_z
Si Si1 0.693979 0.850999 0.519370
Si Si2 0.266951 0.966561 0.359458
Si Si3 0.667829 0.821278 0.017365
Si Si4 0.229030 0.513774 0.357603
Si Si5 0.919615 0.001051 0.346634
Si Si6 0.414266 0.633032 0.527394
Si Si7 0.543391 0.281119 0.138320
O O1 0.750000 0.750000 0.500000
O O2 0.698263 0.906974 0.416426
O O3 0.594884 0.815424 0.575204
O O4 0.736686 0.925907 0.582772
O O5 0.339808 0.894115 0.385667
O O6 0.293886 0.996525 0.244092
O O7 0.175536 0.906768 0.394884
O O8 0.589461 0.741407 0.030682
O O9 0.673031 0.892172 0.920337
O O10 0.750000 0.750000 0.000000
O O11 0.329119 0.548647 0.340578
O O12 0.946350 0.045934 0.441462
O O13 0.000000 0.027016 0.250000
O O14 0.895674 0.878609 0.355886
O O15 0.477162 0.658459 0.592125
O O16 0.500000 0.237235 0.250000
#
# Coordination Sequence:
#
# PCOD8141798 Si02
#       7
#     8   8   8   8   8   8   8
#     4  11  22  40  61  94 125 157 214 253 301 383
#     4  10  21  37  65  88 124 161 205 260 303 366
#     4   9  19  38  61  85 117 162 206 247 299 372
#     4  11  21  39  62  93 120 160 206 255 305 368
#     4  11  21  38  59  93 127 154 201 257 320 367
#     4  11  21  42  61  88 126 164 203 260 313 370
#     4  11  24  38  63  93 126 162 202 254 323 370
#
# _framework density 20.075692
#
# number of rings (size 3 to 8) (size 9 to 14) (size 15 to 20)
#    0.000    1.429    5.714    2.143    2.000    2.286 
#    2.571    2.857    0.000    0.000    0.000    0.000 
#    0.000    0.000    0.000    0.000    0.000    0.000 
#
# Total GULP energy -346971.393255 kJ/mol
# GULP energy per Si atom -12391.835473 kJ/mol
# Density = 2.003000 g / cm^3
# Si number density = 20.075692 Si / 1000 Ang^3
#
#
#
# Elastic Constant Matrix: (Units=GPa)
#
#
# Indices 1 2 3 4 5 6 
#
# 1 46.6450 13.1748 17.4444 0.0000 1.3466 0.0000
# 2 13.1748 95.6793 25.0444 0.0000 2.4131 0.0000
# 3 17.4444 25.0444 110.0382 0.0000 22.7123 0.0000
# 4 0.0000 0.0000 0.0000 20.8958 0.0000 -3.3900
# 5 1.3466 2.4131 22.7123 0.0000 30.1947 0.0000
# 6 0.0000 0.0000 0.0000 -3.3900 0.0000 26.1139
#
#
#
# Elastic Compliance Matrix: (Units=1/GPa)
#
#
# Indices 1 2 3 4 5 6 
#
# 1 0.023373 -0.002335 -0.003548 0.000000 0.001813 0.000000
# 2 -0.002335 0.011384 -0.002432 0.000000 0.001024 0.000000
# 3 -0.003548 -0.002432 0.011993 0.000000 -0.008668 0.000000
# 4 0.000000 0.000000 0.000000 0.048886 0.000000 0.006346
# 5 0.001813 0.001024 -0.008668 0.000000 0.039476 0.000000
# 6 0.000000 0.000000 0.000000 0.006346 0.000000 0.039118
#
#
# Mechanical properties :
#
#
# Convention : Reuss Voigt Hill
#
# Bulk Modulus (GPa) = 33.20188 40.40995 36.80591
# Shear Modulus (GPa) = 24.88803 28.55412 26.72108
#
# Velocity S-wave (km/s) = 3.52477 3.77546 3.65227
# Velocity P-wave (km/s) = 5.75670 6.25923 6.01322
#
# Compressibility (1/GPa) = 0.03011878
#
# Stress axis : x y z
#
# Youngs Moduli (GPa) = 42.78499 87.84310 83.38243
#
# Poissons Ratio (x) = 0.20515 0.29584
# Poissons Ratio (y) = 0.09992 0.20279
# Poissons Ratio (z) = 0.15180 0.21364
#
# Static dielectric constant tensor:
#      x y z
#    x 3.737360 0.000000 0.134440 
#    y 0.000000 4.347920 0.000000 
#    z 0.134440 0.000000 3.760800 
# 
# 
# High freq. dielectric constant tensor:
#      x y z
#    x 1.757680 0.000000 0.013810 
#    y 0.000000 1.797020 0.000000 
#    z 0.013810 0.000000 1.780380 
# 
# From -- ./inp_files/160850.got.cif
#   From: 2010.06.25/outbox.cif.g09.slc.cpg/sg15_81_cif.got.tgz:160850.got - 2010.06.28 07:06:18.
