data_PCOD8141890
_publ_section_title
;
Structure prediction by ZEFSAII (Michael W. Deem and Ramdas Pophale) SiO2 
 PCOD8141890
Probable space group: C 2/C
;
_chemical_formula_sum "Si O2"
_cell_formula_units_Z 40
_cell_length_a 13.350384
_cell_length_b 14.988548
_cell_length_c 9.121405
_cell_angle_alpha 90.000000
_cell_angle_beta 119.136056
_cell_angle_gamma 90.000000
_cell_volume 1594.267031
_symmetry_space_group_name_H-M "C 2/C"
_symmetry_group_IT_number 15
_symmetry_cell_setting 'monoclinic'
loop_
_space_group_symop_operation_xyz
x,y,z
-x,y,1/2-z
-x,-y,-z
x,-y,1/2+z
1/2+x,1/2+y,z
1/2-x,1/2+y,1/2-z
1/2-x,1/2-y,-z
1/2+x,1/2-y,1/2+z
loop_
_atom_site_type_symbol
_atom_site_label
_atom_site_fract_x
_atom_site_fract_y
_atom_site_fract_z
Si Si1 0.584526 0.418194 0.557584
Si Si2 0.184705 0.827935 0.367041
Si Si3 0.311135 0.014388 0.820044
Si Si4 0.842448 0.616783 0.570603
Si Si5 0.894679 0.192683 0.018106
O O1 0.500000 0.500000 0.500000
O O2 0.586267 0.368218 0.401902
O O3 0.708336 0.452184 0.688502
O O4 0.523143 0.348229 0.626796
O O5 0.250000 0.750000 0.500000
O O6 0.135147 0.793529 0.176424
O O7 0.271719 0.909114 0.402738
O O8 0.383865 0.062078 0.743644
O O9 0.384710 0.942407 0.963157
O O10 0.899605 0.713160 0.604250
O O11 0.702963 0.627988 0.481501
#
# Coordination Sequence:
#
# PCOD8141890 Si02
#       5
#     8   8   8   8   8
#     4  12  21  37  63  98 122 160 212 269 315 362
#     4  11  22  37  58  94 128 169 206 260 321 380
#     4  11  21  38  64  91 130 166 215 260 320 382
#     4  10  21  38  57  93 126 173 200 262 322 386
#     4  10  22  36  58  90 136 160 210 263 325 375
#
# _framework density 25.0899
#
# number of rings (size 3 to 8) (size 9 to 14) (size 15 to 20)
#    0.000    1.200    6.000    1.800    0.000    2.400 
#    0.000    0.000    0.000    1.200    5.200    0.000 
#    0.000    0.000    0.000    0.000    0.000    0.000 
#
# Total GULP energy -247859.933933 kJ/mol
# GULP energy per Si atom -12392.996697 kJ/mol
# Density = 2.503279 g / cm^3
# Si number density = 25.089900 Si / 1000 Ang^3
#
#
#
# Elastic Constant Matrix: (Units=GPa)
#
#
# Indices 1 2 3 4 5 6 
#
# 1 41.4710 42.1691 23.3444 0.0000 -24.9867 0.0000
# 2 42.1691 149.9293 56.6743 0.0000 -28.5440 0.0000
# 3 23.3444 56.6743 68.1751 0.0000 -20.4061 0.0000
# 4 0.0000 0.0000 0.0000 51.0720 0.0000 -18.1142
# 5 -24.9867 -28.5440 -20.4061 0.0000 40.7328 0.0000
# 6 0.0000 0.0000 0.0000 -18.1142 0.0000 51.3151
#
#
#
# Elastic Compliance Matrix: (Units=1/GPa)
#
#
# Indices 1 2 3 4 5 6 
#
# 1 0.046976 -0.007949 -0.002964 0.000000 0.021761 0.000000
# 2 -0.007949 0.011452 -0.006889 0.000000 -0.000302 0.000000
# 3 -0.002964 -0.006889 0.022846 0.000000 0.004800 0.000000
# 4 0.000000 0.000000 0.000000 0.022383 0.000000 0.007901
# 5 0.021761 -0.000302 0.004800 0.000000 0.040092 0.000000
# 6 0.000000 0.000000 0.000000 0.007901 0.000000 0.022277
#
#
# Mechanical properties :
#
#
# Convention : Reuss Voigt Hill
#
# Bulk Modulus (GPa) = 21.89568 55.99457 38.94513
# Shear Modulus (GPa) = 23.05721 37.78315 30.42018
#
# Velocity S-wave (km/s) = 3.03476 3.88482 3.48580
# Velocity P-wave (km/s) = 4.58536 6.51831 5.63533
#
# Compressibility (1/GPa) = 0.04567110
#
# Stress axis : x y z
#
# Youngs Moduli (GPa) = 21.28756 87.32095 43.77083
#
# Poissons Ratio (x) = 0.69413 0.12972
# Poissons Ratio (y) = 0.16922 0.30152
# Poissons Ratio (z) = 0.06309 0.60152
#
# Static dielectric constant tensor:
#      x y z
#    x 4.031390 0.000000 -0.904890 
#    y 0.000000 6.667210 0.000000 
#    z -0.904890 0.000000 4.049020 
# 
# 
# High freq. dielectric constant tensor:
#      x y z
#    x 1.982360 0.000000 -0.026230 
#    y 0.000000 2.013250 0.000000 
#    z -0.026230 0.000000 2.002580 
# 
# From -- ./inp_files/37820.got.cif
#   From: 2010.06.25/outbox.cif.g09.slc.cpg/sg15_19_cif.got.tgz:37820.got - 2010.06.28 07:06:18.
