data_PCOD8141988
_publ_section_title
;
Structure prediction by ZEFSAII (Michael W. Deem and Ramdas Pophale) SiO2 
 PCOD8141988
Probable space group: C 2/C
;
_chemical_formula_sum "Si O2"
_cell_formula_units_Z 48
_cell_length_a 9.113091
_cell_length_b 15.466317
_cell_length_c 16.058903
_cell_angle_alpha 90.000000
_cell_angle_beta 93.535846
_cell_angle_gamma 90.000000
_cell_volume 2259.128749
_symmetry_space_group_name_H-M "C 2/C"
_symmetry_group_IT_number 15
_symmetry_cell_setting 'monoclinic'
loop_
_space_group_symop_operation_xyz
x,y,z
-x,y,1/2-z
-x,-y,-z
x,-y,1/2+z
1/2+x,1/2+y,z
1/2-x,1/2+y,1/2-z
1/2-x,1/2-y,-z
1/2+x,1/2-y,1/2+z
loop_
_atom_site_type_symbol
_atom_site_label
_atom_site_fract_x
_atom_site_fract_y
_atom_site_fract_z
Si Si1 0.576450 0.407716 0.005214
Si Si2 0.364633 0.640635 0.808073
Si Si3 0.836989 0.504593 0.779763
Si Si4 0.174641 0.683003 0.256797
Si Si5 0.200756 0.826698 0.557083
Si Si6 0.665603 0.986996 0.031704
O O1 0.575929 0.368455 0.097229
O O2 0.500000 0.500000 0.000000
O O3 0.477359 0.340283 0.947880
O O4 0.742095 0.422950 0.976407
O O5 0.500000 0.635330 0.750000
O O6 0.255027 0.562362 0.786634
O O7 0.279102 0.732630 0.795387
O O8 0.768225 0.407501 0.779430
O O9 0.828460 0.543409 0.872160
O O10 0.000000 0.502263 0.750000
O O11 0.241104 0.695371 0.350213
O O12 0.000000 0.679968 0.250000
O O13 0.250000 0.750000 0.500000
O O14 0.271695 0.914578 0.526457
O O15 0.500000 0.000000 0.000000
#
# Coordination Sequence:
#
# PCOD8141988 Si02
#       6
#     8   8   8   8   8   8
#     4  10  21  38  61  92 124 163 211 265 325 393
#     4  11  21  39  64  90 119 161 213 262 314 388
#     4  11  22  39  60  87 123 164 207 261 326 388
#     4  10  21  38  60  88 121 163 206 252 316 395
#     4  11  21  39  63  90 122 163 211 263 325 397
#     4  11  22  39  62  89 123 168 213 265 326 389
#
# _framework density 21.247129999999999
#
# number of rings (size 3 to 8) (size 9 to 14) (size 15 to 20)
#    0.000    1.333    0.000   10.000    0.000    0.000 
#    0.000    7.500    0.000    0.000    0.000    0.000 
#    0.000    0.000    0.000    0.000    0.000    0.000 
#
# Total GULP energy -297532.174878 kJ/mol
# GULP energy per Si atom -12397.173953 kJ/mol
# Density = 2.119877 g / cm^3
# Si number density = 21.247130 Si / 1000 Ang^3
#
#
#
# Elastic Constant Matrix: (Units=GPa)
#
#
# Indices 1 2 3 4 5 6 
#
# 1 114.0656 33.8949 24.2880 0.0000 21.0583 0.0000
# 2 33.8949 133.3574 20.9933 0.0000 20.1969 0.0000
# 3 24.2880 20.9933 122.5573 0.0000 31.1046 0.0000
# 4 0.0000 0.0000 0.0000 36.6057 0.0000 -2.2744
# 5 21.0583 20.1969 31.1046 0.0000 39.8284 0.0000
# 6 0.0000 0.0000 0.0000 -2.2744 0.0000 29.5903
#
#
#
# Elastic Compliance Matrix: (Units=1/GPa)
#
#
# Indices 1 2 3 4 5 6 
#
# 1 0.010196 -0.001893 -0.000713 0.000000 -0.003874 0.000000
# 2 -0.001893 0.008492 -0.000300 0.000000 -0.003071 0.000000
# 3 -0.000713 -0.000300 0.010249 0.000000 -0.007475 0.000000
# 4 0.000000 0.000000 0.000000 0.027449 0.000000 0.002110
# 5 -0.003874 -0.003071 -0.007475 0.000000 0.034552 0.000000
# 6 0.000000 0.000000 0.000000 0.002110 0.000000 0.033957
#
#
# Mechanical properties :
#
#
# Convention : Reuss Voigt Hill
#
# Bulk Modulus (GPa) = 43.24100 58.70361 50.97231
# Shear Modulus (GPa) = 36.12299 40.59181 38.35740
#
# Velocity S-wave (km/s) = 4.12774 4.37562 4.25349
# Velocity P-wave (km/s) = 6.56607 7.29500 6.94011
#
# Compressibility (1/GPa) = 0.02312620
#
# Stress axis : x y z
#
# Youngs Moduli (GPa) = 98.07388 117.75716 97.56714
#
# Poissons Ratio (x) = 0.22286 0.06958
# Poissons Ratio (y) = 0.18561 0.02928
# Poissons Ratio (z) = 0.06995 0.03534
#
# Static dielectric constant tensor:
#      x y z
#    x 4.195030 0.000000 0.180560 
#    y 0.000000 4.551680 0.000000 
#    z 0.180560 0.000000 3.919820 
# 
# 
# High freq. dielectric constant tensor:
#      x y z
#    x 1.825200 0.000000 0.022100 
#    y 0.000000 1.838730 0.000000 
#    z 0.022100 0.000000 1.841290 
# 
# From -- ./inp_files/189934.got.cif
#   From: 2010.06.25/outbox.cif.g09.slc.cpg/sg15_95_cif.got.tgz:189934.got - 2010.06.28 07:06:18.
