data_PCOD8141773
_publ_section_title
;
Structure prediction by ZEFSAII (Michael W. Deem and Ramdas Pophale) SiO2 
 PCOD8141773
Probable space group: C 2/C
;
_chemical_formula_sum "Si O2"
_cell_formula_units_Z 52
_cell_length_a 15.648521
_cell_length_b 9.933760
_cell_length_c 26.557638
_cell_angle_alpha 90.000000
_cell_angle_beta 37.182713
_cell_angle_gamma 90.000000
_cell_volume 2495.003908
_symmetry_space_group_name_H-M "C 2/C"
_symmetry_group_IT_number 15
_symmetry_cell_setting 'monoclinic'
loop_
_space_group_symop_operation_xyz
x,y,z
-x,y,1/2-z
-x,-y,-z
x,-y,1/2+z
1/2+x,1/2+y,z
1/2-x,1/2+y,1/2-z
1/2-x,1/2-y,-z
1/2+x,1/2-y,1/2+z
loop_
_atom_site_type_symbol
_atom_site_label
_atom_site_fract_x
_atom_site_fract_y
_atom_site_fract_z
Si Si1 0.500000 0.782749 0.250000
Si Si2 0.274259 0.126660 0.614916
Si Si3 0.438573 0.670632 0.983773
Si Si4 0.832420 0.080535 0.264780
Si Si5 0.814634 0.340126 0.763506
Si Si6 0.268948 0.448568 0.124165
Si Si7 0.958803 0.848422 0.359634
O O1 0.444559 0.688388 0.231650
O O2 0.634827 0.867075 0.164296
O O3 0.408846 0.177940 0.519221
O O4 0.265875 0.234765 0.663430
O O5 0.147995 0.119064 0.634391
O O6 0.273627 0.979443 0.641817
O O7 0.331252 0.560743 0.057623
O O8 0.602766 0.647488 0.918888
O O9 0.396753 0.659201 0.944815
O O10 0.742980 0.161584 0.266043
O O11 0.916939 0.958615 0.199355
O O12 0.797986 0.487801 0.794101
O O13 0.978577 0.298498 0.683378
#
# Coordination Sequence:
#
# PCOD8141773 Si02
#       7
#     4   8   8   8   8   8   8
#     4  12  24  40  64  92 124 164 212 264 310 368
#     4  10  22  39  64  92 124 166 210 258 309 374
#     4  10  21  42  66  92 131 169 203 261 323 374
#     4  11  21  39  63  92 125 163 210 265 309 364
#     4  10  21  37  64  91 123 165 213 250 310 380
#     4  10  23  40  64  94 130 163 210 260 318 377
#     4  11  20  40  65  93 122 167 210 262 308 364
#
# _framework density 20.841650999999999
#
# number of rings (size 3 to 8) (size 9 to 14) (size 15 to 20)
#    0.000    1.538    3.077    2.769    6.462    0.000 
#    0.000    3.846    0.000    0.000    0.000    0.000 
#    0.000    0.000    0.000    0.000    0.000    0.000 
#
# Total GULP energy -322117.406984 kJ/mol
# GULP energy per Si atom -12389.131038 kJ/mol
# Density = 2.079421 g / cm^3
# Si number density = 20.841651 Si / 1000 Ang^3
#
#
#
# Elastic Constant Matrix: (Units=GPa)
#
#
# Indices 1 2 3 4 5 6 
#
# 1 73.1926 20.2264 24.9936 0.0000 13.9020 0.0003
# 2 20.2264 61.9927 39.0314 0.0000 -5.8122 0.0003
# 3 24.9936 39.0314 86.1382 0.0000 7.2033 0.0001
# 4 0.0000 0.0000 0.0000 16.4345 0.0000 -2.8640
# 5 13.9020 -5.8122 7.2033 0.0000 30.8277 0.0000
# 6 0.0003 0.0003 0.0001 -2.8640 0.0000 36.7604
#
#
#
# Elastic Compliance Matrix: (Units=1/GPa)
#
#
# Indices 1 2 3 4 5 6 
#
# 1 0.017362 -0.005198 -0.001985 0.000000 -0.008346 0.000000
# 2 -0.005198 0.025605 -0.010907 0.000000 0.009720 0.000000
# 3 -0.001985 -0.010907 0.017568 0.000000 -0.005266 0.000000
# 4 0.000000 0.000000 0.000000 0.061685 0.000000 0.004806
# 5 -0.008346 0.009720 -0.005266 0.000000 0.039265 0.000000
# 6 0.000000 0.000000 0.000000 0.004806 0.000000 0.027578
#
#
# Mechanical properties :
#
#
# Convention : Reuss Voigt Hill
#
# Bulk Modulus (GPa) = 41.05718 43.31405 42.18561
# Shear Modulus (GPa) = 21.42612 25.94266 23.68439
#
# Velocity S-wave (km/s) = 3.20979 3.53193 3.37471
# Velocity P-wave (km/s) = 5.78613 6.12048 5.95565
#
# Compressibility (1/GPa) = 0.02435628
#
# Stress axis : x y z
#
# Youngs Moduli (GPa) = 57.59794 39.05440 56.92235
#
# Poissons Ratio (x) = 0.20299 0.11297
# Poissons Ratio (y) = 0.29937 0.62086
# Poissons Ratio (z) = 0.11431 0.42597
#
# Static dielectric constant tensor:
#      x y z
#    x 3.771550 0.000000 0.066700 
#    y 0.000000 3.998040 0.000000 
#    z 0.066700 0.000000 3.949730 
# 
# 
# High freq. dielectric constant tensor:
#      x y z
#    x 1.818340 0.000000 0.007770 
#    y 0.000000 1.815950 0.000000 
#    z 0.007770 0.000000 1.808200 
# 
# From -- ./inp_files/295728.got.cif
#   From: 2010.06.25/outbox.cif.g09.slc.cpg/sg15_148_cif.got.tgz:295728.got - 2010.06.28 07:06:18.
