data_PCOD8141597
_publ_section_title
;
Structure prediction by ZEFSAII (Michael W. Deem and Ramdas Pophale) SiO2 
 PCOD8141597
Probable space group: C 2/C
;
_chemical_formula_sum "Si O2"
_cell_formula_units_Z 60
_cell_length_a 26.187959
_cell_length_b 11.804116
_cell_length_c 10.971033
_cell_angle_alpha 90.000000
_cell_angle_beta 52.133464
_cell_angle_gamma 90.000000
_cell_volume 2677.338424
_symmetry_space_group_name_H-M "C 2/C"
_symmetry_group_IT_number 15
_symmetry_cell_setting 'monoclinic'
loop_
_space_group_symop_operation_xyz
x,y,z
-x,y,1/2-z
-x,-y,-z
x,-y,1/2+z
1/2+x,1/2+y,z
1/2-x,1/2+y,1/2-z
1/2-x,1/2-y,-z
1/2+x,1/2-y,1/2+z
loop_
_atom_site_type_symbol
_atom_site_label
_atom_site_fract_x
_atom_site_fract_y
_atom_site_fract_z
Si Si1 0.185838 0.754896 0.912692
Si Si2 0.094177 0.517168 0.293191
Si Si3 0.882820 0.105964 0.786060
Si Si4 0.824445 0.655124 0.956255
Si Si5 0.000000 0.804896 0.250000
Si Si6 0.683795 0.377425 0.672715
Si Si7 0.337841 0.782903 0.692508
Si Si8 0.072914 0.400241 0.566437
O O1 0.160276 0.827168 0.835137
O O2 0.263195 0.743218 0.795646
O O3 0.169319 0.825836 0.057214
O O4 0.150316 0.630721 0.960586
O O5 0.144076 0.621383 0.234766
O O6 0.056429 0.483777 0.475358
O O7 0.051297 0.548107 0.233732
O O8 0.132985 0.403668 0.207994
O O9 0.880054 0.170383 0.659616
O O10 0.953956 0.113195 0.739619
O O11 0.864182 0.976140 0.797889
O O12 0.758432 0.583237 0.072080
O O13 0.860933 0.660207 0.032346
O O14 0.814384 0.784817 0.935994
O O15 0.960992 0.722542 0.399966
#
# Coordination Sequence:
#
# PCOD8141597 Si02
#       8
#     8   8   8   8   4   8   8   8
#     4  10  21  37  59  94 128 165 206 260 332 397
#     4  12  21  39  63  93 128 168 212 269 329 390
#     4  11  23  40  65  88 126 172 225 263 319 381
#     4  10  22  37  59  98 138 164 202 258 335 399
#     4  10  24  48  64  90 124 176 230 278 314 380
#     4  10  22  38  60  92 133 171 202 260 322 399
#     4  11  22  35  61  99 130 164 210 262 329 404
#     4  11  24  41  65  91 129 168 219 271 331 383
#
# _framework density 22.410316000000002
#
# number of rings (size 3 to 8) (size 9 to 14) (size 15 to 20)
#    0.000    1.333    5.333    1.200    3.733    0.533 
#    0.000    2.667    0.000    0.800    0.000    0.000 
#    0.000    0.000    0.000    0.000    0.000    0.000 
#
# Total GULP energy -371794.282395 kJ/mol
# GULP energy per Si atom -12393.142746 kJ/mol
# Density = 2.235931 g / cm^3
# Si number density = 22.410316 Si / 1000 Ang^3
#
#
#
# Elastic Constant Matrix: (Units=GPa)
#
#
# Indices 1 2 3 4 5 6 
#
# 1 123.1563 55.1139 23.4589 0.0000 25.0962 0.0000
# 2 55.1139 98.0492 14.6763 0.0000 9.5371 0.0000
# 3 23.4589 14.6763 81.8347 0.0000 23.9053 0.0000
# 4 0.0000 0.0000 0.0000 27.0653 0.0000 1.7602
# 5 25.0962 9.5371 23.9053 0.0000 23.9509 0.0000
# 6 0.0000 0.0000 0.0000 1.7602 0.0000 36.0051
#
#
#
# Elastic Compliance Matrix: (Units=1/GPa)
#
#
# Indices 1 2 3 4 5 6 
#
# 1 0.013338 -0.006437 0.000938 0.000000 -0.012349 0.000000
# 2 -0.006437 0.013768 -0.001401 0.000000 0.002661 0.000000
# 3 0.000938 -0.001401 0.017399 0.000000 -0.017791 0.000000
# 4 0.000000 0.000000 0.000000 0.037065 0.000000 -0.001812
# 5 -0.012349 0.002661 -0.017791 0.000000 0.071390 0.000000
# 6 0.000000 0.000000 0.000000 -0.001812 0.000000 0.027862
#
#
# Mechanical properties :
#
#
# Convention : Reuss Voigt Hill
#
# Bulk Modulus (GPa) = 32.56683 54.39317 43.48000
# Shear Modulus (GPa) = 24.40719 31.39033 27.89876
#
# Velocity S-wave (km/s) = 3.30374 3.74666 3.53215
# Velocity P-wave (km/s) = 5.39597 6.56055 6.00655
#
# Compressibility (1/GPa) = 0.03070609
#
# Stress axis : x y z
#
# Youngs Moduli (GPa) = 74.97386 72.63250 57.47374
#
# Poissons Ratio (x) = 0.46751 -0.05393
# Poissons Ratio (y) = 0.48258 0.08054
# Poissons Ratio (z) = -0.07035 0.10178
#
# Static dielectric constant tensor:
#      x y z
#    x 4.183430 0.000000 0.175120 
#    y 0.000000 3.782780 0.000000 
#    z 0.175120 0.000000 4.104290 
# 
# 
# High freq. dielectric constant tensor:
#      x y z
#    x 1.888970 0.000000 0.018800 
#    y 0.000000 1.869240 0.000000 
#    z 0.018800 0.000000 1.879150 
# 
# From -- ./inp_files/117520.got.cif
#   From: 2010.06.25/outbox.cif.g09.slc.cpg/sg15_59_cif.got.tgz:117520.got - 2010.06.28 07:06:18.
