data_PCOD8141992
_publ_section_title
;
Structure prediction by ZEFSAII (Michael W. Deem and Ramdas Pophale) SiO2 
 PCOD8141992
Probable space group: C 2/C
;
_chemical_formula_sum "Si O2"
_cell_formula_units_Z 64
_cell_length_a 26.547671
_cell_length_b 11.576525
_cell_length_c 20.663522
_cell_angle_alpha 90.000000
_cell_angle_beta 148.787909
_cell_angle_gamma 90.000000
_cell_volume 3290.884839
_symmetry_space_group_name_H-M "C 2/C"
_symmetry_group_IT_number 15
_symmetry_cell_setting 'monoclinic'
loop_
_space_group_symop_operation_xyz
x,y,z
-x,y,1/2-z
-x,-y,-z
x,-y,1/2+z
1/2+x,1/2+y,z
1/2-x,1/2+y,1/2-z
1/2-x,1/2-y,-z
1/2+x,1/2-y,1/2+z
loop_
_atom_site_type_symbol
_atom_site_label
_atom_site_fract_x
_atom_site_fract_y
_atom_site_fract_z
Si Si1 0.679394 0.677174 0.769133
Si Si2 0.402803 0.375014 0.674245
Si Si3 0.382336 0.759372 0.936251
Si Si4 0.708393 0.423239 0.749902
Si Si5 0.719960 0.401649 0.079485
Si Si6 0.668204 0.630395 0.064608
Si Si7 0.035638 0.132200 0.720093
Si Si8 0.900551 0.738707 0.797987
O O1 0.621662 0.728691 0.644295
O O2 0.701296 0.542181 0.781520
O O3 0.781996 0.744483 0.887255
O O4 0.621051 0.696015 0.772873
O O5 0.500000 0.322256 0.750000
O O6 0.312333 0.358360 0.526518
O O7 0.426168 0.504929 0.722542
O O8 0.373893 0.297716 0.701912
O O9 0.312736 0.865597 0.879172
O O10 0.355723 0.647977 0.950187
O O11 0.489961 0.803108 0.072001
O O12 0.693115 0.439277 0.657392
O O13 0.623217 0.333337 0.673841
O O14 0.712437 0.540038 0.062038
O O15 0.829057 0.371144 0.221808
O O16 0.553466 0.637957 0.927781
O O17 0.000000 0.189790 0.750000
#
# Coordination Sequence:
#
# PCOD8141992 Si02
#       8
#     8   8   8   8   8   8   8   8
#     4  11  23  39  62  86 119 160 197 244 293 347
#     4  11  19  35  60  86 113 149 199 246 284 345
#     4  10  21  38  60  89 120 152 192 246 295 356
#     4  10  22  37  60  90 116 153 197 237 296 354
#     4  11  21  37  59  89 119 151 194 244 298 347
#     4  11  22  40  59  88 120 149 198 248 291 347
#     4  11  22  39  62  84 112 156 207 242 281 347
#     4  11  21  36  61  86 120 155 188 242 301 351
#
# _framework density 19.447657
#
# number of rings (size 3 to 8) (size 9 to 14) (size 15 to 20)
#    0.000    1.250    6.250    1.125    0.000    1.500 
#    2.250    1.250    0.000    0.750    0.000    0.000 
#    0.000    0.000    0.000    0.000    0.000    0.000 
#
# Total GULP energy -396587.643199 kJ/mol
# GULP energy per Si atom -12393.363850 kJ/mol
# Density = 1.940339 g / cm^3
# Si number density = 19.447657 Si / 1000 Ang^3
#
#
#
# Elastic Constant Matrix: (Units=GPa)
#
#
# Indices 1 2 3 4 5 6 
#
# 1 92.5583 11.6408 23.3502 0.0000 1.3635 0.0000
# 2 11.6408 50.3512 37.3348 0.0000 5.0356 0.0000
# 3 23.3502 37.3348 93.1273 0.0000 19.4224 0.0000
# 4 0.0000 0.0000 0.0000 2.1168 0.0000 12.9152
# 5 1.3635 5.0356 19.4224 0.0000 27.7073 0.0000
# 6 0.0000 0.0000 0.0000 12.9152 0.0000 -4.6588
#
#
#
# Elastic Compliance Matrix: (Units=1/GPa)
#
#
# Indices 1 2 3 4 5 6 
#
# 1 0.011617 -0.000620 -0.003008 0.000000 0.001650 0.000000
# 2 -0.000620 0.028553 -0.011965 0.000000 0.003228 0.000000
# 3 -0.003008 -0.011965 0.018511 0.000000 -0.010653 0.000000
# 4 0.000000 0.000000 0.000000 0.026371 0.000000 0.073106
# 5 0.001650 0.003228 -0.010653 0.000000 0.042891 0.000000
# 6 0.000000 0.000000 0.000000 0.073106 0.000000 -0.011982
#
#
# Mechanical properties :
#
#
# Convention : Reuss Voigt Hill
#
# Bulk Modulus (GPa) = 36.37140 42.29873 39.33507
# Shear Modulus (GPa) = 31.98770 15.94713 23.96742
#
# Velocity S-wave (km/s) = 4.06003 2.86668 3.51437
# Velocity P-wave (km/s) = 6.38132 5.72314 6.06117
#
# Compressibility (1/GPa) = 0.02749413
#
# Stress axis : x y z
#
# Youngs Moduli (GPa) = 86.08398 35.02314 54.02313
#
# Poissons Ratio (x) = 0.02172 0.16251
# Poissons Ratio (y) = 0.05339 0.64636
# Poissons Ratio (z) = 0.25895 0.41903
#
# Static dielectric constant tensor:
#      x y z
#    x 3.191240 0.000000 0.181840 
#    y 0.000000 3.310140 0.000000 
#    z 0.181840 0.000000 3.352390 
# 
# 
# High freq. dielectric constant tensor:
#      x y z
#    x 1.765090 0.000000 -0.007770 
#    y 0.000000 1.731060 0.000000 
#    z -0.007770 0.000000 1.760210 
# 
# From -- ./inp_files/257535.got.cif
#   From: 2010.06.25/outbox.cif.g09.slc.cpg/sg15_129_cif.got.tgz:257535.got - 2010.06.28 07:06:18.
