data_PCOD8141509
_publ_section_title
;
Structure prediction by ZEFSAII (Michael W. Deem and Ramdas Pophale) SiO2 
 PCOD8141509
Probable space group: C 2/C
;
_chemical_formula_sum "Si O2"
_cell_formula_units_Z 56
_cell_length_a 14.362761
_cell_length_b 8.838532
_cell_length_c 22.243899
_cell_angle_alpha 90.000000
_cell_angle_beta 111.167576
_cell_angle_gamma 90.000000
_cell_volume 2633.243410
_symmetry_space_group_name_H-M "C 2/C"
_symmetry_group_IT_number 15
_symmetry_cell_setting 'monoclinic'
loop_
_space_group_symop_operation_xyz
x,y,z
-x,y,1/2-z
-x,-y,-z
x,-y,1/2+z
1/2+x,1/2+y,z
1/2-x,1/2+y,1/2-z
1/2-x,1/2-y,-z
1/2+x,1/2-y,1/2+z
loop_
_atom_site_type_symbol
_atom_site_label
_atom_site_fract_x
_atom_site_fract_y
_atom_site_fract_z
Si Si1 0.777768 0.747799 0.576972
Si Si2 0.064879 0.849314 0.510628
Si Si3 0.030151 0.637206 0.392831
Si Si4 0.305296 0.884627 0.830011
Si Si5 0.989742 0.296638 0.110425
Si Si6 0.234592 0.592479 0.390186
Si Si7 0.806413 0.721921 0.795917
O O1 0.750000 0.750000 0.500000
O O2 0.710070 0.860928 0.601300
O O3 0.771659 0.588068 0.609586
O O4 0.893551 0.802458 0.606366
O O5 0.028496 0.756702 0.445502
O O6 0.045235 0.754383 0.564566
O O7 0.184913 0.871588 0.537987
O O8 0.000000 0.000000 0.500000
O O9 0.126593 0.673729 0.373938
O O10 0.920412 0.646018 0.336784
O O11 0.047202 0.464327 0.416326
O O12 0.237037 0.764549 0.778999
O O13 0.270290 0.055322 0.807709
O O14 0.072693 0.284966 0.182288
O O15 0.271671 0.648008 0.334020
#
# Coordination Sequence:
#
# PCOD8141509 Si02
#       7
#     8   8   8   8   8   8   8
#     4  11  22  39  62  91 120 155 195 242 296 354
#     4  11  20  33  56  88 120 151 193 246 293 339
#     4  10  21  37  57  82 115 160 194 234 294 357
#     4  11  23  41  63  85 118 156 201 247 293 353
#     4   9  21  38  57  80 116 157 195 233 291 359
#     4  10  22  38  59  86 120 155 195 242 291 353
#     4  10  23  42  61  86 115 158 201 243 294 347
#
# _framework density 21.266549000000001
#
# number of rings (size 3 to 8) (size 9 to 14) (size 15 to 20)
#    0.000    1.714    0.000    4.286    0.000   10.286 
#    0.000    5.714    0.000    0.000    0.000    0.000 
#    0.000    0.000    0.000    0.000    0.000    0.000 
#
# Total GULP energy -346959.195658 kJ/mol
# GULP energy per Si atom -12391.399845 kJ/mol
# Density = 2.121815 g / cm^3
# Si number density = 21.266549 Si / 1000 Ang^3
#
#
#
# Elastic Constant Matrix: (Units=GPa)
#
#
# Indices 1 2 3 4 5 6 
#
# 1 133.2920 30.6931 33.3286 0.0000 14.3421 0.0000
# 2 30.6931 62.0912 28.6138 0.0000 2.3373 0.0000
# 3 33.3286 28.6138 90.0935 0.0000 4.4725 0.0000
# 4 0.0000 0.0000 0.0000 34.2556 0.0000 3.2536
# 5 14.3421 2.3373 4.4725 0.0000 22.5129 0.0000
# 6 0.0000 0.0000 0.0000 3.2536 0.0000 26.4468
#
#
#
# Elastic Compliance Matrix: (Units=1/GPa)
#
#
# Indices 1 2 3 4 5 6 
#
# 1 0.009390 -0.003472 -0.002113 0.000000 -0.005202 0.000000
# 2 -0.003472 0.020164 -0.005177 0.000000 0.001147 0.000000
# 3 -0.002113 -0.005177 0.013565 0.000000 -0.000812 0.000000
# 4 0.000000 0.000000 0.000000 0.029537 0.000000 -0.003634
# 5 -0.005202 0.001147 -0.000812 0.000000 0.047775 0.000000
# 6 0.000000 0.000000 0.000000 -0.003634 0.000000 0.038259
#
#
# Mechanical properties :
#
#
# Convention : Reuss Voigt Hill
#
# Bulk Modulus (GPa) = 46.30364 52.30532 49.30448
# Shear Modulus (GPa) = 26.67913 29.49912 28.08912
#
# Velocity S-wave (km/s) = 3.54575 3.72844 3.63824
# Velocity P-wave (km/s) = 6.21155 6.57142 6.39402
#
# Compressibility (1/GPa) = 0.02159658
#
# Stress axis : x y z
#
# Youngs Moduli (GPa) = 106.49845 49.59300 73.71646
#
# Poissons Ratio (x) = 0.17220 0.15573
# Poissons Ratio (y) = 0.36979 0.38160
# Poissons Ratio (z) = 0.22499 0.25672
#
# Static dielectric constant tensor:
#      x y z
#    x 4.328130 0.000000 0.378080 
#    y 0.000000 3.777370 0.000000 
#    z 0.378080 0.000000 3.782900 
# 
# 
# High freq. dielectric constant tensor:
#      x y z
#    x 1.849910 0.000000 0.018430 
#    y 0.000000 1.832780 0.000000 
#    z 0.018430 0.000000 1.815990 
# 
# From -- ./inp_files/272859.got.cif
#   From: 2010.06.25/outbox.cif.g09.slc.cpg/sg15_137_cif.got.tgz:272859.got - 2010.06.28 07:06:18.
