data_PCOD8141614
_publ_section_title
;
Structure prediction by ZEFSAII (Michael W. Deem and Ramdas Pophale) SiO2 
 PCOD8141614
Probable space group: C 2/C
;
_chemical_formula_sum "Si O2"
_cell_formula_units_Z 56
_cell_length_a 15.905867
_cell_length_b 25.439965
_cell_length_c 8.599619
_cell_angle_alpha 90.000000
_cell_angle_beta 52.866124
_cell_angle_gamma 90.000000
_cell_volume 2774.183242
_symmetry_space_group_name_H-M "C 2/C"
_symmetry_group_IT_number 15
_symmetry_cell_setting 'monoclinic'
loop_
_space_group_symop_operation_xyz
x,y,z
-x,y,1/2-z
-x,-y,-z
x,-y,1/2+z
1/2+x,1/2+y,z
1/2-x,1/2+y,1/2-z
1/2-x,1/2-y,-z
1/2+x,1/2-y,1/2+z
loop_
_atom_site_type_symbol
_atom_site_label
_atom_site_fract_x
_atom_site_fract_y
_atom_site_fract_z
Si Si1 0.122881 0.060696 0.648335
Si Si2 0.124741 0.437453 0.121201
Si Si3 0.721136 0.670866 0.498151
Si Si4 0.895705 0.233398 0.298290
Si Si5 0.896904 0.273289 0.957456
Si Si6 0.249787 0.006070 0.762515
Si Si7 0.204587 0.327755 0.924258
O O1 0.148847 0.122059 0.623461
O O2 0.157093 0.036972 0.776010
O O3 0.000000 0.051360 0.750000
O O4 0.192291 0.034251 0.438699
O O5 0.172642 0.453968 0.234170
O O6 0.000000 0.446274 0.250000
O O7 0.177130 0.472820 0.931958
O O8 0.150286 0.376257 0.069868
O O9 0.806423 0.682390 0.538206
O O10 0.640727 0.718914 0.575594
O O11 0.789292 0.661817 0.265959
O O12 0.856646 0.273673 0.474227
O O13 0.822196 0.182671 0.357363
O O14 0.000000 0.207202 0.250000
O O15 0.916779 0.266498 0.118015
O O16 0.000000 0.292316 0.750000
#
# Coordination Sequence:
#
# PCOD8141614 Si02
#       7
#     8   8   8   8   8   8   8
#     4  11  22  43  66  91 126 167 203 263 313 362
#     4  11  22  42  66  91 127 166 202 263 313 365
#     4  10  21  39  59  88 126 158 207 255 298 379
#     4  10  21  38  60  88 124 164 203 252 309 366
#     4  10  21  37  60  89 121 164 204 249 309 365
#     4  10  24  42  64  95 122 160 219 257 305 379
#     4  10  21  39  59  88 126 160 206 252 304 371
#
# _framework density 20.186122000000001
#
# number of rings (size 3 to 8) (size 9 to 14) (size 15 to 20)
#    0.000    1.714    1.429    2.571    2.000    1.143 
#    5.143    1.429    0.000    0.000    0.000    0.000 
#    0.000    0.000    0.000    0.000    0.000    0.000 
#
# Total GULP energy -347216.855331 kJ/mol
# GULP energy per Si atom -12400.601976 kJ/mol
# Density = 2.014018 g / cm^3
# Si number density = 20.186122 Si / 1000 Ang^3
#
#
#
# Elastic Constant Matrix: (Units=GPa)
#
#
# Indices 1 2 3 4 5 6 
#
# 1 160.5957 31.9494 32.5198 0.0000 -11.4912 0.0000
# 2 31.9494 69.3681 2.5286 0.0000 -2.7567 0.0000
# 3 32.5198 2.5286 52.8179 0.0000 -7.9721 0.0000
# 4 0.0000 0.0000 0.0000 -43.7346 0.0000 113.3926
# 5 -11.4912 -2.7567 -7.9721 0.0000 31.7962 0.0000
# 6 0.0000 0.0000 0.0000 113.3926 0.0000 -171.6620
#
#
#
# Elastic Compliance Matrix: (Units=1/GPa)
#
#
# Indices 1 2 3 4 5 6 
#
# 1 0.007922 -0.003428 -0.004496 0.000000 0.001439 0.000000
# 2 -0.003428 0.015963 0.001422 0.000000 0.000502 0.000000
# 3 -0.004496 0.001422 0.022249 0.000000 0.004077 0.000000
# 4 0.000000 0.000000 0.000000 0.032084 0.000000 0.021194
# 5 0.001439 0.000502 0.004077 0.000000 0.033036 0.000000
# 6 0.000000 0.000000 0.000000 0.021194 0.000000 0.008174
#
#
# Mechanical properties :
#
#
# Convention : Reuss Voigt Hill
#
# Bulk Modulus (GPa) = 30.18491 46.30860 38.24675
# Shear Modulus (GPa) = 34.84918 -22.33450 6.25734
#
# Velocity S-wave (km/s) = 4.15950 -3.32991 1.76254
# Velocity P-wave (km/s) = 6.16882 2.86465 4.80939
#
# Compressibility (1/GPa) = 0.03312913
#
# Stress axis : x y z
#
# Youngs Moduli (GPa) = 126.22798 62.64613 44.94652
#
# Poissons Ratio (x) = 0.21473 0.20210
# Poissons Ratio (y) = 0.43267 -0.06391
# Poissons Ratio (z) = 0.56758 -0.08908
#
# Static dielectric constant tensor:
#      x y z
#    x 3.897180 0.000000 0.015420 
#    y 0.000000 3.543850 0.000000 
#    z 0.015420 0.000000 3.669570 
# 
# 
# High freq. dielectric constant tensor:
#      x y z
#    x 1.800590 0.000000 -0.000460 
#    y 0.000000 1.779830 0.000000 
#    z -0.000460 0.000000 1.792540 
# 
# From -- ./inp_files/43607.got.cif
#   From: 2010.06.25/outbox.cif.g09.slc.cpg/sg15_22_cif.got.tgz:43607.got - 2010.06.28 07:06:18.
