data_PCOD8141745
_publ_section_title
;
Structure prediction by ZEFSAII (Michael W. Deem and Ramdas Pophale) SiO2 
 PCOD8141745
Probable space group: C 2/C
;
_chemical_formula_sum "Si O2"
_cell_formula_units_Z 40
_cell_length_a 10.333019
_cell_length_b 9.419965
_cell_length_c 21.124431
_cell_angle_alpha 90.000000
_cell_angle_beta 106.227005
_cell_angle_gamma 90.000000
_cell_volume 1974.267920
_symmetry_space_group_name_H-M "C 2/C"
_symmetry_group_IT_number 15
_symmetry_cell_setting 'monoclinic'
loop_
_space_group_symop_operation_xyz
x,y,z
-x,y,1/2-z
-x,-y,-z
x,-y,1/2+z
1/2+x,1/2+y,z
1/2-x,1/2+y,1/2-z
1/2-x,1/2-y,-z
1/2+x,1/2-y,1/2+z
loop_
_atom_site_type_symbol
_atom_site_label
_atom_site_fract_x
_atom_site_fract_y
_atom_site_fract_z
Si Si1 0.699887 0.067471 0.738462
Si Si2 0.911759 0.930762 0.680744
Si Si3 0.275480 0.792718 0.074695
Si Si4 0.080449 0.803357 0.156370
Si Si5 0.068701 0.512911 0.342335
O O1 0.790412 0.200105 0.776934
O O2 0.773477 0.986067 0.692000
O O3 0.552000 0.100431 0.689749
O O4 0.671646 0.971468 0.797304
O O5 0.875048 0.818213 0.622255
O O6 0.000000 0.863154 0.750000
O O7 0.994427 0.057114 0.658995
O O8 0.132797 0.803078 0.091452
O O9 0.349439 0.946584 0.087240
O O10 0.250000 0.750000 0.000000
O O11 0.986636 0.668108 0.151879
#
# Coordination Sequence:
#
# PCOD8141745 Si02
#       5
#     8   8   8   8   8
#     4   9  20  33  61  94 121 147 196 251 306 353
#     4  10  22  39  63  91 124 154 198 258 306 355
#     4  11  25  43  60  87 125 166 207 246 298 365
#     4  10  22  40  60  91 122 156 203 252 301 360
#     4  10  21  37  63  89 120 159 196 250 308 356
#
# _framework density 20.260674999999999
#
# number of rings (size 3 to 8) (size 9 to 14) (size 15 to 20)
#    0.000    2.000    2.000    0.000   14.000    1.600 
#    3.600    1.000    0.000    0.000    0.000    0.000 
#    0.000    0.000    0.000    0.000    0.000    0.000 
#
# Total GULP energy -247770.398419 kJ/mol
# GULP energy per Si atom -12388.519921 kJ/mol
# Density = 2.021456 g / cm^3
# Si number density = 20.260675 Si / 1000 Ang^3
#
#
#
# Elastic Constant Matrix: (Units=GPa)
#
#
# Indices 1 2 3 4 5 6 
#
# 1 98.5417 42.6571 42.0936 0.0000 -12.2707 0.0000
# 2 42.6571 99.1950 50.6840 0.0000 0.2931 0.0000
# 3 42.0936 50.6840 129.3682 0.0000 -2.2795 0.0000
# 4 0.0000 0.0000 0.0000 21.7490 0.0000 1.5627
# 5 -12.2707 0.2931 -2.2795 0.0000 22.0581 0.0000
# 6 0.0000 0.0000 0.0000 1.5627 0.0000 30.9273
#
#
#
# Elastic Compliance Matrix: (Units=1/GPa)
#
#
# Indices 1 2 3 4 5 6 
#
# 1 0.014335 -0.004844 -0.002630 0.000000 0.007767 0.000000
# 2 -0.004844 0.014251 -0.004065 0.000000 -0.003304 0.000000
# 3 -0.002630 -0.004065 0.010172 0.000000 -0.000358 0.000000
# 4 0.000000 0.000000 0.000000 0.046147 0.000000 -0.002332
# 5 0.007767 -0.003304 -0.000358 0.000000 0.049662 0.000000
# 6 0.000000 0.000000 0.000000 -0.002332 0.000000 0.032452
#
#
# Mechanical properties :
#
#
# Convention : Reuss Voigt Hill
#
# Bulk Modulus (GPa) = 63.77453 66.44160 65.10806
# Shear Modulus (GPa) = 25.59840 27.72490 26.66165
#
# Velocity S-wave (km/s) = 3.55836 3.70321 3.63151
# Velocity P-wave (km/s) = 6.95902 7.15190 7.05612
#
# Compressibility (1/GPa) = 0.01568024
#
# Stress axis : x y z
#
# Youngs Moduli (GPa) = 69.75731 70.16930 98.30878
#
# Poissons Ratio (x) = 0.33990 0.25853
# Poissons Ratio (y) = 0.33790 0.39967
# Poissons Ratio (z) = 0.18345 0.28527
#
# Static dielectric constant tensor:
#      x y z
#    x 4.128320 0.000000 -0.042330 
#    y 0.000000 3.588680 0.000000 
#    z -0.042330 0.000000 3.358780 
# 
# 
# High freq. dielectric constant tensor:
#      x y z
#    x 1.818100 0.000000 -0.012320 
#    y 0.000000 1.785590 0.000000 
#    z -0.012320 0.000000 1.750250 
# 
# From -- ./inp_files/235761.got.cif
#   From: 2010.06.25/outbox.cif.g09.slc.cpg/sg15_118_cif.got.tgz:235761.got - 2010.06.28 07:06:18.
