data_PCOD8142245
_publ_section_title
;
Structure prediction by ZEFSAII (Michael W. Deem and Ramdas Pophale) SiO2 
 PCOD8142245
Probable space group: C 2/C
;
_chemical_formula_sum "Si O2"
_cell_formula_units_Z 56
_cell_length_a 17.023781
_cell_length_b 20.844358
_cell_length_c 13.972014
_cell_angle_alpha 90.000000
_cell_angle_beta 147.092625
_cell_angle_gamma 90.000000
_cell_volume 2693.576355
_symmetry_space_group_name_H-M "C 2/C"
_symmetry_group_IT_number 15
_symmetry_cell_setting 'monoclinic'
loop_
_space_group_symop_operation_xyz
x,y,z
-x,y,1/2-z
-x,-y,-z
x,-y,1/2+z
1/2+x,1/2+y,z
1/2-x,1/2+y,1/2-z
1/2-x,1/2-y,-z
1/2+x,1/2-y,1/2+z
loop_
_atom_site_type_symbol
_atom_site_label
_atom_site_fract_x
_atom_site_fract_y
_atom_site_fract_z
Si Si1 0.204812 0.568420 0.602707
Si Si2 0.247878 0.807786 0.113869
Si Si3 0.733402 0.950871 0.348349
Si Si4 0.500000 0.998497 0.250000
Si Si5 0.500000 0.765272 0.250000
Si Si6 0.453179 0.679085 0.594980
Si Si7 0.978459 0.959871 0.073726
Si Si8 0.248459 0.215369 0.824441
O O1 0.182534 0.537417 0.686104
O O2 0.082661 0.543534 0.408146
O O3 0.188006 0.645389 0.585266
O O4 0.360811 0.547838 0.717414
O O5 0.198658 0.880293 0.082313
O O6 0.403940 0.808942 0.221590
O O7 0.271603 0.769144 0.236362
O O8 0.115569 0.778524 0.921423
O O9 0.604494 0.954380 0.293088
O O10 0.859304 0.000241 0.511580
O O11 0.500000 0.660423 0.750000
O O12 0.417038 0.613041 0.500386
O O13 0.317808 0.727314 0.457439
O O14 0.578533 0.717918 0.670074
O O15 0.000000 0.000000 0.000000
#
# Coordination Sequence:
#
# PCOD8142245 Si02
#       8
#     8   8   8   4   4   8   8   8
#     4   9  22  40  59  87 121 162 208 257 303 378
#     4  10  21  40  62  90 124 158 205 259 317 369
#     4  10  22  40  60  88 122 159 207 257 309 372
#     4  12  23  34  62  86 125 164 202 256 322 362
#     4  10  21  38  64  92 117 156 210 262 304 380
#     4  11  23  38  64  93 126 162 213 259 303 374
#     4   9  21  42  63  84 120 162 208 254 298 362
#     4  10  22  40  60  88 128 164 202 258 319 365
#
# _framework density 20.790203999999999
#
# number of rings (size 3 to 8) (size 9 to 14) (size 15 to 20)
#    0.000    2.000    0.000    3.000    5.000    2.286 
#    0.000    8.571    0.000    0.000    0.000    0.000 
#    0.000    0.000    0.000    0.000    0.000    0.000 
#
# Total GULP energy -347043.866110 kJ/mol
# GULP energy per Si atom -12394.423790 kJ/mol
# Density = 2.074288 g / cm^3
# Si number density = 20.790204 Si / 1000 Ang^3
#
#
#
# Elastic Constant Matrix: (Units=GPa)
#
#
# Indices 1 2 3 4 5 6 
#
# 1 99.4519 36.8676 48.7461 0.0000 6.4741 0.0000
# 2 36.8676 103.2187 34.5664 0.0000 9.0797 0.0000
# 3 48.7461 34.5664 65.2216 0.0000 5.0286 0.0000
# 4 0.0000 0.0000 0.0000 24.0871 0.0000 6.3741
# 5 6.4741 9.0797 5.0286 0.0000 30.7525 0.0000
# 6 0.0000 0.0000 0.0000 6.3741 0.0000 30.6494
#
#
#
# Elastic Compliance Matrix: (Units=1/GPa)
#
#
# Indices 1 2 3 4 5 6 
#
# 1 0.016269 -0.002037 -0.011001 0.000000 -0.001025 0.000000
# 2 -0.002037 0.012225 -0.004772 0.000000 -0.002400 0.000000
# 3 -0.011001 -0.004772 0.026125 0.000000 -0.000547 0.000000
# 4 0.000000 0.000000 0.000000 0.043934 0.000000 -0.009137
# 5 -0.001025 -0.002400 -0.000547 0.000000 0.033532 0.000000
# 6 0.000000 0.000000 0.000000 -0.009137 0.000000 0.034527
#
#
# Mechanical properties :
#
#
# Convention : Reuss Voigt Hill
#
# Bulk Modulus (GPa) = 52.62974 56.47248 54.55111
# Shear Modulus (GPa) = 23.97356 26.94529 25.45943
#
# Velocity S-wave (km/s) = 3.39944 3.60398 3.50321
# Velocity P-wave (km/s) = 6.38576 6.67385 6.53139
#
# Compressibility (1/GPa) = 0.01900066
#
# Stress axis : x y z
#
# Youngs Moduli (GPa) = 61.46722 81.80140 38.27716
#
# Poissons Ratio (x) = 0.16661 0.42108
# Poissons Ratio (y) = 0.12519 0.18264
# Poissons Ratio (z) = 0.67618 0.39032
#
# Static dielectric constant tensor:
#      x y z
#    x 4.118690 0.000000 0.172670 
#    y 0.000000 3.699960 0.000000 
#    z 0.172670 0.000000 3.634220 
# 
# 
# High freq. dielectric constant tensor:
#      x y z
#    x 1.829470 0.000000 0.007500 
#    y 0.000000 1.813460 0.000000 
#    z 0.007500 0.000000 1.799100 
# 
# From -- ./inp_files/163868.got.cif
#   From: 2010.06.25/outbox.cif.g09.slc.cpg/sg15_82_cif.got.tgz:163868.got - 2010.06.28 07:06:18.
