data_PCOD8142223
_publ_section_title
;
Structure prediction by ZEFSAII (Michael W. Deem and Ramdas Pophale) SiO2 
 PCOD8142223
Probable space group: C 2/C
;
_chemical_formula_sum "Si O2"
_cell_formula_units_Z 52
_cell_length_a 6.619425
_cell_length_b 33.689777
_cell_length_c 12.467081
_cell_angle_alpha 90.000000
_cell_angle_beta 46.449621
_cell_angle_gamma 90.000000
_cell_volume 2015.035462
_symmetry_space_group_name_H-M "C 2/C"
_symmetry_group_IT_number 15
_symmetry_cell_setting 'monoclinic'
loop_
_space_group_symop_operation_xyz
x,y,z
-x,y,1/2-z
-x,-y,-z
x,-y,1/2+z
1/2+x,1/2+y,z
1/2-x,1/2+y,1/2-z
1/2-x,1/2-y,-z
1/2+x,1/2-y,1/2+z
loop_
_atom_site_type_symbol
_atom_site_label
_atom_site_fract_x
_atom_site_fract_y
_atom_site_fract_z
Si Si1 0.788406 0.658194 0.922136
Si Si2 0.160993 0.791566 0.803090
Si Si3 0.682254 0.502001 0.580799
Si Si4 0.000000 0.778882 0.250000
Si Si5 0.133232 0.668197 0.013037
Si Si6 0.681569 0.930556 0.084337
Si Si7 0.725286 0.412527 0.082794
O O1 0.683034 0.612602 0.938005
O O2 0.000000 0.672127 0.750000
O O3 0.954822 0.662297 0.970875
O O4 0.508863 0.685285 0.040185
O O5 0.227300 0.747045 0.817696
O O6 0.460824 0.812114 0.672215
O O7 0.000000 0.789955 0.750000
O O8 0.500000 0.492456 0.750000
O O9 0.614069 0.467978 0.517188
O O10 0.612370 0.547468 0.564039
O O11 0.000000 0.500000 0.500000
O O12 0.906560 0.805559 0.385425
O O13 0.224655 0.624010 0.017240
O O14 0.500000 0.945523 0.250000
O O15 0.504865 0.924235 0.041661
O O16 0.500000 0.396602 0.250000
#
# Coordination Sequence:
#
# PCOD8142223 Si02
#       7
#     8   8   8   4   8   8   8
#     4   9  20  38  61  88 123 164 204 255 308 366
#     4  10  24  43  62  93 127 160 212 258 310 374
#     4   9  18  32  56  85 116 156 202 250 296 366
#     4  12  24  40  64  96 122 160 206 264 316 372
#     4  10  21  38  64  86 116 167 204 250 312 377
#     4   9  18  34  57  89 119 157 203 249 302 356
#     4   9  17  35  57  83 116 160 204 241 298 372
#
# _framework density 25.805997000000001
#
# number of rings (size 3 to 8) (size 9 to 14) (size 15 to 20)
#    0.000    2.462    0.769    0.462    0.000    9.846 
#    2.769    6.923    1.692    0.000    0.000    0.000 
#    0.000    0.000    0.000    0.000    0.000    0.000 
#
# Total GULP energy -322219.568346 kJ/mol
# GULP energy per Si atom -12393.060321 kJ/mol
# Density = 2.574726 g / cm^3
# Si number density = 25.805997 Si / 1000 Ang^3
#
#
#
# Elastic Constant Matrix: (Units=GPa)
#
#
# Indices 1 2 3 4 5 6 
#
# 1 19.1839 22.5666 33.1342 0.0000 -3.0137 0.0000
# 2 22.5666 194.7895 93.7657 0.0000 3.1207 0.0000
# 3 33.1342 93.7657 177.5011 0.0000 -9.7852 0.0000
# 4 0.0000 0.0000 0.0000 48.3276 0.0000 -17.1221
# 5 -3.0137 3.1207 -9.7852 0.0000 40.7957 0.0000
# 6 0.0000 0.0000 0.0000 -17.1221 0.0000 12.7824
#
#
#
# Elastic Compliance Matrix: (Units=1/GPa)
#
#
# Indices 1 2 3 4 5 6 
#
# 1 0.078324 -0.002896 -0.012931 0.000000 0.002906 0.000000
# 2 -0.002896 0.007073 -0.003281 0.000000 -0.001542 0.000000
# 3 -0.012931 -0.003281 0.009872 0.000000 0.001664 0.000000
# 4 0.000000 0.000000 0.000000 0.039382 0.000000 0.052752
# 5 0.002906 -0.001542 0.001664 0.000000 0.025244 0.000000
# 6 0.000000 0.000000 0.000000 0.052752 0.000000 0.148894
#
#
# Mechanical properties :
#
#
# Convention : Reuss Voigt Hill
#
# Bulk Modulus (GPa) = 17.52711 76.71194 47.11953
# Shear Modulus (GPa) = 13.66034 36.51501 25.08768
#
# Velocity S-wave (km/s) = 2.30325 3.76570 3.12134
# Velocity P-wave (km/s) = 3.72558 6.97842 5.59367
#
# Compressibility (1/GPa) = 0.05705446
#
# Stress axis : x y z
#
# Youngs Moduli (GPa) = 12.76746 141.37712 101.29225
#
# Poissons Ratio (x) = 0.40943 1.30979
# Poissons Ratio (y) = 0.03697 0.33233
# Poissons Ratio (z) = 0.16509 0.46384
#
# Static dielectric constant tensor:
#      x y z
#    x 4.600030 0.000000 -0.118050 
#    y 0.000000 5.748110 0.000000 
#    z -0.118050 0.000000 4.561910 
# 
# 
# High freq. dielectric constant tensor:
#      x y z
#    x 2.052230 0.000000 0.000530 
#    y 0.000000 2.052510 0.000000 
#    z 0.000530 0.000000 2.011690 
# 
# From -- ./inp_files/139736.got.cif
#   From: 2010.06.25/outbox.cif.g09.slc.cpg/sg15_70_cif.got.tgz:139736.got - 2010.06.28 07:06:18.
