data_PCOD8142539
_publ_section_title
;
Structure prediction by ZEFSAII (Michael W. Deem and Ramdas Pophale) SiO2 
 PCOD8142539
Probable space group: C 2/C
;
_chemical_formula_sum "Si O2"
_cell_formula_units_Z 64
_cell_length_a 15.186509
_cell_length_b 26.817409
_cell_length_c 20.257214
_cell_angle_alpha 90.000000
_cell_angle_beta 156.361654
_cell_angle_gamma 90.000000
_cell_volume 3307.942484
_symmetry_space_group_name_H-M "C 2/C"
_symmetry_group_IT_number 15
_symmetry_cell_setting 'monoclinic'
loop_
_space_group_symop_operation_xyz
x,y,z
-x,y,1/2-z
-x,-y,-z
x,-y,1/2+z
1/2+x,1/2+y,z
1/2-x,1/2+y,1/2-z
1/2-x,1/2-y,-z
1/2+x,1/2-y,1/2+z
loop_
_atom_site_type_symbol
_atom_site_label
_atom_site_fract_x
_atom_site_fract_y
_atom_site_fract_z
Si Si1 0.601686 0.971334 0.754589
Si Si2 0.272864 0.075312 0.594406
Si Si3 0.826237 0.606212 0.841686
Si Si4 0.603318 0.303328 0.251672
Si Si5 0.739011 0.470900 0.392798
Si Si6 0.259575 0.198637 0.109807
Si Si7 0.539665 0.392787 0.519319
Si Si8 0.768624 0.078755 0.084394
O O1 0.500000 0.945733 0.750000
O O2 0.418436 0.967337 0.573082
O O3 0.683668 0.027159 0.828447
O O4 0.809233 0.940838 0.873057
O O5 0.500000 0.107120 0.750000
O O6 0.081880 0.109652 0.493299
O O7 0.232658 0.059105 0.491847
O O8 0.784783 0.656574 0.854285
O O9 0.826310 0.558388 0.889061
O O10 0.633832 0.598924 0.657555
O O11 0.059591 0.611198 0.963783
O O12 0.500000 0.320560 0.250000
O O13 0.730674 0.251193 0.345916
O O14 0.404496 0.297370 0.064183
O O15 0.500000 0.448968 0.250000
O O16 0.715961 0.529387 0.358859
O O17 0.500000 0.182864 0.250000
O O18 0.176987 0.157689 0.105150
O O19 0.000000 0.109245 0.250000
#
# Coordination Sequence:
#
# PCOD8142539 Si02
#       8
#     8   8   8   8   8   8   8   8
#     4  11  21  36  56  83 114 155 194 234 280 335
#     4  11  21  41  57  79 117 158 196 235 275 326
#     4  11  23  38  58  87 115 150 193 238 288 341
#     4  10  21  39  63  86 117 146 179 232 291 345
#     4  11  22  36  55  81 120 154 189 237 284 332
#     4  10  21  39  61  90 116 145 181 230 290 348
#     4  11  23  36  62  86 112 151 198 236 282 343
#     4  11  24  40  56  81 118 158 197 233 280 334
#
# _framework density 19.347373999999999
#
# number of rings (size 3 to 8) (size 9 to 14) (size 15 to 20)
#    0.000    1.250    3.750    3.750    3.500    4.000 
#    0.000    0.000    0.000    1.500    0.000    0.000 
#    0.000    0.000    0.000    0.000    0.000    0.000 
#
# Total GULP energy -396656.158542 kJ/mol
# GULP energy per Si atom -12395.504954 kJ/mol
# Density = 1.930334 g / cm^3
# Si number density = 19.347374 Si / 1000 Ang^3
#
#
#
# Elastic Constant Matrix: (Units=GPa)
#
#
# Indices 1 2 3 4 5 6 
#
# 1 116.7782 61.4562 45.6903 0.0227 24.0053 -0.0110
# 2 61.4562 89.9613 46.0641 0.0039 15.4060 0.0126
# 3 45.6903 46.0641 120.7267 -0.0013 19.9315 -0.0157
# 4 0.0227 0.0039 -0.0013 24.6779 -0.0219 3.6897
# 5 24.0053 15.4060 19.9315 -0.0219 32.8421 0.0006
# 6 -0.0110 0.0126 -0.0157 3.6897 0.0006 26.0821
#
#
#
# Elastic Compliance Matrix: (Units=1/GPa)
#
#
# Indices 1 2 3 4 5 6 
#
# 1 0.014721 -0.008305 -0.001410 -0.000019 -0.006008 0.000012
# 2 -0.008305 0.018905 -0.004010 0.000007 -0.000364 -0.000016
# 3 -0.001410 -0.004010 0.010965 -0.000002 -0.003742 0.000008
# 4 -0.000019 0.000007 -0.000002 0.041398 0.000040 -0.005856
# 5 -0.006008 -0.000364 -0.003742 0.000040 0.037282 -0.000011
# 6 0.000012 -0.000016 0.000008 -0.005856 -0.000011 0.039169
#
#
# Mechanical properties :
#
#
# Convention : Reuss Voigt Hill
#
# Bulk Modulus (GPa) = 58.34525 70.43192 64.38858
# Shear Modulus (GPa) = 25.56171 28.33745 26.94958
#
# Velocity S-wave (km/s) = 3.63877 3.83125 3.73625
# Velocity P-wave (km/s) = 6.91927 7.48693 7.20869
#
# Compressibility (1/GPa) = 0.01713936
#
# Stress axis : x y z
#
# Youngs Moduli (GPa) = 67.93031 52.89510 91.20015
#
# Poissons Ratio (x) = 0.43932 0.12863
# Poissons Ratio (y) = 0.56419 0.36572
# Poissons Ratio (z) = 0.09581 0.21211
#
# Static dielectric constant tensor:
#      x y z
#    x 3.649420 0.000010 0.037920 
#    y 0.000010 3.331680 0.000020 
#    z 0.037920 0.000020 3.532300 
# 
# 
# High freq. dielectric constant tensor:
#      x y z
#    x 1.755750 0.000000 0.002990 
#    y 0.000000 1.713310 0.000000 
#    z 0.002990 0.000000 1.776490 
# 
# From -- ./inp_files/278341.got.cif
#   From: 2010.06.25/outbox.cif.g09.slc.cpg/sg15_140_cif.got.tgz:278341.got - 2010.06.28 07:06:18.
