data_PCOD8142577
_publ_section_title
;
Structure prediction by ZEFSAII (Michael W. Deem and Ramdas Pophale) SiO2 
 PCOD8142577
Probable space group: C 2/C
;
_chemical_formula_sum "Si O2"
_cell_formula_units_Z 48
_cell_length_a 8.276489
_cell_length_b 21.381916
_cell_length_c 13.040094
_cell_angle_alpha 90.000000
_cell_angle_beta 111.479266
_cell_angle_gamma 90.000000
_cell_volume 2147.401538
_symmetry_space_group_name_H-M "C 2/C"
_symmetry_group_IT_number 15
_symmetry_cell_setting 'monoclinic'
loop_
_space_group_symop_operation_xyz
x,y,z
-x,y,1/2-z
-x,-y,-z
x,-y,1/2+z
1/2+x,1/2+y,z
1/2-x,1/2+y,1/2-z
1/2-x,1/2-y,-z
1/2+x,1/2-y,1/2+z
loop_
_atom_site_type_symbol
_atom_site_label
_atom_site_fract_x
_atom_site_fract_y
_atom_site_fract_z
Si Si1 0.892129 0.391723 0.817292
Si Si2 0.984420 0.705106 0.629082
Si Si3 0.162554 0.167256 0.424043
Si Si4 0.529513 0.429947 0.038281
Si Si5 0.821390 0.606426 0.950037
Si Si6 0.318036 0.971339 0.254910
O O1 0.752407 0.343955 0.833564
O O2 0.796983 0.453195 0.748162
O O3 0.000000 0.358234 0.750000
O O4 0.028341 0.412075 0.935902
O O5 0.989323 0.780833 0.622820
O O6 0.796780 0.686299 0.543646
O O7 0.000000 0.682798 0.750000
O O8 0.136219 0.672474 0.597033
O O9 0.084739 0.102496 0.445239
O O10 0.364441 0.390234 0.038522
O O11 0.672639 0.432511 0.160567
O O12 0.500000 0.500000 0.000000
O O13 0.811910 0.548757 0.870800
O O14 0.500000 0.950519 0.250000
#
# Coordination Sequence:
#
# PCOD8142577 Si02
#       6
#     8   8   8   8   8   8
#     4  10  21  39  62  89 123 167 211 255 318 382
#     4  10  22  42  66  86 117 167 211 257 314 371
#     4  10  23  42  62  89 124 162 212 262 310 377
#     4  12  24  38  61  96 131 163 207 263 320 377
#     4  11  22  38  60  90 125 164 214 261 309 373
#     4  11  21  37  62  90 127 169 207 255 317 382
#
# _framework density 22.352595000000001
#
# number of rings (size 3 to 8) (size 9 to 14) (size 15 to 20)
#    0.000    1.333    0.000    7.500    0.000    3.333 
#    0.000    3.333    0.000    0.000    0.000    0.000 
#    0.000    0.000    0.000    0.000    0.000    0.000 
#
# Total GULP energy -297579.061017 kJ/mol
# GULP energy per Si atom -12399.127542 kJ/mol
# Density = 2.230172 g / cm^3
# Si number density = 22.352595 Si / 1000 Ang^3
#
#
#
# Elastic Constant Matrix: (Units=GPa)
#
#
# Indices 1 2 3 4 5 6 
#
# 1 120.8422 58.3792 32.7763 0.0000 -16.5611 0.0000
# 2 58.3792 124.6476 29.7615 0.0000 -16.0533 0.0000
# 3 32.7763 29.7615 69.3709 0.0000 -30.1815 0.0000
# 4 0.0000 0.0000 0.0000 13.8546 0.0000 -11.9638
# 5 -16.5611 -16.0533 -30.1815 0.0000 37.8952 0.0000
# 6 0.0000 0.0000 0.0000 -11.9638 0.0000 34.5615
#
#
#
# Elastic Compliance Matrix: (Units=1/GPa)
#
#
# Indices 1 2 3 4 5 6 
#
# 1 0.011395 -0.004500 -0.003238 0.000000 0.000495 0.000000
# 2 -0.004500 0.010747 -0.002080 0.000000 0.000929 0.000000
# 3 -0.003238 -0.002080 0.024237 0.000000 0.017007 0.000000
# 4 0.000000 0.000000 0.000000 0.102952 0.000000 0.035638
# 5 0.000495 0.000929 0.017007 0.000000 0.040544 0.000000
# 6 0.000000 0.000000 0.000000 0.035638 0.000000 0.041270
#
#
# Mechanical properties :
#
#
# Convention : Reuss Voigt Hill
#
# Bulk Modulus (GPa) = 37.39410 61.85496 49.62453
# Shear Modulus (GPa) = 19.25327 30.19183 24.72255
#
# Velocity S-wave (km/s) = 2.93805 3.67919 3.32930
# Velocity P-wave (km/s) = 5.31743 6.76617 6.08506
#
# Compressibility (1/GPa) = 0.02674219
#
# Stress axis : x y z
#
# Youngs Moduli (GPa) = 87.75463 93.05265 41.25930
#
# Poissons Ratio (x) = 0.41876 0.13361
# Poissons Ratio (y) = 0.39491 0.08582
# Poissons Ratio (z) = 0.28417 0.19354
#
# Static dielectric constant tensor:
#      x y z
#    x 4.739090 0.000000 -0.109280 
#    y 0.000000 3.969210 0.000000 
#    z -0.109280 0.000000 4.433890 
# 
# 
# High freq. dielectric constant tensor:
#      x y z
#    x 1.872200 0.000000 -0.003760 
#    y 0.000000 1.869840 0.000000 
#    z -0.003760 0.000000 1.898100 
# 
# From -- ./inp_files/79897.got.cif
#   From: 2010.06.25/outbox.cif.g09.slc.cpg/sg15_40_cif.got.tgz:79897.got - 2010.06.28 07:06:18.
