data_PCOD8142816
_publ_section_title
;
Structure prediction by ZEFSAII (Michael W. Deem and Ramdas Pophale) SiO2 
 PCOD8142816
Probable space group: C 2/C
;
_chemical_formula_sum "Si O2"
_cell_formula_units_Z 40
_cell_length_a 29.483097
_cell_length_b 9.343284
_cell_length_c 10.302829
_cell_angle_alpha 90.000000
_cell_angle_beta 38.918626
_cell_angle_gamma 90.000000
_cell_volume 1782.945835
_symmetry_space_group_name_H-M "C 2/C"
_symmetry_group_IT_number 15
_symmetry_cell_setting 'monoclinic'
loop_
_space_group_symop_operation_xyz
x,y,z
-x,y,1/2-z
-x,-y,-z
x,-y,1/2+z
1/2+x,1/2+y,z
1/2-x,1/2+y,1/2-z
1/2-x,1/2-y,-z
1/2+x,1/2-y,1/2+z
loop_
_atom_site_type_symbol
_atom_site_label
_atom_site_fract_x
_atom_site_fract_y
_atom_site_fract_z
Si Si1 0.352583 0.385815 0.295904
Si Si2 0.800838 0.364879 0.774593
Si Si3 0.137612 0.465122 0.122944
Si Si4 0.834351 0.784171 0.783021
Si Si5 0.572993 0.771084 0.662652
O O1 0.284124 0.334628 0.533920
O O2 0.348157 0.282743 0.177857
O O3 0.354129 0.550633 0.256542
O O4 0.420745 0.344972 0.235119
O O5 0.813721 0.445857 0.612285
O O6 0.816341 0.464780 0.864177
O O7 0.115877 0.308336 0.226644
O O8 0.071164 0.568546 0.230207
O O9 0.857764 0.739840 0.586508
O O10 0.750000 0.750000 0.000000
O O11 0.500000 0.738867 0.750000
#
# Coordination Sequence:
#
# PCOD8142816 Si02
#       5
#     8   8   8   8   8
#     4  10  23  39  65  96 137 170 217 275 335 389
#     4  10  21  39  66 100 132 169 218 282 335 382
#     4  11  21  42  65  98 128 171 227 266 334 385
#     4  12  23  40  70 101 126 170 223 278 330 387
#     4  11  26  45  64  94 138 179 220 269 327 401
#
# _framework density 22.43478
#
# number of rings (size 3 to 8) (size 9 to 14) (size 15 to 20)
#    0.000    1.200    4.000    1.200    2.800    3.200 
#    0.000    1.000    0.000    0.000    0.000    0.000 
#    0.000    0.000    0.000    0.000    0.000    0.000 
#
# Total GULP energy -247803.944801 kJ/mol
# GULP energy per Si atom -12390.197240 kJ/mol
# Density = 2.238372 g / cm^3
# Si number density = 22.434780 Si / 1000 Ang^3
#
#
#
# Elastic Constant Matrix: (Units=GPa)
#
#
# Indices 1 2 3 4 5 6 
#
# 1 107.0538 60.2108 11.6274 0.0000 8.3915 0.0000
# 2 60.2108 184.4898 16.5009 0.0000 12.3950 0.0000
# 3 11.6274 16.5009 31.9457 0.0000 12.9572 0.0000
# 4 0.0000 0.0000 0.0000 21.8999 0.0000 8.1588
# 5 8.3915 12.3950 12.9572 0.0000 37.8924 0.0000
# 6 0.0000 0.0000 0.0000 8.1588 0.0000 36.3214
#
#
#
# Elastic Compliance Matrix: (Units=1/GPa)
#
#
# Indices 1 2 3 4 5 6 
#
# 1 0.011626 -0.003559 -0.002114 0.000000 -0.000687 0.000000
# 2 -0.003559 0.006805 -0.001900 0.000000 -0.000788 0.000000
# 3 -0.002114 -0.001900 0.037864 0.000000 -0.011858 0.000000
# 4 0.000000 0.000000 0.000000 0.049833 0.000000 -0.011194
# 5 -0.000687 -0.000788 -0.011858 0.000000 0.030855 0.000000
# 6 0.000000 0.000000 0.000000 -0.011194 0.000000 0.030046
#
#
# Mechanical properties :
#
#
# Convention : Reuss Voigt Hill
#
# Bulk Modulus (GPa) = 24.30254 55.57417 39.93836
# Shear Modulus (GPa) = 25.52429 34.89941 30.21185
#
# Velocity S-wave (km/s) = 3.37666 3.94838 3.67366
# Velocity P-wave (km/s) = 5.10475 6.75363 5.98623
#
# Compressibility (1/GPa) = 0.04114795
#
# Stress axis : x y z
#
# Youngs Moduli (GPa) = 86.01091 146.95514 26.41062
#
# Poissons Ratio (x) = 0.52303 0.05585
# Poissons Ratio (y) = 0.30612 0.05017
# Poissons Ratio (z) = 0.18187 0.27918
#
# Static dielectric constant tensor:
#      x y z
#    x 4.115220 0.000000 0.285300 
#    y 0.000000 4.577400 0.000000 
#    z 0.285300 0.000000 3.591420 
# 
# 
# High freq. dielectric constant tensor:
#      x y z
#    x 1.889480 0.000000 0.024620 
#    y 0.000000 1.907870 0.000000 
#    z 0.024620 0.000000 1.835240 
# 
# From -- ./inp_files/125441.got.cif
#   From: 2010.06.25/outbox.cif.g09.slc.cpg/sg15_63_cif.got.tgz:125441.got - 2010.06.28 07:06:18.
