data_PCOD8142121
_publ_section_title
;
Structure prediction by ZEFSAII (Michael W. Deem and Ramdas Pophale) SiO2 
 PCOD8142121
Probable space group: C 2/C
;
_chemical_formula_sum "Si O2"
_cell_formula_units_Z 48
_cell_length_a 17.623146
_cell_length_b 8.838966
_cell_length_c 30.732719
_cell_angle_alpha 90.000000
_cell_angle_beta 149.683919
_cell_angle_gamma 90.000000
_cell_volume 2416.458622
_symmetry_space_group_name_H-M "C 2/C"
_symmetry_group_IT_number 15
_symmetry_cell_setting 'monoclinic'
loop_
_space_group_symop_operation_xyz
x,y,z
-x,y,1/2-z
-x,-y,-z
x,-y,1/2+z
1/2+x,1/2+y,z
1/2-x,1/2+y,1/2-z
1/2-x,1/2-y,-z
1/2+x,1/2-y,1/2+z
loop_
_atom_site_type_symbol
_atom_site_label
_atom_site_fract_x
_atom_site_fract_y
_atom_site_fract_z
Si Si1 0.328017 0.450362 0.913759
Si Si2 0.318891 0.435416 0.577300
Si Si3 0.681151 0.101847 0.759433
Si Si4 0.833773 0.587486 0.586834
Si Si5 0.663594 0.450107 0.744513
Si Si6 0.824710 0.136779 0.663666
O O1 0.258318 0.545289 0.840790
O O2 0.253823 0.484063 0.923042
O O3 0.293608 0.273069 0.888769
O O4 0.500000 0.500000 0.000000
O O5 0.211072 0.469277 0.483400
O O6 0.293294 0.260938 0.577719
O O7 0.488799 0.462223 0.645889
O O8 0.280036 0.544601 0.598161
O O9 0.508518 0.058293 0.678667
O O10 0.713647 0.278059 0.772309
O O11 0.743041 0.026148 0.747023
O O12 0.700926 0.526088 0.808766
O O13 0.000000 0.191062 0.750000
#
# Coordination Sequence:
#
# PCOD8142121 Si02
#       6
#     8   8   8   8   8   8
#     4  12  25  39  58  85 118 154 199 247 290 344
#     4   9  20  39  62  88 118 152 193 238 290 349
#     4  11  22  38  60  86 118 156 195 239 293 348
#     4  10  21  39  61  85 117 155 191 237 295 351
#     4  10  21  38  62  90 120 153 193 239 289 349
#     4  10  21  39  62  87 118 155 195 241 291 345
#
# _framework density 19.863779000000001
#
# number of rings (size 3 to 8) (size 9 to 14) (size 15 to 20)
#    0.000    1.667    0.000    4.500    0.000    8.667 
#    0.000    2.500    0.000    0.000    0.000    0.000 
#    0.000    0.000    0.000    0.000    0.000    0.000 
#
# Total GULP energy -297650.349991 kJ/mol
# GULP energy per Si atom -12402.097916 kJ/mol
# Density = 1.981857 g / cm^3
# Si number density = 19.863779 Si / 1000 Ang^3
#
#
#
# Elastic Constant Matrix: (Units=GPa)
#
#
# Indices 1 2 3 4 5 6 
#
# 1 128.0576 77.2898 55.1971 0.0002 -10.7029 -0.0001
# 2 77.2898 141.4745 69.5628 0.0001 5.7480 -0.0001
# 3 55.1971 69.5628 152.9637 -0.0020 -16.5754 0.0014
# 4 0.0002 0.0001 -0.0020 -108.4364 -0.0001 100.5894
# 5 -10.7029 5.7480 -16.5754 -0.0001 16.9663 0.0001
# 6 -0.0001 -0.0001 0.0014 100.5894 0.0001 -35.6691
#
#
#
# Elastic Compliance Matrix: (Units=1/GPa)
#
#
# Indices 1 2 3 4 5 6 
#
# 1 0.013447 -0.007712 -0.000160 0.000000 0.010940 0.000000
# 2 -0.007712 0.014606 -0.005506 0.000000 -0.015192 0.000000
# 3 -0.000160 -0.005506 0.010390 0.000000 0.011915 0.000000
# 4 0.000000 0.000000 0.000000 0.005707 0.000000 0.016093
# 5 0.010940 -0.015192 0.011915 0.000000 0.082629 0.000000
# 6 0.000000 0.000000 0.000000 0.016093 0.000000 0.017349
#
#
# Mechanical properties :
#
#
# Convention : Reuss Voigt Hill
#
# Bulk Modulus (GPa) = 85.55787 91.84390 88.70088
# Shear Modulus (GPa) = 28.60761 -10.73144 8.93809
#
# Velocity S-wave (km/s) = 3.79910 -2.32685 2.12355
# Velocity P-wave (km/s) = 7.90000 6.25446 7.12490
#
# Compressibility (1/GPa) = 0.01168800
#
# Stress axis : x y z
#
# Youngs Moduli (GPa) = 74.36684 68.46458 96.24587
#
# Poissons Ratio (x) = 0.52801 0.01536
# Poissons Ratio (y) = 0.57353 0.52990
# Poissons Ratio (z) = 0.01187 0.37694
#
# Static dielectric constant tensor:
#      x y z
#    x 3.589590 0.000000 -0.097610 
#    y 0.000000 3.748940 0.000000 
#    z -0.097610 0.000000 3.972480 
# 
# 
# High freq. dielectric constant tensor:
#      x y z
#    x 1.783620 0.000000 -0.010790 
#    y 0.000000 1.782170 0.000000 
#    z -0.010790 0.000000 1.783220 
# 
# From -- ./inp_files/224692.got.cif
#   From: 2010.06.25/outbox.cif.g09.slc.cpg/sg15_113_cif.got.tgz:224692.got - 2010.06.28 07:06:18.
