data_PCOD8142427
_publ_section_title
;
Structure prediction by ZEFSAII (Michael W. Deem and Ramdas Pophale) SiO2 
 PCOD8142427
Probable space group: C 2/C
;
_chemical_formula_sum "Si O2"
_cell_formula_units_Z 52
_cell_length_a 11.543437
_cell_length_b 32.118239
_cell_length_c 11.033057
_cell_angle_alpha 90.000000
_cell_angle_beta 141.092171
_cell_angle_gamma 90.000000
_cell_volume 2569.155280
_symmetry_space_group_name_H-M "C 2/C"
_symmetry_group_IT_number 15
_symmetry_cell_setting 'monoclinic'
loop_
_space_group_symop_operation_xyz
x,y,z
-x,y,1/2-z
-x,-y,-z
x,-y,1/2+z
1/2+x,1/2+y,z
1/2-x,1/2+y,1/2-z
1/2-x,1/2-y,-z
1/2+x,1/2-y,1/2+z
loop_
_atom_site_type_symbol
_atom_site_label
_atom_site_fract_x
_atom_site_fract_y
_atom_site_fract_z
Si Si1 0.788865 0.081125 0.779391
Si Si2 0.000000 0.734230 0.250000
Si Si3 0.850480 0.805238 0.963326
Si Si4 0.000000 0.126279 0.750000
Si Si5 0.123064 0.581111 0.107608
Si Si6 0.694217 0.498667 0.342344
Si Si7 0.454291 0.637748 0.350281
Si Si8 0.000000 0.454421 0.750000
O O1 0.856261 0.098193 0.705179
O O2 0.570799 0.088956 0.619505
O O3 0.821988 0.031290 0.790628
O O4 0.901027 0.103270 0.979367
O O5 0.070663 0.762953 0.416369
O O6 0.134053 0.703656 0.284884
O O7 0.951020 0.817688 0.918515
O O8 0.873999 0.845733 0.063585
O O9 0.235623 0.543019 0.143616
O O10 0.245678 0.621839 0.190313
O O11 0.096378 0.574527 0.228762
O O12 0.500000 0.504342 0.250000
O O13 0.845675 0.482371 0.560118
O O14 0.500000 0.647917 0.250000
#
# Coordination Sequence:
#
# PCOD8142427 Si02
#       8
#     8   4   8   4   8   8   8   4
#     4  10  21  39  58  84 121 157 211 263 309 347
#     4   9  18  39  68  98 122 146 188 244 306 360
#     4   9  20  36  64  96 124 150 189 243 301 369
#     4   9  18  34  60  93 120 152 188 262 313 344
#     4  11  25  36  60  85 114 168 210 263 309 359
#     4  11  22  38  57  83 117 160 213 266 315 360
#     4  11  25  41  58  89 127 165 203 241 302 370
#     4  10  22  37  56  85 108 148 224 266 319 356
#
# _framework density 20.240116
#
# number of rings (size 3 to 8) (size 9 to 14) (size 15 to 20)
#    0.000    1.846    0.769    3.231    8.615    6.769 
#    0.000    0.769    0.000    0.000    0.000    0.000 
#    0.000    0.000    0.000    0.000    0.000    0.000 
#
# Total GULP energy -322244.811244 kJ/mol
# GULP energy per Si atom -12394.031202 kJ/mol
# Density = 2.019405 g / cm^3
# Si number density = 20.240116 Si / 1000 Ang^3
#
#
#
# Elastic Constant Matrix: (Units=GPa)
#
#
# Indices 1 2 3 4 5 6 
#
# 1 126.8805 34.8027 54.9799 0.0000 -5.5427 0.0000
# 2 34.8027 67.6960 26.8584 0.0000 2.4207 0.0000
# 3 54.9799 26.8584 76.5462 0.0000 6.3912 0.0000
# 4 0.0000 0.0000 0.0000 21.8962 0.0000 -1.8102
# 5 -5.5427 2.4207 6.3912 0.0000 37.0159 0.0000
# 6 0.0000 0.0000 0.0000 -1.8102 0.0000 25.4474
#
#
#
# Elastic Compliance Matrix: (Units=1/GPa)
#
#
# Indices 1 2 3 4 5 6 
#
# 1 0.012435 -0.003321 -0.008056 0.000000 0.003470 0.000000
# 2 -0.003321 0.018048 -0.003863 0.000000 -0.001010 0.000000
# 3 -0.008056 -0.003863 0.020582 0.000000 -0.004507 0.000000
# 4 0.000000 0.000000 0.000000 0.045940 0.000000 0.003268
# 5 0.003470 -0.001010 -0.004507 0.000000 0.028379 0.000000
# 6 0.000000 0.000000 0.000000 0.003268 0.000000 0.039529
#
#
# Mechanical properties :
#
#
# Convention : Reuss Voigt Hill
#
# Bulk Modulus (GPa) = 48.57849 56.04496 52.31172
# Shear Modulus (GPa) = 24.72133 27.17067 25.94600
#
# Velocity S-wave (km/s) = 3.49865 3.66788 3.58426
# Velocity P-wave (km/s) = 6.35405 6.75928 6.55979
#
# Compressibility (1/GPa) = 0.02058524
#
# Stress axis : x y z
#
# Youngs Moduli (GPa) = 80.42076 55.40809 48.58598
#
# Poissons Ratio (x) = 0.18399 0.39140
# Poissons Ratio (y) = 0.26704 0.18770
# Poissons Ratio (z) = 0.64786 0.21405
#
# Static dielectric constant tensor:
#      x y z
#    x 11.538470 0.000000 -1.468500 
#    y 0.000000 3.693830 0.000000 
#    z -1.468500 0.000000 4.136710 
# 
# 
# High freq. dielectric constant tensor:
#      x y z
#    x 1.789910 0.000000 0.014050 
#    y 0.000000 1.779070 0.000000 
#    z 0.014050 0.000000 1.795260 
# 
# From -- ./inp_files/92671.got.cif
#   From: 2010.06.25/outbox.cif.g09.slc.cpg/sg15_47_cif.got.tgz:92671.got - 2010.06.28 07:06:18.
