data_PCOD8142584
_publ_section_title
;
Structure prediction by ZEFSAII (Michael W. Deem and Ramdas Pophale) SiO2 
 PCOD8142584
Probable space group: C 2/C
;
_chemical_formula_sum "Si O2"
_cell_formula_units_Z 36
_cell_length_a 13.034968
_cell_length_b 20.416322
_cell_length_c 8.467770
_cell_angle_alpha 90.000000
_cell_angle_beta 127.822947
_cell_angle_gamma 90.000000
_cell_volume 1780.056777
_symmetry_space_group_name_H-M "C 2/C"
_symmetry_group_IT_number 15
_symmetry_cell_setting 'monoclinic'
loop_
_space_group_symop_operation_xyz
x,y,z
-x,y,1/2-z
-x,-y,-z
x,-y,1/2+z
1/2+x,1/2+y,z
1/2-x,1/2+y,1/2-z
1/2-x,1/2-y,-z
1/2+x,1/2-y,1/2+z
loop_
_atom_site_type_symbol
_atom_site_label
_atom_site_fract_x
_atom_site_fract_y
_atom_site_fract_z
Si Si1 0.525242 0.295332 0.089444
Si Si2 0.847455 0.427132 0.322092
Si Si3 0.706774 0.779000 0.293009
Si Si4 0.939252 0.938642 0.362472
Si Si5 0.500000 0.978991 0.750000
O O1 0.500000 0.289733 0.250000
O O2 0.670227 0.266829 0.204410
O O3 0.523745 0.369711 0.020782
O O4 0.418431 0.258274 0.888171
O O5 0.835917 0.354806 0.238119
O O6 0.714389 0.449620 0.278182
O O7 0.950647 0.431677 0.563017
O O8 0.886728 0.474792 0.214885
O O9 0.750000 0.750000 0.500000
O O10 0.000000 0.934932 0.250000
O O11 0.000000 0.000000 0.500000
#
# Coordination Sequence:
#
# PCOD8142584 Si02
#       5
#     8   8   8   8   4
#     4  10  23  42  62  92 124 168 212 261 319 390
#     4  10  23  40  63  94 126 168 210 265 319 380
#     4  11  24  41  64  94 129 165 217 264 325 380
#     4  10  21  39  62  90 123 158 209 256 319 370
#     4  10  22  42  62  92 130 164 216 256 324 384
#
# _framework density 20.224074999999999
#
# number of rings (size 3 to 8) (size 9 to 14) (size 15 to 20)
#    0.000    1.778    0.000    2.667    4.667    5.333 
#    4.000    0.000    0.000    0.000    0.000    0.000 
#    0.000    0.000    0.000    0.000    0.000    0.000 
#
# Total GULP energy -223126.725582 kJ/mol
# GULP energy per Si atom -12395.929199 kJ/mol
# Density = 2.017804 g / cm^3
# Si number density = 20.224075 Si / 1000 Ang^3
#
#
#
# Elastic Constant Matrix: (Units=GPa)
#
#
# Indices 1 2 3 4 5 6 
#
# 1 126.0513 41.1594 15.6971 0.0000 13.2348 0.0000
# 2 41.1594 115.2364 65.7688 0.0000 9.5779 0.0000
# 3 15.6971 65.7688 97.6990 0.0000 4.5089 0.0000
# 4 0.0000 0.0000 0.0000 37.2126 0.0000 -2.6525
# 5 13.2348 9.5779 4.5089 0.0000 37.4746 0.0000
# 6 0.0000 0.0000 0.0000 -2.6525 0.0000 26.7244
#
#
#
# Elastic Compliance Matrix: (Units=1/GPa)
#
#
# Indices 1 2 3 4 5 6 
#
# 1 0.009278 -0.003774 0.001163 0.000000 -0.002452 0.000000
# 2 -0.003774 0.015859 -0.009999 0.000000 -0.001517 0.000000
# 3 0.001163 -0.009999 0.016774 0.000000 0.000127 0.000000
# 4 0.000000 0.000000 0.000000 0.027064 0.000000 0.002686
# 5 -0.002452 -0.001517 0.000127 0.000000 0.027923 0.000000
# 6 0.000000 0.000000 0.000000 0.002686 0.000000 0.037686
#
#
# Mechanical properties :
#
#
# Convention : Reuss Voigt Hill
#
# Bulk Modulus (GPa) = 59.91422 64.91526 62.41474
# Shear Modulus (GPa) = 30.23551 34.70641 32.47096
#
# Velocity S-wave (km/s) = 3.87075 4.14707 4.01129
# Velocity P-wave (km/s) = 7.04744 7.42284 7.23758
#
# Compressibility (1/GPa) = 0.01669053
#
# Stress axis : x y z
#
# Youngs Moduli (GPa) = 107.77968 63.05640 59.61525
#
# Poissons Ratio (x) = 0.23796 -0.06933
# Poissons Ratio (y) = 0.40674 0.59612
# Poissons Ratio (z) = -0.12534 0.63053
#
# Static dielectric constant tensor:
#      x y z
#    x 3.979650 0.000000 0.150610 
#    y 0.000000 3.657170 0.000000 
#    z 0.150610 0.000000 3.730570 
# 
# 
# High freq. dielectric constant tensor:
#      x y z
#    x 1.815580 0.000000 0.007160 
#    y 0.000000 1.797820 0.000000 
#    z 0.007160 0.000000 1.781310 
# 
# From -- ./inp_files/30569.got.cif
#   From: 2010.06.25/outbox.cif.g09.slc.cpg/sg15_16_cif.got.tgz:30569.got - 2010.06.28 07:06:18.
