data_PCOD8142704
_publ_section_title
;
Structure prediction by ZEFSAII (Michael W. Deem and Ramdas Pophale) SiO2 
 PCOD8142704
Probable space group: C 2/C
;
_chemical_formula_sum "Si O2"
_cell_formula_units_Z 44
_cell_length_a 6.300596
_cell_length_b 17.127490
_cell_length_c 20.856538
_cell_angle_alpha 90.000000
_cell_angle_beta 100.796156
_cell_angle_gamma 90.000000
_cell_volume 2210.862031
_symmetry_space_group_name_H-M "C 2/C"
_symmetry_group_IT_number 15
_symmetry_cell_setting 'monoclinic'
loop_
_space_group_symop_operation_xyz
x,y,z
-x,y,1/2-z
-x,-y,-z
x,-y,1/2+z
1/2+x,1/2+y,z
1/2-x,1/2+y,1/2-z
1/2-x,1/2-y,-z
1/2+x,1/2-y,1/2+z
loop_
_atom_site_type_symbol
_atom_site_label
_atom_site_fract_x
_atom_site_fract_y
_atom_site_fract_z
Si Si1 0.944849 0.307517 0.529171
Si Si2 0.250347 0.098210 0.546352
Si Si3 0.079968 0.850581 0.687808
Si Si4 0.262688 0.721999 0.857831
Si Si5 0.350580 0.576693 0.434440
Si Si6 0.500000 0.226999 0.250000
O O1 0.750000 0.250000 0.500000
O O2 0.850885 0.365249 0.577062
O O3 0.046133 0.361047 0.478010
O O4 0.134523 0.260471 0.573149
O O5 0.261501 0.132976 0.619409
O O6 0.023432 0.108847 0.496094
O O7 0.261262 0.005312 0.555546
O O8 0.043040 0.915793 0.630433
O O9 0.329565 0.829993 0.707559
O O10 0.000000 0.888283 0.750000
O O11 0.957700 0.768659 0.667249
O O12 0.402295 0.719200 0.800814
#
# Coordination Sequence:
#
# PCOD8142704 Si02
#       6
#     8   8   8   8   8   4
#     4  12  21  36  63  90 118 160 201 242 305 363
#     4  11  24  37  59  96 124 154 192 258 313 365
#     4  10  21  39  64  85 115 161 213 249 291 367
#     4  11  21  38  61  87 117 154 208 248 293 353
#     4  11  22  40  59  90 129 157 193 249 319 368
#     4  10  22  38  64  84 110 160 214 250 290 352
#
# _framework density 19.901738999999999
#
# number of rings (size 3 to 8) (size 9 to 14) (size 15 to 20)
#    0.000    1.091    5.455    2.182    0.000    0.000 
#    1.636    0.000    6.000    0.000    0.000    0.000 
#    0.000    0.000    0.000    0.000    0.000    0.000 
#
# Total GULP energy -272565.575883 kJ/mol
# GULP energy per Si atom -12389.344358 kJ/mol
# Density = 1.985644 g / cm^3
# Si number density = 19.901739 Si / 1000 Ang^3
#
#
#
# Elastic Constant Matrix: (Units=GPa)
#
#
# Indices 1 2 3 4 5 6 
#
# 1 92.8059 41.0156 29.4220 0.0000 -3.2446 0.0000
# 2 41.0156 76.1719 35.1083 0.0000 -10.0529 0.0000
# 3 29.4220 35.1083 108.2987 0.0000 -17.6325 0.0000
# 4 0.0000 0.0000 0.0000 24.0403 0.0000 -0.9171
# 5 -3.2446 -10.0529 -17.6325 0.0000 37.7037 0.0000
# 6 0.0000 0.0000 0.0000 -0.9171 0.0000 30.5148
#
#
#
# Elastic Compliance Matrix: (Units=1/GPa)
#
#
# Indices 1 2 3 4 5 6 
#
# 1 0.014465 -0.007130 -0.001867 0.000000 -0.001530 0.000000
# 2 -0.007130 0.019078 -0.003810 0.000000 0.002692 0.000000
# 3 -0.001867 -0.003810 0.011673 0.000000 0.004283 0.000000
# 4 0.000000 0.000000 0.000000 0.041645 0.000000 0.001252
# 5 -0.001530 0.002692 0.004283 0.000000 0.029111 0.000000
# 6 0.000000 0.000000 0.000000 0.001252 0.000000 0.032809
#
#
# Mechanical properties :
#
#
# Convention : Reuss Voigt Hill
#
# Bulk Modulus (GPa) = 51.01304 54.26313 52.63809
# Shear Modulus (GPa) = 27.63513 29.90048 28.76780
#
# Velocity S-wave (km/s) = 3.73041 3.88029 3.80609
# Velocity P-wave (km/s) = 6.65152 6.88479 6.76916
#
# Compressibility (1/GPa) = 0.01960283
#
# Stress axis : x y z
#
# Youngs Moduli (GPa) = 69.13353 52.41508 85.66543
#
# Poissons Ratio (x) = 0.37371 0.15997
# Poissons Ratio (y) = 0.49291 0.32635
# Poissons Ratio (z) = 0.12910 0.19968
#
# Static dielectric constant tensor:
#      x y z
#    x 3.728220 0.000000 -0.041640 
#    y 0.000000 3.479510 0.000000 
#    z -0.041640 0.000000 3.950840 
# 
# 
# High freq. dielectric constant tensor:
#      x y z
#    x 1.783810 0.000000 -0.006800 
#    y 0.000000 1.753880 0.000000 
#    z -0.006800 0.000000 1.783880 
# 
# From -- ./inp_files/226906.got.cif
#   From: 2010.06.25/outbox.cif.g09.slc.cpg/sg15_114_cif.got.tgz:226906.got - 2010.06.28 07:06:18.
