data_PCOD8142021
_publ_section_title
;
Structure prediction by ZEFSAII (Michael W. Deem and Ramdas Pophale) SiO2 
 PCOD8142021
Probable space group: C 2/C
;
_chemical_formula_sum "Si O2"
_cell_formula_units_Z 40
_cell_length_a 18.487460
_cell_length_b 13.292549
_cell_length_c 8.275586
_cell_angle_alpha 90.000000
_cell_angle_beta 89.944348
_cell_angle_gamma 90.000000
_cell_volume 2033.686795
_symmetry_space_group_name_H-M "C 2/C"
_symmetry_group_IT_number 15
_symmetry_cell_setting 'monoclinic'
loop_
_space_group_symop_operation_xyz
x,y,z
-x,y,1/2-z
-x,-y,-z
x,-y,1/2+z
1/2+x,1/2+y,z
1/2-x,1/2+y,1/2-z
1/2-x,1/2-y,-z
1/2+x,1/2-y,1/2+z
loop_
_atom_site_type_symbol
_atom_site_label
_atom_site_fract_x
_atom_site_fract_y
_atom_site_fract_z
Si Si1 0.831815 0.979402 0.199940
Si Si2 0.748140 0.870519 0.480182
Si Si3 0.435899 0.570332 0.439766
Si Si4 0.000000 0.240597 0.250000
Si Si5 0.417787 0.895215 0.054165
Si Si6 0.500000 0.940695 0.750000
O O1 0.788305 0.904044 0.315797
O O2 0.904445 0.023575 0.276757
O O3 0.866056 0.914198 0.054838
O O4 0.783452 0.071988 0.132909
O O5 0.750000 0.750000 0.500000
O O6 0.666777 0.907764 0.469320
O O7 0.500000 0.500000 0.500000
O O8 0.468068 0.678716 0.399462
O O9 0.934737 0.304730 0.175669
O O10 0.445461 0.996043 0.139056
O O11 0.453884 0.874868 0.877697
#
# Coordination Sequence:
#
# PCOD8142021 Si02
#       6
#     8   8   8   4   8   4
#     4  10  23  39  61  91 118 166 201 244 315 368
#     4  11  23  40  61  87 128 161 201 249 302 378
#     4  11  20  39  61  85 122 149 196 254 307 356
#     4  11  22  36  59  94 114 154 203 256 294 369
#     4  10  21  38  61  85 120 154 205 245 300 347
#     4   9  20  40  61  84 112 160 201 256 290 343
#
# _framework density 19.668713
#
# number of rings (size 3 to 8) (size 9 to 14) (size 15 to 20)
#    0.000    1.600    2.000    2.400    2.800    1.600 
#    0.000   11.000    0.000    0.000    0.000    0.000 
#    0.000    0.000    0.000    0.000    0.000    0.000 
#
# Total GULP energy -247925.487531 kJ/mol
# GULP energy per Si atom -12396.274377 kJ/mol
# Density = 1.962395 g / cm^3
# Si number density = 19.668713 Si / 1000 Ang^3
#
#
#
# Elastic Constant Matrix: (Units=GPa)
#
#
# Indices 1 2 3 4 5 6 
#
# 1 127.4055 37.7037 45.2066 0.0000 14.8977 0.0000
# 2 37.7037 96.6950 41.2605 0.0000 -1.9376 0.0000
# 3 45.2066 41.2605 100.9259 0.0000 3.0201 0.0000
# 4 0.0000 0.0000 0.0000 34.4526 0.0000 -8.6333
# 5 14.8977 -1.9376 3.0201 0.0000 43.4134 0.0000
# 6 0.0000 0.0000 0.0000 -8.6333 0.0000 11.8473
#
#
#
# Elastic Compliance Matrix: (Units=1/GPa)
#
#
# Indices 1 2 3 4 5 6 
#
# 1 0.010226 -0.002597 -0.003417 0.000000 -0.003387 0.000000
# 2 -0.002597 0.013223 -0.004296 0.000000 0.001780 0.000000
# 3 -0.003417 -0.004296 0.013193 0.000000 0.000063 0.000000
# 4 0.000000 0.000000 0.000000 0.035510 0.000000 0.025876
# 5 -0.003387 0.001780 0.000063 0.000000 0.024272 0.000000
# 6 0.000000 0.000000 0.000000 0.025876 0.000000 0.103264
#
#
# Mechanical properties :
#
#
# Convention : Reuss Voigt Hill
#
# Bulk Modulus (GPa) = 62.41425 63.70754 63.06090
# Shear Modulus (GPa) = 22.15822 31.33302 26.74562
#
# Velocity S-wave (km/s) = 3.36009 3.99562 3.69155
# Velocity P-wave (km/s) = 6.84509 7.33125 7.09234
#
# Compressibility (1/GPa) = 0.01602198
#
# Stress axis : x y z
#
# Youngs Moduli (GPa) = 97.78810 75.62443 75.79585
#
# Poissons Ratio (x) = 0.19640 0.25902
# Poissons Ratio (y) = 0.25396 0.32561
# Poissons Ratio (z) = 0.33418 0.32488
#
# Static dielectric constant tensor:
#      x y z
#    x 3.656490 0.000000 -0.016650 
#    y 0.000000 3.366300 0.000000 
#    z -0.016650 0.000000 3.957100 
# 
# 
# High freq. dielectric constant tensor:
#      x y z
#    x 1.782040 0.000000 0.001620 
#    y 0.000000 1.746990 0.000000 
#    z 0.001620 0.000000 1.783990 
# 
# From -- ./inp_files/37996.got.cif
#   From: 2010.06.25/outbox.cif.g09.slc.cpg/sg15_19_cif.got.tgz:37996.got - 2010.06.28 07:06:18.
