data_PCOD8142800
_publ_section_title
;
Structure prediction by ZEFSAII (Michael W. Deem and Ramdas Pophale) SiO2 
 PCOD8142800
Probable space group: C 2/C
;
_chemical_formula_sum "Si O2"
_cell_formula_units_Z 36
_cell_length_a 7.892952
_cell_length_b 23.732614
_cell_length_c 8.187867
_cell_angle_alpha 90.000000
_cell_angle_beta 90.382253
_cell_angle_gamma 90.000000
_cell_volume 1533.720250
_symmetry_space_group_name_H-M "C 2/C"
_symmetry_group_IT_number 15
_symmetry_cell_setting 'monoclinic'
loop_
_space_group_symop_operation_xyz
x,y,z
-x,y,1/2-z
-x,-y,-z
x,-y,1/2+z
1/2+x,1/2+y,z
1/2-x,1/2+y,1/2-z
1/2-x,1/2-y,-z
1/2+x,1/2-y,1/2+z
loop_
_atom_site_type_symbol
_atom_site_label
_atom_site_fract_x
_atom_site_fract_y
_atom_site_fract_z
Si Si1 0.269695 0.450988 0.616107
Si Si2 0.500000 0.764416 0.750000
Si Si3 0.105852 0.343719 0.490648
Si Si4 0.146792 0.062421 0.013681
Si Si5 0.739742 0.672574 0.841399
O O1 0.127660 0.409949 0.537052
O O2 0.235249 0.517691 0.587808
O O3 0.276833 0.433433 0.804621
O O4 0.447279 0.448446 0.521908
O O5 0.630429 0.803810 0.648089
O O6 0.620996 0.727177 0.870114
O O7 0.244726 0.330458 0.354828
O O8 0.920936 0.327189 0.427058
O O9 0.144315 0.119795 0.914677
#
# Coordination Sequence:
#
# PCOD8142800 Si02
#       5
#     8   4   8   8   8
#     4  10  21  39  65  95 129 167 211 259 315 385
#     4  12  24  44  66  90 130 174 218 264 318 386
#     4  11  24  41  63  94 127 165 214 268 320 376
#     4  10  21  39  65  95 128 169 209 256 320 385
#     4  11  24  41  64  93 127 168 214 266 322 379
#
# _framework density 23.472338000000001
#
# number of rings (size 3 to 8) (size 9 to 14) (size 15 to 20)
#    0.000    1.333    0.000    5.333    0.000    4.444 
#    0.000    6.667    0.000    0.000    0.000    0.000 
#    0.000    0.000    0.000    0.000    0.000    0.000 
#
# Total GULP energy -223048.320215 kJ/mol
# GULP energy per Si atom -12391.573345 kJ/mol
# Density = 2.341891 g / cm^3
# Si number density = 23.472338 Si / 1000 Ang^3
#
#
#
# Elastic Constant Matrix: (Units=GPa)
#
#
# Indices 1 2 3 4 5 6 
#
# 1 60.9286 28.6201 26.3730 0.0000 7.8934 0.0000
# 2 28.6201 151.7246 62.8607 0.0000 -10.9725 0.0000
# 3 26.3730 62.8607 106.6006 0.0000 -17.3461 0.0000
# 4 0.0000 0.0000 0.0000 40.3158 0.0000 -5.2334
# 5 7.8934 -10.9725 -17.3461 0.0000 33.7076 0.0000
# 6 0.0000 0.0000 0.0000 -5.2334 0.0000 37.3375
#
#
#
# Elastic Compliance Matrix: (Units=1/GPa)
#
#
# Indices 1 2 3 4 5 6 
#
# 1 0.020816 -0.002426 -0.005065 0.000000 -0.008271 0.000000
# 2 -0.002426 0.009006 -0.004519 0.000000 0.001174 0.000000
# 3 -0.005065 -0.004519 0.014464 0.000000 0.007158 0.000000
# 4 0.000000 0.000000 0.000000 0.025264 0.000000 0.003541
# 5 -0.008271 0.001174 0.007158 0.000000 0.035669 0.000000
# 6 0.000000 0.000000 0.000000 0.003541 0.000000 0.027279
#
#
# Mechanical properties :
#
#
# Convention : Reuss Voigt Hill
#
# Bulk Modulus (GPa) = 49.34742 61.66238 55.50490
# Shear Modulus (GPa) = 30.62335 35.69887 33.16111
#
# Velocity S-wave (km/s) = 3.61592 3.90409 3.76277
# Velocity P-wave (km/s) = 6.20504 6.83007 6.52504
#
# Compressibility (1/GPa) = 0.02026449
#
# Stress axis : x y z
#
# Youngs Moduli (GPa) = 48.03938 111.03905 69.13900
#
# Poissons Ratio (x) = 0.26941 0.35019
# Poissons Ratio (y) = 0.11656 0.31246
# Poissons Ratio (z) = 0.24332 0.50182
#
# Static dielectric constant tensor:
#      x y z
#    x 3.957950 0.000000 -0.163750 
#    y 0.000000 4.414630 0.000000 
#    z -0.163750 0.000000 4.327740 
# 
# 
# High freq. dielectric constant tensor:
#      x y z
#    x 1.914660 0.000000 -0.006150 
#    y 0.000000 1.939260 0.000000 
#    z -0.006150 0.000000 1.934000 
# 
# From -- ./inp_files/22543.got.cif
#   From: 2010.06.25/outbox.cif.g09.slc.cpg/sg15_12_cif.got.tgz:22543.got - 2010.06.28 07:06:18.
