data_PCOD8142314
_publ_section_title
;
Structure prediction by ZEFSAII (Michael W. Deem and Ramdas Pophale) SiO2 
 PCOD8142314
Probable space group: C 2/C
;
_chemical_formula_sum "Si O2"
_cell_formula_units_Z 36
_cell_length_a 15.436407
_cell_length_b 9.605768
_cell_length_c 9.729733
_cell_angle_alpha 90.000000
_cell_angle_beta 59.662789
_cell_angle_gamma 90.000000
_cell_volume 1245.156961
_symmetry_space_group_name_H-M "C 2/C"
_symmetry_group_IT_number 15
_symmetry_cell_setting 'monoclinic'
loop_
_space_group_symop_operation_xyz
x,y,z
-x,y,1/2-z
-x,-y,-z
x,-y,1/2+z
1/2+x,1/2+y,z
1/2-x,1/2+y,1/2-z
1/2-x,1/2-y,-z
1/2+x,1/2-y,1/2+z
loop_
_atom_site_type_symbol
_atom_site_label
_atom_site_fract_x
_atom_site_fract_y
_atom_site_fract_z
Si Si1 0.873252 0.068777 0.734305
Si Si2 0.094667 0.845837 0.003635
Si Si3 0.824697 0.726590 0.062362
Si Si4 0.500000 0.822258 0.250000
Si Si5 0.110015 0.554385 0.885588
O O1 0.847307 0.072116 0.917973
O O2 0.794795 0.161764 0.705895
O O3 0.977427 0.149671 0.630388
O O4 0.879789 0.913682 0.666321
O O5 0.131932 0.687187 0.965060
O O6 0.941135 0.761425 0.918323
O O7 0.750000 0.750000 0.000000
O O8 0.811988 0.569691 0.137815
O O9 0.403113 0.907382 0.266220
O O10 0.000000 0.500000 0.000000
#
# Coordination Sequence:
#
# PCOD8142314 Si02
#       5
#     8   8   8   4   8
#     4  10  22  38  65 100 143 184 240 299 360 431
#     4  10  21  38  66 101 137 190 244 292 366 439
#     4  11  25  44  68 107 143 186 241 310 359 435
#     4  10  22  42  76  98 142 192 244 290 374 426
#     4  10  21  39  72 102 135 188 242 297 362 439
#
# _framework density 28.912016999999999
#
# number of rings (size 3 to 8) (size 9 to 14) (size 15 to 20)
#    0.000    1.778    4.444    0.000    9.333    0.000 
#    4.000    1.111    0.000    0.000    0.000    0.000 
#    0.000    0.000    0.000    0.000    0.000    0.000 
#
# Total GULP energy -223050.720408 kJ/mol
# GULP energy per Si atom -12391.706689 kJ/mol
# Density = 2.884621 g / cm^3
# Si number density = 28.912017 Si / 1000 Ang^3
#
#
#
# Elastic Constant Matrix: (Units=GPa)
#
#
# Indices 1 2 3 4 5 6 
#
# 1 96.8890 0.2683 15.0632 0.0000 31.9870 0.0000
# 2 0.2683 161.1919 23.2701 0.0000 23.4482 0.0000
# 3 15.0632 23.2701 118.5523 0.0000 34.5558 0.0000
# 4 0.0000 0.0000 0.0000 35.7145 0.0000 26.4133
# 5 31.9870 23.4482 34.5558 0.0000 64.5357 0.0000
# 6 0.0000 0.0000 0.0000 26.4133 0.0000 21.8587
#
#
#
# Elastic Compliance Matrix: (Units=1/GPa)
#
#
# Indices 1 2 3 4 5 6 
#
# 1 0.012473 0.000916 0.000159 0.000000 -0.006600 0.000000
# 2 0.000916 0.006667 -0.000695 0.000000 -0.002504 0.000000
# 3 0.000159 -0.000695 0.010073 0.000000 -0.005220 0.000000
# 4 0.000000 0.000000 0.000000 0.263317 0.000000 -0.318183
# 5 -0.006600 -0.002504 -0.005220 0.000000 0.022472 0.000000
# 6 0.000000 0.000000 0.000000 -0.318183 0.000000 0.430229
#
#
# Mechanical properties :
#
#
# Convention : Reuss Voigt Hill
#
# Bulk Modulus (GPa) = 33.36272 50.42629 41.89450
# Shear Modulus (GPa) = 6.62725 46.95723 26.79224
#
# Velocity S-wave (km/s) = 1.51565 4.03444 3.04745
# Velocity P-wave (km/s) = 3.82457 6.25950 5.18694
#
# Compressibility (1/GPa) = 0.02997358
#
# Stress axis : x y z
#
# Youngs Moduli (GPa) = 80.17418 149.99464 99.27734
#
# Poissons Ratio (x) = -0.13745 -0.01581
# Poissons Ratio (y) = -0.07347 0.06901
# Poissons Ratio (z) = -0.01276 0.10426
#
# Static dielectric constant tensor:
#      x y z
#    x 5.224860 0.000000 -0.611980 
#    y 0.000000 10.073990 0.000000 
#    z -0.611980 0.000000 4.387470 
# 
# 
# High freq. dielectric constant tensor:
#      x y z
#    x 2.193580 0.000000 0.011110 
#    y 0.000000 2.162910 0.000000 
#    z 0.011110 0.000000 2.182730 
# 
# From -- ./inp_files/102466.got.cif
#   From: 2010.06.25/outbox.cif.g09.slc.cpg/sg15_52_cif.got.tgz:102466.got - 2010.06.28 07:06:18.
