data_PCOD8142239
_publ_section_title
;
Structure prediction by ZEFSAII (Michael W. Deem and Ramdas Pophale) SiO2 
 PCOD8142239
Probable space group: C 2/C
;
_chemical_formula_sum "Si O2"
_cell_formula_units_Z 64
_cell_length_a 21.599263
_cell_length_b 9.283022
_cell_length_c 26.444601
_cell_angle_alpha 90.000000
_cell_angle_beta 145.890969
_cell_angle_gamma 90.000000
_cell_volume 2973.375242
_symmetry_space_group_name_H-M "C 2/C"
_symmetry_group_IT_number 15
_symmetry_cell_setting 'monoclinic'
loop_
_space_group_symop_operation_xyz
x,y,z
-x,y,1/2-z
-x,-y,-z
x,-y,1/2+z
1/2+x,1/2+y,z
1/2-x,1/2+y,1/2-z
1/2-x,1/2-y,-z
1/2+x,1/2-y,1/2+z
loop_
_atom_site_type_symbol
_atom_site_label
_atom_site_fract_x
_atom_site_fract_y
_atom_site_fract_z
Si Si1 0.560631 0.960524 0.940502
Si Si2 0.643168 0.344943 0.507451
Si Si3 0.960070 0.898965 0.517716
Si Si4 0.869816 0.194312 0.148247
Si Si5 0.770228 0.457384 0.027908
Si Si6 0.808750 0.641120 0.397033
Si Si7 0.182576 0.796233 0.650151
Si Si8 0.314638 0.003976 0.799296
O O1 0.435199 0.012683 0.855931
O O2 0.625001 0.033994 0.938187
O O3 0.570159 0.788324 0.939016
O O4 0.613988 0.013349 0.029125
O O5 0.569301 0.490970 0.457063
O O6 0.741859 0.388133 0.535268
O O7 0.687431 0.298335 0.592653
O O8 0.853980 0.801653 0.436029
O O9 0.061744 0.791356 0.595021
O O10 0.000000 0.000000 0.500000
O O11 0.813453 0.349378 0.100372
O O12 0.811790 0.129277 0.159058
O O13 0.000000 0.199651 0.250000
O O14 0.837390 0.097751 0.076903
O O15 0.806316 0.620499 0.335672
O O16 0.238117 0.947426 0.702582
O O17 0.234221 0.650633 0.708818
#
# Coordination Sequence:
#
# PCOD8142239 Si02
#       8
#     8   8   8   8   8   8   8   8
#     4  11  23  42  68  92 129 177 218 271 338 402
#     4  11  22  43  65  93 131 172 224 270 328 400
#     4  10  21  38  64  90 123 173 217 261 324 396
#     4  10  23  43  68 102 134 176 226 281 338 399
#     4  10  23  42  69  99 130 180 229 268 338 409
#     4  11  21  43  68  91 130 177 219 275 337 406
#     4  11  26  39  62  97 135 172 217 278 336 398
#     4  12  25  41  63 100 134 170 224 274 344 401
#
# _framework density 21.524360999999999
#
# number of rings (size 3 to 8) (size 9 to 14) (size 15 to 20)
#    0.000    1.250    3.750    2.250    5.250    3.000 
#    0.000    0.000    0.000    1.500    0.000    0.000 
#    0.000    0.000    0.000    0.000    0.000    0.000 
#
# Total GULP energy -396507.605987 kJ/mol
# GULP energy per Si atom -12390.862687 kJ/mol
# Density = 2.147537 g / cm^3
# Si number density = 21.524361 Si / 1000 Ang^3
#
#
#
# Elastic Constant Matrix: (Units=GPa)
#
#
# Indices 1 2 3 4 5 6 
#
# 1 85.1202 14.2826 27.2723 0.0000 7.4915 0.0000
# 2 14.2826 105.9271 13.9525 -0.0001 -2.2278 0.0002
# 3 27.2723 13.9525 84.2683 0.0001 9.6329 0.0001
# 4 0.0000 -0.0001 0.0001 19.4899 0.0000 4.6954
# 5 7.4915 -2.2278 9.6329 0.0000 22.4942 0.0000
# 6 0.0000 0.0002 0.0001 4.6954 0.0000 36.7733
#
#
#
# Elastic Compliance Matrix: (Units=1/GPa)
#
#
# Indices 1 2 3 4 5 6 
#
# 1 0.013456 -0.001379 -0.003784 0.000000 -0.002997 0.000000
# 2 -0.001379 0.009856 -0.001419 0.000000 0.002043 0.000000
# 3 -0.003784 -0.001419 0.013878 0.000000 -0.004823 0.000000
# 4 0.000000 0.000000 0.000000 0.052937 0.000000 -0.006759
# 5 -0.002997 0.002043 -0.004823 0.000000 0.047722 0.000000
# 6 0.000000 0.000000 0.000000 -0.006759 0.000000 0.028057
#
#
# Mechanical properties :
#
#
# Convention : Reuss Voigt Hill
#
# Bulk Modulus (GPa) = 41.62182 42.92559 42.27370
# Shear Modulus (GPa) = 26.72683 30.40537 28.56610
#
# Velocity S-wave (km/s) = 3.52760 3.76254 3.64696
# Velocity P-wave (km/s) = 5.99758 6.23391 6.11689
#
# Compressibility (1/GPa) = 0.02402586
#
# Stress axis : x y z
#
# Youngs Moduli (GPa) = 74.31856 101.45812 72.05764
#
# Poissons Ratio (x) = 0.13990 0.27265
# Poissons Ratio (y) = 0.10248 0.10227
# Poissons Ratio (z) = 0.28120 0.14399
#
# Static dielectric constant tensor:
#      x y z
#    x 4.235360 0.000000 0.313720 
#    y 0.000000 4.120700 0.000000 
#    z 0.313720 0.000000 3.841630 
# 
# 
# High freq. dielectric constant tensor:
#      x y z
#    x 1.855020 0.000000 0.005960 
#    y 0.000000 1.859760 0.000000 
#    z 0.005960 0.000000 1.810710 
# 
# From -- ./inp_files/318632.got.cif
#   From: 2010.06.25/outbox.cif.g09.slc.cpg/sg15_160_cif.got.tgz:318632.got - 2010.06.28 07:06:18.
