data_PCOD8142252
_publ_section_title
;
Structure prediction by ZEFSAII (Michael W. Deem and Ramdas Pophale) SiO2 
 PCOD8142252
Probable space group: C 2/C
;
_chemical_formula_sum "Si O2"
_cell_formula_units_Z 44
_cell_length_a 14.125391
_cell_length_b 6.634666
_cell_length_c 21.647494
_cell_angle_alpha 90.000000
_cell_angle_beta 73.369182
_cell_angle_gamma 90.000000
_cell_volume 1943.878798
_symmetry_space_group_name_H-M "C 2/C"
_symmetry_group_IT_number 15
_symmetry_cell_setting 'monoclinic'
loop_
_space_group_symop_operation_xyz
x,y,z
-x,y,1/2-z
-x,-y,-z
x,-y,1/2+z
1/2+x,1/2+y,z
1/2-x,1/2+y,1/2-z
1/2-x,1/2-y,-z
1/2+x,1/2-y,1/2+z
loop_
_atom_site_type_symbol
_atom_site_label
_atom_site_fract_x
_atom_site_fract_y
_atom_site_fract_z
Si Si1 0.872713 0.751276 0.211978
Si Si2 0.329883 0.610952 0.302173
Si Si3 0.980395 0.301068 0.467292
Si Si4 0.377679 0.477545 0.086486
Si Si5 0.801235 0.295848 0.426298
Si Si6 0.000000 0.571239 0.750000
O O1 0.762053 0.663564 0.225313
O O2 0.906492 0.878751 0.146204
O O3 0.951927 0.572669 0.206326
O O4 0.875042 0.899533 0.271258
O O5 0.295319 0.601805 0.380756
O O6 0.411096 0.789224 0.290362
O O7 0.926298 0.144948 0.521742
O O8 0.913847 0.355474 0.419971
O O9 0.000000 0.500000 0.500000
O O10 0.082402 0.206080 0.422392
O O11 0.258883 0.476250 0.097430
O O12 0.750000 0.250000 0.500000
#
# Coordination Sequence:
#
# PCOD8142252 Si02
#       6
#     8   8   8   8   8   4
#     4  11  24  45  66  98 136 175 219 280 331 399
#     4  11  24  45  68  99 138 172 229 274 335 407
#     4  10  21  38  64  93 120 168 212 262 316 387
#     4   9  22  41  60  90 130 159 213 266 317 387
#     4   9  21  43  63  89 128 170 211 271 326 379
#     4  12  26  40  70  98 128 184 216 270 344 388
#
# _framework density 22.635158000000001
#
# number of rings (size 3 to 8) (size 9 to 14) (size 15 to 20)
#    0.000    1.818    1.818    0.545    7.636    0.727 
#    3.273    0.000    0.000    0.000    0.000    0.000 
#    0.000    0.000    0.000    0.000    0.000    0.000 
#
# Total GULP energy -272632.903322 kJ/mol
# GULP energy per Si atom -12392.404696 kJ/mol
# Density = 2.258364 g / cm^3
# Si number density = 22.635158 Si / 1000 Ang^3
#
#
#
# Elastic Constant Matrix: (Units=GPa)
#
#
# Indices 1 2 3 4 5 6 
#
# 1 146.7029 47.7029 14.9402 0.0000 20.8448 0.0002
# 2 47.7029 77.5164 -1.5896 0.0000 4.5909 0.0002
# 3 14.9402 -1.5896 73.8290 0.0000 14.1729 0.0000
# 4 0.0000 0.0000 0.0000 28.5330 0.0000 -5.0984
# 5 20.8448 4.5909 14.1729 0.0000 31.3756 0.0001
# 6 0.0002 0.0002 0.0000 -5.0984 0.0001 36.4995
#
#
#
# Elastic Compliance Matrix: (Units=1/GPa)
#
#
# Indices 1 2 3 4 5 6 
#
# 1 0.009431 -0.005531 -0.001073 0.000000 -0.004971 0.000000
# 2 -0.005531 0.016291 0.001338 0.000000 0.000686 0.000000
# 3 -0.001073 0.001338 0.014992 0.000000 -0.006255 0.000000
# 4 0.000000 0.000000 0.000000 0.035944 0.000000 0.005021
# 5 -0.004971 0.000686 -0.006255 0.000000 0.037900 0.000000
# 6 0.000000 0.000000 0.000000 0.005021 0.000000 0.028099
#
#
# Mechanical properties :
#
#
# Convention : Reuss Voigt Hill
#
# Bulk Modulus (GPa) = 33.13312 46.68391 39.90851
# Shear Modulus (GPa) = 30.62811 35.08128 32.85470
#
# Velocity S-wave (km/s) = 3.68247 3.94109 3.81398
# Velocity P-wave (km/s) = 5.72280 6.43264 6.08808
#
# Compressibility (1/GPa) = 0.03018129
#
# Stress axis : x y z
#
# Youngs Moduli (GPa) = 106.03665 61.38316 66.70438
#
# Poissons Ratio (x) = 0.33952 0.07158
# Poissons Ratio (y) = 0.58650 -0.08927
# Poissons Ratio (z) = 0.11379 -0.08215
#
# Static dielectric constant tensor:
#      x y z
#    x 4.881120 0.000000 0.231490 
#    y 0.000000 3.289680 0.000000 
#    z 0.231490 0.000000 4.166090 
# 
# 
# High freq. dielectric constant tensor:
#      x y z
#    x 1.912190 0.000000 0.008390 
#    y 0.000000 1.861120 0.000000 
#    z 0.008390 0.000000 1.899990 
# 
# From -- ./inp_files/271867.got.cif
#   From: 2010.06.25/outbox.cif.g09.slc.cpg/sg15_136_cif.got.tgz:271867.got - 2010.06.28 07:06:18.
