data_PCOD8142785
_publ_section_title
;
Structure prediction by ZEFSAII (Michael W. Deem and Ramdas Pophale) SiO2 
 PCOD8142785
Probable space group: C 2/C
;
_chemical_formula_sum "Si O2"
_cell_formula_units_Z 64
_cell_length_a 8.709477
_cell_length_b 28.016084
_cell_length_c 11.923401
_cell_angle_alpha 90.000000
_cell_angle_beta 86.518332
_cell_angle_gamma 90.000000
_cell_volume 2904.004807
_symmetry_space_group_name_H-M "C 2/C"
_symmetry_group_IT_number 15
_symmetry_cell_setting 'monoclinic'
loop_
_space_group_symop_operation_xyz
x,y,z
-x,y,1/2-z
-x,-y,-z
x,-y,1/2+z
1/2+x,1/2+y,z
1/2-x,1/2+y,1/2-z
1/2-x,1/2-y,-z
1/2+x,1/2-y,1/2+z
loop_
_atom_site_type_symbol
_atom_site_label
_atom_site_fract_x
_atom_site_fract_y
_atom_site_fract_z
Si Si1 0.689380 0.389771 0.592453
Si Si2 0.149767 0.126536 0.672304
Si Si3 0.084838 0.169591 0.440194
Si Si4 0.676341 0.187673 0.261255
Si Si5 0.928884 0.458519 0.639689
Si Si6 0.160286 0.642250 0.627444
Si Si7 0.399275 0.245386 0.861576
Si Si8 0.413109 0.933677 0.090987
O O1 0.509341 0.375197 0.614871
O O2 0.803510 0.357756 0.660628
O O3 0.749101 0.442876 0.624790
O O4 0.716204 0.382765 0.458649
O O5 0.118407 0.162053 0.569965
O O6 0.265638 0.151930 0.754091
O O7 0.233577 0.080034 0.615232
O O8 0.000000 0.110989 0.750000
O O9 0.238172 0.177940 0.361498
O O10 0.977497 0.216528 0.441468
O O11 0.500000 0.197969 0.250000
O O12 0.738505 0.233868 0.324030
O O13 0.939227 0.515387 0.646660
O O14 0.000000 0.437212 0.750000
O O15 0.041672 0.436684 0.540982
O O16 0.119843 0.694298 0.576447
O O17 0.014666 0.607266 0.645863
O O18 0.500000 0.235338 0.750000
#
# Coordination Sequence:
#
# PCOD8142785 Si02
#       8
#     8   8   8   8   8   8   8   8
#     4  10  21  39  65  92 129 174 203 274 329 388
#     4  12  24  42  64  94 135 176 218 261 328 398
#     4  10  23  43  63  91 136 172 212 274 329 389
#     4  10  22  40  63  94 128 167 224 277 324 380
#     4  10  21  41  72 104 126 163 228 270 326 386
#     4  11  22  42  67  92 128 179 222 262 332 386
#     4   9  20  42  62  91 130 174 219 270 331 389
#     4  10  24  43  69  97 133 172 213 279 322 389
#
# _framework density 22.038532
#
# number of rings (size 3 to 8) (size 9 to 14) (size 15 to 20)
#    0.000    1.750    1.250    3.375    5.250    2.500 
#    2.250    3.750    0.000    0.000    0.000    0.000 
#    0.000    0.000    0.000    0.000    0.000    0.000 
#
# Total GULP energy -396584.971826 kJ/mol
# GULP energy per Si atom -12393.280370 kJ/mol
# Density = 2.198837 g / cm^3
# Si number density = 22.038532 Si / 1000 Ang^3
#
#
#
# Elastic Constant Matrix: (Units=GPa)
#
#
# Indices 1 2 3 4 5 6 
#
# 1 144.9024 67.4902 49.7375 0.0000 -0.2420 0.0000
# 2 67.4902 102.9257 57.2392 0.0000 2.1777 0.0000
# 3 49.7375 57.2392 117.8722 0.0000 20.1082 0.0000
# 4 0.0000 0.0000 0.0000 36.4566 0.0000 -41.7772
# 5 -0.2420 2.1777 20.1082 0.0000 34.2825 0.0000
# 6 0.0000 0.0000 0.0000 -41.7772 0.0000 119.3121
#
#
#
# Elastic Compliance Matrix: (Units=1/GPa)
#
#
# Indices 1 2 3 4 5 6 
#
# 1 0.010174 -0.005720 -0.001766 0.000000 0.001471 0.000000
# 2 -0.005720 0.016865 -0.006208 0.000000 0.002529 0.000000
# 3 -0.001766 -0.006208 0.013532 0.000000 -0.007556 0.000000
# 4 0.000000 0.000000 0.000000 0.045812 0.000000 0.016041
# 5 0.001471 0.002529 -0.007556 0.000000 0.033451 0.000000
# 6 0.000000 0.000000 0.000000 0.016041 0.000000 0.013998
#
#
# Mechanical properties :
#
#
# Convention : Reuss Voigt Hill
#
# Bulk Modulus (GPa) = 75.85194 79.40377 77.62785
# Shear Modulus (GPa) = 30.19033 50.75914 40.47473
#
# Velocity S-wave (km/s) = 3.70522 4.80437 4.29014
# Velocity P-wave (km/s) = 7.26618 8.17825 7.73567
#
# Compressibility (1/GPa) = 0.01318358
#
# Stress axis : x y z
#
# Youngs Moduli (GPa) = 98.28762 59.29338 73.89640
#
# Poissons Ratio (x) = 0.33917 0.13053
# Poissons Ratio (y) = 0.56223 0.45872
# Poissons Ratio (z) = 0.17361 0.36807
#
# Static dielectric constant tensor:
#      x y z
#    x 4.017210 0.000000 -0.064830 
#    y 0.000000 3.935020 0.000000 
#    z -0.064830 0.000000 4.043080 
# 
# 
# High freq. dielectric constant tensor:
#      x y z
#    x 1.859940 0.000000 -0.005750 
#    y 0.000000 1.850330 0.000000 
#    z -0.005750 0.000000 1.882630 
# 
# From -- ./inp_files/82612.got.cif
#   From: 2010.06.25/outbox.cif.g09.slc.cpg/sg15_42_cif.got.tgz:82612.got - 2010.06.28 07:06:18.
