data_PCOD8142032
_publ_section_title
;
Structure prediction by ZEFSAII (Michael W. Deem and Ramdas Pophale) SiO2 
 PCOD8142032
Probable space group: C 2/C
;
_chemical_formula_sum "Si O2"
_cell_formula_units_Z 36
_cell_length_a 7.580026
_cell_length_b 29.747662
_cell_length_c 7.997109
_cell_angle_alpha 90.000000
_cell_angle_beta 122.041495
_cell_angle_gamma 90.000000
_cell_volume 1528.552417
_symmetry_space_group_name_H-M "C 2/C"
_symmetry_group_IT_number 15
_symmetry_cell_setting 'monoclinic'
loop_
_space_group_symop_operation_xyz
x,y,z
-x,y,1/2-z
-x,-y,-z
x,-y,1/2+z
1/2+x,1/2+y,z
1/2-x,1/2+y,1/2-z
1/2-x,1/2-y,-z
1/2+x,1/2-y,1/2+z
loop_
_atom_site_type_symbol
_atom_site_label
_atom_site_fract_x
_atom_site_fract_y
_atom_site_fract_z
Si Si1 0.500000 0.475143 0.750000
Si Si2 0.673596 0.197264 0.152436
Si Si3 0.856950 0.640097 0.840271
Si Si4 0.943692 0.205107 0.956058
Si Si5 0.231558 0.545130 0.812587
O O1 0.326369 0.505041 0.753234
O O2 0.376599 0.445136 0.550219
O O3 0.807478 0.200795 0.053307
O O4 0.821802 0.189035 0.386328
O O5 0.506783 0.156303 0.066953
O O6 0.549925 0.244135 0.108555
O O7 0.657368 0.672918 0.734350
O O8 0.776344 0.588921 0.811377
O O9 0.000000 0.644711 0.750000
O O10 0.000000 0.530767 0.750000
#
# Coordination Sequence:
#
# PCOD8142032 Si02
#       5
#     4   8   8   8   8
#     4  10  22  40  62  86 112 152 184 238 298 348
#     4   9  14  21  35  58  96 139 176 215 263 310
#     4   9  17  26  41  70 102 141 178 224 267 324
#     4   9  14  21  35  58  96 138 176 214 263 313
#     4  10  21  38  61  87 117 146 191 235 289 345
#
# _framework density 23.551696
#
# number of rings (size 3 to 8) (size 9 to 14) (size 15 to 20)
#    0.000    2.667    2.222    0.667    0.000    5.333 
#    0.000    0.000    0.000    0.000    0.000    1.556 
#    0.000    0.000    0.000    0.000    0.000    0.000 
#
# Total GULP energy -223091.184733 kJ/mol
# GULP energy per Si atom -12393.954707 kJ/mol
# Density = 2.349809 g / cm^3
# Si number density = 23.551696 Si / 1000 Ang^3
#
#
#
# Elastic Constant Matrix: (Units=GPa)
#
#
# Indices 1 2 3 4 5 6 
#
# 1 64.0642 21.9132 28.3754 0.0000 15.5431 0.0000
# 2 21.9132 113.0492 48.2161 0.0000 33.6288 0.0000
# 3 28.3754 48.2161 151.2469 0.0000 49.7776 0.0000
# 4 0.0000 0.0000 0.0000 -29.8007 0.0000 58.9115
# 5 15.5431 33.6288 49.7776 0.0000 34.1912 0.0000
# 6 0.0000 0.0000 0.0000 58.9115 0.0000 -15.7751
#
#
#
# Elastic Compliance Matrix: (Units=1/GPa)
#
#
# Indices 1 2 3 4 5 6 
#
# 1 0.017850 -0.001491 -0.001316 0.000000 -0.004732 0.000000
# 2 -0.001491 0.012630 0.000228 0.000000 -0.012076 0.000000
# 3 -0.001316 0.000228 0.012792 0.000000 -0.018249 0.000000
# 4 0.000000 0.000000 0.000000 0.005258 0.000000 0.019634
# 5 -0.004732 -0.012076 -0.018249 0.000000 0.069844 0.000000
# 6 0.000000 0.000000 0.000000 0.019634 0.000000 0.009932
#
#
# Mechanical properties :
#
#
# Convention : Reuss Voigt Hill
#
# Bulk Modulus (GPa) = 26.23759 58.37442 42.30600
# Shear Modulus (GPa) = 34.20686 13.04678 23.62682
#
# Velocity S-wave (km/s) = 3.81519 2.35620 3.17075
# Velocity P-wave (km/s) = 5.52921 5.67818 5.60419
#
# Compressibility (1/GPa) = 0.03811325
#
# Stress axis : x y z
#
# Youngs Moduli (GPa) = 56.02121 79.17794 78.17310
#
# Poissons Ratio (x) = 0.11806 0.10290
# Poissons Ratio (y) = 0.08353 -0.01781
# Poissons Ratio (z) = 0.07374 -0.01804
#
# Static dielectric constant tensor:
#      x y z
#    x 4.048910 0.000000 0.376830 
#    y 0.000000 4.147860 0.000000 
#    z 0.376830 0.000000 4.680940 
# 
# 
# High freq. dielectric constant tensor:
#      x y z
#    x 1.935940 0.000000 0.020660 
#    y 0.000000 1.899810 0.000000 
#    z 0.020660 0.000000 1.940470 
# 
# From -- ./inp_files/25894.got.cif
#   From: 2010.06.25/outbox.cif.g09.slc.cpg/sg15_13_cif.got.tgz:25894.got - 2010.06.28 07:06:18.
