data_PCOD8142234
_publ_section_title
;
Structure prediction by ZEFSAII (Michael W. Deem and Ramdas Pophale) SiO2 
 PCOD8142234
Probable space group: C 2/C
;
_chemical_formula_sum "Si O2"
_cell_formula_units_Z 64
_cell_length_a 17.502051
_cell_length_b 14.861354
_cell_length_c 18.791877
_cell_angle_alpha 90.000000
_cell_angle_beta 40.261510
_cell_angle_gamma 90.000000
_cell_volume 3158.903659
_symmetry_space_group_name_H-M "C 2/C"
_symmetry_group_IT_number 15
_symmetry_cell_setting 'monoclinic'
loop_
_space_group_symop_operation_xyz
x,y,z
-x,y,1/2-z
-x,-y,-z
x,-y,1/2+z
1/2+x,1/2+y,z
1/2-x,1/2+y,1/2-z
1/2-x,1/2-y,-z
1/2+x,1/2-y,1/2+z
loop_
_atom_site_type_symbol
_atom_site_label
_atom_site_fract_x
_atom_site_fract_y
_atom_site_fract_z
Si Si1 0.726420 0.140467 0.310027
Si Si2 0.861612 0.940273 0.065162
Si Si3 0.628934 0.298405 0.666812
Si Si4 0.677722 0.953425 0.309468
Si Si5 0.959257 0.327467 0.983441
Si Si6 0.515034 0.036262 0.156204
Si Si7 0.907060 0.862644 0.561947
Si Si8 0.807304 0.614079 0.936533
O O1 0.819663 0.197000 0.290394
O O2 0.597212 0.184255 0.404637
O O3 0.784481 0.145394 0.191062
O O4 0.710498 0.034417 0.340977
O O5 0.799390 0.919496 0.186318
O O6 0.764236 0.928467 0.075667
O O7 0.906145 0.042786 0.020640
O O8 0.971804 0.871008 0.976823
O O9 0.500000 0.342841 0.750000
O O10 0.719873 0.356550 0.559099
O O11 0.616968 0.196868 0.647524
O O12 0.608758 0.877005 0.402727
O O13 0.601193 0.996857 0.299255
O O14 0.939892 0.378500 0.922240
O O15 0.911216 0.225764 0.009105
O O16 0.500000 0.065039 0.250000
O O17 0.608690 0.956871 0.085909
#
# Coordination Sequence:
#
# PCOD8142234 Si02
#       8
#     8   8   8   8   8   8   8   8
#     4  10  21  40  59  86 124 154 201 256 299 358
#     4  10  21  40  60  84 122 162 195 251 308 364
#     4  11  23  34  56  91 123 158 197 245 306 369
#     4  10  21  38  64  89 119 162 204 249 304 359
#     4  11  23  38  65  92 118 157 211 258 292 357
#     4  11  21  38  61  89 124 158 201 250 311 360
#     4  10  23  38  61  88 113 158 211 249 299 354
#     4  11  22  37  57  85 124 161 195 237 314 374
#
# _framework density 20.260193000000001
#
# number of rings (size 3 to 8) (size 9 to 14) (size 15 to 20)
#    0.000    1.500    1.250    4.875    3.500    2.000 
#    0.000    0.625    0.000    0.000    0.000    0.000 
#    0.000    0.000    0.000    0.000    0.000    0.000 
#
# Total GULP energy -396564.777018 kJ/mol
# GULP energy per Si atom -12392.649282 kJ/mol
# Density = 2.021408 g / cm^3
# Si number density = 20.260193 Si / 1000 Ang^3
#
#
#
# Elastic Constant Matrix: (Units=GPa)
#
#
# Indices 1 2 3 4 5 6 
#
# 1 72.2482 19.0429 -6.0507 0.0000 -2.3478 0.0000
# 2 19.0429 98.9546 29.9622 0.0000 2.1832 0.0000
# 3 -6.0507 29.9622 135.4315 0.0000 -7.1635 0.0000
# 4 0.0000 0.0000 0.0000 43.4375 0.0000 3.6940
# 5 -2.3478 2.1832 -7.1635 0.0000 34.0592 0.0000
# 6 0.0000 0.0000 0.0000 3.6940 0.0000 25.1843
#
#
#
# Elastic Compliance Matrix: (Units=1/GPa)
#
#
# Indices 1 2 3 4 5 6 
#
# 1 0.014900 -0.003353 0.001490 0.000000 0.001555 0.000000
# 2 -0.003353 0.011635 -0.002807 0.000000 -0.001567 0.000000
# 3 0.001490 -0.002807 0.008177 0.000000 0.002002 0.000000
# 4 0.000000 0.000000 0.000000 0.023312 0.000000 -0.003419
# 5 0.001555 -0.001567 0.002002 0.000000 0.029989 0.000000
# 6 0.000000 0.000000 0.000000 -0.003419 0.000000 0.040209
#
#
# Mechanical properties :
#
#
# Convention : Reuss Voigt Hill
#
# Bulk Modulus (GPa) = 39.41204 43.61589 41.51397
# Shear Modulus (GPa) = 34.24168 38.11487 36.17827
#
# Velocity S-wave (km/s) = 4.11554 4.34206 4.23032
# Velocity P-wave (km/s) = 6.48681 6.83467 6.66301
#
# Compressibility (1/GPa) = 0.02537296
#
# Stress axis : x y z
#
# Youngs Moduli (GPa) = 67.11325 85.94530 122.29051
#
# Poissons Ratio (x) = 0.28816 -0.18218
# Poissons Ratio (y) = 0.22502 0.34325
# Poissons Ratio (z) = -0.09998 0.24123
#
# Static dielectric constant tensor:
#      x y z
#    x 3.205330 0.000000 -0.460110 
#    y 0.000000 3.794850 0.000000 
#    z -0.460110 0.000000 3.710030 
# 
# 
# High freq. dielectric constant tensor:
#      x y z
#    x 1.770340 0.000000 -0.019030 
#    y 0.000000 1.789860 0.000000 
#    z -0.019030 0.000000 1.806830 
# 
# From -- ./inp_files/211384.got.cif
#   From: 2010.06.25/outbox.cif.g09.slc.cpg/sg15_106_cif.got.tgz:211384.got - 2010.06.28 07:06:18.
