data_PCOD8142070
_publ_section_title
;
Structure prediction by ZEFSAII (Michael W. Deem and Ramdas Pophale) SiO2 
 PCOD8142070
Probable space group: C 2/C
;
_chemical_formula_sum "Si O2"
_cell_formula_units_Z 48
_cell_length_a 19.312377
_cell_length_b 21.893560
_cell_length_c 5.237592
_cell_angle_alpha 90.000000
_cell_angle_beta 113.322113
_cell_angle_gamma 90.000000
_cell_volume 2033.599209
_symmetry_space_group_name_H-M "C 2/C"
_symmetry_group_IT_number 15
_symmetry_cell_setting 'monoclinic'
loop_
_space_group_symop_operation_xyz
x,y,z
-x,y,1/2-z
-x,-y,-z
x,-y,1/2+z
1/2+x,1/2+y,z
1/2-x,1/2+y,1/2-z
1/2-x,1/2-y,-z
1/2+x,1/2-y,1/2+z
loop_
_atom_site_type_symbol
_atom_site_label
_atom_site_fract_x
_atom_site_fract_y
_atom_site_fract_z
Si Si1 0.708172 0.701934 0.691619
Si Si2 0.000000 0.746948 0.250000
Si Si3 0.168188 0.666006 0.968956
Si Si4 0.872064 0.164242 0.431126
Si Si5 0.600929 0.469223 0.538400
Si Si6 0.500000 0.179084 0.750000
Si Si7 0.779042 0.467085 0.825387
O O1 0.796332 0.687136 0.754772
O O2 0.688495 0.774513 0.677546
O O3 0.688699 0.669936 0.929851
O O4 0.664779 0.668107 0.399819
O O5 0.068323 0.782980 0.467583
O O6 0.969605 0.711778 0.451791
O O7 0.206237 0.605449 0.140707
O O8 0.079739 0.647090 0.792581
O O9 0.918307 0.101736 0.517764
O O10 0.564530 0.502719 0.240760
O O11 0.690365 0.478176 0.685582
O O12 0.814571 0.497294 0.621443
#
# Coordination Sequence:
#
# PCOD8142070 Si02
#       7
#     8   4   8   8   8   4   8
#     4  11  25  38  71  98 130 160 221 274 320 378
#     4  12  24  44  62  96 134 174 204 260 340 388
#     4  11  24  45  65 102 131 168 216 269 325 385
#     4  12  22  43  64  99 129 169 216 265 323 388
#     4  10  21  38  61  92 127 170 214 263 313 370
#     4  12  26  44  64  94 136 172 204 262 342 394
#     4  10  23  39  64  92 126 169 215 267 313 375
#
# _framework density 23.603470999999999
#
# number of rings (size 3 to 8) (size 9 to 14) (size 15 to 20)
#    0.000    1.000    5.000    1.000    4.667    6.667 
#    0.000    1.667    0.000    0.000    0.000    0.000 
#    0.000    0.000    0.000    0.000    0.000    0.000 
#
# Total GULP energy -297363.418478 kJ/mol
# GULP energy per Si atom -12390.142437 kJ/mol
# Density = 2.354975 g / cm^3
# Si number density = 23.603471 Si / 1000 Ang^3
#
#
#
# Elastic Constant Matrix: (Units=GPa)
#
#
# Indices 1 2 3 4 5 6 
#
# 1 69.4083 -15.1990 22.7458 0.0000 2.1597 0.0000
# 2 -15.1990 112.3705 40.6824 0.0000 -20.8731 0.0000
# 3 22.7458 40.6824 133.0187 0.0000 -24.5225 0.0000
# 4 0.0000 0.0000 0.0000 25.0104 0.0000 -20.3240
# 5 2.1597 -20.8731 -24.5225 0.0000 29.7993 0.0000
# 6 0.0000 0.0000 0.0000 -20.3240 0.0000 -11.4196
#
#
#
# Elastic Compliance Matrix: (Units=1/GPa)
#
#
# Indices 1 2 3 4 5 6 
#
# 1 0.016634 0.003367 -0.004316 0.000000 -0.002399 0.000000
# 2 0.003367 0.011451 -0.003117 0.000000 0.005212 0.000000
# 3 -0.004316 -0.003117 0.010450 0.000000 0.006729 0.000000
# 4 0.000000 0.000000 0.000000 0.016345 0.000000 -0.029089
# 5 -0.002399 0.005212 0.006729 0.000000 0.042920 0.000000
# 6 0.000000 0.000000 0.000000 -0.029089 0.000000 -0.035797
#
#
# Mechanical properties :
#
#
# Convention : Reuss Voigt Hill
#
# Bulk Modulus (GPa) = 32.89307 45.69509 39.29408
# Shear Modulus (GPa) = 62.29045 26.44924 44.36984
#
# Velocity S-wave (km/s) = 5.14273 3.35112 4.34037
# Velocity P-wave (km/s) = 7.01637 5.86300 6.46546
#
# Compressibility (1/GPa) = 0.03040154
#
# Stress axis : x y z
#
# Youngs Moduli (GPa) = 60.11802 87.32729 95.69723
#
# Poissons Ratio (x) = -0.29402 0.41307
# Poissons Ratio (y) = -0.20241 0.29830
# Poissons Ratio (z) = 0.25949 0.27221
#
# Static dielectric constant tensor:
#      x y z
#    x 4.526900 0.000000 -0.220700 
#    y 0.000000 4.232410 0.000000 
#    z -0.220700 0.000000 4.247720 
# 
# 
# High freq. dielectric constant tensor:
#      x y z
#    x 1.931280 0.000000 -0.008760 
#    y 0.000000 1.915690 0.000000 
#    z -0.008760 0.000000 1.948260 
# 
# From -- ./inp_files/13590.got.cif
#   From: 2010.06.25/outbox.cif.g09.slc.cpg/sg15_7_cif.got.tgz:13590.got - 2010.06.28 07:06:18.
