data_PCOD8142810
_publ_section_title
;
Structure prediction by ZEFSAII (Michael W. Deem and Ramdas Pophale) SiO2 
 PCOD8142810
Probable space group: C 2/C
;
_chemical_formula_sum "Si O2"
_cell_formula_units_Z 52
_cell_length_a 24.415386
_cell_length_b 10.614735
_cell_length_c 9.855507
_cell_angle_alpha 90.000000
_cell_angle_beta 119.994177
_cell_angle_gamma 90.000000
_cell_volume 2212.115676
_symmetry_space_group_name_H-M "C 2/C"
_symmetry_group_IT_number 15
_symmetry_cell_setting 'monoclinic'
loop_
_space_group_symop_operation_xyz
x,y,z
-x,y,1/2-z
-x,-y,-z
x,-y,1/2+z
1/2+x,1/2+y,z
1/2-x,1/2+y,1/2-z
1/2-x,1/2-y,-z
1/2+x,1/2-y,1/2+z
loop_
_atom_site_type_symbol
_atom_site_label
_atom_site_fract_x
_atom_site_fract_y
_atom_site_fract_z
Si Si1 0.797580 0.427176 0.488527
Si Si2 0.500000 0.949401 0.750000
Si Si3 0.897100 0.266256 0.741391
Si Si4 0.545170 0.504497 0.183598
Si Si5 0.599590 0.109526 0.978580
Si Si6 0.646066 0.290841 0.838515
Si Si7 0.247693 0.621338 0.844451
O O1 0.831184 0.298048 0.582069
O O2 0.844383 0.508070 0.451777
O O3 0.772686 0.501412 0.589080
O O4 0.743476 0.400889 0.307362
O O5 0.448189 0.866974 0.758865
O O6 0.533025 0.036962 0.905139
O O7 0.921285 0.127080 0.738008
O O8 0.889925 0.287465 0.892231
O O9 0.500000 0.548977 0.250000
O O10 0.601730 0.601649 0.220300
O O11 0.500000 0.500000 0.000000
O O12 0.600404 0.180135 0.834071
O O13 0.696461 0.235685 0.793101
O O14 0.683994 0.338370 0.017993
#
# Coordination Sequence:
#
# PCOD8142810 Si02
#       7
#     8   4   8   8   8   8   8
#     4  10  21  41  71 102 129 164 226 289 345 384
#     4  10  22  36  68  94 132 172 220 280 334 382
#     4  11  22  41  63 102 133 169 231 270 338 405
#     4  12  28  45  65  96 143 184 221 271 338 420
#     4  10  21  39  65  97 128 171 221 280 333 400
#     4  10  25  45  67  97 137 185 227 270 348 407
#     4  10  22  46  73  97 134 175 228 293 338 402
#
# _framework density 23.506907000000002
#
# number of rings (size 3 to 8) (size 9 to 14) (size 15 to 20)
#    0.000    1.538    2.308    1.385    5.385    2.462 
#    5.538    1.538    0.000    0.000    0.000    0.000 
#    0.000    0.000    0.000    0.000    0.000    0.000 
#
# Total GULP energy -322297.105557 kJ/mol
# GULP energy per Si atom -12396.042521 kJ/mol
# Density = 2.345340 g / cm^3
# Si number density = 23.506907 Si / 1000 Ang^3
#
#
#
# Elastic Constant Matrix: (Units=GPa)
#
#
# Indices 1 2 3 4 5 6 
#
# 1 36.4209 10.1080 10.3330 0.0000 2.9072 0.0000
# 2 10.1080 90.6279 32.0961 0.0000 18.7039 0.0000
# 3 10.3330 32.0961 120.7171 0.0000 -1.8375 0.0000
# 4 0.0000 0.0000 0.0000 -15.8514 0.0000 15.7520
# 5 2.9072 18.7039 -1.8375 0.0000 28.3835 0.0000
# 6 0.0000 0.0000 0.0000 15.7520 0.0000 18.0179
#
#
#
# Elastic Compliance Matrix: (Units=1/GPa)
#
#
# Indices 1 2 3 4 5 6 
#
# 1 0.028735 -0.002198 -0.001900 0.000000 -0.001618 0.000000
# 2 -0.002198 0.014639 -0.003851 0.000000 -0.009671 0.000000
# 3 -0.001900 -0.003851 0.009521 0.000000 0.003349 0.000000
# 4 0.000000 0.000000 0.000000 -0.033758 0.000000 0.029513
# 5 -0.001618 -0.009671 0.003349 0.000000 0.041987 0.000000
# 6 0.000000 0.000000 0.000000 0.029513 0.000000 0.029699
#
#
# Mechanical properties :
#
#
# Convention : Reuss Voigt Hill
#
# Bulk Modulus (GPa) = 27.02933 39.20447 33.11690
# Shear Modulus (GPa) = 41.99764 19.12526 30.56145
#
# Velocity S-wave (km/s) = 4.23141 2.85546 3.60961
# Velocity P-wave (km/s) = 5.94950 5.25220 5.61169
#
# Compressibility (1/GPa) = 0.03699685
#
# Stress axis : x y z
#
# Youngs Moduli (GPa) = 34.80084 68.30988 105.02660
#
# Poissons Ratio (x) = 0.15016 0.19953
# Poissons Ratio (y) = 0.07650 0.40449
# Poissons Ratio (z) = 0.06611 0.26308
#
# Static dielectric constant tensor:
#      x y z
#    x 4.243180 0.000000 0.283120 
#    y 0.000000 4.331300 0.000000 
#    z 0.283120 0.000000 3.972060 
# 
# 
# High freq. dielectric constant tensor:
#      x y z
#    x 1.927050 0.000000 0.006690 
#    y 0.000000 1.931260 0.000000 
#    z 0.006690 0.000000 1.928310 
# 
# From -- ./inp_files/65617.got.cif
#   From: 2010.06.25/outbox.cif.g09.slc.cpg/sg15_33_cif.got.tgz:65617.got - 2010.06.28 07:06:18.
