data_PCOD8142030
_publ_section_title
;
Structure prediction by ZEFSAII (Michael W. Deem and Ramdas Pophale) SiO2 
 PCOD8142030
Probable space group: C 2/C
;
_chemical_formula_sum "Si O2"
_cell_formula_units_Z 44
_cell_length_a 7.692517
_cell_length_b 19.718054
_cell_length_c 13.573562
_cell_angle_alpha 90.000000
_cell_angle_beta 115.449981
_cell_angle_gamma 90.000000
_cell_volume 1859.067814
_symmetry_space_group_name_H-M "C 2/C"
_symmetry_group_IT_number 15
_symmetry_cell_setting 'monoclinic'
loop_
_space_group_symop_operation_xyz
x,y,z
-x,y,1/2-z
-x,-y,-z
x,-y,1/2+z
1/2+x,1/2+y,z
1/2-x,1/2+y,1/2-z
1/2-x,1/2-y,-z
1/2+x,1/2-y,1/2+z
loop_
_atom_site_type_symbol
_atom_site_label
_atom_site_fract_x
_atom_site_fract_y
_atom_site_fract_z
Si Si1 0.786525 0.578230 0.799660
Si Si2 0.009398 0.217721 0.040214
Si Si3 0.183303 0.646530 0.507684
Si Si4 0.693587 0.070377 0.114159
Si Si5 0.775655 0.387464 0.087129
Si Si6 0.500000 0.326104 0.750000
O O1 0.780410 0.499390 0.822794
O O2 0.683276 0.586570 0.668037
O O3 0.996667 0.611699 0.845817
O O4 0.691262 0.621158 0.866253
O O5 0.169230 0.162936 0.043208
O O6 0.021106 0.222536 0.160842
O O7 0.047751 0.289330 0.999678
O O8 0.800321 0.189159 0.954404
O O9 0.034883 0.587372 0.439632
O O10 0.810773 0.127232 0.200969
O O11 0.774950 0.066031 0.020975
#
# Coordination Sequence:
#
# PCOD8142030 Si02
#       6
#     8   8   8   8   8   4
#     4  10  21  38  61  87 116 159 195 238 299 350
#     4  10  23  40  59  90 118 156 197 242 300 349
#     4  10  22  40  61  85 122 152 196 251 292 351
#     4  10  22  40  59  88 120 156 199 246 295 350
#     4   9  20  38  59  85 119 153 197 239 288 355
#     4  10  24  40  62  88 120 160 200 242 298 358
#
# _framework density 23.667774000000001
#
# number of rings (size 3 to 8) (size 9 to 14) (size 15 to 20)
#    0.000    2.182    0.000    2.182    0.000   18.182 
#    0.000   10.000    0.000    0.000    0.000    0.000 
#    0.000    0.000    0.000    0.000    0.000    0.000 
#
# Total GULP energy -272658.702551 kJ/mol
# GULP energy per Si atom -12393.577389 kJ/mol
# Density = 2.361390 g / cm^3
# Si number density = 23.667774 Si / 1000 Ang^3
#
#
#
# Elastic Constant Matrix: (Units=GPa)
#
#
# Indices 1 2 3 4 5 6 
#
# 1 58.3610 -9.8451 7.5156 0.0000 -11.0031 0.0000
# 2 -9.8451 64.1983 18.4662 0.0000 -15.2878 0.0000
# 3 7.5156 18.4662 123.5994 0.0000 -22.9904 0.0000
# 4 0.0000 0.0000 0.0000 25.4623 0.0000 -8.5447
# 5 -11.0031 -15.2878 -22.9904 0.0000 26.8939 0.0000
# 6 0.0000 0.0000 0.0000 -8.5447 0.0000 6.0955
#
#
#
# Elastic Compliance Matrix: (Units=1/GPa)
#
#
# Indices 1 2 3 4 5 6 
#
# 1 0.020330 0.005890 0.000064 0.000000 0.011721 0.000000
# 2 0.005890 0.019814 -0.000922 0.000000 0.012885 0.000000
# 3 0.000064 -0.000922 0.009669 0.000000 0.007768 0.000000
# 4 0.000000 0.000000 0.000000 0.074160 0.000000 0.103958
# 5 0.011721 0.012885 0.007768 0.000000 0.055944 0.000000
# 6 0.000000 0.000000 0.000000 0.103958 0.000000 0.309785
#
#
# Mechanical properties :
#
#
# Convention : Reuss Voigt Hill
#
# Bulk Modulus (GPa) = 16.70061 30.93690 23.81876
# Shear Modulus (GPa) = 10.00808 27.02514 18.51661
#
# Velocity S-wave (km/s) = 2.05858 3.38280 2.80010
# Velocity P-wave (km/s) = 3.56678 5.32517 4.53207
#
# Compressibility (1/GPa) = 0.05987804
#
# Stress axis : x y z
#
# Youngs Moduli (GPa) = 49.18863 50.47051 103.41894
#
# Poissons Ratio (x) = -0.29729 -0.00661
# Poissons Ratio (y) = -0.28974 0.09532
# Poissons Ratio (z) = -0.00314 0.04652
#
# Static dielectric constant tensor:
#      x y z
#    x 4.392420 0.000000 -0.447280 
#    y 0.000000 3.969880 0.000000 
#    z -0.447280 0.000000 5.076480 
# 
# 
# High freq. dielectric constant tensor:
#      x y z
#    x 1.931670 0.000000 -0.012450 
#    y 0.000000 1.929470 0.000000 
#    z -0.012450 0.000000 1.946390 
# 
# From -- ./inp_files/134573.got.cif
#   From: 2010.06.25/outbox.cif.g09.slc.cpg/sg15_68_cif.got.tgz:134573.got - 2010.06.28 07:06:18.
