data_PCOD8142391
_publ_section_title
;
Structure prediction by ZEFSAII (Michael W. Deem and Ramdas Pophale) SiO2 
 PCOD8142391
Probable space group: C 2/C
;
_chemical_formula_sum "Si O2"
_cell_formula_units_Z 48
_cell_length_a 12.258940
_cell_length_b 7.414882
_cell_length_c 24.188651
_cell_angle_alpha 90.000000
_cell_angle_beta 70.763356
_cell_angle_gamma 90.000000
_cell_volume 2075.951003
_symmetry_space_group_name_H-M "C 2/C"
_symmetry_group_IT_number 15
_symmetry_cell_setting 'monoclinic'
loop_
_space_group_symop_operation_xyz
x,y,z
-x,y,1/2-z
-x,-y,-z
x,-y,1/2+z
1/2+x,1/2+y,z
1/2-x,1/2+y,1/2-z
1/2-x,1/2-y,-z
1/2+x,1/2-y,1/2+z
loop_
_atom_site_type_symbol
_atom_site_label
_atom_site_fract_x
_atom_site_fract_y
_atom_site_fract_z
Si Si1 0.817622 0.098741 0.396583
Si Si2 0.647698 0.720244 0.307854
Si Si3 0.005479 0.338772 0.075313
Si Si4 0.274171 0.356667 0.181197
Si Si5 0.849050 0.617109 0.504779
Si Si6 0.499615 0.601675 0.810384
O O1 0.912584 0.171143 0.423642
O O2 0.786333 0.254913 0.358435
O O3 0.705393 0.042963 0.449252
O O4 0.870684 0.919883 0.357376
O O5 0.592167 0.862622 0.360660
O O6 0.729371 0.574581 0.327371
O O7 0.715545 0.830436 0.250650
O O8 0.546234 0.604983 0.295181
O O9 0.081938 0.521565 0.057061
O O10 0.942864 0.284383 0.028086
O O11 0.409578 0.293340 0.164754
O O12 0.750000 0.750000 0.500000
O O13 0.500000 0.695396 0.750000
#
# Coordination Sequence:
#
# PCOD8142391 Si02
#       6
#     8   8   8   8   8   8
#     4  11  22  44  70  92 137 173 215 280 333 396
#     4   9  21  39  65  97 137 170 218 268 336 406
#     4  10  25  45  64 100 130 172 226 278 326 409
#     4  10  21  38  69  99 132 181 209 272 340 404
#     4  11  27  46  68  95 132 173 233 284 331 392
#     4   9  19  36  61  95 129 170 217 255 322 399
#
# _framework density 23.121932000000001
#
# number of rings (size 3 to 8) (size 9 to 14) (size 15 to 20)
#    1.000    1.000    1.667    0.500    7.000    3.333 
#    0.000    1.667    0.000    0.000    0.000    0.000 
#    0.000    0.000    0.000    0.000    0.000    0.000 
#
# Total GULP energy -297361.464270 kJ/mol
# GULP energy per Si atom -12390.061011 kJ/mol
# Density = 2.306931 g / cm^3
# Si number density = 23.121932 Si / 1000 Ang^3
#
#
#
# Elastic Constant Matrix: (Units=GPa)
#
#
# Indices 1 2 3 4 5 6 
#
# 1 109.2766 32.9533 40.1039 0.0000 5.5987 0.0000
# 2 32.9533 61.7598 47.2549 0.0000 -4.8180 0.0000
# 3 40.1039 47.2549 114.8021 0.0000 -14.4066 0.0000
# 4 0.0000 0.0000 0.0000 18.8959 0.0000 -7.1648
# 5 5.5987 -4.8180 -14.4066 0.0000 40.1069 0.0000
# 6 0.0000 0.0000 0.0000 -7.1648 0.0000 36.5537
#
#
#
# Elastic Compliance Matrix: (Units=1/GPa)
#
#
# Indices 1 2 3 4 5 6 
#
# 1 0.011607 -0.004430 -0.002619 0.000000 -0.003093 0.000000
# 2 -0.004430 0.025345 -0.008823 0.000000 0.000494 0.000000
# 3 -0.002619 -0.008823 0.013792 0.000000 0.004260 0.000000
# 4 0.000000 0.000000 0.000000 0.057171 0.000000 0.011206
# 5 -0.003093 0.000494 0.004260 0.000000 0.026955 0.000000
# 6 0.000000 0.000000 0.000000 0.011206 0.000000 0.029553
#
#
# Mechanical properties :
#
#
# Convention : Reuss Voigt Hill
#
# Bulk Modulus (GPa) = 52.63485 58.49584 55.56535
# Shear Modulus (GPa) = 24.69138 30.14639 27.41888
#
# Velocity S-wave (km/s) = 3.27138 3.61473 3.44734
# Velocity P-wave (km/s) = 6.08956 6.54030 6.31895
#
# Compressibility (1/GPa) = 0.01899882
#
# Stress axis : x y z
#
# Youngs Moduli (GPa) = 86.15641 39.45565 72.50665
#
# Poissons Ratio (x) = 0.17480 0.18991
# Poissons Ratio (y) = 0.38170 0.63972
# Poissons Ratio (z) = 0.22566 0.34811
#
# Static dielectric constant tensor:
#      x y z
#    x 4.252130 0.000000 -0.224340 
#    y 0.000000 3.612860 0.000000 
#    z -0.224340 0.000000 4.155680 
# 
# 
# High freq. dielectric constant tensor:
#      x y z
#    x 1.925660 0.000000 -0.010670 
#    y 0.000000 1.872940 0.000000 
#    z -0.010670 0.000000 1.912320 
# 
# From -- ./inp_files/268038.got.cif
#   From: 2010.06.25/outbox.cif.g09.slc.cpg/sg15_135_cif.got.tgz:268038.got - 2010.06.28 07:06:18.
