data_PCOD8142798
_publ_section_title
;
Structure prediction by ZEFSAII (Michael W. Deem and Ramdas Pophale) SiO2 
 PCOD8142798
Probable space group: C 2/C
;
_chemical_formula_sum "Si O2"
_cell_formula_units_Z 48
_cell_length_a 5.137102
_cell_length_b 17.397962
_cell_length_c 25.642666
_cell_angle_alpha 90.000000
_cell_angle_beta 71.446263
_cell_angle_gamma 90.000000
_cell_volume 2172.700312
_symmetry_space_group_name_H-M "C 2/C"
_symmetry_group_IT_number 15
_symmetry_cell_setting 'monoclinic'
loop_
_space_group_symop_operation_xyz
x,y,z
-x,y,1/2-z
-x,-y,-z
x,-y,1/2+z
1/2+x,1/2+y,z
1/2-x,1/2+y,1/2-z
1/2-x,1/2-y,-z
1/2+x,1/2-y,1/2+z
loop_
_atom_site_type_symbol
_atom_site_label
_atom_site_fract_x
_atom_site_fract_y
_atom_site_fract_z
Si Si1 0.209134 0.800292 0.594037
Si Si2 0.119280 0.087395 0.189456
Si Si3 0.736697 0.281836 0.059330
Si Si4 0.269948 0.063144 0.018856
Si Si5 0.937369 0.070656 0.577541
Si Si6 0.372167 0.987426 0.311858
O O1 0.089636 0.843378 0.651255
O O2 0.443602 0.744884 0.600834
O O3 0.354527 0.862609 0.546616
O O4 0.979660 0.751342 0.578815
O O5 0.426320 0.052894 0.177306
O O6 0.000000 0.122889 0.250000
O O7 0.926638 0.018607 0.183485
O O8 0.709922 0.375031 0.067078
O O9 0.750000 0.250000 0.000000
O O10 0.197835 0.099051 0.967581
O O11 0.017868 0.019401 0.063983
O O12 0.500000 0.000000 0.000000
O O13 0.707458 0.075333 0.638533
O O14 0.500000 0.951530 0.250000
#
# Coordination Sequence:
#
# PCOD8142798 Si02
#       6
#     8   8   8   8   8   8
#     4  12  24  42  64  93 128 169 217 256 327 393
#     4  10  21  40  67  95 124 160 219 274 323 377
#     4  12  26  42  60  92 138 175 206 260 335 396
#     4  11  23  37  66  93 128 166 221 271 312 387
#     4  11  24  39  61  97 128 170 216 268 325 387
#     4  10  21  39  65  95 125 162 213 278 328 381
#
# _framework density 22.092323
#
# number of rings (size 3 to 8) (size 9 to 14) (size 15 to 20)
#    0.000    1.000    3.333    3.500    4.667    0.000 
#    0.000    0.833    0.000    0.000    0.000    0.000 
#    0.000    0.000    0.000    0.000    0.000    0.000 
#
# Total GULP energy -297462.706390 kJ/mol
# GULP energy per Si atom -12394.279433 kJ/mol
# Density = 2.204204 g / cm^3
# Si number density = 22.092323 Si / 1000 Ang^3
#
#
#
# Elastic Constant Matrix: (Units=GPa)
#
#
# Indices 1 2 3 4 5 6 
#
# 1 96.4098 28.2383 11.2400 0.0000 -4.9167 0.0000
# 2 28.2383 89.9322 38.9162 0.0000 5.1291 0.0000
# 3 11.2400 38.9162 137.4605 0.0000 -0.2775 0.0000
# 4 0.0000 0.0000 0.0000 15.2677 0.0000 1.1907
# 5 -4.9167 5.1291 -0.2775 0.0000 23.7372 0.0000
# 6 0.0000 0.0000 0.0000 1.1907 0.0000 37.6118
#
#
#
# Elastic Compliance Matrix: (Units=1/GPa)
#
#
# Indices 1 2 3 4 5 6 
#
# 1 0.011668 -0.003920 0.000162 0.000000 0.003266 0.000000
# 2 -0.003920 0.014175 -0.003700 0.000000 -0.003918 0.000000
# 3 0.000162 -0.003700 0.008311 0.000000 0.000930 0.000000
# 4 0.000000 0.000000 0.000000 0.065660 0.000000 -0.002079
# 5 0.003266 -0.003918 0.000930 0.000000 0.043662 0.000000
# 6 0.000000 0.000000 0.000000 -0.002079 0.000000 0.026653
#
#
# Mechanical properties :
#
#
# Convention : Reuss Voigt Hill
#
# Bulk Modulus (GPa) = 51.98123 53.39904 52.69014
# Shear Modulus (GPa) = 26.11522 31.68386 28.89954
#
# Velocity S-wave (km/s) = 3.44189 3.79113 3.62073
# Velocity P-wave (km/s) = 6.27500 6.58688 6.43283
#
# Compressibility (1/GPa) = 0.01923771
#
# Stress axis : x y z
#
# Youngs Moduli (GPa) = 85.70252 70.54564 120.32166
#
# Poissons Ratio (x) = 0.27656 -0.01954
# Poissons Ratio (y) = 0.33598 0.44525
# Poissons Ratio (z) = -0.01391 0.26105
#
# Static dielectric constant tensor:
#      x y z
#    x 4.278500 0.000000 -0.132580 
#    y 0.000000 4.145320 0.000000 
#    z -0.132580 0.000000 4.585260 
# 
# 
# High freq. dielectric constant tensor:
#      x y z
#    x 1.881170 0.000000 -0.005210 
#    y 0.000000 1.850090 0.000000 
#    z -0.005210 0.000000 1.874120 
# 
# From -- ./inp_files/260900.got.cif
#   From: 2010.06.25/outbox.cif.g09.slc.cpg/sg15_131_cif.got.tgz:260900.got - 2010.06.28 07:06:18.
