data_PCOD8142696
_publ_section_title
;
Structure prediction by ZEFSAII (Michael W. Deem and Ramdas Pophale) SiO2 
 PCOD8142696
Probable space group: C 2/C
;
_chemical_formula_sum "Si O2"
_cell_formula_units_Z 32
_cell_length_a 10.019451
_cell_length_b 10.676198
_cell_length_c 12.200787
_cell_angle_alpha 90.000000
_cell_angle_beta 87.054667
_cell_angle_gamma 90.000000
_cell_volume 1303.389791
_symmetry_space_group_name_H-M "C 2/C"
_symmetry_group_IT_number 15
_symmetry_cell_setting 'monoclinic'
loop_
_space_group_symop_operation_xyz
x,y,z
-x,y,1/2-z
-x,-y,-z
x,-y,1/2+z
1/2+x,1/2+y,z
1/2-x,1/2+y,1/2-z
1/2-x,1/2-y,-z
1/2+x,1/2-y,1/2+z
loop_
_atom_site_type_symbol
_atom_site_label
_atom_site_fract_x
_atom_site_fract_y
_atom_site_fract_z
Si Si1 0.811402 0.980489 0.600147
Si Si2 0.352933 0.853388 0.247850
Si Si3 0.420935 0.342072 0.923968
Si Si4 0.082348 0.628546 0.993855
O O1 0.697199 0.876096 0.581549
O O2 0.954141 0.924028 0.623501
O O3 0.765738 0.057986 0.707750
O O4 0.815494 0.070761 0.491978
O O5 0.500000 0.918089 0.250000
O O6 0.354530 0.724815 0.320653
O O7 0.334710 0.833984 0.119829
O O8 0.474656 0.240449 0.011705
O O9 0.000000 0.500000 0.000000
#
# Coordination Sequence:
#
# PCOD8142696 Si02
#       4
#     8   8   8   8
#     4  11  22  43  68  92 131 174 215 268 326 388
#     4  10  21  39  63  97 126 172 213 263 321 379
#     4  10  23  41  65  92 129 172 214 271 322 375
#     4  11  22  39  66  96 132 171 215 262 324 386
#
# _framework density 24.551366999999999
#
# number of rings (size 3 to 8) (size 9 to 14) (size 15 to 20)
#    0.000    1.500    5.000    1.500    0.000    6.000 
#    0.000    3.750    0.000    0.000    0.000    0.000 
#    0.000    0.000    0.000    0.000    0.000    0.000 
#
# Total GULP energy -198239.071953 kJ/mol
# GULP energy per Si atom -12389.941997 kJ/mol
# Density = 2.449549 g / cm^3
# Si number density = 24.551367 Si / 1000 Ang^3
#
#
#
# Elastic Constant Matrix: (Units=GPa)
#
#
# Indices 1 2 3 4 5 6 
#
# 1 39.2782 8.9720 -9.0929 0.0000 -13.0896 0.0000
# 2 8.9720 100.3993 14.1809 0.0000 -9.5429 0.0000
# 3 -9.0929 14.1809 54.1441 0.0000 -3.8546 0.0000
# 4 0.0000 0.0000 0.0000 29.4819 0.0000 -9.2416
# 5 -13.0896 -9.5429 -3.8546 0.0000 33.1171 0.0000
# 6 0.0000 0.0000 0.0000 -9.2416 0.0000 25.1010
#
#
#
# Elastic Compliance Matrix: (Units=1/GPa)
#
#
# Indices 1 2 3 4 5 6 
#
# 1 0.031884 -0.002627 0.006943 0.000000 0.012653 0.000000
# 2 -0.002627 0.010802 -0.003149 0.000000 0.001708 0.000000
# 3 0.006943 -0.003149 0.020763 0.000000 0.004254 0.000000
# 4 0.000000 0.000000 0.000000 0.038345 0.000000 0.014118
# 5 0.012653 0.001708 0.004254 0.000000 0.036184 0.000000
# 6 0.000000 0.000000 0.000000 0.014118 0.000000 0.045037
#
#
# Mechanical properties :
#
#
# Convention : Reuss Voigt Hill
#
# Bulk Modulus (GPa) = 15.20145 24.66016 19.93080
# Shear Modulus (GPa) = 24.67830 29.52411 27.10120
#
# Velocity S-wave (km/s) = 3.17388 3.47153 3.32604
# Velocity P-wave (km/s) = 4.43131 5.11223 4.78390
#
# Compressibility (1/GPa) = 0.06578321
#
# Stress axis : x y z
#
# Youngs Moduli (GPa) = 31.36409 92.57469 48.16294
#
# Poissons Ratio (x) = 0.24322 -0.33442
# Poissons Ratio (y) = 0.08240 0.15166
# Poissons Ratio (z) = -0.21777 0.29150
#
# Static dielectric constant tensor:
#      x y z
#    x 4.371650 0.000000 -0.030840 
#    y 0.000000 4.807230 0.000000 
#    z -0.030840 0.000000 4.689010 
# 
# 
# High freq. dielectric constant tensor:
#      x y z
#    x 1.968940 0.000000 -0.015280 
#    y 0.000000 1.978560 0.000000 
#    z -0.015280 0.000000 1.958800 
# 
# From -- ./inp_files/84298.got.cif
#   From: 2010.06.25/outbox.cif.g09.slc.cpg/sg15_43_cif.got.tgz:84298.got - 2010.06.28 07:06:18.
