data_PCOD8142994
_publ_section_title
;
Structure prediction by ZEFSAII (Michael W. Deem and Ramdas Pophale) SiO2 
 PCOD8142994
Probable space group: C 2/C
;
_chemical_formula_sum "Si O2"
_cell_formula_units_Z 64
_cell_length_a 25.098610
_cell_length_b 14.435071
_cell_length_c 9.021128
_cell_angle_alpha 90.000000
_cell_angle_beta 90.209119
_cell_angle_gamma 90.000000
_cell_volume 3268.334866
_symmetry_space_group_name_H-M "C 2/C"
_symmetry_group_IT_number 15
_symmetry_cell_setting 'monoclinic'
loop_
_space_group_symop_operation_xyz
x,y,z
-x,y,1/2-z
-x,-y,-z
x,-y,1/2+z
1/2+x,1/2+y,z
1/2-x,1/2+y,1/2-z
1/2-x,1/2-y,-z
1/2+x,1/2-y,1/2+z
loop_
_atom_site_type_symbol
_atom_site_label
_atom_site_fract_x
_atom_site_fract_y
_atom_site_fract_z
Si Si1 0.043499 0.743116 0.045843
Si Si2 0.236142 0.162583 0.096483
Si Si3 0.374530 0.583554 0.442262
Si Si4 0.425943 0.747526 0.621261
Si Si5 0.151222 0.411897 0.833841
Si Si6 0.801288 0.242126 0.098141
Si Si7 0.128848 0.597366 0.990779
Si Si8 0.892262 0.108218 0.095258
O O1 0.065351 0.774668 0.206356
O O2 0.981129 0.719319 0.047608
O O3 0.071835 0.648691 0.991913
O O4 0.055141 0.829868 0.936675
O O5 0.188740 0.098969 0.029785
O O6 0.287059 0.096605 0.118753
O O7 0.215180 0.210361 0.242324
O O8 0.250000 0.250000 0.000000
O O9 0.407192 0.657322 0.535982
O O10 0.388982 0.589172 0.269699
O O11 0.393318 0.485156 0.502288
O O12 0.381197 0.825446 0.601539
O O13 0.123653 0.501140 0.905400
O O14 0.149389 0.418766 0.657186
O O15 0.829185 0.342060 0.102252
O O16 0.842286 0.167198 0.031898
O O17 0.750000 0.250000 0.000000
#
# Coordination Sequence:
#
# PCOD8142994 Si02
#       8
#     8   8   8   8   8   8   8   8
#     4   9  21  43  64  85 115 158 196 253 299 349
#     4  11  23  37  59  88 123 157 195 241 290 346
#     4  11  23  38  60  91 121 157 195 245 292 362
#     4  10  21  41  65  85 117 155 202 246 302 347
#     4  11  23  38  59  91 120 159 197 241 292 354
#     4  10  21  40  57  82 119 165 196 236 290 349
#     4  10  23  39  60  87 122 154 201 243 292 351
#     4  10  23  38  59  90 120 152 202 238 300 353
#
# _framework density 19.581835999999999
#
# number of rings (size 3 to 8) (size 9 to 14) (size 15 to 20)
#    0.000    1.750    2.500    0.750    3.500    3.500 
#    0.000    0.000    0.000    0.000    0.000    0.000 
#    0.000    0.000    0.000    0.000    0.000    0.000 
#
# Total GULP energy -396824.777574 kJ/mol
# GULP energy per Si atom -12400.774299 kJ/mol
# Density = 1.953727 g / cm^3
# Si number density = 19.581836 Si / 1000 Ang^3
#
#
#
# Elastic Constant Matrix: (Units=GPa)
#
#
# Indices 1 2 3 4 5 6 
#
# 1 98.6270 21.7585 23.7823 0.0000 -11.1205 0.0000
# 2 21.7585 110.5441 36.4305 0.0000 -8.6745 0.0000
# 3 23.7823 36.4305 51.4024 0.0000 -10.2420 0.0000
# 4 0.0000 0.0000 0.0000 35.5195 0.0000 -6.7158
# 5 -11.1205 -8.6745 -10.2420 0.0000 28.2629 0.0000
# 6 0.0000 0.0000 0.0000 -6.7158 0.0000 15.6659
#
#
#
# Elastic Compliance Matrix: (Units=1/GPa)
#
#
# Indices 1 2 3 4 5 6 
#
# 1 0.011652 -0.000627 -0.004388 0.000000 0.002802 0.000000
# 2 -0.000627 0.011847 -0.008009 0.000000 0.000487 0.000000
# 3 -0.004388 -0.008009 0.028376 0.000000 0.006098 0.000000
# 4 0.000000 0.000000 0.000000 0.030637 0.000000 0.013134
# 5 0.002802 0.000487 0.006098 0.000000 0.038844 0.000000
# 6 0.000000 0.000000 0.000000 0.013134 0.000000 0.069463
#
#
# Mechanical properties :
#
#
# Convention : Reuss Voigt Hill
#
# Bulk Modulus (GPa) = 38.72104 47.16846 42.94475
# Shear Modulus (GPa) = 22.17525 27.79648 24.98586
#
# Velocity S-wave (km/s) = 3.36882 3.77172 3.57595
# Velocity P-wave (km/s) = 5.91176 6.56566 6.24727
#
# Compressibility (1/GPa) = 0.02582575
#
# Stress axis : x y z
#
# Youngs Moduli (GPa) = 85.82500 84.40676 35.24108
#
# Poissons Ratio (x) = 0.05296 0.15463
# Poissons Ratio (y) = 0.05385 0.28226
# Poissons Ratio (z) = 0.37659 0.67604
#
# Static dielectric constant tensor:
#      x y z
#    x 3.601210 0.000000 -0.104440 
#    y 0.000000 3.522200 0.000000 
#    z -0.104440 0.000000 3.632900 
# 
# 
# High freq. dielectric constant tensor:
#      x y z
#    x 1.769750 0.000000 -0.010820 
#    y 0.000000 1.764970 0.000000 
#    z -0.010820 0.000000 1.766130 
# 
# From -- ./inp_files/61943.got.cif
#   From: 2010.06.25/outbox.cif.g09.slc.cpg/sg15_31_cif.got.tgz:61943.got - 2010.06.28 07:06:18.
