data_PCOD8142499
_publ_section_title
;
Structure prediction by ZEFSAII (Michael W. Deem and Ramdas Pophale) SiO2 
 PCOD8142499
Probable space group: C 2/C
;
_chemical_formula_sum "Si O2"
_cell_formula_units_Z 60
_cell_length_a 12.168414
_cell_length_b 19.260409
_cell_length_c 19.833330
_cell_angle_alpha 90.000000
_cell_angle_beta 145.898669
_cell_angle_gamma 90.000000
_cell_volume 2606.113479
_symmetry_space_group_name_H-M "C 2/C"
_symmetry_group_IT_number 15
_symmetry_cell_setting 'monoclinic'
loop_
_space_group_symop_operation_xyz
x,y,z
-x,y,1/2-z
-x,-y,-z
x,-y,1/2+z
1/2+x,1/2+y,z
1/2-x,1/2+y,1/2-z
1/2-x,1/2-y,-z
1/2+x,1/2-y,1/2+z
loop_
_atom_site_type_symbol
_atom_site_label
_atom_site_fract_x
_atom_site_fract_y
_atom_site_fract_z
Si Si1 0.000000 0.312907 0.750000
Si Si2 0.484181 0.248464 0.908105
Si Si3 0.815412 0.950884 0.088956
Si Si4 0.662122 0.841942 0.697448
Si Si5 0.552683 0.985120 0.349887
Si Si6 0.753176 0.006144 0.197938
Si Si7 0.166532 0.333616 0.387424
Si Si8 0.782339 0.698079 0.929105
O O1 0.882896 0.358618 0.745822
O O2 0.853573 0.265634 0.629275
O O3 0.353267 0.293646 0.790114
O O4 0.618006 0.194726 0.936504
O O5 0.343384 0.201005 0.881846
O O6 0.621954 0.300225 0.023478
O O7 0.848129 0.869805 0.121030
O O8 0.698390 0.983817 0.093533
O O9 0.018036 0.989054 0.176768
O O10 0.679453 0.957529 0.954063
O O11 0.710248 0.912205 0.682338
O O12 0.481107 0.801113 0.572888
O O13 0.500000 0.017129 0.250000
O O14 0.681379 0.916648 0.400677
O O15 0.365427 0.966592 0.302512
O O16 0.000000 0.311375 0.250000
#
# Coordination Sequence:
#
# PCOD8142499 Si02
#       8
#     4   8   8   8   8   8   8   8
#     4  10  24  42  64  94 134 166 224 266 334 402
#     4  10  22  39  63  94 127 172 221 273 329 393
#     4  11  24  44  67 105 131 175 232 275 342 399
#     4  11  23  40  63  95 126 174 215 273 333 388
#     4  11  24  42  66  97 135 178 218 279 340 402
#     4  11  24  41  68  98 133 177 222 283 335 403
#     4  10  21  39  60  91 131 170 218 268 330 398
#     4  11  22  42  68  93 130 171 219 280 328 396
#
# _framework density 23.022790000000001
#
# number of rings (size 3 to 8) (size 9 to 14) (size 15 to 20)
#    0.000    1.333    1.333    4.000    2.800    1.600 
#    4.800    5.333    0.000    0.000    0.000    0.000 
#    0.000    0.000    0.000    0.000    0.000    0.000 
#
# Total GULP energy -371903.658302 kJ/mol
# GULP energy per Si atom -12396.788610 kJ/mol
# Density = 2.297039 g / cm^3
# Si number density = 23.022790 Si / 1000 Ang^3
#
#
#
# Elastic Constant Matrix: (Units=GPa)
#
#
# Indices 1 2 3 4 5 6 
#
# 1 84.2340 14.2557 10.3459 -0.0029 -8.7039 0.0013
# 2 14.2557 58.4157 21.3190 -0.0028 -14.1480 0.0000
# 3 10.3459 21.3190 123.1562 -0.0109 -2.1860 -0.0009
# 4 -0.0029 -0.0028 -0.0109 2.4414 -0.0049 -2.5654
# 5 -8.7039 -14.1480 -2.1860 -0.0049 40.3631 -0.0002
# 6 0.0013 0.0000 -0.0009 -2.5654 -0.0002 29.3134
#
#
#
# Elastic Compliance Matrix: (Units=1/GPa)
#
#
# Indices 1 2 3 4 5 6 
#
# 1 0.012541 -0.002396 -0.000606 0.000014 0.001832 0.000001
# 2 -0.002396 0.020448 -0.003224 0.000022 0.006476 0.000002
# 3 -0.000606 -0.003224 0.008715 0.000036 -0.000789 0.000003
# 4 0.000014 0.000022 0.000036 0.451079 0.000067 0.039477
# 5 0.001832 0.006476 -0.000789 0.000067 0.027397 0.000006
# 6 0.000001 0.000002 0.000003 0.039477 0.000006 0.037569
#
#
# Mechanical properties :
#
#
# Convention : Reuss Voigt Hill
#
# Bulk Modulus (GPa) = 34.18437 39.73856 36.96146
# Shear Modulus (GPa) = 8.62142 29.08262 18.85202
#
# Velocity S-wave (km/s) = 1.93723 3.55802 2.86465
# Velocity P-wave (km/s) = 4.45916 5.84614 5.19911
#
# Compressibility (1/GPa) = 0.02925313
#
# Stress axis : x y z
#
# Youngs Moduli (GPa) = 79.73938 48.90394 114.74841
#
# Poissons Ratio (x) = 0.11715 0.06957
# Poissons Ratio (y) = 0.19102 0.36989
# Poissons Ratio (z) = 0.04835 0.15764
#
# Static dielectric constant tensor:
#      x y z
#    x 4.258220 0.000000 0.070340 
#    y 0.000000 3.912810 0.000000 
#    z 0.070340 0.000000 4.253090 
# 
# 
# High freq. dielectric constant tensor:
#      x y z
#    x 1.910020 0.000000 0.001660 
#    y 0.000000 1.903850 0.000000 
#    z 0.001660 0.000000 1.916970 
# 
# From -- ./inp_files/200557.got.cif
#   From: 2010.06.25/outbox.cif.g09.slc.cpg/sg15_101_cif.got.tgz:200557.got - 2010.06.28 07:06:18.
