data_PCOD8142613
_publ_section_title
;
Structure prediction by ZEFSAII (Michael W. Deem and Ramdas Pophale) SiO2 
 PCOD8142613
Probable space group: C 2/C
;
_chemical_formula_sum "Si O2"
_cell_formula_units_Z 56
_cell_length_a 16.368993
_cell_length_b 15.674932
_cell_length_c 13.528092
_cell_angle_alpha 90.000000
_cell_angle_beta 126.320773
_cell_angle_gamma 90.000000
_cell_volume 2796.693454
_symmetry_space_group_name_H-M "C 2/C"
_symmetry_group_IT_number 15
_symmetry_cell_setting 'monoclinic'
loop_
_space_group_symop_operation_xyz
x,y,z
-x,y,1/2-z
-x,-y,-z
x,-y,1/2+z
1/2+x,1/2+y,z
1/2-x,1/2+y,1/2-z
1/2-x,1/2-y,-z
1/2+x,1/2-y,1/2+z
loop_
_atom_site_type_symbol
_atom_site_label
_atom_site_fract_x
_atom_site_fract_y
_atom_site_fract_z
Si Si1 0.792652 0.351028 0.740205
Si Si2 0.563971 0.415461 0.030185
Si Si3 0.858653 0.475371 0.955372
Si Si4 0.078511 0.227090 0.097655
Si Si5 0.959250 0.786528 0.327662
Si Si6 0.572079 0.910587 0.158594
Si Si7 0.232386 0.514131 0.907624
O O1 0.830542 0.393844 0.868590
O O2 0.695151 0.295476 0.695976
O O3 0.879048 0.289720 0.759305
O O4 0.764108 0.420202 0.636822
O O5 0.589661 0.370718 0.154817
O O6 0.666592 0.434222 0.045957
O O7 0.500000 0.500000 0.000000
O O8 0.494753 0.349603 0.916695
O O9 0.862656 0.559564 0.890050
O O10 0.774288 0.492156 0.978541
O O11 0.966651 0.461153 0.085092
O O12 0.053729 0.309849 0.144618
O O13 0.053314 0.245178 0.963556
O O14 0.000000 0.813101 0.250000
O O15 0.634092 0.934019 0.301000
#
# Coordination Sequence:
#
# PCOD8142613 Si02
#       7
#     8   8   8   8   8   8   8
#     4  11  22  42  64  93 133 161 213 269 309 379
#     4  10  21  45  58  86 132 160 213 268 299 383
#     4  10  22  40  63  94 130 170 205 257 328 380
#     4  10  22  42  62  87 128 165 204 271 311 362
#     4  10  23  40  68  93 125 165 213 269 321 366
#     4  10  21  39  62  94 128 159 211 268 314 375
#     4  11  22  39  66  92 128 170 212 257 322 386
#
# _framework density 20.023647
#
# number of rings (size 3 to 8) (size 9 to 14) (size 15 to 20)
#    0.857    0.857    2.857    1.286    2.000    0.571 
#   12.857    8.571    0.000    0.000    0.000    0.000 
#    0.000    0.000    0.000    0.000    0.000    0.000 
#
# Total GULP energy -347153.453038 kJ/mol
# GULP energy per Si atom -12398.337609 kJ/mol
# Density = 1.997807 g / cm^3
# Si number density = 20.023647 Si / 1000 Ang^3
#
#
#
# Elastic Constant Matrix: (Units=GPa)
#
#
# Indices 1 2 3 4 5 6 
#
# 1 102.4346 20.0664 34.7129 0.0000 -11.8655 0.0000
# 2 20.0664 108.2830 9.2431 0.0000 -2.9383 0.0000
# 3 34.7129 9.2431 47.1889 0.0000 1.0589 0.0000
# 4 0.0000 0.0000 0.0000 28.8367 0.0000 10.1461
# 5 -11.8655 -2.9383 1.0589 0.0000 39.7783 0.0000
# 6 0.0000 0.0000 0.0000 10.1461 0.0000 32.6870
#
#
#
# Elastic Compliance Matrix: (Units=1/GPa)
#
#
# Indices 1 2 3 4 5 6 
#
# 1 0.013994 -0.001616 -0.010074 0.000000 0.004323 0.000000
# 2 -0.001616 0.009601 -0.000697 0.000000 0.000246 0.000000
# 3 -0.010074 -0.000697 0.028825 0.000000 -0.003824 0.000000
# 4 0.000000 0.000000 0.000000 0.038930 0.000000 -0.012084
# 5 0.004323 0.000246 -0.003824 0.000000 0.026549 0.000000
# 6 0.000000 0.000000 0.000000 -0.012084 0.000000 0.034344
#
#
# Mechanical properties :
#
#
# Convention : Reuss Voigt Hill
#
# Bulk Modulus (GPa) = 36.17467 42.88348 39.52907
# Shear Modulus (GPa) = 26.84828 33.18600 30.01714
#
# Velocity S-wave (km/s) = 3.66571 4.07546 3.87600
# Velocity P-wave (km/s) = 6.00181 6.60369 6.30993
#
# Compressibility (1/GPa) = 0.02764365
#
# Stress axis : x y z
#
# Youngs Moduli (GPa) = 71.46098 104.15891 34.69246
#
# Poissons Ratio (x) = 0.16832 0.34951
# Poissons Ratio (y) = 0.11548 0.02419
# Poissons Ratio (z) = 0.71993 0.07263
#
# Static dielectric constant tensor:
#      x y z
#    x 3.505730 0.000000 0.165300 
#    y 0.000000 3.612420 0.000000 
#    z 0.165300 0.000000 3.558310 
# 
# 
# High freq. dielectric constant tensor:
#      x y z
#    x 1.773120 0.000000 0.014020 
#    y 0.000000 1.786340 0.000000 
#    z 0.014020 0.000000 1.771570 
# 
# From -- ./inp_files/98845.got.cif
#   From: 2010.06.25/outbox.cif.g09.slc.cpg/sg15_50_cif.got.tgz:98845.got - 2010.06.28 07:06:18.
