data_PCOD8142345
_publ_section_title
;
Structure prediction by ZEFSAII (Michael W. Deem and Ramdas Pophale) SiO2 
 PCOD8142345
Probable space group: C 2/C
;
_chemical_formula_sum "Si O2"
_cell_formula_units_Z 56
_cell_length_a 13.386613
_cell_length_b 14.677530
_cell_length_c 16.140832
_cell_angle_alpha 90.000000
_cell_angle_beta 135.242208
_cell_angle_gamma 90.000000
_cell_volume 2233.011279
_symmetry_space_group_name_H-M "C 2/C"
_symmetry_group_IT_number 15
_symmetry_cell_setting 'monoclinic'
loop_
_space_group_symop_operation_xyz
x,y,z
-x,y,1/2-z
-x,-y,-z
x,-y,1/2+z
1/2+x,1/2+y,z
1/2-x,1/2+y,1/2-z
1/2-x,1/2-y,-z
1/2+x,1/2-y,1/2+z
loop_
_atom_site_type_symbol
_atom_site_label
_atom_site_fract_x
_atom_site_fract_y
_atom_site_fract_z
Si Si1 0.492888 0.398437 0.415078
Si Si2 0.809028 0.807998 0.433301
Si Si3 0.830230 0.610395 0.388378
Si Si4 0.434090 0.974906 0.579830
Si Si5 0.500000 0.116327 0.750000
Si Si6 0.228616 0.325675 0.917748
Si Si7 0.479944 0.412255 0.833807
Si Si8 0.000000 0.797592 0.250000
O O1 0.351005 0.363512 0.375079
O O2 0.627862 0.357024 0.545335
O O3 0.495286 0.506849 0.409830
O O4 0.523101 0.362448 0.340774
O O5 0.645161 0.796744 0.546942
O O6 0.639743 0.820574 0.343752
O O7 0.897628 0.841198 0.566537
O O8 0.833015 0.523529 0.452107
O O9 0.681572 0.621608 0.252673
O O10 0.955329 0.595235 0.395845
O O11 0.334771 0.918793 0.582656
O O12 0.518102 0.052674 0.679861
O O13 0.125054 0.272264 0.794516
O O14 0.250000 0.250000 0.000000
O O15 0.500000 0.440408 0.750000
#
# Coordination Sequence:
#
# PCOD8142345 Si02
#       8
#     8   8   8   8   4   8   8   4
#     4  11  23  45  71 112 141 190 243 312 378 450
#     4  12  29  47  75 111 152 197 260 319 377 458
#     4  11  27  48  73 107 143 202 257 308 371 464
#     4  11  25  48  75 105 151 200 247 305 391 453
#     4  12  27  50  75 110 154 202 252 321 385 462
#     4  10  21  38  67 105 143 180 237 303 369 445
#     4  12  26  47  75 102 147 198 249 310 382 451
#     4  10  21  38  73 106 154 186 236 299 391 446
#
# _framework density 25.078241999999999
#
# number of rings (size 3 to 8) (size 9 to 14) (size 15 to 20)
#    0.000    0.857    0.714    6.000    5.000    4.571 
#    0.000    0.000    0.000    0.000    0.000    0.000 
#    0.000    0.000    0.000    0.000    0.000    0.000 
#
# Total GULP energy -347113.010122 kJ/mol
# GULP energy per Si atom -12396.893219 kJ/mol
# Density = 2.502116 g / cm^3
# Si number density = 25.078242 Si / 1000 Ang^3
#
#
#
# Elastic Constant Matrix: (Units=GPa)
#
#
# Indices 1 2 3 4 5 6 
#
# 1 103.9796 35.6616 27.6660 0.0000 26.4483 0.0000
# 2 35.6616 120.4048 18.7212 0.0000 15.8107 0.0000
# 3 27.6660 18.7212 95.1562 0.0000 26.4751 0.0000
# 4 0.0000 0.0000 0.0000 26.5252 0.0000 2.2579
# 5 26.4483 15.8107 26.4751 0.0000 46.6156 0.0000
# 6 0.0000 0.0000 0.0000 2.2579 0.0000 37.9703
#
#
#
# Elastic Compliance Matrix: (Units=1/GPa)
#
#
# Indices 1 2 3 4 5 6 
#
# 1 0.012282 -0.002713 -0.001608 0.000000 -0.005135 0.000000
# 2 -0.002713 0.009382 -0.000713 0.000000 -0.001238 0.000000
# 3 -0.001608 -0.000713 0.012822 0.000000 -0.006128 0.000000
# 4 0.000000 0.000000 0.000000 0.037892 0.000000 -0.002253
# 5 -0.005135 -0.001238 -0.006128 0.000000 0.028265 0.000000
# 6 0.000000 0.000000 0.000000 -0.002253 0.000000 0.026470
#
#
# Mechanical properties :
#
#
# Convention : Reuss Voigt Hill
#
# Bulk Modulus (GPa) = 40.95452 53.73756 47.34604
# Shear Modulus (GPa) = 34.40652 38.05501 36.23077
#
# Velocity S-wave (km/s) = 3.70803 3.89967 3.80506
# Velocity P-wave (km/s) = 5.89057 6.46151 6.18263
#
# Compressibility (1/GPa) = 0.02441733
#
# Stress axis : x y z
#
# Youngs Moduli (GPa) = 81.42101 106.58349 77.99210
#
# Poissons Ratio (x) = 0.28919 0.12545
# Poissons Ratio (y) = 0.22092 0.05557
# Poissons Ratio (z) = 0.13096 0.07595
#
# Static dielectric constant tensor:
#      x y z
#    x 4.534930 0.000000 0.377860 
#    y 0.000000 4.830530 0.000000 
#    z 0.377860 0.000000 4.863070 
# 
# 
# High freq. dielectric constant tensor:
#      x y z
#    x 1.999920 0.000000 0.006280 
#    y 0.000000 2.012130 0.000000 
#    z 0.006280 0.000000 2.004700 
# 
# From -- ./inp_files/146204.got.cif
#   From: 2010.06.25/outbox.cif.g09.slc.cpg/sg15_74_cif.got.tgz:146204.got - 2010.06.28 07:06:18.
