data_PCOD8142358
_publ_section_title
;
Structure prediction by ZEFSAII (Michael W. Deem and Ramdas Pophale) SiO2 
 PCOD8142358
Probable space group: C 2/C
;
_chemical_formula_sum "Si O2"
_cell_formula_units_Z 60
_cell_length_a 21.535310
_cell_length_b 8.508561
_cell_length_c 19.504991
_cell_angle_alpha 90.000000
_cell_angle_beta 124.270138
_cell_angle_gamma 90.000000
_cell_volume 2953.514066
_symmetry_space_group_name_H-M "C 2/C"
_symmetry_group_IT_number 15
_symmetry_cell_setting 'monoclinic'
loop_
_space_group_symop_operation_xyz
x,y,z
-x,y,1/2-z
-x,-y,-z
x,-y,1/2+z
1/2+x,1/2+y,z
1/2-x,1/2+y,1/2-z
1/2-x,1/2-y,-z
1/2+x,1/2-y,1/2+z
loop_
_atom_site_type_symbol
_atom_site_label
_atom_site_fract_x
_atom_site_fract_y
_atom_site_fract_z
Si Si1 0.500000 0.945182 0.750000
Si Si2 0.810360 0.681943 0.422403
Si Si3 0.925225 0.692135 0.606697
Si Si4 0.358981 0.583670 0.170378
Si Si5 0.117433 0.233077 0.750209
Si Si6 0.691314 0.985287 0.717452
Si Si7 0.145494 0.055079 0.641660
Si Si8 0.581875 0.272131 0.658048
O O1 0.545836 0.832454 0.728667
O O2 0.443277 0.055852 0.672331
O O3 0.856259 0.629822 0.517777
O O4 0.722298 0.666501 0.382666
O O5 0.833072 0.577620 0.371809
O O6 0.835474 0.862189 0.418934
O O7 0.902858 0.855301 0.630452
O O8 0.995231 0.721842 0.598971
O O9 0.356070 0.392299 0.174426
O O10 0.407998 0.632791 0.265738
O O11 0.184656 0.355503 0.773932
O O12 0.094167 0.155643 0.662402
O O13 0.777185 0.037840 0.767033
O O14 0.636087 0.125970 0.699028
O O15 0.105439 0.884282 0.608114
#
# Coordination Sequence:
#
# PCOD8142358 Si02
#       8
#     4   8   8   8   8   8   8   8
#     4  12  24  42  62  92 126 172 208 262 314 386
#     4  11  24  40  65  96 127 164 211 270 314 374
#     4  12  25  42  62  92 131 174 211 255 325 375
#     4  11  21  42  66  91 124 168 218 258 312 382
#     4  10  22  36  67  91 117 160 216 255 308 378
#     4  11  18  41  65  94 120 159 211 260 322 370
#     4  10  21  38  67  94 121 160 212 263 309 378
#     4  11  20  38  68  89 122 172 209 257 317 382
#
# _framework density 20.314784
#
# number of rings (size 3 to 8) (size 9 to 14) (size 15 to 20)
#    0.000    1.067    6.667    1.200    3.733    1.067 
#    0.000    2.000    0.000    0.000    0.000    0.000 
#    0.000    0.000    0.000    0.000    0.000    0.000 
#
# Total GULP energy -371844.066355 kJ/mol
# GULP energy per Si atom -12394.802212 kJ/mol
# Density = 2.026855 g / cm^3
# Si number density = 20.314784 Si / 1000 Ang^3
#
#
#
# Elastic Constant Matrix: (Units=GPa)
#
#
# Indices 1 2 3 4 5 6 
#
# 1 86.2311 41.7391 6.2766 0.0000 4.8298 0.0000
# 2 41.7391 109.0149 12.5161 0.0000 -5.6201 0.0000
# 3 6.2766 12.5161 74.7828 0.0000 -1.8322 0.0000
# 4 0.0000 0.0000 0.0000 12.5060 0.0000 3.7725
# 5 4.8298 -5.6201 -1.8322 0.0000 21.2225 0.0000
# 6 0.0000 0.0000 0.0000 3.7725 0.0000 39.6315
#
#
#
# Elastic Compliance Matrix: (Units=1/GPa)
#
#
# Indices 1 2 3 4 5 6 
#
# 1 0.014733 -0.005852 -0.000378 0.000000 -0.004935 0.000000
# 2 -0.005852 0.011795 -0.001377 0.000000 0.004337 0.000000
# 3 -0.000378 -0.001377 0.013656 0.000000 0.000900 0.000000
# 4 0.000000 0.000000 0.000000 0.082326 0.000000 -0.007837
# 5 -0.004935 0.004337 0.000900 0.000000 0.049469 0.000000
# 6 0.000000 0.000000 0.000000 -0.007837 0.000000 0.025978
#
#
# Mechanical properties :
#
#
# Convention : Reuss Voigt Hill
#
# Bulk Modulus (GPa) = 40.04612 43.45471 41.75041
# Shear Modulus (GPa) = 22.57384 28.63848 25.60616
#
# Velocity S-wave (km/s) = 3.33709 3.75872 3.55416
# Velocity P-wave (km/s) = 5.88250 6.34621 6.11875
#
# Compressibility (1/GPa) = 0.02497121
#
# Stress axis : x y z
#
# Youngs Moduli (GPa) = 67.87344 84.77967 73.22646
#
# Poissons Ratio (x) = 0.49613 0.02768
# Poissons Ratio (y) = 0.39720 0.10081
# Poissons Ratio (z) = 0.02566 0.11672
#
# Static dielectric constant tensor:
#      x y z
#    x 3.946990 0.000000 0.023510 
#    y 0.000000 4.126020 0.000000 
#    z 0.023510 0.000000 3.240430 
# 
# 
# High freq. dielectric constant tensor:
#      x y z
#    x 1.809160 0.000000 0.005710 
#    y 0.000000 1.804230 0.000000 
#    z 0.005710 0.000000 1.745300 
# 
# From -- ./inp_files/213858.got.cif
#   From: 2010.06.25/outbox.cif.g09.slc.cpg/sg15_107_cif.got.tgz:213858.got - 2010.06.28 07:06:18.
