data_PCOD8142083
_publ_section_title
;
Structure prediction by ZEFSAII (Michael W. Deem and Ramdas Pophale) SiO2 
 PCOD8142083
Probable space group: C 2/C
;
_chemical_formula_sum "Si O2"
_cell_formula_units_Z 56
_cell_length_a 8.267748
_cell_length_b 16.051137
_cell_length_c 20.999376
_cell_angle_alpha 90.000000
_cell_angle_beta 68.833941
_cell_angle_gamma 90.000000
_cell_volume 2598.758327
_symmetry_space_group_name_H-M "C 2/C"
_symmetry_group_IT_number 15
_symmetry_cell_setting 'monoclinic'
loop_
_space_group_symop_operation_xyz
x,y,z
-x,y,1/2-z
-x,-y,-z
x,-y,1/2+z
1/2+x,1/2+y,z
1/2-x,1/2+y,1/2-z
1/2-x,1/2-y,-z
1/2+x,1/2-y,1/2+z
loop_
_atom_site_type_symbol
_atom_site_label
_atom_site_fract_x
_atom_site_fract_y
_atom_site_fract_z
Si Si1 0.004365 0.389981 0.035358
Si Si2 0.002839 0.347288 0.608157
Si Si3 0.647947 0.674255 0.843557
Si Si4 0.608459 0.584352 0.975254
Si Si5 0.500000 0.878536 0.250000
Si Si6 0.153933 0.777975 0.948641
Si Si7 0.000000 0.912543 0.250000
Si Si8 0.644632 0.012379 0.835462
O O1 0.204888 0.413657 0.017421
O O2 0.937973 0.300644 0.073135
O O3 0.883630 0.458720 0.087110
O O4 0.967438 0.388353 0.965457
O O5 0.889867 0.263293 0.619189
O O6 0.903737 0.414915 0.665283
O O7 0.190076 0.322797 0.613014
O O8 0.637934 0.600639 0.896555
O O9 0.511136 0.648597 0.808896
O O10 0.835272 0.680367 0.783895
O O11 0.500000 0.500000 0.000000
O O12 0.499512 0.658081 0.020801
O O13 0.486326 0.935395 0.189385
O O14 0.250000 0.750000 0.000000
O O15 0.161787 0.974090 0.217468
#
# Coordination Sequence:
#
# PCOD8142083 Si02
#       8
#     8   8   8   8   4   8   4   8
#     4  11  22  40  67  96 133 167 207 272 344 378
#     4  11  24  40  69  97 130 159 218 277 331 392
#     4  11  23  46  63  93 130 170 220 263 321 398
#     4  12  24  38  66  97 133 165 214 269 333 389
#     4  10  24  44  64  82 126 180 212 262 312 380
#     4  10  21  38  61  97 129 161 199 262 339 386
#     4  10  26  42  68  86 126 186 216 266 320 386
#     4  11  23  42  65  92 126 168 222 265 320 392
#
# _framework density 21.548752
#
# number of rings (size 3 to 8) (size 9 to 14) (size 15 to 20)
#    0.000    1.143    4.286    2.571    4.000    1.143 
#    0.000    0.000    0.000    0.000    0.000    0.000 
#    0.000    0.000    0.000    0.000    0.000    0.000 
#
# Total GULP energy -347073.383435 kJ/mol
# GULP energy per Si atom -12395.477980 kJ/mol
# Density = 2.149971 g / cm^3
# Si number density = 21.548752 Si / 1000 Ang^3
#
#
#
# Elastic Constant Matrix: (Units=GPa)
#
#
# Indices 1 2 3 4 5 6 
#
# 1 90.6217 34.8888 18.3459 0.0000 -22.5852 0.0000
# 2 34.8888 123.2818 39.2850 0.0000 -23.3941 0.0000
# 3 18.3459 39.2850 70.9468 0.0000 -13.8133 0.0000
# 4 0.0000 0.0000 0.0000 29.6477 0.0000 -12.5770
# 5 -22.5852 -23.3941 -13.8133 0.0000 35.3010 0.0000
# 6 0.0000 0.0000 0.0000 -12.5770 0.0000 33.3895
#
#
#
# Elastic Compliance Matrix: (Units=1/GPa)
#
#
# Indices 1 2 3 4 5 6 
#
# 1 0.013847 -0.002292 -0.000955 0.000000 0.006966 0.000000
# 2 -0.002292 0.011026 -0.004736 0.000000 0.003987 0.000000
# 3 -0.000955 -0.004736 0.017573 0.000000 0.003127 0.000000
# 4 0.000000 0.000000 0.000000 0.040144 0.000000 0.015121
# 5 0.006966 0.003987 0.003127 0.000000 0.036650 0.000000
# 6 0.000000 0.000000 0.000000 0.015121 0.000000 0.035645
#
#
# Mechanical properties :
#
#
# Convention : Reuss Voigt Hill
#
# Bulk Modulus (GPa) = 37.76578 52.20995 44.98787
# Shear Modulus (GPa) = 27.82722 32.48969 30.15846
#
# Velocity S-wave (km/s) = 3.59745 3.88716 3.74511
# Velocity P-wave (km/s) = 5.90079 6.66544 6.29473
#
# Compressibility (1/GPa) = 0.02647899
#
# Stress axis : x y z
#
# Youngs Moduli (GPa) = 72.21806 90.69349 56.90409
#
# Poissons Ratio (x) = 0.20791 0.05434
# Poissons Ratio (y) = 0.16556 0.26952
# Poissons Ratio (z) = 0.06896 0.42956
#
# Static dielectric constant tensor:
#      x y z
#    x 4.146060 0.000000 -0.229100 
#    y 0.000000 4.112560 0.000000 
#    z -0.229100 0.000000 3.907570 
# 
# 
# High freq. dielectric constant tensor:
#      x y z
#    x 1.847030 0.000000 -0.022730 
#    y 0.000000 1.848480 0.000000 
#    z -0.022730 0.000000 1.838760 
# 
# From -- ./inp_files/264621.got.cif
#   From: 2010.06.25/outbox.cif.g09.slc.cpg/sg15_133_cif.got.tgz:264621.got - 2010.06.28 07:06:18.
