data_PCOD8142731
_publ_section_title
;
Structure prediction by ZEFSAII (Michael W. Deem and Ramdas Pophale) SiO2 
 PCOD8142731
Probable space group: C 2/C
;
_chemical_formula_sum "Si O2"
_cell_formula_units_Z 56
_cell_length_a 11.266818
_cell_length_b 35.040322
_cell_length_c 8.332278
_cell_angle_alpha 90.000000
_cell_angle_beta 121.417183
_cell_angle_gamma 90.000000
_cell_volume 2807.262100
_symmetry_space_group_name_H-M "C 2/C"
_symmetry_group_IT_number 15
_symmetry_cell_setting 'monoclinic'
loop_
_space_group_symop_operation_xyz
x,y,z
-x,y,1/2-z
-x,-y,-z
x,-y,1/2+z
1/2+x,1/2+y,z
1/2-x,1/2+y,1/2-z
1/2-x,1/2-y,-z
1/2+x,1/2-y,1/2+z
loop_
_atom_site_type_symbol
_atom_site_label
_atom_site_fract_x
_atom_site_fract_y
_atom_site_fract_z
Si Si1 0.175445 0.036141 0.228779
Si Si2 0.864493 0.955835 0.426132
Si Si3 0.215957 0.685030 0.794226
Si Si4 0.094196 0.324287 0.549173
Si Si5 0.154505 0.117139 0.790167
Si Si6 0.646587 0.102086 0.284887
Si Si7 0.354864 0.248996 0.217462
O O1 0.178814 0.043962 0.419725
O O2 0.291695 0.062932 0.237442
O O3 0.203982 0.991679 0.214359
O O4 0.031469 0.045443 0.036796
O O5 0.808086 0.919506 0.291244
O O6 0.322885 0.652980 0.809729
O O7 0.293139 0.724977 0.815939
O O8 0.068158 0.681075 0.602390
O O9 0.193476 0.682361 0.967801
O O10 0.125550 0.366831 0.630861
O O11 0.131891 0.294184 0.712707
O O12 0.000000 0.116411 0.750000
O O13 0.258237 0.120525 0.011828
O O14 0.500000 0.089569 0.250000
O O15 0.500000 0.264888 0.250000
O O16 0.250000 0.250000 0.000000
#
# Coordination Sequence:
#
# PCOD8142731 Si02
#       7
#     8   8   8   8   8   8   8
#     4  10  21  39  64  92 127 166 209 261 319 376
#     4  10  21  39  64  93 126 163 211 264 318 369
#     4  11  24  43  66  94 131 170 210 262 317 380
#     4  11  24  44  65  93 133 172 206 258 329 375
#     4  12  23  41  65  96 127 165 219 263 313 377
#     4  12  23  42  66  93 130 170 213 259 317 382
#     4  12  23  43  68  97 129 165 216 262 314 377
#
# _framework density 19.948260999999999
#
# number of rings (size 3 to 8) (size 9 to 14) (size 15 to 20)
#    0.000    0.857    4.286    3.857    2.000    0.000 
#    0.000    4.286    0.000    0.000    0.000    0.000 
#    0.000    0.000    0.000    0.000    0.000    0.000 
#
# Total GULP energy -347295.862318 kJ/mol
# GULP energy per Si atom -12403.423654 kJ/mol
# Density = 1.990286 g / cm^3
# Si number density = 19.948261 Si / 1000 Ang^3
#
#
#
# Elastic Constant Matrix: (Units=GPa)
#
#
# Indices 1 2 3 4 5 6 
#
# 1 139.4746 54.4605 45.1739 0.0000 -8.9504 0.0000
# 2 54.4605 114.3763 22.1953 0.0000 -9.9372 0.0000
# 3 45.1739 22.1953 81.9825 0.0000 -2.3325 0.0000
# 4 0.0000 0.0000 0.0000 45.4006 0.0000 -15.3485
# 5 -8.9504 -9.9372 -2.3325 0.0000 25.7551 0.0000
# 6 0.0000 0.0000 0.0000 -15.3485 0.0000 39.9502
#
#
#
# Elastic Compliance Matrix: (Units=1/GPa)
#
#
# Indices 1 2 3 4 5 6 
#
# 1 0.010260 -0.003855 -0.004562 0.000000 0.001665 0.000000
# 2 -0.003855 0.010973 -0.000766 0.000000 0.002825 0.000000
# 3 -0.004562 -0.000766 0.014904 0.000000 -0.000531 0.000000
# 4 0.000000 0.000000 0.000000 0.025314 0.000000 0.009725
# 5 0.001665 0.002825 -0.000531 0.000000 0.040448 0.000000
# 6 0.000000 0.000000 0.000000 0.009725 0.000000 0.028768
#
#
# Mechanical properties :
#
#
# Convention : Reuss Voigt Hill
#
# Bulk Modulus (GPa) = 56.27631 64.38807 60.33219
# Shear Modulus (GPa) = 32.26744 36.48809 34.37777
#
# Velocity S-wave (km/s) = 4.02625 4.28148 4.15582
# Velocity P-wave (km/s) = 7.06305 7.53585 7.30328
#
# Compressibility (1/GPa) = 0.01776947
#
# Stress axis : x y z
#
# Youngs Moduli (GPa) = 97.47055 91.13470 67.09693
#
# Poissons Ratio (x) = 0.35134 0.30610
# Poissons Ratio (y) = 0.37576 0.05140
# Poissons Ratio (z) = 0.44467 0.06982
#
# Static dielectric constant tensor:
#      x y z
#    x 3.687210 0.000000 -0.129820 
#    y 0.000000 3.882930 0.000000 
#    z -0.129820 0.000000 3.605330 
# 
# 
# High freq. dielectric constant tensor:
#      x y z
#    x 1.785550 0.000000 -0.012670 
#    y 0.000000 1.788360 0.000000 
#    z -0.012670 0.000000 1.781220 
# 
# From -- ./inp_files/35798.got.cif
#   From: 2010.06.25/outbox.cif.g09.slc.cpg/sg15_18_cif.got.tgz:35798.got - 2010.06.28 07:06:18.
