data_PCOD8142348
_publ_section_title
;
Structure prediction by ZEFSAII (Michael W. Deem and Ramdas Pophale) SiO2 
 PCOD8142348
Probable space group: C 2/C
;
_chemical_formula_sum "Si O2"
_cell_formula_units_Z 60
_cell_length_a 24.242266
_cell_length_b 25.513363
_cell_length_c 8.820721
_cell_angle_alpha 90.000000
_cell_angle_beta 147.366479
_cell_angle_gamma 90.000000
_cell_volume 2942.023174
_symmetry_space_group_name_H-M "C 2/C"
_symmetry_group_IT_number 15
_symmetry_cell_setting 'monoclinic'
loop_
_space_group_symop_operation_xyz
x,y,z
-x,y,1/2-z
-x,-y,-z
x,-y,1/2+z
1/2+x,1/2+y,z
1/2-x,1/2+y,1/2-z
1/2-x,1/2-y,-z
1/2+x,1/2-y,1/2+z
loop_
_atom_site_type_symbol
_atom_site_label
_atom_site_fract_x
_atom_site_fract_y
_atom_site_fract_z
Si Si1 0.059250 0.934591 0.678178
Si Si2 0.634020 0.481114 0.150666
Si Si3 0.407058 0.157237 0.435388
Si Si4 0.954884 0.742325 0.296686
Si Si5 0.865976 0.550527 0.205066
Si Si6 0.924742 0.815962 0.717430
Si Si7 0.265924 0.239335 0.212854
Si Si8 0.500000 0.986808 0.750000
O O1 0.098977 0.875588 0.790382
O O2 0.935615 0.939403 0.413255
O O3 0.099254 0.959350 0.612910
O O4 0.111932 0.972508 0.923584
O O5 0.754548 0.474933 0.453712
O O6 0.447984 0.199478 0.411196
O O7 0.352028 0.111226 0.216724
O O8 0.329515 0.185343 0.374259
O O9 0.500000 0.134656 0.750000
O O10 0.000000 0.716058 0.250000
O O11 0.025092 0.789280 0.520242
O O12 0.848074 0.766661 0.988425
O O13 0.921312 0.547833 0.168645
O O14 0.934481 0.522681 0.488237
O O15 0.820420 0.787157 0.427029
O O16 0.000000 0.813212 0.750000
O O17 0.250000 0.250000 0.000000
#
# Coordination Sequence:
#
# PCOD8142348 Si02
#       8
#     8   8   8   8   8   8   8   4
#     4  10  23  38  64  92 125 164 203 268 308 377
#     4  10  21  40  60  90 123 160 213 252 314 366
#     4  11  21  41  66  90 121 166 211 254 314 378
#     4  11  25  41  60  95 131 160 206 269 307 373
#     4  11  23  40  66  88 123 168 204 268 309 374
#     4  12  20  42  64  92 129 167 210 256 314 382
#     4  10  21  38  67  90 119 169 212 241 310 391
#     4  10  24  44  56  90 128 154 218 256 312 368
#
# _framework density 20.394127000000001
#
# number of rings (size 3 to 8) (size 9 to 14) (size 15 to 20)
#    0.000    1.333    6.000    0.800    6.533    0.533 
#    4.800    1.333    0.000    0.000    0.000    0.000 
#    0.000    0.000    0.000    0.000    0.000    0.000 
#
# Total GULP energy -371865.269854 kJ/mol
# GULP energy per Si atom -12395.508995 kJ/mol
# Density = 2.034771 g / cm^3
# Si number density = 20.394127 Si / 1000 Ang^3
#
#
#
# Elastic Constant Matrix: (Units=GPa)
#
#
# Indices 1 2 3 4 5 6 
#
# 1 86.0069 34.0796 37.8326 0.0000 10.3460 0.0000
# 2 34.0796 102.5186 32.4389 0.0000 -5.8361 0.0000
# 3 37.8326 32.4389 123.0287 0.0000 16.3027 0.0000
# 4 0.0000 0.0000 0.0000 25.9622 0.0000 -6.5419
# 5 10.3460 -5.8361 16.3027 0.0000 27.1755 0.0000
# 6 0.0000 0.0000 0.0000 -6.5419 0.0000 14.1239
#
#
#
# Elastic Compliance Matrix: (Units=1/GPa)
#
#
# Indices 1 2 3 4 5 6 
#
# 1 0.015253 -0.004458 -0.002845 0.000000 -0.005058 0.000000
# 2 -0.004458 0.012432 -0.002700 0.000000 0.005987 0.000000
# 3 -0.002845 -0.002700 0.010481 0.000000 -0.005785 0.000000
# 4 0.000000 0.000000 0.000000 0.043607 0.000000 0.020198
# 5 -0.005058 0.005987 -0.005785 0.000000 0.043479 0.000000
# 6 0.000000 0.000000 0.000000 0.020198 0.000000 0.080157
#
#
# Mechanical properties :
#
#
# Convention : Reuss Voigt Hill
#
# Bulk Modulus (GPa) = 55.06675 57.80626 56.43650
# Shear Modulus (GPa) = 21.60109 27.26586 24.43348
#
# Velocity S-wave (km/s) = 3.25804 3.66040 3.46506
# Velocity P-wave (km/s) = 6.41973 6.80226 6.61376
#
# Compressibility (1/GPa) = 0.01815978
#
# Stress axis : x y z
#
# Youngs Moduli (GPa) = 65.55922 80.44010 95.40638
#
# Poissons Ratio (x) = 0.35863 0.27141
# Poissons Ratio (y) = 0.29229 0.25761
# Poissons Ratio (z) = 0.18650 0.21720
#
# Static dielectric constant tensor:
#      x y z
#    x 4.093170 0.000000 0.540980 
#    y 0.000000 3.629800 0.000000 
#    z 0.540980 0.000000 4.427190 
# 
# 
# High freq. dielectric constant tensor:
#      x y z
#    x 1.785650 0.000000 0.000880 
#    y 0.000000 1.782620 0.000000 
#    z 0.000880 0.000000 1.812030 
# 
# From -- ./inp_files/64115.got.cif
#   From: 2010.06.25/outbox.cif.g09.slc.cpg/sg15_33_cif.got.tgz:64115.got - 2010.06.28 07:06:18.
