data_PCOD8142934
_publ_section_title
;
Structure prediction by ZEFSAII (Michael W. Deem and Ramdas Pophale) SiO2 
 PCOD8142934
Probable space group: C 2/C
;
_chemical_formula_sum "Si O2"
_cell_formula_units_Z 56
_cell_length_a 10.595022
_cell_length_b 16.839671
_cell_length_c 16.503610
_cell_angle_alpha 90.000000
_cell_angle_beta 118.180413
_cell_angle_gamma 90.000000
_cell_volume 2595.490617
_symmetry_space_group_name_H-M "C 2/C"
_symmetry_group_IT_number 15
_symmetry_cell_setting 'monoclinic'
loop_
_space_group_symop_operation_xyz
x,y,z
-x,y,1/2-z
-x,-y,-z
x,-y,1/2+z
1/2+x,1/2+y,z
1/2-x,1/2+y,1/2-z
1/2-x,1/2-y,-z
1/2+x,1/2-y,1/2+z
loop_
_atom_site_type_symbol
_atom_site_label
_atom_site_fract_x
_atom_site_fract_y
_atom_site_fract_z
Si Si1 0.518967 0.969182 0.915047
Si Si2 0.849494 0.688224 0.369080
Si Si3 0.901644 0.865455 0.392084
Si Si4 0.915667 0.764021 0.804591
Si Si5 0.345491 0.633764 0.053855
Si Si6 0.180599 0.957760 0.440630
Si Si7 0.308602 0.901820 0.313146
O O1 0.458477 0.881565 0.881559
O O2 0.432886 0.032471 0.833509
O O3 0.690239 0.963860 0.953742
O O4 0.500000 0.000000 0.000000
O O5 0.930439 0.772194 0.385179
O O6 0.722582 0.685665 0.264668
O O7 0.785991 0.677752 0.440975
O O8 0.812994 0.873799 0.448678
O O9 0.805631 0.905396 0.293755
O O10 0.052345 0.910334 0.444022
O O11 0.878145 0.684769 0.842022
O O12 0.000000 0.737375 0.750000
O O13 0.006998 0.819090 0.891126
O O14 0.366628 0.546500 0.098526
O O15 0.226776 0.914629 0.372482
#
# Coordination Sequence:
#
# PCOD8142934 Si02
#       7
#     8   8   8   8   8   8   8
#     4  10  21  39  68  93 127 173 226 255 336 398
#     4  10  21  42  65  99 127 179 219 266 329 397
#     4  11  25  39  68 101 136 166 225 280 332 382
#     4   9  22  39  67  99 127 169 223 277 322 378
#     4  11  22  41  69  98 130 165 228 277 324 383
#     4  11  24  42  66  96 133 175 220 261 343 396
#     4  10  22  43  66  94 131 179 222 264 336 398
#
# _framework density 21.575882
#
# number of rings (size 3 to 8) (size 9 to 14) (size 15 to 20)
#    0.000    1.714    2.857    1.286    6.000    5.143 
#    0.000    0.000    0.000    0.000    0.000    0.000 
#    0.000    0.000    0.000    0.000    0.000    0.000 
#
# Total GULP energy -347213.200738 kJ/mol
# GULP energy per Si atom -12400.471455 kJ/mol
# Density = 2.152677 g / cm^3
# Si number density = 21.575882 Si / 1000 Ang^3
#
#
#
# Elastic Constant Matrix: (Units=GPa)
#
#
# Indices 1 2 3 4 5 6 
#
# 1 76.1258 49.2281 43.1565 0.0000 26.1214 0.0000
# 2 49.2281 144.3980 52.8461 0.0000 22.6697 0.0000
# 3 43.1565 52.8461 84.5088 0.0000 11.2397 0.0000
# 4 0.0000 0.0000 0.0000 30.8624 0.0000 4.1003
# 5 26.1214 22.6697 11.2397 0.0000 38.4477 0.0000
# 6 0.0000 0.0000 0.0000 4.1003 0.0000 46.9340
#
#
#
# Elastic Compliance Matrix: (Units=1/GPa)
#
#
# Indices 1 2 3 4 5 6 
#
# 1 0.024345 -0.003165 -0.008846 0.000000 -0.012088 0.000000
# 2 -0.003165 0.009960 -0.004283 0.000000 -0.002470 0.000000
# 3 -0.008846 -0.004283 0.018618 0.000000 0.003093 0.000000
# 4 0.000000 0.000000 0.000000 0.032782 0.000000 -0.002864
# 5 -0.012088 -0.002470 0.003093 0.000000 0.034775 0.000000
# 6 0.000000 0.000000 0.000000 -0.002864 0.000000 0.021557
#
#
# Mechanical properties :
#
#
# Convention : Reuss Voigt Hill
#
# Bulk Modulus (GPa) = 49.17681 66.16599 57.67140
# Shear Modulus (GPa) = 27.56303 33.90228 30.73265
#
# Velocity S-wave (km/s) = 3.57808 3.96827 3.77821
# Velocity P-wave (km/s) = 6.31761 7.19232 6.76911
#
# Compressibility (1/GPa) = 0.02033479
#
# Stress axis : x y z
#
# Youngs Moduli (GPa) = 41.07557 100.40534 53.71245
#
# Poissons Ratio (x) = 0.31775 0.47513
# Poissons Ratio (y) = 0.12999 0.23007
# Poissons Ratio (z) = 0.36335 0.43008
#
# Static dielectric constant tensor:
#      x y z
#    x 3.881800 0.000000 0.380000 
#    y 0.000000 4.064840 0.000000 
#    z 0.380000 0.000000 3.970620 
# 
# 
# High freq. dielectric constant tensor:
#      x y z
#    x 1.829300 0.000000 0.018290 
#    y 0.000000 1.863380 0.000000 
#    z 0.018290 0.000000 1.842540 
# 
# From -- ./inp_files/198441.got.cif
#   From: 2010.06.25/outbox.cif.g09.slc.cpg/sg15_100_cif.got.tgz:198441.got - 2010.06.28 07:06:18.
