data_PCOD8142901
_publ_section_title
;
Structure prediction by ZEFSAII (Michael W. Deem and Ramdas Pophale) SiO2 
 PCOD8142901
Probable space group: C 2/C
;
_chemical_formula_sum "Si O2"
_cell_formula_units_Z 44
_cell_length_a 8.223350
_cell_length_b 15.708098
_cell_length_c 17.592450
_cell_angle_alpha 90.000000
_cell_angle_beta 61.682789
_cell_angle_gamma 90.000000
_cell_volume 2000.537162
_symmetry_space_group_name_H-M "C 2/C"
_symmetry_group_IT_number 15
_symmetry_cell_setting 'monoclinic'
loop_
_space_group_symop_operation_xyz
x,y,z
-x,y,1/2-z
-x,-y,-z
x,-y,1/2+z
1/2+x,1/2+y,z
1/2-x,1/2+y,1/2-z
1/2-x,1/2-y,-z
1/2+x,1/2-y,1/2+z
loop_
_atom_site_type_symbol
_atom_site_label
_atom_site_fract_x
_atom_site_fract_y
_atom_site_fract_z
Si Si1 0.762857 0.077499 0.733500
Si Si2 0.500000 0.223017 0.750000
Si Si3 0.823773 0.959420 0.384083
Si Si4 0.202365 0.598173 0.196480
Si Si5 0.234066 0.860962 0.650585
Si Si6 0.170770 0.339971 0.543767
O O1 0.664163 0.167286 0.747555
O O2 0.711958 0.050654 0.830552
O O3 0.980031 0.086878 0.669075
O O4 0.690177 0.004967 0.691585
O O5 0.604089 0.279481 0.661794
O O6 0.718237 0.916698 0.476523
O O7 0.831700 0.062677 0.391455
O O8 0.316959 0.619570 0.248049
O O9 0.272429 0.638206 0.101467
O O10 0.000000 0.637541 0.250000
O O11 0.449044 0.838095 0.595221
O O12 0.250000 0.250000 0.500000
#
# Coordination Sequence:
#
# PCOD8142901 Si02
#       6
#     8   4   8   8   8   8
#     4  10  21  39  67  93 122 171 215 267 317 388
#     4  12  22  38  68  96 120 162 230 264 312 382
#     4  10  22  43  65  92 132 172 214 260 333 382
#     4   9  19  39  63  89 125 167 213 258 322 379
#     4  10  22  41  64  92 131 173 211 265 322 389
#     4  11  23  39  65 100 132 170 216 271 320 380
#
# _framework density 21.994092999999999
#
# number of rings (size 3 to 8) (size 9 to 14) (size 15 to 20)
#    0.000    1.818    0.909    3.818    2.545    0.727 
#    0.000    0.909    0.000    0.000    0.000    0.000 
#    0.000    0.000    0.000    0.000    0.000    0.000 
#
# Total GULP energy -272585.725076 kJ/mol
# GULP energy per Si atom -12390.260231 kJ/mol
# Density = 2.194403 g / cm^3
# Si number density = 21.994093 Si / 1000 Ang^3
#
#
#
# Elastic Constant Matrix: (Units=GPa)
#
#
# Indices 1 2 3 4 5 6 
#
# 1 72.8908 49.5036 33.0071 0.0000 -10.1412 0.0000
# 2 49.5036 167.5508 65.5569 0.0000 -4.4780 0.0000
# 3 33.0071 65.5569 122.7338 0.0000 2.6566 0.0000
# 4 0.0000 0.0000 0.0000 35.7933 0.0000 -14.6216
# 5 -10.1412 -4.4780 2.6566 0.0000 33.4846 0.0000
# 6 0.0000 0.0000 0.0000 -14.6216 0.0000 37.0346
#
#
#
# Elastic Compliance Matrix: (Units=1/GPa)
#
#
# Indices 1 2 3 4 5 6 
#
# 1 0.018635 -0.004246 -0.002859 0.000000 0.005303 0.000000
# 2 -0.004246 0.008572 -0.003440 0.000000 0.000133 0.000000
# 3 -0.002859 -0.003440 0.010801 0.000000 -0.002183 0.000000
# 4 0.000000 0.000000 0.000000 0.033310 0.000000 0.013151
# 5 0.005303 0.000133 -0.002183 0.000000 0.031662 0.000000
# 6 0.000000 0.000000 0.000000 0.013151 0.000000 0.032194
#
#
# Mechanical properties :
#
#
# Convention : Reuss Voigt Hill
#
# Bulk Modulus (GPa) = 59.10139 73.25672 66.17906
# Shear Modulus (GPa) = 30.88290 35.60302 33.24296
#
# Velocity S-wave (km/s) = 3.75126 4.02774 3.89195
# Velocity P-wave (km/s) = 6.75962 7.41687 7.09586
#
# Compressibility (1/GPa) = 0.01692007
#
# Stress axis : x y z
#
# Youngs Moduli (GPa) = 53.66334 116.65665 92.58338
#
# Poissons Ratio (x) = 0.49527 0.26465
# Poissons Ratio (y) = 0.22783 0.31847
# Poissons Ratio (z) = 0.15340 0.40128
#
# Static dielectric constant tensor:
#      x y z
#    x 3.902640 0.000000 -0.025830 
#    y 0.000000 4.127780 0.000000 
#    z -0.025830 0.000000 3.897780 
# 
# 
# High freq. dielectric constant tensor:
#      x y z
#    x 1.865140 0.000000 -0.018080 
#    y 0.000000 1.873740 0.000000 
#    z -0.018080 0.000000 1.844430 
# 
# From -- ./inp_files/182385.got.cif
#   From: 2010.06.25/outbox.cif.g09.slc.cpg/sg15_92_cif.got.tgz:182385.got - 2010.06.28 07:06:18.
