data_PCOD8142902
_publ_section_title
;
Structure prediction by ZEFSAII (Michael W. Deem and Ramdas Pophale) SiO2 
 PCOD8142902
Probable space group: C 2/C
;
_chemical_formula_sum "Si O2"
_cell_formula_units_Z 56
_cell_length_a 20.496158
_cell_length_b 9.627485
_cell_length_c 16.774912
_cell_angle_alpha 90.000000
_cell_angle_beta 53.939728
_cell_angle_gamma 90.000000
_cell_volume 2675.906380
_symmetry_space_group_name_H-M "C 2/C"
_symmetry_group_IT_number 15
_symmetry_cell_setting 'monoclinic'
loop_
_space_group_symop_operation_xyz
x,y,z
-x,y,1/2-z
-x,-y,-z
x,-y,1/2+z
1/2+x,1/2+y,z
1/2-x,1/2+y,1/2-z
1/2-x,1/2-y,-z
1/2+x,1/2-y,1/2+z
loop_
_atom_site_type_symbol
_atom_site_label
_atom_site_fract_x
_atom_site_fract_y
_atom_site_fract_z
Si Si1 0.775076 0.102910 0.683997
Si Si2 0.946857 0.994384 0.114951
Si Si3 0.482172 0.782820 0.669833
Si Si4 0.923082 0.525498 0.946756
Si Si5 0.950696 0.262022 0.212500
Si Si6 0.299763 0.138490 0.915315
Si Si7 0.156368 0.609035 0.334532
O O1 0.763803 0.062227 0.598019
O O2 0.778637 0.270052 0.692726
O O3 0.857096 0.040268 0.655486
O O4 0.702115 0.035802 0.786924
O O5 0.946707 0.147294 0.148768
O O6 0.983673 0.880557 0.149109
O O7 0.000000 0.000000 0.000000
O O8 0.500000 0.806990 0.750000
O O9 0.395684 0.846884 0.705538
O O10 0.552636 0.863106 0.569755
O O11 0.845552 0.539853 0.944526
O O12 0.001549 0.604489 0.855525
O O13 0.903536 0.584556 0.047903
O O14 0.861398 0.296358 0.306752
O O15 0.000000 0.197025 0.250000
O O16 0.250000 0.250000 0.000000
#
# Coordination Sequence:
#
# PCOD8142902 Si02
#       7
#     8   8   8   8   8   8   8
#     4  11  23  40  60  93 125 167 206 263 322 374
#     4  11  25  41  63  89 130 170 215 259 322 389
#     4  11  23  41  62  94 130 164 207 268 322 377
#     4  11  22  41  68  98 123 166 222 264 319 382
#     4  10  21  39  67  93 122 171 216 263 315 382
#     4  11  22  39  67  94 128 162 218 268 314 378
#     4  11  23  40  65  91 132 165 212 264 320 385
#
# _framework density 20.927489000000001
#
# number of rings (size 3 to 8) (size 9 to 14) (size 15 to 20)
#    0.000    1.143    1.429    6.429    2.000    2.286 
#    0.000    0.000    0.000    4.286    0.000    0.000 
#    0.000    0.000    0.000    0.000    0.000    0.000 
#
# Total GULP energy -347136.740112 kJ/mol
# GULP energy per Si atom -12397.740718 kJ/mol
# Density = 2.087986 g / cm^3
# Si number density = 20.927489 Si / 1000 Ang^3
#
#
#
# Elastic Constant Matrix: (Units=GPa)
#
#
# Indices 1 2 3 4 5 6 
#
# 1 102.4613 19.7024 26.9696 -0.0002 19.9324 0.0004
# 2 19.7024 54.6670 13.6230 -0.0010 2.8394 0.0015
# 3 26.9696 13.6230 112.0227 -0.0003 4.3621 0.0004
# 4 -0.0002 -0.0010 -0.0003 21.6859 0.0002 14.7140
# 5 19.9324 2.8394 4.3621 0.0002 33.5869 -0.0002
# 6 0.0004 0.0015 0.0004 14.7140 -0.0002 3.4892
#
#
#
# Elastic Compliance Matrix: (Units=1/GPa)
#
#
# Indices 1 2 3 4 5 6 
#
# 1 0.012350 -0.003533 -0.002281 0.000000 -0.006734 0.000000
# 2 -0.003533 0.019932 -0.001597 -0.000003 0.000619 0.000006
# 3 -0.002281 -0.001597 0.009661 0.000000 0.000234 0.000000
# 4 0.000000 -0.000003 0.000000 -0.024775 0.000001 0.104476
# 5 -0.006734 0.000619 0.000234 0.000001 0.033687 -0.000002
# 6 0.000000 0.000006 0.000000 0.104476 -0.000002 -0.153979
#
#
# Mechanical properties :
#
#
# Convention : Reuss Voigt Hill
#
# Bulk Modulus (GPa) = 36.87382 43.30455 40.08919
# Shear Modulus (GPa) = -63.08194 25.67611 -18.70292
#
# Velocity S-wave (km/s) = -5.49623 3.50653 -2.99273
# Velocity P-wave (km/s) = 4.75605 6.09359 2.69369
#
# Compressibility (1/GPa) = 0.02711951
#
# Stress axis : x y z
#
# Youngs Moduli (GPa) = 80.97441 50.17131 103.50729
#
# Poissons Ratio (x) = 0.17724 0.23614
# Poissons Ratio (y) = 0.28605 0.16535
# Poissons Ratio (z) = 0.18473 0.08015
#
# Static dielectric constant tensor:
#      x y z
#    x 4.201520 0.000000 0.095140 
#    y 0.000000 3.901480 0.000000 
#    z 0.095140 0.000000 3.648370 
# 
# 
# High freq. dielectric constant tensor:
#      x y z
#    x 1.845400 0.000000 0.008110 
#    y 0.000000 1.811170 0.000000 
#    z 0.008110 0.000000 1.815370 
# 
# From -- ./inp_files/213776.got.cif
#   From: 2010.06.25/outbox.cif.g09.slc.cpg/sg15_107_cif.got.tgz:213776.got - 2010.06.28 07:06:18.
