data_PCOD8142904
_publ_section_title
;
Structure prediction by ZEFSAII (Michael W. Deem and Ramdas Pophale) SiO2 
 PCOD8142904
Probable space group: C 2/C
;
_chemical_formula_sum "Si O2"
_cell_formula_units_Z 56
_cell_length_a 30.088751
_cell_length_b 8.643000
_cell_length_c 19.346235
_cell_angle_alpha 90.000000
_cell_angle_beta 32.544163
_cell_angle_gamma 90.000000
_cell_volume 2706.491463
_symmetry_space_group_name_H-M "C 2/C"
_symmetry_group_IT_number 15
_symmetry_cell_setting 'monoclinic'
loop_
_space_group_symop_operation_xyz
x,y,z
-x,y,1/2-z
-x,-y,-z
x,-y,1/2+z
1/2+x,1/2+y,z
1/2-x,1/2+y,1/2-z
1/2-x,1/2-y,-z
1/2+x,1/2-y,1/2+z
loop_
_atom_site_type_symbol
_atom_site_label
_atom_site_fract_x
_atom_site_fract_y
_atom_site_fract_z
Si Si1 0.051311 0.881792 0.371831
Si Si2 0.639669 0.618910 0.892424
Si Si3 0.040622 0.468158 0.267480
Si Si4 0.215431 0.564529 0.239698
Si Si5 0.186171 0.338825 0.632473
Si Si6 0.552823 0.905570 0.485243
Si Si7 0.997096 0.125289 0.176462
O O1 0.074644 0.944138 0.418606
O O2 0.127426 0.778105 0.249038
O O3 0.968784 0.776860 0.486540
O O4 0.046911 0.011038 0.319063
O O5 0.701922 0.480743 0.828205
O O6 0.686354 0.771730 0.807299
O O7 0.589339 0.659093 0.027943
O O8 0.130574 0.544515 0.160080
O O9 0.000000 0.522801 0.250000
O O10 0.970273 0.521679 0.411822
O O11 0.054735 0.283939 0.252480
O O12 0.232781 0.571558 0.134080
O O13 0.148689 0.429875 0.342476
O O14 0.250000 0.250000 0.500000
O O15 0.500000 0.000000 0.500000
O O16 0.000000 0.052459 0.250000
#
# Coordination Sequence:
#
# PCOD8142904 Si02
#       7
#     8   8   8   8   8   8   8
#     4  10  23  40  68  95 124 174 216 277 313 400
#     4  11  24  42  62  96 130 164 216 265 331 388
#     4  10  21  39  67  93 125 177 214 270 321 395
#     4  11  24  40  67  96 130 172 209 277 326 390
#     4  10  23  43  64  94 133 168 219 269 337 391
#     4  11  18  42  68  89 125 169 223 260 322 390
#     4  11  24  42  64  95 133 172 225 266 325 393
#
# _framework density 20.690994
#
# number of rings (size 3 to 8) (size 9 to 14) (size 15 to 20)
#    0.000    1.429    5.714    0.429    4.000    5.714 
#    0.000    0.714    0.000    0.000    0.000    0.000 
#    0.000    0.000    0.000    0.000    0.000    0.000 
#
# Total GULP energy -347161.718016 kJ/mol
# GULP energy per Si atom -12398.632786 kJ/mol
# Density = 2.064390 g / cm^3
# Si number density = 20.690994 Si / 1000 Ang^3
#
#
#
# Elastic Constant Matrix: (Units=GPa)
#
#
# Indices 1 2 3 4 5 6 
#
# 1 182.5951 66.8315 54.7616 -0.0009 14.1630 0.0006
# 2 66.8315 80.3903 30.8429 0.0097 3.8569 -0.0085
# 3 54.7616 30.8429 83.0470 0.0209 13.6670 -0.0025
# 4 -0.0009 0.0097 0.0209 34.5961 -0.0045 -2.5458
# 5 14.1630 3.8569 13.6670 -0.0045 36.5228 -0.0020
# 6 0.0006 -0.0085 -0.0025 -2.5458 -0.0020 38.9817
#
#
#
# Elastic Compliance Matrix: (Units=1/GPa)
#
#
# Indices 1 2 3 4 5 6 
#
# 1 0.008765 -0.005939 -0.003323 0.000004 -0.001529 -0.000001
# 2 -0.005939 0.018539 -0.003225 -0.000003 0.001552 0.000004
# 3 -0.003323 -0.003225 0.016157 -0.000010 -0.004417 0.000000
# 4 0.000004 -0.000003 -0.000010 0.029045 0.000006 0.001897
# 5 -0.001529 0.001552 -0.004417 0.000006 0.029462 0.000002
# 6 -0.000001 0.000004 0.000000 0.001897 0.000002 0.025777
#
#
# Mechanical properties :
#
#
# Convention : Reuss Voigt Hill
#
# Bulk Modulus (GPa) = 54.08587 72.32270 63.20429
# Shear Modulus (GPa) = 31.47029 34.92655 33.19842
#
# Velocity S-wave (km/s) = 3.90419 4.11299 4.00995
# Velocity P-wave (km/s) = 6.82057 7.58849 7.21475
#
# Compressibility (1/GPa) = 0.01848912
#
# Stress axis : x y z
#
# Youngs Moduli (GPa) = 114.08594 53.93989 61.89315
#
# Poissons Ratio (x) = 0.32034 0.20565
# Poissons Ratio (y) = 0.67753 0.19958
# Poissons Ratio (z) = 0.37908 0.17393
#
# Static dielectric constant tensor:
#      x y z
#    x 4.016340 0.000090 0.425890 
#    y 0.000090 3.525650 -0.000240 
#    z 0.425890 -0.000240 0.370170 
# 
# 
# High freq. dielectric constant tensor:
#      x y z
#    x 1.821350 0.000000 0.012480 
#    y 0.000000 1.812710 0.000000 
#    z 0.012480 0.000000 1.803780 
# 
# From -- ./inp_files/258982.got.cif
#   From: 2010.06.25/outbox.cif.g09.slc.cpg/sg15_130_cif.got.tgz:258982.got - 2010.06.28 07:06:18.
