data_PCOD8142977
_publ_section_title
;
Structure prediction by ZEFSAII (Michael W. Deem and Ramdas Pophale) SiO2 
 PCOD8142977
Probable space group: C 2/C
;
_chemical_formula_sum "Si O2"
_cell_formula_units_Z 48
_cell_length_a 8.257164
_cell_length_b 19.891848
_cell_length_c 14.793023
_cell_angle_alpha 90.000000
_cell_angle_beta 120.338926
_cell_angle_gamma 90.000000
_cell_volume 2097.008694
_symmetry_space_group_name_H-M "C 2/C"
_symmetry_group_IT_number 15
_symmetry_cell_setting 'monoclinic'
loop_
_space_group_symop_operation_xyz
x,y,z
-x,y,1/2-z
-x,-y,-z
x,-y,1/2+z
1/2+x,1/2+y,z
1/2-x,1/2+y,1/2-z
1/2-x,1/2-y,-z
1/2+x,1/2-y,1/2+z
loop_
_atom_site_type_symbol
_atom_site_label
_atom_site_fract_x
_atom_site_fract_y
_atom_site_fract_z
Si Si1 0.681561 0.674020 0.418433
Si Si2 0.959239 0.162024 0.539670
Si Si3 0.500000 0.567811 0.250000
Si Si4 0.604232 0.527350 0.618293
Si Si5 0.873839 0.723562 0.136558
Si Si6 0.000000 0.584829 0.750000
Si Si7 0.968998 0.301644 0.380690
O O1 0.592670 0.654385 0.490547
O O2 0.658287 0.615801 0.337773
O O3 0.904144 0.681112 0.495411
O O4 0.583157 0.743444 0.357568
O O5 0.002518 0.231337 0.605878
O O6 0.740294 0.164533 0.446265
O O7 0.998529 0.097317 0.613193
O O8 0.409145 0.523231 0.302213
O O9 0.500000 0.500000 0.500000
O O10 0.826794 0.539402 0.666354
O O11 0.728673 0.775684 0.140156
O O12 0.000000 0.689866 0.250000
O O13 0.929921 0.632458 0.811092
#
# Coordination Sequence:
#
# PCOD8142977 Si02
#       7
#     8   8   4   8   8   4   8
#     4  10  21  44  67 100 127 169 216 281 331 395
#     4  10  21  44  63  95 138 164 213 285 321 386
#     4  12  25  46  70  92 133 188 228 260 338 402
#     4  12  26  48  67  93 136 179 227 276 317 398
#     4  10  22  39  67 104 132 171 209 268 352 402
#     4  12  23  42  68  96 127 174 224 270 340 384
#     4  10  21  39  71 100 132 160 217 285 335 392
#
# _framework density 22.889747
#
# number of rings (size 3 to 8) (size 9 to 14) (size 15 to 20)
#    0.000    1.333    3.333    1.500    3.500    0.000 
#   19.500    1.667    0.000    0.000    0.000    0.000 
#    0.000    0.000    0.000    0.000    0.000    0.000 
#
# Total GULP energy -297474.953937 kJ/mol
# GULP energy per Si atom -12394.789747 kJ/mol
# Density = 2.283765 g / cm^3
# Si number density = 22.889747 Si / 1000 Ang^3
#
#
#
# Elastic Constant Matrix: (Units=GPa)
#
#
# Indices 1 2 3 4 5 6 
#
# 1 66.3679 23.1542 31.9977 0.0000 6.5950 0.0000
# 2 23.1542 100.9518 51.0867 0.0000 6.2392 0.0000
# 3 31.9977 51.0867 132.7934 0.0000 10.4786 0.0000
# 4 0.0000 0.0000 0.0000 60.3670 0.0000 -7.8138
# 5 6.5950 6.2392 10.4786 0.0000 32.6269 0.0000
# 6 0.0000 0.0000 0.0000 -7.8138 0.0000 21.6028
#
#
#
# Elastic Compliance Matrix: (Units=1/GPa)
#
#
# Indices 1 2 3 4 5 6 
#
# 1 0.017617 -0.002293 -0.003198 0.000000 -0.002096 0.000000
# 2 -0.002293 0.012622 -0.004257 0.000000 -0.000583 0.000000
# 3 -0.003198 -0.004257 0.010079 0.000000 -0.001777 0.000000
# 4 0.000000 0.000000 0.000000 0.017379 0.000000 0.006286
# 5 -0.002096 -0.000583 -0.001777 0.000000 0.031755 0.000000
# 6 0.000000 0.000000 0.000000 0.006286 0.000000 0.048564
#
#
# Mechanical properties :
#
#
# Convention : Reuss Voigt Hill
#
# Bulk Modulus (GPa) = 48.02462 56.95447 52.48955
# Shear Modulus (GPa) = 30.40376 35.84430 33.12403
#
# Velocity S-wave (km/s) = 3.64850 3.96151 3.80822
# Velocity P-wave (km/s) = 6.22697 6.77206 6.50523
#
# Compressibility (1/GPa) = 0.02082265
#
# Stress axis : x y z
#
# Youngs Moduli (GPa) = 56.76209 79.22626 99.21653
#
# Poissons Ratio (x) = 0.18167 0.31725
# Poissons Ratio (y) = 0.13016 0.42239
# Poissons Ratio (z) = 0.18150 0.33729
#
# Static dielectric constant tensor:
#      x y z
#    x 3.849290 0.000000 0.013730 
#    y 0.000000 4.281040 0.000000 
#    z 0.013730 0.000000 4.445890 
# 
# 
# High freq. dielectric constant tensor:
#      x y z
#    x 1.884180 0.000000 0.002970 
#    y 0.000000 1.889160 0.000000 
#    z 0.002970 0.000000 1.922820 
# 
# From -- ./inp_files/192353.got.cif
#   From: 2010.06.25/outbox.cif.g09.slc.cpg/sg15_97_cif.got.tgz:192353.got - 2010.06.28 07:06:18.
