data_PCOD8142507
_publ_section_title
;
Structure prediction by ZEFSAII (Michael W. Deem and Ramdas Pophale) SiO2 
 PCOD8142507
Probable space group: C 2/C
;
_chemical_formula_sum "Si O2"
_cell_formula_units_Z 52
_cell_length_a 25.963705
_cell_length_b 6.475949
_cell_length_c 19.711988
_cell_angle_alpha 90.000000
_cell_angle_beta 123.066812
_cell_angle_gamma 90.000000
_cell_volume 2777.554679
_symmetry_space_group_name_H-M "C 2/C"
_symmetry_group_IT_number 15
_symmetry_cell_setting 'monoclinic'
loop_
_space_group_symop_operation_xyz
x,y,z
-x,y,1/2-z
-x,-y,-z
x,-y,1/2+z
1/2+x,1/2+y,z
1/2-x,1/2+y,1/2-z
1/2-x,1/2-y,-z
1/2+x,1/2-y,1/2+z
loop_
_atom_site_type_symbol
_atom_site_label
_atom_site_fract_x
_atom_site_fract_y
_atom_site_fract_z
Si Si1 0.313784 0.670367 0.649842
Si Si2 0.329578 0.828497 0.330777
Si Si3 0.238506 0.017550 0.662490
Si Si4 0.500000 0.849298 0.250000
Si Si5 0.195681 0.591202 0.062859
Si Si6 0.391031 0.703687 0.246286
Si Si7 0.876452 0.495269 0.119798
O O1 0.253568 0.548326 0.581628
O O2 0.360788 0.523496 0.725036
O O3 0.292369 0.858436 0.681265
O O4 0.350534 0.772733 0.612973
O O5 0.264313 0.856268 0.245221
O O6 0.323331 0.607863 0.363661
O O7 0.337837 0.008591 0.392518
O O8 0.384794 0.811846 0.315856
O O9 0.219272 0.175947 0.589674
O O10 0.463200 0.702837 0.277280
O O11 0.451301 0.994662 0.174817
O O12 0.145836 0.591831 0.967769
O O13 0.353586 0.840320 0.163551
#
# Coordination Sequence:
#
# PCOD8142507 Si02
#       7
#     8   8   8   4   8   8   8
#     4  11  20  34  62  90 116 153 186 237 301 350
#     4  11  19  34  55  87 120 161 187 226 297 357
#     4  11  19  33  53  87 126 154 183 221 296 369
#     4   8  22  46  60  74 112 158 210 248 286 326
#     4  11  23  34  58  96 130 146 183 241 298 361
#     4  10  21  39  61  80 113 155 205 241 281 346
#     4  10  22  41  60  86 117 157 198 247 283 342
#
# _framework density 18.721502999999998
#
# number of rings (size 3 to 8) (size 9 to 14) (size 15 to 20)
#    0.923    0.615    4.615    1.385    0.000    5.538 
#    0.000    0.769    0.000    0.923    0.000    0.000 
#    0.000    0.000    0.000    0.000    0.000    0.000 
#
# Total GULP energy -322160.799114 kJ/mol
# GULP energy per Si atom -12390.799966 kJ/mol
# Density = 1.867889 g / cm^3
# Si number density = 18.721503 Si / 1000 Ang^3
#
#
#
# Elastic Constant Matrix: (Units=GPa)
#
#
# Indices 1 2 3 4 5 6 
#
# 1 132.9044 47.4892 43.4924 0.0000 2.2299 0.0000
# 2 47.4892 94.4009 35.7783 0.0001 2.1408 0.0002
# 3 43.4924 35.7783 93.1551 0.0000 3.4590 0.0000
# 4 0.0000 0.0001 0.0000 17.5154 0.0000 -4.9341
# 5 2.2299 2.1408 3.4590 0.0000 21.8477 0.0000
# 6 0.0000 0.0002 0.0000 -4.9341 0.0000 28.5993
#
#
#
# Elastic Compliance Matrix: (Units=1/GPa)
#
#
# Indices 1 2 3 4 5 6 
#
# 1 0.009916 -0.003783 -0.003171 0.000000 -0.000139 0.000000
# 2 -0.003783 0.013846 -0.003536 0.000000 -0.000411 0.000000
# 3 -0.003171 -0.003536 0.013629 0.000000 -0.001488 0.000000
# 4 0.000000 0.000000 0.000000 0.060009 0.000000 0.010353
# 5 -0.000139 -0.000411 -0.001488 0.000000 0.046061 0.000000
# 6 0.000000 0.000000 0.000000 0.010353 0.000000 0.036752
#
#
# Mechanical properties :
#
#
# Convention : Reuss Voigt Hill
#
# Bulk Modulus (GPa) = 60.94206 63.77559 62.35882
# Shear Modulus (GPa) = 24.19374 26.50586 25.34980
#
# Velocity S-wave (km/s) = 3.59875 3.76679 3.68373
# Velocity P-wave (km/s) = 7.06333 7.28407 7.17455
#
# Compressibility (1/GPa) = 0.01640903
#
# Stress axis : x y z
#
# Youngs Moduli (GPa) = 100.84480 72.22352 73.37357
#
# Poissons Ratio (x) = 0.27324 0.23270
# Poissons Ratio (y) = 0.38152 0.25947
# Poissons Ratio (z) = 0.31983 0.25540
#
# Static dielectric constant tensor:
#      x y z
#    x 3.397960 0.000000 -0.149210 
#    y 0.000000 3.554550 0.000000 
#    z -0.149210 0.000000 3.002980 
# 
# 
# High freq. dielectric constant tensor:
#      x y z
#    x 1.717310 0.000000 -0.019720 
#    y 0.000000 1.733440 0.000000 
#    z -0.019720 0.000000 1.686120 
# 
# From -- ./inp_files/256800.got.cif
#   From: 2010.06.25/outbox.cif.g09.slc.cpg/sg15_129_cif.got.tgz:256800.got - 2010.06.28 07:06:18.
