data_PCOD8142625
_publ_section_title
;
Structure prediction by ZEFSAII (Michael W. Deem and Ramdas Pophale) SiO2 
 PCOD8142625
Probable space group: C 2/C
;
_chemical_formula_sum "Si O2"
_cell_formula_units_Z 56
_cell_length_a 15.894898
_cell_length_b 22.076374
_cell_length_c 17.884938
_cell_angle_alpha 90.000000
_cell_angle_beta 25.423169
_cell_angle_gamma 90.000000
_cell_volume 2694.227130
_symmetry_space_group_name_H-M "C 2/C"
_symmetry_group_IT_number 15
_symmetry_cell_setting 'monoclinic'
loop_
_space_group_symop_operation_xyz
x,y,z
-x,y,1/2-z
-x,-y,-z
x,-y,1/2+z
1/2+x,1/2+y,z
1/2-x,1/2+y,1/2-z
1/2-x,1/2-y,-z
1/2+x,1/2-y,1/2+z
loop_
_atom_site_type_symbol
_atom_site_label
_atom_site_fract_x
_atom_site_fract_y
_atom_site_fract_z
Si Si1 0.239501 0.329127 0.842909
Si Si2 0.885477 0.559925 0.416927
Si Si3 0.025603 0.800659 0.373044
Si Si4 0.500000 0.122500 0.750000
Si Si5 0.279113 0.559346 0.418104
Si Si6 0.500000 0.373567 0.250000
Si Si7 0.853423 0.668194 0.243515
Si Si8 0.356156 0.798528 0.229144
O O1 0.295401 0.388261 0.843871
O O2 0.265643 0.345353 0.735910
O O3 0.373212 0.269638 0.749472
O O4 0.019841 0.308169 0.035561
O O5 0.854892 0.499754 0.493869
O O6 0.668816 0.586047 0.575926
O O7 0.000000 0.540547 0.250000
O O8 0.011230 0.610396 0.356333
O O9 0.095950 0.833843 0.240492
O O10 0.804836 0.823929 0.563979
O O11 0.016517 0.728775 0.365889
O O12 0.159031 0.812849 0.339882
O O13 0.682341 0.084861 0.571444
O O14 0.608018 0.159277 0.728662
O O15 0.500000 0.536071 0.250000
#
# Coordination Sequence:
#
# PCOD8142625 Si02
#       8
#     8   8   8   4   8   4   8   8
#     4  10  22  39  63  95 132 168 212 265 327 388
#     4  12  24  44  64  91 128 171 228 267 318 379
#     4  11  23  39  65 100 138 167 210 268 329 390
#     4  10  24  40  68  96 130 170 222 264 326 388
#     4  11  25  41  66  91 126 174 219 274 316 381
#     4  12  24  42  68  98 128 176 218 262 332 386
#     4  11  23  40  64  96 132 171 213 269 323 393
#     4  10  21  39  62  98 134 168 206 272 324 390
#
# _framework density 20.785181000000001
#
# number of rings (size 3 to 8) (size 9 to 14) (size 15 to 20)
#    0.000    1.143    2.857    5.143    6.000    2.857 
#    0.000    0.000    0.000    4.286    0.000    0.000 
#    0.000    0.000    0.000    0.000    0.000    0.000 
#
# Total GULP energy -346924.514106 kJ/mol
# GULP energy per Si atom -12390.161218 kJ/mol
# Density = 2.073787 g / cm^3
# Si number density = 20.785181 Si / 1000 Ang^3
#
#
#
# Elastic Constant Matrix: (Units=GPa)
#
#
# Indices 1 2 3 4 5 6 
#
# 1 76.2205 42.2061 28.0717 -0.0356 8.6545 0.0857
# 2 42.2061 130.3197 52.1797 -0.1657 -3.0054 0.1519
# 3 28.0717 52.1797 103.2111 -0.2231 3.3012 0.3440
# 4 -0.0356 -0.1657 -0.2231 33.9870 0.0972 -6.7961
# 5 8.6545 -3.0054 3.3012 0.0972 28.4092 -0.1126
# 6 0.0857 0.1519 0.3440 -6.7961 -0.1126 33.3992
#
#
#
# Elastic Compliance Matrix: (Units=1/GPa)
#
#
# Indices 1 2 3 4 5 6 
#
# 1 0.017200 -0.004884 -0.002032 -0.000008 -0.005520 -0.000021
# 2 -0.004884 0.011080 -0.004375 0.000015 0.003168 0.000021
# 3 -0.002032 -0.004375 0.012495 0.000042 -0.001296 -0.000099
# 4 -0.000008 0.000015 0.000042 0.030671 -0.000081 0.006240
# 5 -0.005520 0.003168 -0.001296 -0.000081 0.037368 0.000123
# 6 -0.000021 0.000021 -0.000099 0.006240 0.000123 0.031212
#
#
# Mechanical properties :
#
#
# Convention : Reuss Voigt Hill
#
# Bulk Modulus (GPa) = 54.96621 61.62956 58.29788
# Shear Modulus (GPa) = 29.64338 31.64533 30.64436
#
# Velocity S-wave (km/s) = 3.78057 3.90615 3.84387
# Velocity P-wave (km/s) = 6.74976 7.07524 6.91442
#
# Compressibility (1/GPa) = 0.01819300
#
# Stress axis : x y z
#
# Youngs Moduli (GPa) = 58.14113 90.25429 80.03130
#
# Poissons Ratio (x) = 0.44080 0.16264
# Poissons Ratio (y) = 0.28396 0.35010
# Poissons Ratio (z) = 0.11816 0.39482
#
# Static dielectric constant tensor:
#      x y z
#    x 3.536720 -0.000010 0.263080 
#    y -0.000010 3.903100 0.000650 
#    z 0.263080 0.000650 3.993590 
# 
# 
# High freq. dielectric constant tensor:
#      x y z
#    x 1.790770 -0.000010 0.017210 
#    y -0.000010 1.819010 0.000040 
#    z 0.017210 0.000040 1.833930 
# 
# From -- ./inp_files/250029.got.cif
#   From: 2010.06.25/outbox.cif.g09.slc.cpg/sg15_126_cif.got.tgz:250029.got - 2010.06.28 07:06:18.
