data_PCOD8142056
_publ_section_title
;
Structure prediction by ZEFSAII (Michael W. Deem and Ramdas Pophale) SiO2 
 PCOD8142056
Probable space group: C 2/C
;
_chemical_formula_sum "Si O2"
_cell_formula_units_Z 40
_cell_length_a 12.147843
_cell_length_b 12.304165
_cell_length_c 19.315685
_cell_angle_alpha 90.000000
_cell_angle_beta 139.121866
_cell_angle_gamma 90.000000
_cell_volume 1889.467534
_symmetry_space_group_name_H-M "C 2/C"
_symmetry_group_IT_number 15
_symmetry_cell_setting 'monoclinic'
loop_
_space_group_symop_operation_xyz
x,y,z
-x,y,1/2-z
-x,-y,-z
x,-y,1/2+z
1/2+x,1/2+y,z
1/2-x,1/2+y,1/2-z
1/2-x,1/2-y,-z
1/2+x,1/2-y,1/2+z
loop_
_atom_site_type_symbol
_atom_site_label
_atom_site_fract_x
_atom_site_fract_y
_atom_site_fract_z
Si Si1 0.912002 0.492879 0.383240
Si Si2 0.935581 0.268174 0.058018
Si Si3 0.399787 0.363492 0.134583
Si Si4 0.046223 0.080021 0.199756
Si Si5 0.531744 0.788979 0.951195
O O1 0.708968 0.500146 0.285896
O O2 0.000000 0.500000 0.500000
O O3 0.980596 0.383655 0.378313
O O4 0.965609 0.607767 0.374477
O O5 0.054138 0.170318 0.143398
O O6 0.750000 0.250000 0.000000
O O7 0.923761 0.262777 0.968983
O O8 0.500000 0.330568 0.250000
O O9 0.395376 0.492910 0.116490
O O10 0.480691 0.313248 0.104226
O O11 0.218251 0.315697 0.065213
O O12 0.000000 0.140928 0.250000
#
# Coordination Sequence:
#
# PCOD8142056 Si02
#       5
#     8   8   8   8   8
#     4  10  21  38  61  89 129 166 212 260 320 387
#     4  11  22  40  63  94 132 167 212 270 324 386
#     4  10  21  40  65  87 120 169 216 257 311 385
#     4  11  22  37  65  90 127 173 217 255 326 385
#     4  10  22  39  65  90 126 164 213 261 321 375
#
# _framework density 21.169985
#
# number of rings (size 3 to 8) (size 9 to 14) (size 15 to 20)
#    0.000    1.600    0.000    8.400    5.600    0.800 
#    0.000    1.000    0.000    0.000    0.000    0.000 
#    0.000    0.000    0.000    0.000    0.000    0.000 
#
# Total GULP energy -247773.642569 kJ/mol
# GULP energy per Si atom -12388.682128 kJ/mol
# Density = 2.112180 g / cm^3
# Si number density = 21.169985 Si / 1000 Ang^3
#
#
#
# Elastic Constant Matrix: (Units=GPa)
#
#
# Indices 1 2 3 4 5 6 
#
# 1 127.5299 58.9421 33.9186 0.0000 3.9526 0.0000
# 2 58.9421 133.4212 49.7518 0.0000 -7.2745 0.0000
# 3 33.9186 49.7518 71.3573 0.0000 -1.3934 0.0000
# 4 0.0000 0.0000 0.0000 32.1160 0.0000 6.0884
# 5 3.9526 -7.2745 -1.3934 0.0000 20.4660 0.0000
# 6 0.0000 0.0000 0.0000 6.0884 0.0000 -21.8374
#
#
#
# Elastic Compliance Matrix: (Units=1/GPa)
#
#
# Indices 1 2 3 4 5 6 
#
# 1 0.010369 -0.003934 -0.002256 0.000000 -0.003554 0.000000
# 2 -0.003934 0.011824 -0.006286 0.000000 0.004535 0.000000
# 3 -0.002256 -0.006286 0.019459 0.000000 -0.000474 0.000000
# 4 0.000000 0.000000 0.000000 0.029574 0.000000 0.008245
# 5 -0.003554 0.004535 -0.000474 0.000000 0.051128 0.000000
# 6 0.000000 0.000000 0.000000 0.008245 0.000000 -0.043494
#
#
# Mechanical properties :
#
#
# Convention : Reuss Voigt Hill
#
# Bulk Modulus (GPa) = 59.86983 68.61482 64.24232
# Shear Modulus (GPa) = 45.71311 18.79530 32.25420
#
# Velocity S-wave (km/s) = 4.65191 2.98288 3.90754
# Velocity P-wave (km/s) = 7.56277 6.65921 7.12533
#
# Compressibility (1/GPa) = 0.01670290
#
# Stress axis : x y z
#
# Youngs Moduli (GPa) = 96.43703 84.57447 51.38901
#
# Poissons Ratio (x) = 0.33268 0.11592
# Poissons Ratio (y) = 0.37934 0.32301
# Poissons Ratio (z) = 0.21754 0.53160
#
# Static dielectric constant tensor:
#      x y z
#    x 3.852490 0.000000 0.211610 
#    y 0.000000 4.563350 0.000000 
#    z 0.211610 0.000000 3.768460 
# 
# 
# High freq. dielectric constant tensor:
#      x y z
#    x 1.817220 0.000000 0.024110 
#    y 0.000000 1.842510 0.000000 
#    z 0.024110 0.000000 1.822670 
# 
# From -- ./inp_files/237802.got.cif
#   From: 2010.06.25/outbox.cif.g09.slc.cpg/sg15_119_cif.got.tgz:237802.got - 2010.06.28 07:06:18.
