data_PCOD8142343
_publ_section_title
;
Structure prediction by ZEFSAII (Michael W. Deem and Ramdas Pophale) SiO2 
 PCOD8142343
Probable space group: C 2/C
;
_chemical_formula_sum "Si O2"
_cell_formula_units_Z 60
_cell_length_a 15.915206
_cell_length_b 8.755033
_cell_length_c 20.477279
_cell_angle_alpha 90.000000
_cell_angle_beta 63.838027
_cell_angle_gamma 90.000000
_cell_volume 2560.952540
_symmetry_space_group_name_H-M "C 2/C"
_symmetry_group_IT_number 15
_symmetry_cell_setting 'monoclinic'
loop_
_space_group_symop_operation_xyz
x,y,z
-x,y,1/2-z
-x,-y,-z
x,-y,1/2+z
1/2+x,1/2+y,z
1/2-x,1/2+y,1/2-z
1/2-x,1/2-y,-z
1/2+x,1/2-y,1/2+z
loop_
_atom_site_type_symbol
_atom_site_label
_atom_site_fract_x
_atom_site_fract_y
_atom_site_fract_z
Si Si1 0.000000 0.319513 0.250000
Si Si2 0.283880 0.595045 0.593759
Si Si3 0.792611 0.546869 0.654264
Si Si4 0.690428 0.263839 0.737218
Si Si5 0.595944 0.986674 0.105938
Si Si6 0.925328 0.118224 0.002861
Si Si7 0.925405 0.646183 0.024121
Si Si8 0.175903 0.195317 0.579070
O O1 0.089723 0.216764 0.236622
O O2 0.016839 0.425662 0.181449
O O3 0.256561 0.643440 0.676137
O O4 0.193011 0.604886 0.579532
O O5 0.330911 0.423451 0.577701
O O6 0.356566 0.712607 0.536034
O O7 0.737033 0.430251 0.720613
O O8 0.820783 0.696566 0.685972
O O9 0.885190 0.460464 0.596109
O O10 0.724294 0.597276 0.618763
O O11 0.616164 0.159282 0.123252
O O12 0.562804 0.962229 0.042935
O O13 0.898434 0.091091 0.935837
O O14 0.968936 0.288337 0.997182
O O15 0.000000 0.000000 0.000000
O O16 0.250000 0.250000 0.500000
#
# Coordination Sequence:
#
# PCOD8142343 Si02
#       8
#     4   8   8   8   8   8   8   8
#     4  10  26  44  66 102 140 176 232 284 360 402
#     4   9  19  40  64  96 135 183 225 273 348 415
#     4  11  25  46  69 100 139 188 239 275 353 422
#     4  10  25  45  71  97 137 189 232 288 343 420
#     4  11  22  41  66  98 136 177 223 285 348 410
#     4  10  22  39  65 103 137 175 223 288 348 397
#     4  10  21  38  67 101 136 173 230 287 335 410
#     4  12  24  42  69  99 137 181 231 285 348 417
#
# _framework density 23.428785000000001
#
# number of rings (size 3 to 8) (size 9 to 14) (size 15 to 20)
#    0.000    1.600    2.667    0.400    5.600    8.000 
#    0.000    3.333    0.000    0.000    0.000    0.000 
#    0.000    0.000    0.000    0.000    0.000    0.000 
#
# Total GULP energy -371715.325970 kJ/mol
# GULP energy per Si atom -12390.510866 kJ/mol
# Density = 2.337546 g / cm^3
# Si number density = 23.428785 Si / 1000 Ang^3
#
#
#
# Elastic Constant Matrix: (Units=GPa)
#
#
# Indices 1 2 3 4 5 6 
#
# 1 96.6760 37.1347 28.2414 0.0000 7.7816 0.0000
# 2 37.1347 94.4140 37.8141 0.0000 4.6157 0.0002
# 3 28.2414 37.8141 84.7823 0.0000 4.7396 0.0000
# 4 0.0000 0.0000 0.0000 44.9394 0.0000 0.6255
# 5 7.7816 4.6157 4.7396 0.0000 40.5427 0.0000
# 6 0.0000 0.0002 0.0000 0.6255 0.0000 40.3518
#
#
#
# Elastic Compliance Matrix: (Units=1/GPa)
#
#
# Indices 1 2 3 4 5 6 
#
# 1 0.012694 -0.003962 -0.002366 0.000000 -0.001709 0.000000
# 2 -0.003962 0.014157 -0.004980 0.000000 -0.000269 0.000000
# 3 -0.002366 -0.004980 0.014844 0.000000 -0.000714 0.000000
# 4 0.000000 0.000000 0.000000 0.022257 0.000000 -0.000345
# 5 -0.001709 -0.000269 -0.000714 0.000000 0.025107 0.000000
# 6 0.000000 0.000000 0.000000 -0.000345 0.000000 0.024787
#
#
# Mechanical properties :
#
#
# Convention : Reuss Voigt Hill
#
# Bulk Modulus (GPa) = 52.40854 53.58364 52.99609
# Shear Modulus (GPa) = 35.00842 36.67893 35.84367
#
# Velocity S-wave (km/s) = 3.86974 3.96100 3.91564
# Velocity P-wave (km/s) = 6.51033 6.62116 6.56598
#
# Compressibility (1/GPa) = 0.01908086
#
# Stress axis : x y z
#
# Youngs Moduli (GPa) = 78.77550 70.63411 67.36733
#
# Poissons Ratio (x) = 0.27983 0.15939
# Poissons Ratio (y) = 0.31209 0.33547
# Poissons Ratio (z) = 0.18638 0.35174
#
# Static dielectric constant tensor:
#      x y z
#    x 4.814970 0.000000 0.074560 
#    y 0.000000 4.310640 0.000000 
#    z 0.074560 0.000000 3.528530 
# 
# 
# High freq. dielectric constant tensor:
#      x y z
#    x 1.946650 0.000000 -0.001550 
#    y 0.000000 1.929940 0.000000 
#    z -0.001550 0.000000 1.907200 
# 
# From -- ./inp_files/247403.got.cif
#   From: 2010.06.25/outbox.cif.g09.slc.cpg/sg15_124_cif.got.tgz:247403.got - 2010.06.28 07:06:18.
