data_PCOD8142242
_publ_section_title
;
Structure prediction by ZEFSAII (Michael W. Deem and Ramdas Pophale) SiO2 
 PCOD8142242
Probable space group: C 2/C
;
_chemical_formula_sum "Si O2"
_cell_formula_units_Z 56
_cell_length_a 9.056011
_cell_length_b 18.137875
_cell_length_c 24.388976
_cell_angle_alpha 90.000000
_cell_angle_beta 139.929342
_cell_angle_gamma 90.000000
_cell_volume 2578.825096
_symmetry_space_group_name_H-M "C 2/C"
_symmetry_group_IT_number 15
_symmetry_cell_setting 'monoclinic'
loop_
_space_group_symop_operation_xyz
x,y,z
-x,y,1/2-z
-x,-y,-z
x,-y,1/2+z
1/2+x,1/2+y,z
1/2-x,1/2+y,1/2-z
1/2-x,1/2-y,-z
1/2+x,1/2-y,1/2+z
loop_
_atom_site_type_symbol
_atom_site_label
_atom_site_fract_x
_atom_site_fract_y
_atom_site_fract_z
Si Si1 0.508471 0.751355 0.006551
Si Si2 0.662991 0.430621 0.243983
Si Si3 0.607273 0.829247 0.937009
Si Si4 0.991219 0.791879 0.620473
Si Si5 0.004491 0.485324 0.590367
Si Si6 0.140564 0.960468 0.905120
Si Si7 0.767474 0.722833 0.717721
O O1 0.633594 0.685946 0.008651
O O2 0.588293 0.743886 0.091992
O O3 0.592970 0.828006 0.000643
O O4 0.233649 0.744832 0.926241
O O5 0.500000 0.420157 0.250000
O O6 0.906807 0.457946 0.338351
O O7 0.575627 0.489357 0.173691
O O8 0.688601 0.355042 0.218961
O O9 0.539425 0.907225 0.892253
O O10 0.435450 0.761979 0.873224
O O11 0.938232 0.878255 0.602557
O O12 0.187958 0.779507 0.720282
O O13 0.192618 0.465295 0.598839
O O14 0.767577 0.512348 0.496208
O O15 0.000000 0.712209 0.750000
#
# Coordination Sequence:
#
# PCOD8142242 Si02
#       7
#     8   8   8   8   8   8   8
#     4  10  24  38  68  94 128 160 222 262 312 386
#     4  10  25  41  62  94 126 165 222 263 315 393
#     4  11  23  42  65  95 129 169 213 265 322 385
#     4  11  23  42  65  95 129 169 213 265 322 385
#     4  10  21  38  64  91 125 167 208 258 317 380
#     4  10  21  38  64  91 125 167 208 258 317 380
#     4  12  25  41  66  92 132 169 206 277 323 369
#
# _framework density 21.715315
#
# number of rings (size 3 to 8) (size 9 to 14) (size 15 to 20)
#    0.000    1.429    2.857    0.857   10.000    1.143 
#    2.571    0.714    0.000    0.000    0.000    0.000 
#    0.000    0.000    0.000    0.000    0.000    0.000 
#
# Total GULP energy -346959.683330 kJ/mol
# GULP energy per Si atom -12391.417262 kJ/mol
# Density = 2.166589 g / cm^3
# Si number density = 21.715315 Si / 1000 Ang^3
#
#
#
# Elastic Constant Matrix: (Units=GPa)
#
#
# Indices 1 2 3 4 5 6 
#
# 1 88.9923 35.0876 28.7561 0.0000 -7.5970 0.0001
# 2 35.0876 149.8675 66.3972 0.0001 -2.5058 0.0000
# 3 28.7561 66.3972 123.2521 -0.0006 -9.9538 0.0000
# 4 0.0000 0.0001 -0.0006 38.5806 0.0001 -2.2186
# 5 -7.5970 -2.5058 -9.9538 0.0001 20.3561 0.0001
# 6 0.0001 0.0000 0.0000 -2.2186 0.0001 21.6684
#
#
#
# Elastic Compliance Matrix: (Units=1/GPa)
#
#
# Indices 1 2 3 4 5 6 
#
# 1 0.012951 -0.002320 -0.001462 0.000000 0.003833 0.000000
# 2 -0.002320 0.009212 -0.004581 0.000000 -0.001972 0.000000
# 3 -0.001462 -0.004581 0.011278 0.000000 0.004405 0.000000
# 4 0.000000 0.000000 0.000000 0.026073 0.000000 0.002670
# 5 0.003833 -0.001972 0.004405 0.000000 0.052467 0.000000
# 6 0.000000 0.000000 0.000000 0.002670 0.000000 0.046424
#
#
# Mechanical properties :
#
#
# Convention : Reuss Voigt Hill
#
# Bulk Modulus (GPa) = 59.82510 69.17709 64.50109
# Shear Modulus (GPa) = 27.66961 31.57907 29.62434
#
# Velocity S-wave (km/s) = 3.57346 3.81757 3.69753
# Velocity P-wave (km/s) = 6.68100 7.16640 6.92795
#
# Compressibility (1/GPa) = 0.01671539
#
# Stress axis : x y z
#
# Youngs Moduli (GPa) = 77.21131 108.55133 88.66845
#
# Poissons Ratio (x) = 0.25188 0.12965
# Poissons Ratio (y) = 0.17916 0.40615
# Poissons Ratio (z) = 0.11290 0.49723
#
# Static dielectric constant tensor:
#      x y z
#    x 3.917910 0.000000 -0.111740 
#    y 0.000000 3.826530 0.000000 
#    z -0.111740 0.000000 4.203890 
# 
# 
# High freq. dielectric constant tensor:
#      x y z
#    x 1.837540 0.000000 -0.007450 
#    y 0.000000 1.849620 0.000000 
#    z -0.007450 0.000000 1.864740 
# 
# From -- ./inp_files/289772.got.cif
#   From: 2010.06.25/outbox.cif.g09.slc.cpg/sg15_145_cif.got.tgz:289772.got - 2010.06.28 07:06:18.
