data_PCOD8142975
_publ_section_title
;
Structure prediction by ZEFSAII (Michael W. Deem and Ramdas Pophale) SiO2 
 PCOD8142975
Probable space group: C 2/C
;
_chemical_formula_sum "Si O2"
_cell_formula_units_Z 48
_cell_length_a 14.942117
_cell_length_b 12.279671
_cell_length_c 22.176395
_cell_angle_alpha 90.000000
_cell_angle_beta 33.699492
_cell_angle_gamma 90.000000
_cell_volume 2257.642995
_symmetry_space_group_name_H-M "C 2/C"
_symmetry_group_IT_number 15
_symmetry_cell_setting 'monoclinic'
loop_
_space_group_symop_operation_xyz
x,y,z
-x,y,1/2-z
-x,-y,-z
x,-y,1/2+z
1/2+x,1/2+y,z
1/2-x,1/2+y,1/2-z
1/2-x,1/2-y,-z
1/2+x,1/2-y,1/2+z
loop_
_atom_site_type_symbol
_atom_site_label
_atom_site_fract_x
_atom_site_fract_y
_atom_site_fract_z
Si Si1 0.835899 0.358580 0.474513
Si Si2 0.885282 0.236820 0.559509
Si Si3 0.019249 0.263159 0.858175
Si Si4 0.217584 0.869592 0.862158
Si Si5 0.269316 0.587892 0.004179
Si Si6 0.117291 0.422046 0.235598
O O1 0.750000 0.250000 0.500000
O O2 0.862920 0.345481 0.531603
O O3 0.723774 0.462312 0.520705
O O4 0.014186 0.369549 0.346750
O O5 0.723610 0.167074 0.641588
O O6 0.902086 0.263754 0.620044
O O7 0.035977 0.166338 0.449429
O O8 0.894170 0.362770 0.931336
O O9 0.158505 0.277230 0.730210
O O10 0.927987 0.151084 0.891467
O O11 0.237923 0.893269 0.920849
O O12 0.266501 0.983345 0.801981
O O13 0.000000 0.472912 0.250000
#
# Coordination Sequence:
#
# PCOD8142975 Si02
#       6
#     8   8   8   8   8   8
#     4  12  23  41  67  94 130 174 214 270 329 393
#     4  11  25  38  63  98 139 163 216 275 336 386
#     4  10  21  40  66  95 130 167 219 271 325 380
#     4  11  20  42  69  95 126 173 224 270 317 394
#     4  10  21  39  70  96 124 172 224 262 323 397
#     4  12  21  40  67  91 124 176 224 264 317 392
#
# _framework density 21.261111
#
# number of rings (size 3 to 8) (size 9 to 14) (size 15 to 20)
#    0.000    1.000    5.000    2.000    0.000    2.000 
#    0.000    0.000   22.000    0.000    0.000    0.000 
#    0.000    0.000    0.000    0.000    0.000    0.000 
#
# Total GULP energy -297559.450182 kJ/mol
# GULP energy per Si atom -12398.310424 kJ/mol
# Density = 2.121272 g / cm^3
# Si number density = 21.261111 Si / 1000 Ang^3
#
#
#
# Elastic Constant Matrix: (Units=GPa)
#
#
# Indices 1 2 3 4 5 6 
#
# 1 65.7080 27.2548 5.4313 -0.0008 1.5603 0.0002
# 2 27.2548 127.1588 47.0858 -0.0010 3.1123 0.0003
# 3 5.4313 47.0858 103.6803 -0.0019 -12.8531 0.0010
# 4 -0.0008 -0.0010 -0.0019 32.6432 0.0005 -0.3274
# 5 1.5603 3.1123 -12.8531 0.0005 17.7145 -0.0002
# 6 0.0002 0.0003 0.0010 -0.3274 -0.0002 22.8371
#
#
#
# Elastic Compliance Matrix: (Units=1/GPa)
#
#
# Indices 1 2 3 4 5 6 
#
# 1 0.016775 -0.003919 0.000882 0.000000 -0.000149 0.000000
# 2 -0.003919 0.010835 -0.005394 0.000000 -0.005472 0.000000
# 3 0.000882 -0.005394 0.013358 0.000000 0.010562 0.000000
# 4 0.000000 0.000000 0.000000 0.030639 -0.000001 0.000439
# 5 -0.000149 -0.005472 0.010562 -0.000001 0.065089 0.000000
# 6 0.000000 0.000000 0.000000 0.000439 0.000000 0.043795
#
#
# Mechanical properties :
#
#
# Convention : Reuss Voigt Hill
#
# Bulk Modulus (GPa) = 41.48041 50.67678 46.07860
# Shear Modulus (GPa) = 24.34438 29.09064 26.71751
#
# Velocity S-wave (km/s) = 3.38748 3.70301 3.54875
# Velocity P-wave (km/s) = 5.90359 6.49386 6.20575
#
# Compressibility (1/GPa) = 0.02410776
#
# Stress axis : x y z
#
# Youngs Moduli (GPa) = 59.61316 92.29073 74.86278
#
# Poissons Ratio (x) = 0.36165 -0.06606
# Poissons Ratio (y) = 0.23360 0.40380
# Poissons Ratio (z) = -0.05260 0.49781
#
# Static dielectric constant tensor:
#      x y z
#    x 3.854640 0.000000 -0.119160 
#    y 0.000000 4.122400 0.000000 
#    z -0.119160 0.000000 4.144710 
# 
# 
# High freq. dielectric constant tensor:
#      x y z
#    x 1.830170 0.000000 -0.010550 
#    y 0.000000 1.827100 0.000000 
#    z -0.010550 0.000000 1.839470 
# 
# From -- ./inp_files/243903.got.cif
#   From: 2010.06.25/outbox.cif.g09.slc.cpg/sg15_122_cif.got.tgz:243903.got - 2010.06.28 07:06:18.
