data_PCOD8142591
_publ_section_title
;
Structure prediction by ZEFSAII (Michael W. Deem and Ramdas Pophale) SiO2 
 PCOD8142591
Probable space group: C 2/C
;
_chemical_formula_sum "Si O2"
_cell_formula_units_Z 52
_cell_length_a 7.970745
_cell_length_b 24.296678
_cell_length_c 12.861617
_cell_angle_alpha 90.000000
_cell_angle_beta 79.226024
_cell_angle_gamma 90.000000
_cell_volume 2446.907073
_symmetry_space_group_name_H-M "C 2/C"
_symmetry_group_IT_number 15
_symmetry_cell_setting 'monoclinic'
loop_
_space_group_symop_operation_xyz
x,y,z
-x,y,1/2-z
-x,-y,-z
x,-y,1/2+z
1/2+x,1/2+y,z
1/2-x,1/2+y,1/2-z
1/2-x,1/2-y,-z
1/2+x,1/2-y,1/2+z
loop_
_atom_site_type_symbol
_atom_site_label
_atom_site_fract_x
_atom_site_fract_y
_atom_site_fract_z
Si Si1 0.345623 0.865947 0.344754
Si Si2 0.144524 0.141707 0.506315
Si Si3 0.626286 0.564210 0.329666
Si Si4 0.000000 0.414061 0.750000
Si Si5 0.591752 0.723670 0.850261
Si Si6 0.977755 0.661494 0.052684
Si Si7 0.462311 0.550681 0.635937
O O1 0.500000 0.881135 0.250000
O O2 0.272466 0.806953 0.312982
O O3 0.389776 0.863125 0.461295
O O4 0.208568 0.914177 0.355091
O O5 0.116505 0.122408 0.391200
O O6 0.325554 0.170982 0.501460
O O7 0.008105 0.186314 0.555852
O O8 0.123970 0.084591 0.573348
O O9 0.500000 0.575216 0.250000
O O10 0.825271 0.550694 0.278378
O O11 0.562839 0.511628 0.406389
O O12 0.969431 0.379406 0.649696
O O13 0.500000 0.729100 0.750000
O O14 0.615215 0.782561 0.901020
O O15 0.500000 0.538297 0.750000
#
# Coordination Sequence:
#
# PCOD8142591 Si02
#       7
#     8   8   8   4   8   8   8
#     4  11  23  38  62  95 126 163 218 268 315 382
#     4  10  21  39  62  91 118 166 212 262 319 370
#     4  10  23  41  65  91 132 171 218 262 322 387
#     4  10  24  42  62  96 128 174 214 268 326 382
#     4  11  22  40  64  88 125 169 210 259 325 386
#     4  11  22  42  61  90 131 162 213 268 319 386
#     4  10  21  40  64  89 125 168 207 263 321 381
#
# _framework density 21.251317
#
# number of rings (size 3 to 8) (size 9 to 14) (size 15 to 20)
#    0.000    1.538    0.769    5.077    5.385    0.000 
#    0.000    1.538    0.000    0.000    0.000    0.000 
#    0.000    0.000    0.000    0.000    0.000    0.000 
#
# Total GULP energy -322222.268867 kJ/mol
# GULP energy per Si atom -12393.164187 kJ/mol
# Density = 2.120295 g / cm^3
# Si number density = 21.251317 Si / 1000 Ang^3
#
#
#
# Elastic Constant Matrix: (Units=GPa)
#
#
# Indices 1 2 3 4 5 6 
#
# 1 69.0741 11.6525 23.4192 0.0000 9.0258 0.0000
# 2 11.6525 73.6198 9.2087 0.0000 12.6983 0.0000
# 3 23.4192 9.2087 93.0770 0.0000 17.1216 0.0000
# 4 0.0000 0.0000 0.0000 -42.8772 0.0000 -31.7786
# 5 9.0258 12.6983 17.1216 0.0000 35.0811 0.0000
# 6 0.0000 0.0000 0.0000 -31.7786 0.0000 9.0801
#
#
#
# Elastic Compliance Matrix: (Units=1/GPa)
#
#
# Indices 1 2 3 4 5 6 
#
# 1 0.016228 -0.001815 -0.003578 0.000000 -0.001772 0.000000
# 2 -0.001815 0.014713 -0.000116 0.000000 -0.004802 0.000000
# 3 -0.003578 -0.000116 0.012611 0.000000 -0.005192 0.000000
# 4 0.000000 0.000000 0.000000 -0.006489 0.000000 -0.022712
# 5 -0.001772 -0.004802 -0.005192 0.000000 0.033234 0.000000
# 6 0.000000 0.000000 0.000000 -0.022712 0.000000 0.030644
#
#
# Mechanical properties :
#
#
# Convention : Reuss Voigt Hill
#
# Bulk Modulus (GPa) = 30.73620 36.03686 33.38653
# Shear Modulus (GPa) = 40.71595 13.02285 26.86940
#
# Velocity S-wave (km/s) = 4.38188 2.47817 3.55965
# Velocity P-wave (km/s) = 6.33212 5.01824 5.71307
#
# Compressibility (1/GPa) = 0.03253492
#
# Stress axis : x y z
#
# Youngs Moduli (GPa) = 61.62203 67.96515 79.29879
#
# Poissons Ratio (x) = 0.12339 0.28370
# Poissons Ratio (y) = 0.11187 0.00916
# Poissons Ratio (z) = 0.22046 0.00785
#
# Static dielectric constant tensor:
#      x y z
#    x 4.129740 0.000000 -0.101390 
#    y 0.000000 3.870750 0.000000 
#    z -0.101390 0.000000 3.977020 
# 
# 
# High freq. dielectric constant tensor:
#      x y z
#    x 1.834020 0.000000 -0.000830 
#    y 0.000000 1.831420 0.000000 
#    z -0.000830 0.000000 1.846270 
# 
# From -- ./inp_files/80742.got.cif
#   From: 2010.06.25/outbox.cif.g09.slc.cpg/sg15_41_cif.got.tgz:80742.got - 2010.06.28 07:06:18.
