data_PCOD8142950
_publ_section_title
;
Structure prediction by ZEFSAII (Michael W. Deem and Ramdas Pophale) SiO2 
 PCOD8142950
Probable space group: C 2/C
;
_chemical_formula_sum "Si O2"
_cell_formula_units_Z 56
_cell_length_a 21.510207
_cell_length_b 5.639814
_cell_length_c 26.169577
_cell_angle_alpha 90.000000
_cell_angle_beta 50.815143
_cell_angle_gamma 90.000000
_cell_volume 2460.765654
_symmetry_space_group_name_H-M "C 2/C"
_symmetry_group_IT_number 15
_symmetry_cell_setting 'monoclinic'
loop_
_space_group_symop_operation_xyz
x,y,z
-x,y,1/2-z
-x,-y,-z
x,-y,1/2+z
1/2+x,1/2+y,z
1/2-x,1/2+y,1/2-z
1/2-x,1/2-y,-z
1/2+x,1/2-y,1/2+z
loop_
_atom_site_type_symbol
_atom_site_label
_atom_site_fract_x
_atom_site_fract_y
_atom_site_fract_z
Si Si1 0.780318 0.555543 0.789249
Si Si2 0.697182 0.182545 0.118881
Si Si3 0.133562 0.268833 0.346123
Si Si4 0.012793 0.111741 0.131768
Si Si5 0.475302 0.876303 0.821119
Si Si6 0.201277 0.564616 0.392603
Si Si7 0.314997 0.362873 0.003943
O O1 0.820137 0.468101 0.821226
O O2 0.853803 0.568053 0.710976
O O3 0.712663 0.388669 0.801500
O O4 0.734658 0.797020 0.826422
O O5 0.620000 0.166035 0.123299
O O6 0.719264 0.446825 0.124110
O O7 0.775118 0.099162 0.046884
O O8 0.134295 0.392960 0.401666
O O9 0.049336 0.130924 0.383678
O O10 0.004414 0.363894 0.166099
O O11 0.986547 0.866056 0.174114
O O12 0.103647 0.075100 0.066990
O O13 0.500000 0.879110 0.750000
O O14 0.159762 0.706522 0.459914
O O15 0.250000 0.250000 0.000000
#
# Coordination Sequence:
#
# PCOD8142950 Si02
#       7
#     8   8   8   8   8   8   8
#     4  10  21  39  68  98 132 181 230 291 354 426
#     4  10  23  41  71 100 135 187 238 290 358 423
#     4  11  23  42  67 102 138 184 238 294 362 427
#     4  12  29  43  74 106 144 193 232 302 357 420
#     4  12  27  46  69 108 145 186 234 301 364 426
#     4  10  23  40  70  97 134 187 233 293 350 424
#     4  11  23  46  70 103 142 188 244 287 354 435
#
# _framework density 22.757145000000001
#
# number of rings (size 3 to 8) (size 9 to 14) (size 15 to 20)
#    0.000    1.143    2.857    2.143    8.000    1.714 
#    0.000    6.429    0.000    0.000    0.000    0.000 
#    0.000    0.000    0.000    0.000    0.000    0.000 
#
# Total GULP energy -346896.321797 kJ/mol
# GULP energy per Si atom -12389.154350 kJ/mol
# Density = 2.270535 g / cm^3
# Si number density = 22.757145 Si / 1000 Ang^3
#
#
#
# Elastic Constant Matrix: (Units=GPa)
#
#
# Indices 1 2 3 4 5 6 
#
# 1 95.3820 9.7018 13.6973 -0.2690 0.8931 -0.3030
# 2 9.7018 106.1359 20.9480 -0.2213 12.5417 0.0070
# 3 13.6973 20.9480 87.8638 -0.0952 8.0254 -0.0933
# 4 -0.2690 -0.2213 -0.0952 9.5577 0.0145 -11.0600
# 5 0.8931 12.5417 8.0254 0.0145 28.6487 -0.0424
# 6 -0.3030 0.0070 -0.0933 -11.0600 -0.0424 4.9233
#
#
#
# Elastic Compliance Matrix: (Units=1/GPa)
#
#
# Indices 1 2 3 4 5 6 
#
# 1 0.010772 -0.000730 -0.001545 -0.000631 0.000416 -0.000779
# 2 -0.000730 0.010349 -0.001993 -0.000033 -0.003950 -0.000206
# 3 -0.001545 -0.001993 0.012328 -0.000110 -0.002533 -0.000127
# 4 -0.000631 -0.000033 -0.000110 -0.065368 -0.000120 -0.146889
# 5 0.000416 -0.003950 -0.002533 -0.000120 0.037331 0.000036
# 6 -0.000779 -0.000206 -0.000127 -0.146889 0.000036 -0.126912
#
#
# Mechanical properties :
#
#
# Convention : Reuss Voigt Hill
#
# Bulk Modulus (GPa) = 40.13898 42.00845 41.07372
# Shear Modulus (GPa) = -47.77371 24.96158 -11.40607
#
# Velocity S-wave (km/s) = -4.58677 3.31549 -2.24120
# Velocity P-wave (km/s) = 3.22102 5.75814 3.37500
#
# Compressibility (1/GPa) = 0.02491344
#
# Stress axis : x y z
#
# Youngs Moduli (GPa) = 92.83230 96.63114 81.11409
#
# Poissons Ratio (x) = 0.07056 0.12530
# Poissons Ratio (y) = 0.06778 0.16166
# Poissons Ratio (z) = 0.14340 0.19258
#
# Static dielectric constant tensor:
#      x y z
#    x 4.172600 -0.000900 0.226450 
#    y -0.000900 4.353980 -0.000670 
#    z 0.226450 -0.000670 4.080560 
# 
# 
# High freq. dielectric constant tensor:
#      x y z
#    x 1.905390 -0.000050 0.015230 
#    y -0.000050 1.902820 -0.000040 
#    z 0.015230 -0.000040 1.886370 
# 
# From -- ./inp_files/299872.got.cif
#   From: 2010.06.25/outbox.cif.g09.slc.cpg/sg15_150_cif.got.tgz:299872.got - 2010.06.28 07:06:18.
