data_PCOD8142831
_publ_section_title
;
Structure prediction by ZEFSAII (Michael W. Deem and Ramdas Pophale) SiO2 
 PCOD8142831
Probable space group: C 2/C
;
_chemical_formula_sum "Si O2"
_cell_formula_units_Z 56
_cell_length_a 10.721967
_cell_length_b 9.910628
_cell_length_c 26.944625
_cell_angle_alpha 90.000000
_cell_angle_beta 112.588641
_cell_angle_gamma 90.000000
_cell_volume 2643.529839
_symmetry_space_group_name_H-M "C 2/C"
_symmetry_group_IT_number 15
_symmetry_cell_setting 'monoclinic'
loop_
_space_group_symop_operation_xyz
x,y,z
-x,y,1/2-z
-x,-y,-z
x,-y,1/2+z
1/2+x,1/2+y,z
1/2-x,1/2+y,1/2-z
1/2-x,1/2-y,-z
1/2+x,1/2-y,1/2+z
loop_
_atom_site_type_symbol
_atom_site_label
_atom_site_fract_x
_atom_site_fract_y
_atom_site_fract_z
Si Si1 0.460705 0.251064 0.188953
Si Si2 0.884750 0.570557 0.358622
Si Si3 0.405252 0.336905 0.588284
Si Si4 0.636642 0.956133 0.432235
Si Si5 0.171719 0.513909 0.544130
Si Si6 0.799687 0.810841 0.908666
Si Si7 0.088823 0.948087 0.806566
O O1 0.500000 0.195880 0.250000
O O2 0.565631 0.203172 0.162608
O O3 0.307879 0.207011 0.152406
O O4 0.478983 0.410937 0.189213
O O5 0.864392 0.585679 0.415167
O O6 0.743964 0.522381 0.312784
O O7 0.008294 0.463265 0.374562
O O8 0.322215 0.461318 0.551707
O O9 0.555097 0.346364 0.589995
O O10 0.413942 0.344379 0.649008
O O11 0.321547 0.199763 0.562937
O O12 0.581970 0.989668 0.480414
O O13 0.752088 0.064350 0.436130
O O14 0.185839 0.671493 0.558966
O O15 0.000000 0.879688 0.750000
#
# Coordination Sequence:
#
# PCOD8142831 Si02
#       7
#     8   8   8   8   8   8   8
#     4  10  21  40  66  91 121 167 207 257 324 375
#     4  10  21  39  66  91 123 161 211 256 310 370
#     4  11  23  40  62  95 128 160 215 266 307 377
#     4  11  23  41  65  94 130 170 211 261 315 374
#     4  11  22  44  65  91 131 173 210 258 319 370
#     4  11  23  42  62  93 130 164 214 261 309 384
#     4  10  22  42  64  93 125 167 209 259 323 379
#
# _framework density 21.183796999999998
#
# number of rings (size 3 to 8) (size 9 to 14) (size 15 to 20)
#    0.000    1.429    4.286    1.286    2.000    2.857 
#    0.000    2.857    0.000    0.000    0.000    0.000 
#    0.000    0.000    0.000    0.000    0.000    0.000 
#
# Total GULP energy -346922.178159 kJ/mol
# GULP energy per Si atom -12390.077791 kJ/mol
# Density = 2.113558 g / cm^3
# Si number density = 21.183797 Si / 1000 Ang^3
#
#
#
# Elastic Constant Matrix: (Units=GPa)
#
#
# Indices 1 2 3 4 5 6 
#
# 1 91.9567 45.2086 22.5730 0.0000 -6.4849 0.0000
# 2 45.2086 72.6705 21.3840 0.0000 -17.5234 0.0000
# 3 22.5730 21.3840 99.2106 0.0000 5.5590 0.0000
# 4 0.0000 0.0000 0.0000 30.8186 0.0000 -4.1665
# 5 -6.4849 -17.5234 5.5590 0.0000 31.8551 0.0000
# 6 0.0000 0.0000 0.0000 -4.1665 0.0000 31.6022
#
#
#
# Elastic Compliance Matrix: (Units=1/GPa)
#
#
# Indices 1 2 3 4 5 6 
#
# 1 0.016004 -0.010045 -0.001363 0.000000 -0.002030 0.000000
# 2 -0.010045 0.023864 -0.003514 0.000000 0.011696 0.000000
# 3 -0.001363 -0.003514 0.011382 0.000000 -0.004196 0.000000
# 4 0.000000 0.000000 0.000000 0.033037 0.000000 0.004356
# 5 -0.002030 0.011696 -0.004196 0.000000 0.038145 0.000000
# 6 0.000000 0.000000 0.000000 0.004356 0.000000 0.032218
#
#
# Mechanical properties :
#
#
# Convention : Reuss Voigt Hill
#
# Bulk Modulus (GPa) = 46.71092 49.12989 47.92041
# Shear Modulus (GPa) = 26.09225 30.49999 28.29612
#
# Velocity S-wave (km/s) = 3.51338 3.79856 3.65875
# Velocity P-wave (km/s) = 6.20940 6.51777 6.36545
#
# Compressibility (1/GPa) = 0.02140827
#
# Stress axis : x y z
#
# Youngs Moduli (GPa) = 62.48286 41.90440 87.85772
#
# Poissons Ratio (x) = 0.42093 0.11971
# Poissons Ratio (y) = 0.62763 0.30869
# Poissons Ratio (z) = 0.08514 0.14723
#
# Static dielectric constant tensor:
#      x y z
#    x 4.122220 0.000000 0.228890 
#    y 0.000000 3.689060 0.000000 
#    z 0.228890 0.000000 4.174770 
# 
# 
# High freq. dielectric constant tensor:
#      x y z
#    x 1.840590 0.000000 0.017660 
#    y 0.000000 1.814290 0.000000 
#    z 0.017660 0.000000 1.834570 
# 
# From -- ./inp_files/291622.got.cif
#   From: 2010.06.25/outbox.cif.g09.slc.cpg/sg15_146_cif.got.tgz:291622.got - 2010.06.28 07:06:18.
