data_PCOD8142063
_publ_section_title
;
Structure prediction by ZEFSAII (Michael W. Deem and Ramdas Pophale) SiO2 
 PCOD8142063
Probable space group: C 2/C
;
_chemical_formula_sum "Si O2"
_cell_formula_units_Z 56
_cell_length_a 9.418494
_cell_length_b 22.755444
_cell_length_c 18.651427
_cell_angle_alpha 90.000000
_cell_angle_beta 44.545519
_cell_angle_gamma 90.000000
_cell_volume 2804.086901
_symmetry_space_group_name_H-M "C 2/C"
_symmetry_group_IT_number 15
_symmetry_cell_setting 'monoclinic'
loop_
_space_group_symop_operation_xyz
x,y,z
-x,y,1/2-z
-x,-y,-z
x,-y,1/2+z
1/2+x,1/2+y,z
1/2-x,1/2+y,1/2-z
1/2-x,1/2-y,-z
1/2+x,1/2-y,1/2+z
loop_
_atom_site_type_symbol
_atom_site_label
_atom_site_fract_x
_atom_site_fract_y
_atom_site_fract_z
Si Si1 0.260029 0.178773 0.326026
Si Si2 0.036370 0.617777 0.654168
Si Si3 0.581222 0.998677 0.548612
Si Si4 0.432984 0.660677 0.562389
Si Si5 0.829157 0.801159 0.249700
Si Si6 0.983400 0.028679 0.582833
Si Si7 0.167474 0.558616 0.250421
O O1 0.500000 0.178628 0.250000
O O2 0.210064 0.239647 0.304500
O O3 0.208359 0.120366 0.298007
O O4 0.134741 0.175831 0.445369
O O5 0.843470 0.648889 0.686793
O O6 0.000000 0.599693 0.750000
O O7 0.081889 0.559462 0.592413
O O8 0.231372 0.662505 0.584203
O O9 0.500000 0.000000 0.500000
O O10 0.805199 0.976273 0.454194
O O11 0.450516 0.947607 0.633087
O O12 0.426320 0.702951 0.634750
O O13 0.428597 0.596031 0.597073
O O14 0.000000 0.812844 0.250000
O O15 0.000000 0.000000 0.500000
O O16 0.817200 0.996241 0.690392
O O17 0.000000 0.555862 0.250000
#
# Coordination Sequence:
#
# PCOD8142063 Si02
#       7
#     8   8   8   8   8   8   8
#     4  10  21  38  61  91 118 157 212 249 300 360
#     4  10  21  42  64  87 122 165 208 242 297 377
#     4  12  25  37  58  99 129 151 193 254 313 358
#     4  11  21  40  68  88 118 164 209 247 301 379
#     4  10  24  40  60  91 121 159 205 257 303 351
#     4  12  20  38  68  91 114 162 204 239 305 371
#     4  11  19  38  65  88 121 160 201 248 293 373
#
# _framework density 19.970849999999999
#
# number of rings (size 3 to 8) (size 9 to 14) (size 15 to 20)
#    0.000    1.143    4.286    3.000    2.000    3.429 
#    2.571    0.000    6.286    0.000    0.000    0.000 
#    0.000    0.000    0.000    0.000    0.000    0.000 
#
# Total GULP energy -347026.970118 kJ/mol
# GULP energy per Si atom -12393.820361 kJ/mol
# Density = 1.992540 g / cm^3
# Si number density = 19.970850 Si / 1000 Ang^3
#
#
#
# Elastic Constant Matrix: (Units=GPa)
#
#
# Indices 1 2 3 4 5 6 
#
# 1 111.4454 21.1419 47.2568 0.0000 1.8707 0.0000
# 2 21.1419 107.4399 36.5998 0.0000 5.9461 0.0000
# 3 47.2568 36.5998 110.2380 -0.0002 -5.3603 0.0000
# 4 0.0000 0.0000 -0.0002 35.4359 0.0001 -1.1943
# 5 1.8707 5.9461 -5.3603 0.0001 35.5918 0.0000
# 6 0.0000 0.0000 0.0000 -1.1943 0.0000 16.6419
#
#
#
# Elastic Compliance Matrix: (Units=1/GPa)
#
#
# Indices 1 2 3 4 5 6 
#
# 1 0.011053 -0.000536 -0.004618 0.000000 -0.001187 0.000000
# 2 -0.000536 0.010710 -0.003437 0.000000 -0.002279 0.000000
# 3 -0.004618 -0.003437 0.012322 0.000000 0.002673 0.000000
# 4 0.000000 0.000000 0.000000 0.028288 0.000000 0.002030
# 5 -0.001187 -0.002279 0.002673 0.000000 0.028942 0.000000
# 6 0.000000 0.000000 0.000000 0.002030 0.000000 0.060235
#
#
# Mechanical properties :
#
#
# Convention : Reuss Voigt Hill
#
# Bulk Modulus (GPa) = 59.16085 59.90224 59.53154
# Shear Modulus (GPa) = 28.67542 32.47557 30.57549
#
# Velocity S-wave (km/s) = 3.79339 4.03693 3.91705
# Velocity P-wave (km/s) = 6.99102 7.19646 7.09448
#
# Compressibility (1/GPa) = 0.01690307
#
# Stress axis : x y z
#
# Youngs Moduli (GPa) = 90.47524 93.37182 81.15710
#
# Poissons Ratio (x) = 0.05007 0.37476
# Poissons Ratio (y) = 0.04851 0.27891
# Poissons Ratio (z) = 0.41779 0.32089
#
# Static dielectric constant tensor:
#      x y z
#    x 4.983060 0.000000 -3.571950 
#    y 0.000000 4.945670 0.000000 
#    z -3.571950 0.000000 10.531670 
# 
# 
# High freq. dielectric constant tensor:
#      x y z
#    x 1.764110 0.000000 -0.020530 
#    y 0.000000 1.778640 0.000000 
#    z -0.020530 0.000000 1.791260 
# 
# From -- ./inp_files/137462.got.cif
#   From: 2010.06.25/outbox.cif.g09.slc.cpg/sg15_69_cif.got.tgz:137462.got - 2010.06.28 07:06:18.
