data_PCOD8142240
_publ_section_title
;
Structure prediction by ZEFSAII (Michael W. Deem and Ramdas Pophale) SiO2 
 PCOD8142240
Probable space group: C 2/C
;
_chemical_formula_sum "Si O2"
_cell_formula_units_Z 40
_cell_length_a 14.924095
_cell_length_b 11.291884
_cell_length_c 12.409553
_cell_angle_alpha 90.000000
_cell_angle_beta 77.399698
_cell_angle_gamma 90.000000
_cell_volume 2040.905128
_symmetry_space_group_name_H-M "C 2/C"
_symmetry_group_IT_number 15
_symmetry_cell_setting 'monoclinic'
loop_
_space_group_symop_operation_xyz
x,y,z
-x,y,1/2-z
-x,-y,-z
x,-y,1/2+z
1/2+x,1/2+y,z
1/2-x,1/2+y,1/2-z
1/2-x,1/2-y,-z
1/2+x,1/2-y,1/2+z
loop_
_atom_site_type_symbol
_atom_site_label
_atom_site_fract_x
_atom_site_fract_y
_atom_site_fract_z
Si Si1 0.092104 0.776315 0.290210
Si Si2 0.639193 0.520101 0.932901
Si Si3 0.490360 0.647731 0.379846
Si Si4 0.199197 0.654248 0.080930
Si Si5 0.511914 0.135575 0.011392
O O1 0.137815 0.892014 0.331272
O O2 0.170862 0.711013 0.202276
O O3 0.000000 0.816475 0.250000
O O4 0.064130 0.682887 0.387259
O O5 0.572494 0.410543 0.926112
O O6 0.741193 0.466510 0.921449
O O7 0.604544 0.588549 0.050705
O O8 0.500000 0.628006 0.250000
O O9 0.499780 0.787563 0.404810
O O10 0.111259 0.632727 0.034379
O O11 0.250000 0.750000 0.000000
O O12 0.500000 0.000000 0.000000
#
# Coordination Sequence:
#
# PCOD8142240 Si02
#       5
#     8   8   8   8   8
#     4   9  21  40  63  85 121 164 200 244 307 359
#     4  10  21  39  63  93 119 156 204 254 297 355
#     4  10  21  38  64  91 120 161 203 246 302 359
#     4  11  22  39  61  93 118 158 204 247 299 362
#     4  10  22  43  60  85 126 164 196 243 311 365
#
# _framework density 19.599148
#
# number of rings (size 3 to 8) (size 9 to 14) (size 15 to 20)
#    0.000    2.000    2.000    0.600    5.600    4.000 
#    3.600    2.000    0.000    0.000    0.000    0.000 
#    0.000    0.000    0.000    0.000    0.000    0.000 
#
# Total GULP energy -247853.021940 kJ/mol
# GULP energy per Si atom -12392.651097 kJ/mol
# Density = 1.955454 g / cm^3
# Si number density = 19.599148 Si / 1000 Ang^3
#
#
#
# Elastic Constant Matrix: (Units=GPa)
#
#
# Indices 1 2 3 4 5 6 
#
# 1 56.1124 51.0440 48.2909 0.0000 -19.2750 0.0000
# 2 51.0440 151.6061 54.4538 0.0000 -3.1272 0.0000
# 3 48.2909 54.4538 127.7844 0.0000 -1.0404 0.0000
# 4 0.0000 0.0000 0.0000 27.1067 0.0000 3.3608
# 5 -19.2750 -3.1272 -1.0404 0.0000 25.0190 0.0000
# 6 0.0000 0.0000 0.0000 3.3608 0.0000 41.4448
#
#
#
# Elastic Compliance Matrix: (Units=1/GPa)
#
#
# Indices 1 2 3 4 5 6 
#
# 1 0.057820 -0.012835 -0.016037 0.000000 0.042274 0.000000
# 2 -0.012835 0.010655 0.000241 0.000000 -0.008547 0.000000
# 3 -0.016037 0.000241 0.013688 0.000000 -0.011756 0.000000
# 4 0.000000 0.000000 0.000000 0.037266 0.000000 -0.003022
# 5 0.042274 -0.008547 -0.011756 0.000000 0.070981 0.000000
# 6 0.000000 0.000000 0.000000 -0.003022 0.000000 0.024374
#
#
# Mechanical properties :
#
#
# Convention : Reuss Voigt Hill
#
# Bulk Modulus (GPa) = 40.16113 71.45335 55.80724
# Shear Modulus (GPa) = 17.83500 30.82839 24.33170
#
# Velocity S-wave (km/s) = 3.01987 3.97034 3.52727
# Velocity P-wave (km/s) = 5.71798 7.58648 6.71751
#
# Compressibility (1/GPa) = 0.02489970
#
# Stress axis : x y z
#
# Youngs Moduli (GPa) = 17.29492 93.85425 73.05653
#
# Poissons Ratio (x) = 1.20464 1.17162
# Poissons Ratio (y) = 0.22198 -0.01757
# Poissons Ratio (z) = 0.27736 -0.02258
#
# Static dielectric constant tensor:
#      x y z
#    x 3.455610 0.000000 -0.163600 
#    y 0.000000 3.578290 0.000000 
#    z -0.163600 0.000000 3.726230 
# 
# 
# High freq. dielectric constant tensor:
#      x y z
#    x 1.751420 0.000000 -0.005900 
#    y 0.000000 1.773140 0.000000 
#    z -0.005900 0.000000 1.769680 
# 
# From -- ./inp_files/94659.got.cif
#   From: 2010.06.25/outbox.cif.g09.slc.cpg/sg15_48_cif.got.tgz:94659.got - 2010.06.28 07:06:18.
