data_PCOD8142359
_publ_section_title
;
Structure prediction by ZEFSAII (Michael W. Deem and Ramdas Pophale) SiO2 
 PCOD8142359
Probable space group: C 2/C
;
_chemical_formula_sum "Si O2"
_cell_formula_units_Z 56
_cell_length_a 14.364094
_cell_length_b 15.357324
_cell_length_c 11.759673
_cell_angle_alpha 90.000000
_cell_angle_beta 99.217115
_cell_angle_gamma 90.000000
_cell_volume 2560.619843
_symmetry_space_group_name_H-M "C 2/C"
_symmetry_group_IT_number 15
_symmetry_cell_setting 'monoclinic'
loop_
_space_group_symop_operation_xyz
x,y,z
-x,y,1/2-z
-x,-y,-z
x,-y,1/2+z
1/2+x,1/2+y,z
1/2-x,1/2+y,1/2-z
1/2-x,1/2-y,-z
1/2+x,1/2-y,1/2+z
loop_
_atom_site_type_symbol
_atom_site_label
_atom_site_fract_x
_atom_site_fract_y
_atom_site_fract_z
Si Si1 0.552166 0.927105 0.943644
Si Si2 0.161043 0.752598 0.276916
Si Si3 0.010915 0.116017 0.387487
Si Si4 0.310857 0.050977 0.210164
Si Si5 0.002683 0.247799 0.577633
Si Si6 0.354627 0.511549 0.482236
Si Si7 0.728311 0.905471 0.123661
O O1 0.644339 0.884297 0.020888
O O2 0.585214 0.959597 0.825463
O O3 0.475185 0.850703 0.922926
O O4 0.500000 0.000000 0.000000
O O5 0.205602 0.654980 0.271136
O O6 0.094473 0.787673 0.161634
O O7 0.249974 0.819420 0.297234
O O8 0.097093 0.760936 0.377121
O O9 0.934314 0.046243 0.413043
O O10 0.000000 0.130788 0.250000
O O11 0.995220 0.206425 0.450806
O O12 0.111995 0.076987 0.447153
O O13 0.237845 0.001405 0.112530
O O14 0.306762 0.993976 0.322508
O O15 0.327420 0.577492 0.578270
#
# Coordination Sequence:
#
# PCOD8142359 Si02
#       7
#     8   8   8   8   8   8   8
#     4  10  23  41  62  87 127 169 218 269 318 381
#     4  10  21  38  67  94 128 170 219 269 324 395
#     4  11  22  38  61  94 135 169 209 259 326 397
#     4  10  22  39  65  92 124 168 222 271 320 387
#     4  10  21  39  62  92 130 168 217 264 327 385
#     4  10  22  38  60  90 129 166 207 258 326 380
#     4  11  21  39  65  91 126 166 217 263 324 384
#
# _framework density 21.869703999999999
#
# number of rings (size 3 to 8) (size 9 to 14) (size 15 to 20)
#    0.000    1.714    1.429    2.571    2.000    4.571 
#    2.571    0.000    0.000    6.000    0.000    0.000 
#    0.000    0.000    0.000    0.000    0.000    0.000 
#
# Total GULP energy -346913.794639 kJ/mol
# GULP energy per Si atom -12389.778380 kJ/mol
# Density = 2.181993 g / cm^3
# Si number density = 21.869704 Si / 1000 Ang^3
#
#
#
# Elastic Constant Matrix: (Units=GPa)
#
#
# Indices 1 2 3 4 5 6 
#
# 1 62.1434 23.5603 20.0481 0.0000 6.6845 0.0000
# 2 23.5603 81.4638 31.0696 0.0000 -11.6907 0.0000
# 3 20.0481 31.0696 117.9226 0.0000 -7.8323 0.0000
# 4 0.0000 0.0000 0.0000 38.5987 0.0000 -1.8751
# 5 6.6845 -11.6907 -7.8323 0.0000 28.1025 0.0000
# 6 0.0000 0.0000 0.0000 -1.8751 0.0000 33.3609
#
#
#
# Elastic Compliance Matrix: (Units=1/GPa)
#
#
# Indices 1 2 3 4 5 6 
#
# 1 0.019979 -0.006023 -0.002335 0.000000 -0.007908 0.000000
# 2 -0.006023 0.016118 -0.002733 0.000000 0.007376 0.000000
# 3 -0.002335 -0.002733 0.009739 0.000000 0.002133 0.000000
# 4 0.000000 0.000000 0.000000 0.025979 0.000000 0.001460
# 5 -0.007908 0.007376 0.002133 0.000000 0.041128 0.000000
# 6 0.000000 0.000000 0.000000 0.001460 0.000000 0.030057
#
#
# Mechanical properties :
#
#
# Convention : Reuss Voigt Hill
#
# Bulk Modulus (GPa) = 42.27464 45.65399 43.96432
# Shear Modulus (GPa) = 28.89074 32.46922 30.67998
#
# Velocity S-wave (km/s) = 3.63855 3.85732 3.74953
# Velocity P-wave (km/s) = 6.08476 6.38430 6.23633
#
# Compressibility (1/GPa) = 0.02365484
#
# Stress axis : x y z
#
# Youngs Moduli (GPa) = 50.05221 62.04247 102.68159
#
# Poissons Ratio (x) = 0.37365 0.23978
# Poissons Ratio (y) = 0.30144 0.28062
# Poissons Ratio (z) = 0.11688 0.16955
#
# Static dielectric constant tensor:
#      x y z
#    x 3.994130 0.000000 0.130390 
#    y 0.000000 3.906370 0.000000 
#    z 0.130390 0.000000 3.975440 
# 
# 
# High freq. dielectric constant tensor:
#      x y z
#    x 1.853410 0.000000 0.016410 
#    y 0.000000 1.853340 0.000000 
#    z 0.016410 0.000000 1.858230 
# 
# From -- ./inp_files/97044.got.cif
#   From: 2010.06.25/outbox.cif.g09.slc.cpg/sg15_49_cif.got.tgz:97044.got - 2010.06.28 07:06:18.
