data_PCOD8142243
_publ_section_title
;
Structure prediction by ZEFSAII (Michael W. Deem and Ramdas Pophale) SiO2 
 PCOD8142243
Probable space group: C 2/C
;
_chemical_formula_sum "Si O2"
_cell_formula_units_Z 44
_cell_length_a 8.117760
_cell_length_b 26.913823
_cell_length_c 9.825764
_cell_angle_alpha 90.000000
_cell_angle_beta 112.753297
_cell_angle_gamma 90.000000
_cell_volume 1979.671009
_symmetry_space_group_name_H-M "C 2/C"
_symmetry_group_IT_number 15
_symmetry_cell_setting 'monoclinic'
loop_
_space_group_symop_operation_xyz
x,y,z
-x,y,1/2-z
-x,-y,-z
x,-y,1/2+z
1/2+x,1/2+y,z
1/2-x,1/2+y,1/2-z
1/2-x,1/2-y,-z
1/2+x,1/2-y,1/2+z
loop_
_atom_site_type_symbol
_atom_site_label
_atom_site_fract_x
_atom_site_fract_y
_atom_site_fract_z
Si Si1 0.000000 0.906743 0.750000
Si Si2 0.666951 0.327971 0.998657
Si Si3 0.300485 0.029843 0.192862
Si Si4 0.203973 0.842429 0.308065
Si Si5 0.798553 0.952709 0.137503
Si Si6 0.001076 0.730671 0.587844
O O1 0.907552 0.873774 0.607110
O O2 0.842904 0.938116 0.768973
O O3 0.508793 0.287027 0.973184
O O4 0.746400 0.350355 0.162650
O O5 0.829434 0.299643 0.974952
O O6 0.500000 0.054023 0.250000
O O7 0.322505 0.978157 0.284013
O O8 0.229572 0.020722 0.017126
O O9 0.247253 0.894388 0.396751
O O10 0.323468 0.798159 0.409363
O O11 0.000000 0.825963 0.250000
O O12 0.000000 0.959560 0.250000
O O13 0.000000 0.734278 0.750000
#
# Coordination Sequence:
#
# PCOD8142243 Si02
#       6
#     4   8   8   8   8   8
#     4  12  24  42  70  96 144 178 224 290 346 402
#     4  10  21  38  64  91 126 178 224 271 342 405
#     4  12  28  45  71 105 140 183 238 287 351 415
#     4  10  22  38  65  94 132 171 225 282 345 400
#     4  11  24  47  70  99 144 184 230 289 351 418
#     4   9  19  39  61  91 124 171 229 273 326 418
#
# _framework density 22.225914
#
# number of rings (size 3 to 8) (size 9 to 14) (size 15 to 20)
#    0.000    1.455    1.818    3.273    5.091    2.909 
#    0.000    0.909    0.000    0.000    0.000    0.000 
#    0.000    0.000    0.000    0.000    0.000    0.000 
#
# Total GULP energy -272715.061492 kJ/mol
# GULP energy per Si atom -12396.139159 kJ/mol
# Density = 2.217533 g / cm^3
# Si number density = 22.225914 Si / 1000 Ang^3
#
#
#
# Elastic Constant Matrix: (Units=GPa)
#
#
# Indices 1 2 3 4 5 6 
#
# 1 120.4216 55.4957 33.9428 0.0000 9.6658 0.0000
# 2 55.4957 93.7732 27.9256 0.0000 4.4063 0.0000
# 3 33.9428 27.9256 91.7267 0.0000 2.0178 0.0000
# 4 0.0000 0.0000 0.0000 16.4122 0.0000 -2.2212
# 5 9.6658 4.4063 2.0178 0.0000 29.6612 0.0000
# 6 0.0000 0.0000 0.0000 -2.2212 0.0000 21.7643
#
#
#
# Elastic Compliance Matrix: (Units=1/GPa)
#
#
# Indices 1 2 3 4 5 6 
#
# 1 0.012148 -0.006307 -0.002512 0.000000 -0.002851 0.000000
# 2 -0.006307 0.015069 -0.002253 0.000000 -0.000030 0.000000
# 3 -0.002512 -0.002253 0.012511 0.000000 0.000302 0.000000
# 4 0.000000 0.000000 0.000000 0.061784 0.000000 0.006306
# 5 -0.002851 -0.000030 0.000302 0.000000 0.034627 0.000000
# 6 0.000000 0.000000 0.000000 0.006306 0.000000 0.046590
#
#
# Mechanical properties :
#
#
# Convention : Reuss Voigt Hill
#
# Bulk Modulus (GPa) = 56.87420 60.07219 58.47320
# Shear Modulus (GPa) = 23.72656 26.13803 24.93229
#
# Velocity S-wave (km/s) = 3.27083 3.43303 3.35291
# Velocity P-wave (km/s) = 6.31737 6.54224 6.43079
#
# Compressibility (1/GPa) = 0.01758267
#
# Stress axis : x y z
#
# Youngs Moduli (GPa) = 82.32047 66.36180 79.93017
#
# Poissons Ratio (x) = 0.41854 0.20081
# Poissons Ratio (y) = 0.51919 0.18009
# Poissons Ratio (z) = 0.20682 0.14952
#
# Static dielectric constant tensor:
#      x y z
#    x 4.125040 0.000000 0.098790 
#    y 0.000000 4.221020 0.000000 
#    z 0.098790 0.000000 4.008510 
# 
# 
# High freq. dielectric constant tensor:
#      x y z
#    x 1.869820 0.000000 0.013400 
#    y 0.000000 1.875700 0.000000 
#    z 0.013400 0.000000 1.871270 
# 
# From -- ./inp_files/25734.got.cif
#   From: 2010.06.25/outbox.cif.g09.slc.cpg/sg15_13_cif.got.tgz:25734.got - 2010.06.28 07:06:18.
