data_PCOD8142765
_publ_section_title
;
Structure prediction by ZEFSAII (Michael W. Deem and Ramdas Pophale) SiO2 
 PCOD8142765
Probable space group: C 2/C
;
_chemical_formula_sum "Si O2"
_cell_formula_units_Z 40
_cell_length_a 11.748135
_cell_length_b 30.226877
_cell_length_c 5.170720
_cell_angle_alpha 90.000000
_cell_angle_beta 103.602613
_cell_angle_gamma 90.000000
_cell_volume 1784.667338
_symmetry_space_group_name_H-M "C 2/C"
_symmetry_group_IT_number 15
_symmetry_cell_setting 'monoclinic'
loop_
_space_group_symop_operation_xyz
x,y,z
-x,y,1/2-z
-x,-y,-z
x,-y,1/2+z
1/2+x,1/2+y,z
1/2-x,1/2+y,1/2-z
1/2-x,1/2-y,-z
1/2+x,1/2-y,1/2+z
loop_
_atom_site_type_symbol
_atom_site_label
_atom_site_fract_x
_atom_site_fract_y
_atom_site_fract_z
Si Si1 0.204338 0.029649 0.735810
Si Si2 0.393659 0.087396 0.042764
Si Si3 0.500000 0.159014 0.750000
Si Si4 0.500000 0.591935 0.750000
Si Si5 0.740286 0.199288 0.920181
Si Si6 0.193692 0.148526 0.068066
O O1 0.093237 0.061976 0.641914
O O2 0.199283 0.993925 0.510052
O O3 0.329018 0.055838 0.797940
O O4 0.500000 0.061644 0.250000
O O5 0.290437 0.109517 0.157848
O O6 0.460207 0.128612 0.960517
O O7 0.604577 0.189815 0.900935
O O8 0.429910 0.624014 0.522020
O O9 0.779977 0.183131 0.654615
O O10 0.750000 0.250000 0.000000
O O11 0.818857 0.173690 0.169769
#
# Coordination Sequence:
#
# PCOD8142765 Si02
#       6
#     8   8   4   4   8   8
#     4  11  26  42  63  96 125 162 210 265 323 364
#     4  10  21  39  65  85 124 165 208 252 310 384
#     4  10  22  40  64  88 127 168 203 254 318 372
#     4  10  24  44  70  86 133 170 213 262 308 384
#     4  11  23  40  63  96 129 160 210 264 313 364
#     4  10  23  40  63  95 119 172 214 244 313 383
#
# _framework density 22.413138
#
# number of rings (size 3 to 8) (size 9 to 14) (size 15 to 20)
#    0.000    1.600    2.000    1.200    2.800    9.600 
#    0.000    0.000    0.000    0.000    0.000    0.000 
#    0.000    0.000    0.000    0.000    0.000    0.000 
#
# Total GULP energy -247853.863189 kJ/mol
# GULP energy per Si atom -12392.693159 kJ/mol
# Density = 2.236213 g / cm^3
# Si number density = 22.413138 Si / 1000 Ang^3
#
#
#
# Elastic Constant Matrix: (Units=GPa)
#
#
# Indices 1 2 3 4 5 6 
#
# 1 129.0675 46.3883 35.7548 0.0000 42.8535 0.0000
# 2 46.3883 100.9720 26.4188 0.0000 23.7490 0.0000
# 3 35.7548 26.4188 92.7018 0.0000 17.1349 0.0000
# 4 0.0000 0.0000 0.0000 55.1896 0.0000 -18.6641
# 5 42.8535 23.7490 17.1349 0.0000 34.9669 0.0000
# 6 0.0000 0.0000 0.0000 -18.6641 0.0000 60.4670
#
#
#
# Elastic Compliance Matrix: (Units=1/GPa)
#
#
# Indices 1 2 3 4 5 6 
#
# 1 0.014017 -0.002505 -0.002014 0.000000 -0.014491 0.000000
# 2 -0.002505 0.012605 -0.001772 0.000000 -0.004624 0.000000
# 3 -0.002014 -0.001772 0.012525 0.000000 -0.002466 0.000000
# 4 0.000000 0.000000 0.000000 0.020231 0.000000 0.006245
# 5 -0.014491 -0.004624 -0.002466 0.000000 0.050706 0.000000
# 6 0.000000 0.000000 0.000000 0.006245 0.000000 0.018465
#
#
# Mechanical properties :
#
#
# Convention : Reuss Voigt Hill
#
# Bulk Modulus (GPa) = 37.64113 59.98503 48.81308
# Shear Modulus (GPa) = 33.33621 44.40332 38.86977
#
# Velocity S-wave (km/s) = 3.86080 4.45582 4.16894
# Velocity P-wave (km/s) = 6.05847 7.30026 6.70816
#
# Compressibility (1/GPa) = 0.02656668
#
# Stress axis : x y z
#
# Youngs Moduli (GPa) = 71.34038 79.33062 79.84138
#
# Poissons Ratio (x) = 0.19868 0.16082
# Poissons Ratio (y) = 0.17867 0.14146
# Poissons Ratio (z) = 0.14370 0.14055
#
# Static dielectric constant tensor:
#      x y z
#    x -270.484950 0.000000 -58.467730 
#    y 0.000000 4.152340 0.000000 
#    z -58.467730 0.000000 -8.658720 
# 
# 
# High freq. dielectric constant tensor:
#      x y z
#    x 1.891750 0.000000 0.023230 
#    y 0.000000 1.882600 0.000000 
#    z 0.023230 0.000000 1.877300 
# 
# From -- ./inp_files/5088.got.cif
#   From: 2010.06.25/outbox.cif.g09.slc.cpg/sg15_3_cif.got.tgz:5088.got - 2010.06.28 07:06:18.
