data_PCOD8142866
_publ_section_title
;
Structure prediction by ZEFSAII (Michael W. Deem and Ramdas Pophale) SiO2 
 PCOD8142866
Probable space group: C 2/C
;
_chemical_formula_sum "Si O2"
_cell_formula_units_Z 64
_cell_length_a 16.459231
_cell_length_b 14.764770
_cell_length_c 21.114800
_cell_angle_alpha 90.000000
_cell_angle_beta 36.319927
_cell_angle_gamma 90.000000
_cell_volume 3039.205874
_symmetry_space_group_name_H-M "C 2/C"
_symmetry_group_IT_number 15
_symmetry_cell_setting 'monoclinic'
loop_
_space_group_symop_operation_xyz
x,y,z
-x,y,1/2-z
-x,-y,-z
x,-y,1/2+z
1/2+x,1/2+y,z
1/2-x,1/2+y,1/2-z
1/2-x,1/2-y,-z
1/2+x,1/2-y,1/2+z
loop_
_atom_site_type_symbol
_atom_site_label
_atom_site_fract_x
_atom_site_fract_y
_atom_site_fract_z
Si Si1 0.032752 0.254220 0.601943
Si Si2 0.596396 0.912799 0.938739
Si Si3 0.212790 0.371651 0.728887
Si Si4 0.352090 0.558399 0.364871
Si Si5 0.786175 0.163789 0.522367
Si Si6 0.342765 0.992194 0.850034
Si Si7 0.010046 0.223445 0.478229
Si Si8 0.270855 0.619406 0.962124
O O1 0.135698 0.335688 0.516666
O O2 0.110173 0.192607 0.603518
O O3 0.900026 0.296169 0.720190
O O4 0.996758 0.196612 0.561055
O O5 0.672388 0.905142 0.823900
O O6 0.719875 0.903240 0.911612
O O7 0.491426 0.832478 0.021903
O O8 0.500000 0.000000 0.000000
O O9 0.218670 0.459216 0.679132
O O10 0.357424 0.319651 0.638030
O O11 0.500000 0.591455 0.250000
O O12 0.360224 0.591985 0.431508
O O13 0.334353 0.450401 0.372121
O O14 0.750000 0.250000 0.500000
O O15 0.877987 0.190001 0.523774
O O16 0.666944 0.101139 0.629828
O O17 0.500000 0.965379 0.750000
O O18 0.267786 0.931003 0.948976
#
# Coordination Sequence:
#
# PCOD8142866 Si02
#       8
#     8   8   8   8   8   8   8   8
#     4  10  21  39  66  96 137 167 215 269 334 399
#     4  11  25  45  67  97 137 174 226 285 336 402
#     4  11  23  42  68  98 131 175 222 275 338 406
#     4  11  23  43  65  94 130 174 228 272 339 400
#     4  11  25  46  68  91 132 175 223 284 325 388
#     4  11  23  43  69  99 128 175 228 266 334 411
#     4  11  23  44  64  97 133 173 225 276 337 399
#     4  10  21  40  65  97 136 173 207 279 331 399
#
# _framework density 21.058132000000001
#
# number of rings (size 3 to 8) (size 9 to 14) (size 15 to 20)
#    0.000    1.250    3.750    2.250    1.750    3.000 
#   11.250    0.000    0.000    0.000    0.000    0.000 
#    0.000    0.000    0.000    0.000    0.000    0.000 
#
# Total GULP energy -396437.245938 kJ/mol
# GULP energy per Si atom -12388.663936 kJ/mol
# Density = 2.101020 g / cm^3
# Si number density = 21.058132 Si / 1000 Ang^3
#
#
#
# Elastic Constant Matrix: (Units=GPa)
#
#
# Indices 1 2 3 4 5 6 
#
# 1 91.0118 22.3227 16.7459 0.0002 0.4420 0.0000
# 2 22.3227 94.6418 29.9134 -0.0001 1.7340 0.0000
# 3 16.7459 29.9134 77.7813 -0.0004 -0.8443 0.0000
# 4 0.0002 -0.0001 -0.0004 29.8808 0.0001 4.7094
# 5 0.4420 1.7340 -0.8443 0.0001 33.0683 0.0000
# 6 0.0000 0.0000 0.0000 4.7094 0.0000 32.5442
#
#
#
# Elastic Compliance Matrix: (Units=1/GPa)
#
#
# Indices 1 2 3 4 5 6 
#
# 1 0.011852 -0.002262 -0.001683 0.000000 -0.000083 0.000000
# 2 -0.002262 0.012479 -0.004320 0.000000 -0.000734 0.000000
# 3 -0.001683 -0.004320 0.014887 0.000000 0.000629 0.000000
# 4 0.000000 0.000000 0.000000 0.034247 0.000000 -0.004956
# 5 -0.000083 -0.000734 0.000629 0.000000 0.030296 0.000000
# 6 0.000000 0.000000 0.000000 -0.004956 0.000000 0.031445
#
#
# Mechanical properties :
#
#
# Convention : Reuss Voigt Hill
#
# Bulk Modulus (GPa) = 44.07546 44.59988 44.33767
# Shear Modulus (GPa) = 31.38756 32.06218 31.72487
#
# Velocity S-wave (km/s) = 3.86491 3.90623 3.88563
# Velocity P-wave (km/s) = 6.39473 6.44750 6.42117
#
# Compressibility (1/GPa) = 0.02268836
#
# Stress axis : x y z
#
# Youngs Moduli (GPa) = 84.37066 80.13712 67.17251
#
# Poissons Ratio (x) = 0.18129 0.11303
# Poissons Ratio (y) = 0.19087 0.29018
# Poissons Ratio (z) = 0.14197 0.34619
#
# Static dielectric constant tensor:
#      x y z
#    x 3.926170 0.000000 -0.017570 
#    y 0.000000 4.109820 0.000000 
#    z -0.017570 0.000000 3.779960 
# 
# 
# High freq. dielectric constant tensor:
#      x y z
#    x 1.835120 0.000000 -0.002390 
#    y 0.000000 1.830190 0.000000 
#    z -0.002390 0.000000 1.816080 
# 
# From -- ./inp_files/277640.got.cif
#   From: 2010.06.25/outbox.cif.g09.slc.cpg/sg15_139_cif.got.tgz:277640.got - 2010.06.28 07:06:18.
