data_PCOD8142910
_publ_section_title
;
Structure prediction by ZEFSAII (Michael W. Deem and Ramdas Pophale) SiO2 
 PCOD8142910
Probable space group: C 2/C
;
_chemical_formula_sum "Si O2"
_cell_formula_units_Z 48
_cell_length_a 18.152766
_cell_length_b 8.183765
_cell_length_c 15.731538
_cell_angle_alpha 90.000000
_cell_angle_beta 99.218264
_cell_angle_gamma 90.000000
_cell_volume 2306.863010
_symmetry_space_group_name_H-M "C 2/C"
_symmetry_group_IT_number 15
_symmetry_cell_setting 'monoclinic'
loop_
_space_group_symop_operation_xyz
x,y,z
-x,y,1/2-z
-x,-y,-z
x,-y,1/2+z
1/2+x,1/2+y,z
1/2-x,1/2+y,1/2-z
1/2-x,1/2-y,-z
1/2+x,1/2-y,1/2+z
loop_
_atom_site_type_symbol
_atom_site_label
_atom_site_fract_x
_atom_site_fract_y
_atom_site_fract_z
Si Si1 0.830786 0.095574 0.227814
Si Si2 0.912938 0.978419 0.083415
Si Si3 0.042819 0.558912 0.088433
Si Si4 0.919740 0.940254 0.399704
Si Si5 0.567056 0.169992 0.313047
Si Si6 0.669645 0.960993 0.212644
O O1 0.823446 0.284501 0.246407
O O2 0.873587 0.091796 0.146014
O O3 0.869108 0.989291 0.309676
O O4 0.749343 0.022689 0.197655
O O5 0.898195 0.791749 0.110725
O O6 0.000275 0.027642 0.096463
O O7 0.880932 0.001111 0.981471
O O8 0.069319 0.746346 0.090857
O O9 0.115633 0.448647 0.120215
O O10 0.981260 0.527586 0.150838
O O11 0.000000 0.500000 0.000000
O O12 0.500000 0.268831 0.250000
O O13 0.633212 0.093905 0.269972
#
# Coordination Sequence:
#
# PCOD8142910 Si02
#       6
#     8   8   8   8   8   8
#     4  12  24  43  64  93 132 169 216 262 323 391
#     4  10  21  39  67  95 129 167 208 264 319 376
#     4  10  22  40  64  93 132 160 210 268 314 376
#     4  10  23  40  66  98 130 164 217 260 319 385
#     4   9  19  39  60  89 126 166 204 262 318 372
#     4  11  25  41  65  91 128 174 212 263 327 381
#
# _framework density 20.807476999999999
#
# number of rings (size 3 to 8) (size 9 to 14) (size 15 to 20)
#    0.000    1.667    0.000    5.500    9.333    2.667 
#    3.000    3.333    0.000    0.000    0.000    0.000 
#    0.000    0.000    0.000    0.000    0.000    0.000 
#
# Total GULP energy -297397.780798 kJ/mol
# GULP energy per Si atom -12391.574200 kJ/mol
# Density = 2.076012 g / cm^3
# Si number density = 20.807477 Si / 1000 Ang^3
#
#
#
# Elastic Constant Matrix: (Units=GPa)
#
#
# Indices 1 2 3 4 5 6 
#
# 1 109.6035 34.4786 59.8560 0.0000 -3.4938 0.0000
# 2 34.4786 82.8481 23.9854 0.0000 -12.3728 0.0000
# 3 59.8560 23.9854 147.4809 0.0000 -10.0400 0.0000
# 4 0.0000 0.0000 0.0000 23.0182 0.0000 5.4809
# 5 -3.4938 -12.3728 -10.0400 0.0000 26.6517 0.0000
# 6 0.0000 0.0000 0.0000 5.4809 0.0000 29.3009
#
#
#
# Elastic Compliance Matrix: (Units=1/GPa)
#
#
# Indices 1 2 3 4 5 6 
#
# 1 0.013001 -0.004360 -0.004710 0.000000 -0.002094 0.000000
# 2 -0.004360 0.014884 -0.000226 0.000000 0.006253 0.000000
# 3 -0.004710 -0.000226 0.008908 0.000000 0.002634 0.000000
# 4 0.000000 0.000000 0.000000 0.045469 0.000000 -0.008505
# 5 -0.002094 0.006253 0.002634 0.000000 0.041142 0.000000
# 6 0.000000 0.000000 0.000000 -0.008505 0.000000 0.035720
#
#
# Mechanical properties :
#
#
# Convention : Reuss Voigt Hill
#
# Bulk Modulus (GPa) = 54.93788 64.06360 59.50074
# Shear Modulus (GPa) = 27.20641 30.56834 28.88737
#
# Velocity S-wave (km/s) = 3.61990 3.83705 3.73005
# Velocity P-wave (km/s) = 6.62811 7.10536 6.87088
#
# Compressibility (1/GPa) = 0.01820238
#
# Stress axis : x y z
#
# Youngs Moduli (GPa) = 76.91950 67.18739 112.25795
#
# Poissons Ratio (x) = 0.29291 0.52872
# Poissons Ratio (y) = 0.33533 0.02532
# Poissons Ratio (z) = 0.36228 0.01515
#
# Static dielectric constant tensor:
#      x y z
#    x 4.127390 0.000000 -0.582720 
#    y 0.000000 3.725520 0.000000 
#    z -0.582720 0.000000 5.456720 
# 
# 
# High freq. dielectric constant tensor:
#      x y z
#    x 1.805320 0.000000 -0.008160 
#    y 0.000000 1.807290 0.000000 
#    z -0.008160 0.000000 1.824970 
# 
# From -- ./inp_files/159730.got.cif
#   From: 2010.06.25/outbox.cif.g09.slc.cpg/sg15_80_cif.got.tgz:159730.got - 2010.06.28 07:06:18.
