data_PCOD8142873
_publ_section_title
;
Structure prediction by ZEFSAII (Michael W. Deem and Ramdas Pophale) SiO2 
 PCOD8142873
Probable space group: C 2/C
;
_chemical_formula_sum "Si O2"
_cell_formula_units_Z 48
_cell_length_a 26.350928
_cell_length_b 19.553026
_cell_length_c 5.084719
_cell_angle_alpha 90.000000
_cell_angle_beta 56.743935
_cell_angle_gamma 90.000000
_cell_volume 2190.794353
_symmetry_space_group_name_H-M "C 2/C"
_symmetry_group_IT_number 15
_symmetry_cell_setting 'monoclinic'
loop_
_space_group_symop_operation_xyz
x,y,z
-x,y,1/2-z
-x,-y,-z
x,-y,1/2+z
1/2+x,1/2+y,z
1/2-x,1/2+y,1/2-z
1/2-x,1/2-y,-z
1/2+x,1/2-y,1/2+z
loop_
_atom_site_type_symbol
_atom_site_label
_atom_site_fract_x
_atom_site_fract_y
_atom_site_fract_z
Si Si1 0.930875 0.957009 0.420309
Si Si2 0.259419 0.045374 0.390966
Si Si3 0.122631 0.183188 0.316585
Si Si4 0.000000 0.349374 0.250000
Si Si5 0.600104 0.957368 0.983591
Si Si6 0.500000 0.238654 0.250000
Si Si7 0.300406 0.693488 0.910535
O O1 0.883742 0.897370 0.613490
O O2 0.000000 0.930741 0.250000
O O3 0.918567 0.018541 0.658389
O O4 0.330268 0.064700 0.188323
O O5 0.225529 0.117047 0.506516
O O6 0.241289 0.995308 0.680080
O O7 0.168293 0.213698 0.403488
O O8 0.056748 0.215687 0.511186
O O9 0.148791 0.197930 0.956422
O O10 0.941627 0.393166 0.332227
O O11 0.980521 0.305505 0.555387
O O12 0.584932 0.982999 0.734323
O O13 0.250000 0.750000 0.000000
#
# Coordination Sequence:
#
# PCOD8142873 Si02
#       7
#     8   8   8   4   8   4   8
#     4  10  21  39  66  98 131 167 212 272 340 396
#     4  10  23  43  68  99 134 175 227 279 334 394
#     4  12  26  47  67  98 137 172 225 279 332 402
#     4  12  24  41  68  99 134 180 222 268 338 410
#     4  10  21  40  67  99 134 168 215 282 331 391
#     4  12  28  43  66 101 134 178 222 272 336 396
#     4  12  28  46  71 100 136 184 228 281 333 402
#
# _framework density 21.909863000000001
#
# number of rings (size 3 to 8) (size 9 to 14) (size 15 to 20)
#    0.000    1.000    0.833    5.000    4.667    4.000 
#    0.000    0.000    0.000    0.000    0.000    0.000 
#    0.000    0.000    0.000    0.000    0.000    0.000 
#
# Total GULP energy -297772.106224 kJ/mol
# GULP energy per Si atom -12407.171093 kJ/mol
# Density = 2.185999 g / cm^3
# Si number density = 21.909863 Si / 1000 Ang^3
#
#
#
# Elastic Constant Matrix: (Units=GPa)
#
#
# Indices 1 2 3 4 5 6 
#
# 1 72.7509 26.7228 18.0939 0.0000 0.3410 0.0000
# 2 26.7228 85.4436 34.2760 0.0000 -19.1236 0.0000
# 3 18.0939 34.2760 119.8395 0.0000 -0.4112 0.0000
# 4 0.0000 0.0000 0.0000 26.2352 0.0000 -8.6191
# 5 0.3410 -19.1236 -0.4112 0.0000 38.6571 0.0000
# 6 0.0000 0.0000 0.0000 -8.6191 0.0000 26.3245
#
#
#
# Elastic Compliance Matrix: (Units=1/GPa)
#
#
# Indices 1 2 3 4 5 6 
#
# 1 0.015903 -0.005216 -0.000918 0.000000 -0.002731 0.000000
# 2 -0.005216 0.016795 -0.003988 0.000000 0.008312 0.000000
# 3 -0.000918 -0.003988 0.009617 0.000000 -0.001862 0.000000
# 4 0.000000 0.000000 0.000000 0.042711 0.000000 0.013984
# 5 -0.002731 0.008312 -0.001862 0.000000 0.029985 0.000000
# 6 0.000000 0.000000 0.000000 0.013984 0.000000 0.042566
#
#
# Mechanical properties :
#
#
# Convention : Reuss Voigt Hill
#
# Bulk Modulus (GPa) = 45.30958 48.46883 46.88921
# Shear Modulus (GPa) = 27.00092 31.50610 29.25351
#
# Velocity S-wave (km/s) = 3.51431 3.79619 3.65797
# Velocity P-wave (km/s) = 6.09853 6.43310 6.26805
#
# Compressibility (1/GPa) = 0.02207039
#
# Stress axis : x y z
#
# Youngs Moduli (GPa) = 62.88190 59.54136 103.97953
#
# Poissons Ratio (x) = 0.31059 0.09550
# Poissons Ratio (y) = 0.32801 0.41462
# Poissons Ratio (z) = 0.05776 0.23742
#
# Static dielectric constant tensor:
#      x y z
#    x 4.061440 0.000000 0.045410 
#    y 0.000000 3.857720 0.000000 
#    z 0.045410 0.000000 4.154470 
# 
# 
# High freq. dielectric constant tensor:
#      x y z
#    x 1.873460 0.000000 -0.000540 
#    y 0.000000 1.858730 0.000000 
#    z -0.000540 0.000000 1.881050 
# 
# From -- ./inp_files/17039.got.cif
#   From: 2010.06.25/outbox.cif.g09.slc.cpg/sg15_9_cif.got.tgz:17039.got - 2010.06.28 07:06:18.
