data_PCOD8142693
_publ_section_title
;
Structure prediction by ZEFSAII (Michael W. Deem and Ramdas Pophale) SiO2 
 PCOD8142693
Probable space group: C 2/C
;
_chemical_formula_sum "Si O2"
_cell_formula_units_Z 64
_cell_length_a 30.194406
_cell_length_b 17.672013
_cell_length_c 9.799721
_cell_angle_alpha 90.000000
_cell_angle_beta 36.201775
_cell_angle_gamma 90.000000
_cell_volume 3088.461676
_symmetry_space_group_name_H-M "C 2/C"
_symmetry_group_IT_number 15
_symmetry_cell_setting 'monoclinic'
loop_
_space_group_symop_operation_xyz
x,y,z
-x,y,1/2-z
-x,-y,-z
x,-y,1/2+z
1/2+x,1/2+y,z
1/2-x,1/2+y,1/2-z
1/2-x,1/2-y,-z
1/2+x,1/2-y,1/2+z
loop_
_atom_site_type_symbol
_atom_site_label
_atom_site_fract_x
_atom_site_fract_y
_atom_site_fract_z
Si Si1 0.088018 0.009111 0.055244
Si Si2 0.445868 0.790359 0.085075
Si Si3 0.580253 0.323439 0.607706
Si Si4 0.819290 0.030474 0.934984
Si Si5 0.888801 0.290799 0.932914
Si Si6 0.579891 0.960964 0.327056
Si Si7 0.164560 0.455967 0.390662
Si Si8 0.184915 0.800356 0.107895
O O1 0.109071 0.091766 0.066219
O O2 0.000000 0.992071 0.250000
O O3 0.124989 0.954206 0.075587
O O4 0.130332 0.994165 0.808685
O O5 0.420276 0.728061 0.257240
O O6 0.420803 0.871870 0.202045
O O7 0.404503 0.766050 0.048844
O O8 0.534342 0.798225 0.842141
O O9 0.500000 0.339408 0.750000
O O10 0.622632 0.284966 0.377154
O O11 0.789080 0.112725 0.965576
O O12 0.749556 0.975063 0.137599
O O13 0.840161 0.226917 0.979725
O O14 0.841981 0.368665 0.048800
O O15 0.604476 0.974696 0.421873
O O16 0.500000 0.000000 0.500000
O O17 0.644017 0.993779 0.071467
O O18 0.250000 0.750000 0.000000
#
# Coordination Sequence:
#
# PCOD8142693 Si02
#       8
#     8   8   8   8   8   8   8   8
#     4  10  23  45  70  94 125 162 221 280 328 390
#     4  10  21  39  63  95 127 169 216 265 321 381
#     4  10  21  40  66  98 126 167 220 269 321 383
#     4  11  25  44  66  98 129 172 215 268 339 385
#     4  10  22  42  63  92 133 168 208 266 324 383
#     4  11  22  37  59  92 130 174 224 259 310 379
#     4  11  24  39  62  91 135 173 212 267 317 388
#     4  11  26  42  64  95 131 170 217 266 324 389
#
# _framework density 20.722290999999998
#
# number of rings (size 3 to 8) (size 9 to 14) (size 15 to 20)
#    0.000    1.500    2.500    1.500    7.000    2.000 
#    2.250    0.625    0.000    0.000    0.000    0.000 
#    0.000    0.000    0.000    0.000    0.000    0.000 
#
# Total GULP energy -396763.345302 kJ/mol
# GULP energy per Si atom -12398.854541 kJ/mol
# Density = 2.067513 g / cm^3
# Si number density = 20.722291 Si / 1000 Ang^3
#
#
#
# Elastic Constant Matrix: (Units=GPa)
#
#
# Indices 1 2 3 4 5 6 
#
# 1 84.8125 20.3221 22.9986 0.0000 0.4678 0.0000
# 2 20.3221 56.7855 34.4699 0.0000 3.2050 0.0000
# 3 22.9986 34.4699 120.4685 0.0000 1.0146 0.0000
# 4 0.0000 0.0000 0.0000 39.6822 0.0000 5.4825
# 5 0.4678 3.2050 1.0146 0.0000 37.1277 0.0000
# 6 0.0000 0.0000 0.0000 5.4825 0.0000 37.7200
#
#
#
# Elastic Compliance Matrix: (Units=1/GPa)
#
#
# Indices 1 2 3 4 5 6 
#
# 1 0.013091 -0.003846 -0.001400 0.000000 0.000205 0.000000
# 2 -0.003846 0.022546 -0.005702 0.000000 -0.001742 0.000000
# 3 -0.001400 -0.005702 0.010198 0.000000 0.000231 0.000000
# 4 0.000000 0.000000 0.000000 0.025717 0.000000 -0.003738
# 5 0.000205 -0.001742 0.000231 0.000000 0.027076 0.000000
# 6 0.000000 0.000000 0.000000 -0.003738 0.000000 0.027054
#
#
# Mechanical properties :
#
#
# Convention : Reuss Voigt Hill
#
# Bulk Modulus (GPa) = 41.77606 46.40529 44.09067
# Shear Modulus (GPa) = 32.14216 35.19105 33.66660
#
# Velocity S-wave (km/s) = 3.94266 4.12542 4.03508
# Velocity P-wave (km/s) = 6.39764 6.71823 6.55990
#
# Compressibility (1/GPa) = 0.02393716
#
# Stress axis : x y z
#
# Youngs Moduli (GPa) = 76.38854 44.35306 98.05943
#
# Poissons Ratio (x) = 0.17060 0.13731
# Poissons Ratio (y) = 0.29383 0.55916
# Poissons Ratio (z) = 0.10697 0.25291
#
# Static dielectric constant tensor:
#      x y z
#    x -1.066120 0.000000 0.907390 
#    y 0.000000 3.415050 0.000000 
#    z 0.907390 0.000000 3.653300 
# 
# 
# High freq. dielectric constant tensor:
#      x y z
#    x 1.819560 0.000000 0.005230 
#    y 0.000000 1.807400 0.000000 
#    z 0.005230 0.000000 1.817580 
# 
# From -- ./inp_files/70573.got.cif
#   From: 2010.06.25/outbox.cif.g09.slc.cpg/sg15_36_cif.got.tgz:70573.got - 2010.06.28 07:06:18.
