data_PCOD8142747
_publ_section_title
;
Structure prediction by ZEFSAII (Michael W. Deem and Ramdas Pophale) SiO2 
 PCOD8142747
Probable space group: C 2/C
;
_chemical_formula_sum "Si O2"
_cell_formula_units_Z 56
_cell_length_a 17.984450
_cell_length_b 5.373435
_cell_length_c 27.683622
_cell_angle_alpha 90.000000
_cell_angle_beta 97.426874
_cell_angle_gamma 90.000000
_cell_volume 2652.853398
_symmetry_space_group_name_H-M "C 2/C"
_symmetry_group_IT_number 15
_symmetry_cell_setting 'monoclinic'
loop_
_space_group_symop_operation_xyz
x,y,z
-x,y,1/2-z
-x,-y,-z
x,-y,1/2+z
1/2+x,1/2+y,z
1/2-x,1/2+y,1/2-z
1/2-x,1/2-y,-z
1/2+x,1/2-y,1/2+z
loop_
_atom_site_type_symbol
_atom_site_label
_atom_site_fract_x
_atom_site_fract_y
_atom_site_fract_z
Si Si1 0.710476 0.932333 0.936550
Si Si2 0.846065 0.694474 0.350339
Si Si3 0.705120 0.253637 0.253074
Si Si4 0.410937 0.677652 0.087276
Si Si5 0.916899 0.803347 0.898194
Si Si6 0.199347 0.069300 0.856460
Si Si7 0.357633 0.575944 0.491998
O O1 0.742871 0.757361 0.896256
O O2 0.786395 0.072270 0.961706
O O3 0.644808 0.094587 0.908243
O O4 0.675133 0.798092 0.979471
O O5 0.858646 0.715919 0.293344
O O6 0.881210 0.437094 0.370968
O O7 0.755708 0.666837 0.353023
O O8 0.882294 0.935862 0.377318
O O9 0.750188 0.496289 0.239336
O O10 0.673914 0.307498 0.303882
O O11 0.496058 0.724207 0.108365
O O12 0.378764 0.477236 0.122227
O O13 0.405526 0.603648 0.030305
O O14 0.910510 0.803295 0.955657
#
# Coordination Sequence:
#
# PCOD8142747 Si02
#       7
#     8   8   8   8   8   8   8
#     4  10  21  39  64  96 126 172 224 272 328 381
#     4  11  24  44  68  97 129 172 223 269 333 391
#     4  10  22  40  71 103 124 161 223 279 324 382
#     4  11  25  39  64  95 137 176 220 267 335 395
#     4  12  26  42  67  95 140 178 214 273 328 400
#     4  10  22  41  69  94 127 168 220 280 322 393
#     4  10  22  39  62  96 127 176 228 270 320 389
#
# _framework density 21.109347
#
# number of rings (size 3 to 8) (size 9 to 14) (size 15 to 20)
#    0.000    1.429    1.429    3.429   10.000    0.571 
#    0.000    0.714    0.000    0.000    0.000    0.000 
#    0.000    0.000    0.000    0.000    0.000    0.000 
#
# Total GULP energy -346907.143597 kJ/mol
# GULP energy per Si atom -12389.540843 kJ/mol
# Density = 2.106130 g / cm^3
# Si number density = 21.109347 Si / 1000 Ang^3
#
#
#
# Elastic Constant Matrix: (Units=GPa)
#
#
# Indices 1 2 3 4 5 6 
#
# 1 70.8736 6.9235 26.2275 0.0000 14.0681 0.0000
# 2 6.9235 95.0154 20.5158 0.0000 15.9411 0.0000
# 3 26.2275 20.5158 125.5480 0.0000 -5.6589 0.0000
# 4 0.0000 0.0000 0.0000 26.9789 0.0000 8.6413
# 5 14.0681 15.9411 -5.6589 0.0000 12.9932 0.0000
# 6 0.0000 0.0000 0.0000 8.6413 0.0000 10.2320
#
#
#
# Elastic Compliance Matrix: (Units=1/GPa)
#
#
# Indices 1 2 3 4 5 6 
#
# 1 0.023424 0.005931 -0.007480 0.000000 -0.035896 0.000000
# 2 0.005931 0.015925 -0.005112 0.000000 -0.028186 0.000000
# 3 -0.007480 -0.005112 0.011231 0.000000 0.019262 0.000000
# 4 0.000000 0.000000 0.000000 0.050811 0.000000 -0.042912
# 5 -0.035896 -0.028186 0.019262 0.000000 0.158799 0.000000
# 6 0.000000 0.000000 0.000000 -0.042912 0.000000 0.133973
#
#
# Mechanical properties :
#
#
# Convention : Reuss Voigt Hill
#
# Bulk Modulus (GPa) = 26.84048 44.30784 35.57416
# Shear Modulus (GPa) = 11.90747 25.89215 18.89981
#
# Velocity S-wave (km/s) = 2.37762 3.50605 2.99545
# Velocity P-wave (km/s) = 4.50334 6.11760 5.37146
#
# Compressibility (1/GPa) = 0.03725716
#
# Stress axis : x y z
#
# Youngs Moduli (GPa) = 42.69199 62.79436 89.03700
#
# Poissons Ratio (x) = -0.37241 0.66603
# Poissons Ratio (y) = -0.25319 0.45513
# Poissons Ratio (z) = 0.31935 0.32099
#
# Static dielectric constant tensor:
#      x y z
#    x 3.639910 0.000000 -0.101090 
#    y 0.000000 3.865640 0.000000 
#    z -0.101090 0.000000 4.197110 
# 
# 
# High freq. dielectric constant tensor:
#      x y z
#    x 1.801030 0.000000 -0.009860 
#    y 0.000000 1.827060 0.000000 
#    z -0.009860 0.000000 1.844150 
# 
# From -- ./inp_files/297790.got.cif
#   From: 2010.06.25/outbox.cif.g09.slc.cpg/sg15_149_cif.got.tgz:297790.got - 2010.06.28 07:06:18.
