data_PCOD8142100
_publ_section_title
;
Structure prediction by ZEFSAII (Michael W. Deem and Ramdas Pophale) SiO2 
 PCOD8142100
Probable space group: C 2/C
;
_chemical_formula_sum "Si O2"
_cell_formula_units_Z 32
_cell_length_a 12.414288
_cell_length_b 7.560171
_cell_length_c 26.126033
_cell_angle_alpha 90.000000
_cell_angle_beta 151.364900
_cell_angle_gamma 90.000000
_cell_volume 1175.088478
_symmetry_space_group_name_H-M "C 2/C"
_symmetry_group_IT_number 15
_symmetry_cell_setting 'monoclinic'
loop_
_space_group_symop_operation_xyz
x,y,z
-x,y,1/2-z
-x,-y,-z
x,-y,1/2+z
1/2+x,1/2+y,z
1/2-x,1/2+y,1/2-z
1/2-x,1/2-y,-z
1/2+x,1/2-y,1/2+z
loop_
_atom_site_type_symbol
_atom_site_label
_atom_site_fract_x
_atom_site_fract_y
_atom_site_fract_z
Si Si1 0.673719 0.329068 0.209427
Si Si2 0.614128 0.642314 0.392908
Si Si3 0.753638 0.892910 0.372272
Si Si4 0.812782 0.580251 0.059418
O O1 0.542066 0.474655 0.188768
O O2 0.603284 0.384532 0.120612
O O3 0.575910 0.130107 0.181161
O O4 0.941796 0.311727 0.330568
O O5 0.765318 0.703770 0.407709
O O6 0.769855 0.596855 0.507090
O O7 0.500000 0.929051 0.250000
O O8 0.818398 0.050743 0.440341
O O9 0.750000 0.750000 0.000000
#
# Coordination Sequence:
#
# PCOD8142100 Si02
#       4
#     8   8   8   8
#     4  10  21  40  60  84 124 159 192 252 303 340
#     4  10  21  38  62  88 117 157 201 242 295 357
#     4  10  21  39  61  87 120 159 199 242 298 354
#     4  10  22  40  62  91 121 156 203 245 293 360
#
# _framework density 27.231992000000002
#
# number of rings (size 3 to 8) (size 9 to 14) (size 15 to 20)
#    0.000    2.000    0.000    3.750    0.000    5.000 
#    0.000   40.000    0.000    0.000    0.000    0.000 
#    0.000    0.000    0.000    0.000    0.000    0.000 
#
# Total GULP energy -198225.390415 kJ/mol
# GULP energy per Si atom -12389.086901 kJ/mol
# Density = 2.717001 g / cm^3
# Si number density = 27.231992 Si / 1000 Ang^3
#
#
#
# Elastic Constant Matrix: (Units=GPa)
#
#
# Indices 1 2 3 4 5 6 
#
# 1 124.1058 60.1021 15.6666 -0.0012 -21.6256 -0.0008
# 2 60.1021 141.5439 30.1723 0.0000 -19.2466 0.0000
# 3 15.6666 30.1723 94.1174 0.0029 -22.1985 0.0031
# 4 -0.0012 0.0000 0.0029 34.8198 -0.0002 -13.9705
# 5 -21.6256 -19.2466 -22.1985 -0.0002 31.6552 -0.0002
# 6 -0.0008 0.0000 0.0031 -13.9705 -0.0002 41.1822
#
#
#
# Elastic Compliance Matrix: (Units=1/GPa)
#
#
# Indices 1 2 3 4 5 6 
#
# 1 0.010875 -0.004034 0.000787 0.000000 0.005529 0.000000
# 2 -0.004034 0.009414 -0.001973 0.000000 0.001585 0.000000
# 3 0.000787 -0.001973 0.013144 -0.000002 0.008556 -0.000002
# 4 0.000000 0.000000 -0.000002 0.033244 0.000000 0.011278
# 5 0.005529 0.001585 0.008556 0.000000 0.042331 -0.000001
# 6 0.000000 0.000000 -0.000002 0.011278 -0.000001 0.028108
#
#
# Mechanical properties :
#
#
# Convention : Reuss Voigt Hill
#
# Bulk Modulus (GPa) = 43.48917 63.51657 53.50287
# Shear Modulus (GPa) = 32.21234 38.45318 35.33276
#
# Velocity S-wave (km/s) = 3.44304 3.76181 3.60595
# Velocity P-wave (km/s) = 5.64009 6.49948 6.08497
#
# Compressibility (1/GPa) = 0.02299423
#
# Stress axis : x y z
#
# Youngs Moduli (GPa) = 91.95256 106.22794 76.07786
#
# Poissons Ratio (x) = 0.42850 -0.05987
# Poissons Ratio (y) = 0.37091 0.15008
# Poissons Ratio (z) = -0.07236 0.20955
#
# Static dielectric constant tensor:
#      x y z
#    x 5.365170 0.000000 0.684360 
#    y 0.000000 5.400430 0.000000 
#    z 0.684360 0.000000 6.098550 
# 
# 
# High freq. dielectric constant tensor:
#      x y z
#    x 2.067520 0.000000 0.025780 
#    y 0.000000 2.118210 0.000000 
#    z 0.025780 0.000000 2.156250 
# 
# From -- ./inp_files/149962.got.cif
#   From: 2010.06.25/outbox.cif.g09.slc.cpg/sg15_75_cif.got.tgz:149962.got - 2010.06.28 07:06:18.
