data_PCOD8142113
_publ_section_title
;
Structure prediction by ZEFSAII (Michael W. Deem and Ramdas Pophale) SiO2 
 PCOD8142113
Probable space group: C 2/C
;
_chemical_formula_sum "Si O2"
_cell_formula_units_Z 64
_cell_length_a 28.260398
_cell_length_b 12.219712
_cell_length_c 13.775433
_cell_angle_alpha 90.000000
_cell_angle_beta 42.301015
_cell_angle_gamma 90.000000
_cell_volume 3201.666540
_symmetry_space_group_name_H-M "C 2/C"
_symmetry_group_IT_number 15
_symmetry_cell_setting 'monoclinic'
loop_
_space_group_symop_operation_xyz
x,y,z
-x,y,1/2-z
-x,-y,-z
x,-y,1/2+z
1/2+x,1/2+y,z
1/2-x,1/2+y,1/2-z
1/2-x,1/2-y,-z
1/2+x,1/2-y,1/2+z
loop_
_atom_site_type_symbol
_atom_site_label
_atom_site_fract_x
_atom_site_fract_y
_atom_site_fract_z
Si Si1 0.356008 0.231693 0.287575
Si Si2 0.149143 0.122898 0.202730
Si Si3 0.502003 0.129182 0.479504
Si Si4 0.871485 0.073956 0.629752
Si Si5 0.503484 0.315566 0.855322
Si Si6 0.279103 0.449908 0.095798
Si Si7 0.652513 0.179035 0.826551
Si Si8 0.213388 0.804088 0.915249
O O1 0.426829 0.158335 0.187237
O O2 0.371156 0.352895 0.226964
O O3 0.297600 0.184384 0.302135
O O4 0.323465 0.236827 0.443238
O O5 0.074308 0.118720 0.265100
O O6 0.164345 0.245653 0.214478
O O7 0.147452 0.046362 0.301389
O O8 0.206200 0.093317 0.034892
O O9 0.504650 0.202006 0.573081
O O10 0.430507 0.158086 0.528474
O O11 0.500000 0.000000 0.500000
O O12 0.817059 0.112311 0.628193
O O13 0.947551 0.090212 0.466641
O O14 0.500000 0.277696 0.750000
O O15 0.195079 0.433789 0.240291
O O16 0.310988 0.571170 0.054318
O O17 0.690189 0.239187 0.857002
#
# Coordination Sequence:
#
# PCOD8142113 Si02
#       8
#     8   8   8   8   8   8   8   8
#     4  10  22  41  64  88 124 164 210 258 319 379
#     4  11  22  39  59  92 124 161 210 261 317 380
#     4  10  23  45  64  89 129 166 212 263 321 382
#     4  11  20  37  62  89 120 163 205 255 320 377
#     4  10  21  38  62  89 125 164 204 258 318 392
#     4  12  22  38  62  88 127 162 208 259 322 374
#     4  11  24  40  62  95 127 163 216 266 309 390
#     4  11  22  39  64  92 123 164 212 263 317 376
#
# _framework density 19.989588999999999
#
# number of rings (size 3 to 8) (size 9 to 14) (size 15 to 20)
#    0.000    1.250    5.000    1.500    0.000    0.500 
#    2.250    1.250    0.000    0.000    0.000    0.000 
#    0.000    0.000    0.000    0.000    0.000    0.000 
#
# Total GULP energy -396576.495248 kJ/mol
# GULP energy per Si atom -12393.015477 kJ/mol
# Density = 1.994409 g / cm^3
# Si number density = 19.989589 Si / 1000 Ang^3
#
#
#
# Elastic Constant Matrix: (Units=GPa)
#
#
# Indices 1 2 3 4 5 6 
#
# 1 112.2967 20.9263 57.6761 0.0000 -12.0936 0.0000
# 2 20.9263 79.9414 23.4275 0.0000 -11.3548 0.0000
# 3 57.6761 23.4275 98.7736 0.0000 -26.5002 0.0000
# 4 0.0000 0.0000 0.0000 19.8688 0.0000 1.4101
# 5 -12.0936 -11.3548 -26.5002 0.0000 29.2656 0.0000
# 6 0.0000 0.0000 0.0000 1.4101 0.0000 13.2108
#
#
#
# Elastic Compliance Matrix: (Units=1/GPa)
#
#
# Indices 1 2 3 4 5 6 
#
# 1 0.012949 -0.001418 -0.007842 0.000000 -0.002300 0.000000
# 2 -0.001418 0.013812 -0.001542 0.000000 0.003377 0.000000
# 3 -0.007842 -0.001542 0.018544 0.000000 0.012953 0.000000
# 4 0.000000 0.000000 0.000000 0.050714 0.000000 -0.005413
# 5 -0.002300 0.003377 0.012953 0.000000 0.046259 0.000000
# 6 0.000000 0.000000 0.000000 -0.005413 0.000000 0.076273
#
#
# Mechanical properties :
#
#
# Convention : Reuss Voigt Hill
#
# Bulk Modulus (GPa) = 42.19245 55.00794 48.60019
# Shear Modulus (GPa) = 20.15670 25.06782 22.61226
#
# Velocity S-wave (km/s) = 3.17891 3.54509 3.36698
# Velocity P-wave (km/s) = 5.88447 6.65845 6.28339
#
# Compressibility (1/GPa) = 0.02370092
#
# Stress axis : x y z
#
# Youngs Moduli (GPa) = 77.22404 72.40132 53.92484
#
# Poissons Ratio (x) = 0.10269 0.42289
# Poissons Ratio (y) = 0.10953 0.08314
# Poissons Ratio (z) = 0.60560 0.11163
#
# Static dielectric constant tensor:
#      x y z
#    x 3.757940 0.000000 -0.160770 
#    y 0.000000 3.513360 0.000000 
#    z -0.160770 0.000000 3.681780 
# 
# 
# High freq. dielectric constant tensor:
#      x y z
#    x 1.787820 0.000000 -0.006220 
#    y 0.000000 1.772150 0.000000 
#    z -0.006220 0.000000 1.780730 
# 
# From -- ./inp_files/181763.got.cif
#   From: 2010.06.25/outbox.cif.g09.slc.cpg/sg15_91_cif.got.tgz:181763.got - 2010.06.28 07:06:18.
