data_PCOD8142743
_publ_section_title
;
Structure prediction by ZEFSAII (Michael W. Deem and Ramdas Pophale) SiO2 
 PCOD8142743
Probable space group: C 2/C
;
_chemical_formula_sum "Si O2"
_cell_formula_units_Z 40
_cell_length_a 22.963810
_cell_length_b 7.244000
_cell_length_c 15.507799
_cell_angle_alpha 90.000000
_cell_angle_beta 47.899568
_cell_angle_gamma 90.000000
_cell_volume 1914.076785
_symmetry_space_group_name_H-M "C 2/C"
_symmetry_group_IT_number 15
_symmetry_cell_setting 'monoclinic'
loop_
_space_group_symop_operation_xyz
x,y,z
-x,y,1/2-z
-x,-y,-z
x,-y,1/2+z
1/2+x,1/2+y,z
1/2-x,1/2+y,1/2-z
1/2-x,1/2-y,-z
1/2+x,1/2-y,1/2+z
loop_
_atom_site_type_symbol
_atom_site_label
_atom_site_fract_x
_atom_site_fract_y
_atom_site_fract_z
Si Si1 0.175489 0.885839 0.889222
Si Si2 0.031822 0.761233 0.127151
Si Si3 0.515784 0.847022 0.327068
Si Si4 0.073854 0.208432 0.927000
Si Si5 0.336321 0.947002 0.226507
O O1 0.189274 0.716285 0.811210
O O2 0.138670 0.051931 0.870933
O O3 0.259379 0.954473 0.842549
O O4 0.121423 0.827849 0.023915
O O5 0.000000 0.836920 0.250000
O O6 0.030300 0.540469 0.126389
O O7 0.979610 0.843801 0.101699
O O8 0.500000 0.752095 0.250000
O O9 0.481711 0.712912 0.433909
O O10 0.609246 0.874894 0.249176
O O11 0.112815 0.408399 0.878854
#
# Coordination Sequence:
#
# PCOD8142743 Si02
#       5
#     8   8   8   8   8
#     4  12  22  39  65  94 126 166 209 260 321 370
#     4  10  21  39  64  95 126 165 215 256 309 375
#     4  10  21  41  65  92 127 169 215 260 305 374
#     4  11  21  40  66  88 124 173 212 261 304 377
#     4  11  22  40  62  94 129 160 211 263 317 368
#
# _framework density 20.897801999999999
#
# number of rings (size 3 to 8) (size 9 to 14) (size 15 to 20)
#    0.000    1.200    6.000    1.800    0.000    0.800 
#    0.000   12.000    0.000    0.000    0.000    0.000 
#    0.000    0.000    0.000    0.000    0.000    0.000 
#
# Total GULP energy -248042.141382 kJ/mol
# GULP energy per Si atom -12402.107069 kJ/mol
# Density = 2.085024 g / cm^3
# Si number density = 20.897802 Si / 1000 Ang^3
#
#
#
# Elastic Constant Matrix: (Units=GPa)
#
#
# Indices 1 2 3 4 5 6 
#
# 1 125.0325 29.8350 92.6189 0.0152 -5.2601 -0.0050
# 2 29.8350 61.1660 23.0263 -0.0002 -8.0333 -0.0357
# 3 92.6189 23.0263 145.6636 0.0187 1.4248 -0.0125
# 4 0.0152 -0.0002 0.0187 14.8017 -0.0069 -17.2360
# 5 -5.2601 -8.0333 1.4248 -0.0069 45.2166 0.0001
# 6 -0.0050 -0.0357 -0.0125 -17.2360 0.0001 17.6564
#
#
#
# Elastic Compliance Matrix: (Units=1/GPa)
#
#
# Indices 1 2 3 4 5 6 
#
# 1 0.016190 -0.004066 -0.009666 0.000117 0.001466 0.000104
# 2 -0.004066 0.018872 -0.000427 -0.000358 0.002893 -0.000313
# 3 -0.009666 -0.000427 0.013094 0.000005 -0.001613 0.000011
# 4 0.000117 -0.000358 0.000005 -0.494099 -0.000124 -0.482334
# 5 0.001466 0.002893 -0.001613 -0.000124 0.022851 -0.000116
# 6 0.000104 -0.000313 0.000011 -0.482334 -0.000116 -0.414212
#
#
# Mechanical properties :
#
#
# Convention : Reuss Voigt Hill
#
# Bulk Modulus (GPa) = 50.40168 69.20249 59.80209
# Shear Modulus (GPa) = -6.23151 27.96041 10.86445
#
# Velocity S-wave (km/s) = -1.72869 3.66178 2.28257
# Velocity P-wave (km/s) = 4.49289 7.14596 5.96870
#
# Compressibility (1/GPa) = 0.01984061
#
# Stress axis : x y z
#
# Youngs Moduli (GPa) = 61.76792 52.98733 76.36984
#
# Poissons Ratio (x) = 0.21542 0.73817
# Poissons Ratio (y) = 0.25112 0.03257
# Poissons Ratio (z) = 0.59703 0.02260
#
# Static dielectric constant tensor:
#      x y z
#    x 3.823340 -0.000010 -0.100810 
#    y -0.000010 3.808020 0.000030 
#    z -0.100810 0.000030 3.814250 
# 
# 
# High freq. dielectric constant tensor:
#      x y z
#    x 1.805520 0.000000 -0.011950 
#    y 0.000000 1.833360 0.000000 
#    z -0.011950 0.000000 1.805010 
# 
# From -- ./inp_files/166017.got.cif
#   From: 2010.06.25/outbox.cif.g09.slc.cpg/sg15_84_cif.got.tgz:166017.got - 2010.06.28 07:06:18.
