data_PCOD8142698
_publ_section_title
;
Structure prediction by ZEFSAII (Michael W. Deem and Ramdas Pophale) SiO2 
 PCOD8142698
Probable space group: C 2/C
;
_chemical_formula_sum "Si O2"
_cell_formula_units_Z 40
_cell_length_a 7.442817
_cell_length_b 21.778293
_cell_length_c 9.580801
_cell_angle_alpha 90.000000
_cell_angle_beta 89.894582
_cell_angle_gamma 90.000000
_cell_volume 1552.967124
_symmetry_space_group_name_H-M "C 2/C"
_symmetry_group_IT_number 15
_symmetry_cell_setting 'monoclinic'
loop_
_space_group_symop_operation_xyz
x,y,z
-x,y,1/2-z
-x,-y,-z
x,-y,1/2+z
1/2+x,1/2+y,z
1/2-x,1/2+y,1/2-z
1/2-x,1/2-y,-z
1/2+x,1/2-y,1/2+z
loop_
_atom_site_type_symbol
_atom_site_label
_atom_site_fract_x
_atom_site_fract_y
_atom_site_fract_z
Si Si1 0.037138 0.936940 0.076973
Si Si2 0.669837 0.963128 0.169186
Si Si3 0.940074 0.181654 0.408343
Si Si4 0.026337 0.292802 0.905453
Si Si5 0.401679 0.921339 0.973609
O O1 0.875276 0.936104 0.198291
O O2 0.255799 0.935233 0.104261
O O3 0.010911 0.881189 0.972042
O O4 0.000000 0.000000 0.000000
O O5 0.500000 0.933833 0.250000
O O6 0.605762 0.941457 0.012385
O O7 0.667142 0.037950 0.160065
O O8 0.029436 0.239085 0.488868
O O9 0.727781 0.184708 0.429810
O O10 0.000000 0.186967 0.250000
O O11 0.000000 0.266821 0.750000
O O12 0.892458 0.350325 0.929538
#
# Coordination Sequence:
#
# PCOD8142698 Si02
#       5
#     8   8   8   8   8
#     4  10  22  44  64 101 134 175 232 285 344 415
#     4  10  21  39  63  98 136 176 229 282 344 416
#     4  11  25  46  71 102 141 184 241 293 346 428
#     4  11  24  45  71 102 139 188 236 290 356 420
#     4  10  21  40  66  94 136 179 224 279 352 412
#
# _framework density 25.757148000000001
#
# number of rings (size 3 to 8) (size 9 to 14) (size 15 to 20)
#    0.000    1.600    2.000    1.800    0.000    6.400 
#    3.600    0.000    0.000    0.000    0.000    0.000 
#    0.000    0.000    0.000    0.000    0.000    0.000 
#
# Total GULP energy -247805.185002 kJ/mol
# GULP energy per Si atom -12390.259250 kJ/mol
# Density = 2.569852 g / cm^3
# Si number density = 25.757148 Si / 1000 Ang^3
#
#
#
# Elastic Constant Matrix: (Units=GPa)
#
#
# Indices 1 2 3 4 5 6 
#
# 1 185.4449 49.4943 57.5460 0.0000 3.6943 0.0000
# 2 49.4943 179.7322 52.7033 0.0000 -4.5970 0.0000
# 3 57.5460 52.7033 98.6788 0.0000 -35.8194 0.0000
# 4 0.0000 0.0000 0.0000 15.7141 0.0000 -7.6634
# 5 3.6943 -4.5970 -35.8194 0.0000 39.2621 0.0000
# 6 0.0000 0.0000 0.0000 -7.6634 0.0000 31.0327
#
#
#
# Elastic Compliance Matrix: (Units=1/GPa)
#
#
# Indices 1 2 3 4 5 6 
#
# 1 0.007771 -0.000279 -0.006967 0.000000 -0.007120 0.000000
# 2 -0.000279 0.006977 -0.004870 0.000000 -0.003600 0.000000
# 3 -0.006967 -0.004870 0.025162 0.000000 0.023041 0.000000
# 4 0.000000 0.000000 0.000000 0.072350 0.000000 0.017867
# 5 -0.007120 -0.003600 0.023041 0.000000 0.046739 0.000000
# 6 0.000000 0.000000 0.000000 0.017867 0.000000 0.036636
#
#
# Mechanical properties :
#
#
# Convention : Reuss Voigt Hill
#
# Bulk Modulus (GPa) = 63.79109 87.03812 75.41460
# Shear Modulus (GPa) = 22.21312 37.47591 29.84452
#
# Velocity S-wave (km/s) = 2.93986 3.81855 3.40764
# Velocity P-wave (km/s) = 6.02858 7.30116 6.69518
#
# Compressibility (1/GPa) = 0.01567617
#
# Stress axis : x y z
#
# Youngs Moduli (GPa) = 128.68819 143.33398 39.74325
#
# Poissons Ratio (x) = 0.03999 0.27689
# Poissons Ratio (y) = 0.03591 0.19356
# Poissons Ratio (z) = 0.89658 0.69808
#
# Static dielectric constant tensor:
#      x y z
#    x 5.478650 0.000000 -0.317370 
#    y 0.000000 4.580040 0.000000 
#    z -0.317370 0.000000 4.923760 
# 
# 
# High freq. dielectric constant tensor:
#      x y z
#    x 2.076770 0.000000 -0.008950 
#    y 0.000000 2.012570 0.000000 
#    z -0.008950 0.000000 2.046840 
# 
# From -- ./inp_files/77645.got.cif
#   From: 2010.06.25/outbox.cif.g09.slc.cpg/sg15_39_cif.got.tgz:77645.got - 2010.06.28 07:06:18.
