data_PCOD8142905
_publ_section_title
;
Structure prediction by ZEFSAII (Michael W. Deem and Ramdas Pophale) SiO2 
 PCOD8142905
Probable space group: C 2/C
;
_chemical_formula_sum "Si O2"
_cell_formula_units_Z 64
_cell_length_a 30.522940
_cell_length_b 19.933548
_cell_length_c 14.579928
_cell_angle_alpha 90.000000
_cell_angle_beta 20.819691
_cell_angle_gamma 90.000000
_cell_volume 3152.958465
_symmetry_space_group_name_H-M "C 2/C"
_symmetry_group_IT_number 15
_symmetry_cell_setting 'monoclinic'
loop_
_space_group_symop_operation_xyz
x,y,z
-x,y,1/2-z
-x,-y,-z
x,-y,1/2+z
1/2+x,1/2+y,z
1/2-x,1/2+y,1/2-z
1/2-x,1/2-y,-z
1/2+x,1/2-y,1/2+z
loop_
_atom_site_type_symbol
_atom_site_label
_atom_site_fract_x
_atom_site_fract_y
_atom_site_fract_z
Si Si1 0.969133 0.112643 0.209074
Si Si2 0.144032 0.508570 0.453511
Si Si3 0.231139 0.542109 0.594804
Si Si4 0.114497 0.675885 0.795659
Si Si5 0.225686 0.067108 0.641061
Si Si6 0.862494 0.342246 0.555154
Si Si7 0.313162 0.260569 0.015046
Si Si8 0.660020 0.186975 0.188175
O O1 0.000000 0.085597 0.250000
O O2 0.856517 0.074778 0.383959
O O3 0.934686 0.191850 0.280689
O O4 0.088718 0.097604 0.914223
O O5 0.168827 0.498314 0.298176
O O6 0.223542 0.457594 0.359750
O O7 0.181919 0.586012 0.397887
O O8 0.000000 0.495902 0.750000
O O9 0.128856 0.595413 0.758955
O O10 0.268848 0.494961 0.437779
O O11 0.190113 0.696393 0.738751
O O12 0.175561 0.705523 0.585713
O O13 0.977780 0.705163 0.073348
O O14 0.306317 0.127492 0.445760
O O15 0.787264 0.279795 0.659784
O O16 0.845271 0.339585 0.697618
O O17 0.000000 0.329808 0.250000
O O18 0.750000 0.250000 0.000000
#
# Coordination Sequence:
#
# PCOD8142905 Si02
#       8
#     8   8   8   8   8   8   8   8
#     4  11  23  41  68  95 127 177 220 266 328 401
#     4  11  24  41  65  99 130 172 224 270 332 390
#     4  11  23  43  67  98 131 171 220 272 331 397
#     4  10  22  40  64  96 128 169 218 269 328 390
#     4  12  25  42  68  94 138 171 216 280 333 392
#     4  11  22  41  68  94 129 173 223 269 320 406
#     4  10  21  39  67  93 126 171 222 261 323 397
#     4  12  26  41  64  99 136 171 221 277 338 389
#
# _framework density 20.298396
#
# number of rings (size 3 to 8) (size 9 to 14) (size 15 to 20)
#    0.000    1.000    3.750    3.000    3.500    1.000 
#    0.000    3.125    2.750    0.000    0.000    0.000 
#    0.000    0.000    0.000    0.000    0.000    0.000 
#
# Total GULP energy -396755.859277 kJ/mol
# GULP energy per Si atom -12398.620602 kJ/mol
# Density = 2.025220 g / cm^3
# Si number density = 20.298396 Si / 1000 Ang^3
#
#
#
# Elastic Constant Matrix: (Units=GPa)
#
#
# Indices 1 2 3 4 5 6 
#
# 1 79.4146 33.6246 33.5762 -0.0002 -0.5392 0.0001
# 2 33.6246 116.3436 34.1308 -0.0002 -6.7282 0.0001
# 3 33.5762 34.1308 102.8408 -0.0010 -6.7609 0.0005
# 4 -0.0002 -0.0002 -0.0010 56.4633 0.0006 3.1724
# 5 -0.5392 -6.7282 -6.7609 0.0006 33.2391 -0.0004
# 6 0.0001 0.0001 0.0005 3.1724 -0.0004 39.5969
#
#
#
# Elastic Compliance Matrix: (Units=1/GPa)
#
#
# Indices 1 2 3 4 5 6 
#
# 1 0.015766 -0.003429 -0.004093 0.000000 -0.001271 0.000000
# 2 -0.003429 0.010324 -0.002202 0.000000 0.001586 0.000000
# 3 -0.004093 -0.002202 0.011917 0.000000 0.001912 0.000000
# 4 0.000000 0.000000 0.000000 0.017791 0.000000 -0.001425
# 5 -0.001271 0.001586 0.001912 0.000000 0.030774 0.000000
# 6 0.000000 0.000000 0.000000 -0.001425 0.000000 0.025369
#
#
# Mechanical properties :
#
#
# Convention : Reuss Voigt Hill
#
# Bulk Modulus (GPa) = 53.88648 55.69581 54.79115
# Shear Modulus (GPa) = 36.34366 39.01103 37.67734
#
# Velocity S-wave (km/s) = 4.23598 4.38868 4.31301
# Velocity P-wave (km/s) = 7.10841 7.29238 7.20098
#
# Compressibility (1/GPa) = 0.01855753
#
# Stress axis : x y z
#
# Youngs Moduli (GPa) = 63.42784 96.85978 83.91623
#
# Poissons Ratio (x) = 0.33217 0.34345
# Poissons Ratio (y) = 0.21752 0.18482
# Poissons Ratio (z) = 0.25960 0.21333
#
# Static dielectric constant tensor:
#      x y z
#    x 3.915770 0.000000 -0.020970 
#    y 0.000000 3.917250 0.000000 
#    z -0.020970 0.000000 3.672500 
# 
# 
# High freq. dielectric constant tensor:
#      x y z
#    x 1.800290 0.000000 -0.000490 
#    y 0.000000 1.808670 0.000000 
#    z -0.000490 0.000000 1.783770 
# 
# From -- ./inp_files/183113.got.cif
#   From: 2010.06.25/outbox.cif.g09.slc.cpg/sg15_92_cif.got.tgz:183113.got - 2010.06.28 07:06:18.
