data_PCOD8142849
_publ_section_title
;
Structure prediction by ZEFSAII (Michael W. Deem and Ramdas Pophale) SiO2 
 PCOD8142849
Probable space group: C 2/C
;
_chemical_formula_sum "Si O2"
_cell_formula_units_Z 48
_cell_length_a 20.921995
_cell_length_b 25.034163
_cell_length_c 11.959260
_cell_angle_alpha 90.000000
_cell_angle_beta 159.380384
_cell_angle_gamma 90.000000
_cell_volume 2205.886146
_symmetry_space_group_name_H-M "C 2/C"
_symmetry_group_IT_number 15
_symmetry_cell_setting 'monoclinic'
loop_
_space_group_symop_operation_xyz
x,y,z
-x,y,1/2-z
-x,-y,-z
x,-y,1/2+z
1/2+x,1/2+y,z
1/2-x,1/2+y,1/2-z
1/2-x,1/2-y,-z
1/2+x,1/2-y,1/2+z
loop_
_atom_site_type_symbol
_atom_site_label
_atom_site_fract_x
_atom_site_fract_y
_atom_site_fract_z
Si Si1 0.952400 0.230468 0.803243
Si Si2 0.008965 0.155334 0.093858
Si Si3 0.896244 0.476601 0.975815
Si Si4 0.383052 0.545987 0.860126
Si Si5 0.805621 0.671278 0.752433
Si Si6 0.405461 0.923344 0.777644
O O1 0.750000 0.250000 0.500000
O O2 0.000000 0.220114 0.750000
O O3 0.998519 0.176751 0.949142
O O4 0.075198 0.276485 0.054247
O O5 0.197951 0.172708 0.459535
O O6 0.019179 0.090986 0.128131
O O7 0.831779 0.175905 0.869245
O O8 0.728560 0.515737 0.727098
O O9 0.844123 0.427497 0.807782
O O10 0.000000 0.449286 0.250000
O O11 0.044599 0.515894 0.167842
O O12 0.265000 0.584531 0.583325
O O13 0.500000 0.500000 0.000000
O O14 0.937188 0.619873 0.984035
#
# Coordination Sequence:
#
# PCOD8142849 Si02
#       6
#     8   8   8   8   8   8
#     4  12  25  48  78 104 139 180 237 292 358 425
#     4  11  25  45  69 106 139 179 236 286 353 420
#     4   9  20  37  61  90 129 173 225 274 328 396
#     4  11  24  40  64  95 138 179 229 281 338 409
#     4  11  24  44  75 100 138 184 227 292 353 421
#     4  10  21  39  66  93 129 174 230 271 338 403
#
# _framework density 21.759962000000002
#
# number of rings (size 3 to 8) (size 9 to 14) (size 15 to 20)
#    0.000    1.333    3.333    1.500    7.000    0.667 
#    6.000    0.000    0.000    0.000    0.000    0.000 
#    0.000    0.000    0.000    0.000    0.000    0.000 
#
# Total GULP energy -297326.171971 kJ/mol
# GULP energy per Si atom -12388.590499 kJ/mol
# Density = 2.171044 g / cm^3
# Si number density = 21.759962 Si / 1000 Ang^3
#
#
#
# Elastic Constant Matrix: (Units=GPa)
#
#
# Indices 1 2 3 4 5 6 
#
# 1 116.2678 21.5887 44.2337 0.0000 -8.2756 0.0000
# 2 21.5887 44.3468 38.6506 0.0000 12.6831 0.0000
# 3 44.2337 38.6506 109.3416 0.0000 3.9810 0.0000
# 4 0.0000 0.0000 0.0000 38.7490 0.0000 2.1355
# 5 -8.2756 12.6831 3.9810 0.0000 24.3611 0.0000
# 6 0.0000 0.0000 0.0000 2.1355 0.0000 37.2763
#
#
#
# Elastic Compliance Matrix: (Units=1/GPa)
#
#
# Indices 1 2 3 4 5 6 
#
# 1 0.011117 -0.004614 -0.003110 0.000000 0.006687 0.000000
# 2 -0.004614 0.041232 -0.011941 0.000000 -0.021083 0.000000
# 3 -0.003110 -0.011941 0.014523 0.000000 0.002787 0.000000
# 4 0.000000 0.000000 0.000000 0.025889 0.000000 -0.001483
# 5 0.006687 -0.021083 0.002787 0.000000 0.053841 0.000000
# 6 0.000000 0.000000 0.000000 -0.001483 0.000000 0.026912
#
#
# Mechanical properties :
#
#
# Convention : Reuss Voigt Hill
#
# Bulk Modulus (GPa) = 36.30662 53.21137 44.75900
# Shear Modulus (GPa) = 22.52011 31.10949 26.81480
#
# Velocity S-wave (km/s) = 3.22053 3.78520 3.51422
# Velocity P-wave (km/s) = 5.52724 6.60382 6.08937
#
# Compressibility (1/GPa) = 0.02754318
#
# Stress axis : x y z
#
# Youngs Moduli (GPa) = 89.95622 24.25280 68.85562
#
# Poissons Ratio (x) = 0.11190 0.21412
# Poissons Ratio (y) = 0.41504 0.82220
# Poissons Ratio (z) = 0.27974 0.28960
#
# Static dielectric constant tensor:
#      x y z
#    x 7.153620 0.000000 0.326090 
#    y 0.000000 3.776860 0.000000 
#    z 0.326090 0.000000 4.367690 
# 
# 
# High freq. dielectric constant tensor:
#      x y z
#    x 1.855350 0.000000 -0.007980 
#    y 0.000000 1.845220 0.000000 
#    z -0.007980 0.000000 1.865160 
# 
# From -- ./inp_files/115069.got.cif
#   From: 2010.06.25/outbox.cif.g09.slc.cpg/sg15_58_cif.got.tgz:115069.got - 2010.06.28 07:06:18.
