data_PCOD8142596
_publ_section_title
;
Structure prediction by ZEFSAII (Michael W. Deem and Ramdas Pophale) SiO2 
 PCOD8142596
Probable space group: C 2/C
;
_chemical_formula_sum "Si O2"
_cell_formula_units_Z 64
_cell_length_a 14.516469
_cell_length_b 19.209031
_cell_length_c 23.056255
_cell_angle_alpha 90.000000
_cell_angle_beta 150.909730
_cell_angle_gamma 90.000000
_cell_volume 3125.781004
_symmetry_space_group_name_H-M "C 2/C"
_symmetry_group_IT_number 15
_symmetry_cell_setting 'monoclinic'
loop_
_space_group_symop_operation_xyz
x,y,z
-x,y,1/2-z
-x,-y,-z
x,-y,1/2+z
1/2+x,1/2+y,z
1/2-x,1/2+y,1/2-z
1/2-x,1/2-y,-z
1/2+x,1/2-y,1/2+z
loop_
_atom_site_type_symbol
_atom_site_label
_atom_site_fract_x
_atom_site_fract_y
_atom_site_fract_z
Si Si1 0.438451 0.793834 0.362830
Si Si2 0.520073 0.678141 0.609935
Si Si3 0.484866 0.920376 0.176926
Si Si4 0.618400 0.530405 0.418737
Si Si5 0.945182 0.828436 0.783060
Si Si6 0.614580 0.534038 0.614699
Si Si7 0.665726 0.609654 0.885564
Si Si8 0.514333 0.189120 0.034938
O O1 0.212462 0.796824 0.246803
O O2 0.508793 0.861132 0.367516
O O3 0.511024 0.726271 0.368033
O O4 0.531927 0.792391 0.477062
O O5 0.563069 0.615798 0.588736
O O6 0.367167 0.653617 0.573448
O O7 0.442357 0.742392 0.529602
O O8 0.500000 0.888308 0.250000
O O9 0.659320 0.974692 0.267352
O O10 0.289369 0.961206 0.058898
O O11 0.561688 0.600756 0.355278
O O12 0.436164 0.503121 0.353067
O O13 0.675095 0.472977 0.402243
O O14 0.720001 0.838446 0.667013
O O15 0.000000 0.798760 0.750000
O O16 0.500000 0.500000 0.500000
O O17 0.500000 0.628062 0.750000
O O18 0.865095 0.628504 0.966015
#
# Coordination Sequence:
#
# PCOD8142596 Si02
#       8
#     8   8   8   8   8   8   8   8
#     4  10  22  39  65  94 122 171 211 260 322 380
#     4   9  21  40  62  95 126 164 211 263 325 375
#     4  11  22  40  64  90 126 172 211 251 325 377
#     4  11  25  40  62  94 129 167 208 264 319 377
#     4  11  25  43  60  97 133 162 215 265 320 378
#     4  10  21  39  62  91 127 163 209 261 309 384
#     4  11  22  43  66  91 129 167 215 262 324 386
#     4  11  23  41  69  91 126 168 218 269 316 382
#
# _framework density 20.474882000000001
#
# number of rings (size 3 to 8) (size 9 to 14) (size 15 to 20)
#    0.000    1.500    2.500    1.875    3.500    3.000 
#    0.000    1.875    2.750    0.000    0.000    0.000 
#    0.000    0.000    0.000    0.000    0.000    0.000 
#
# Total GULP energy -396898.373485 kJ/mol
# GULP energy per Si atom -12403.074171 kJ/mol
# Density = 2.042828 g / cm^3
# Si number density = 20.474882 Si / 1000 Ang^3
#
#
#
# Elastic Constant Matrix: (Units=GPa)
#
#
# Indices 1 2 3 4 5 6 
#
# 1 98.6394 39.5999 37.4242 -0.0026 -5.1275 -0.0004
# 2 39.5999 100.2414 40.8230 0.0019 -5.2489 0.0005
# 3 37.4242 40.8230 103.0839 0.0013 -1.0125 -0.0029
# 4 -0.0026 0.0019 0.0013 25.2170 -0.0007 -5.6107
# 5 -5.1275 -5.2489 -1.0125 -0.0007 36.9468 -0.0012
# 6 -0.0004 0.0005 -0.0029 -5.6107 -0.0012 31.4248
#
#
#
# Elastic Compliance Matrix: (Units=1/GPa)
#
#
# Indices 1 2 3 4 5 6 
#
# 1 0.012912 -0.003738 -0.003196 0.000002 0.001173 0.000000
# 2 -0.003738 0.013067 -0.003806 -0.000001 0.001233 -0.000001
# 3 -0.003196 -0.003806 0.012362 0.000000 -0.000645 0.000001
# 4 0.000002 -0.000001 0.000000 0.041296 0.000001 0.007373
# 5 0.001173 0.001233 -0.000645 0.000001 0.027386 0.000001
# 6 0.000000 -0.000001 0.000001 0.007373 0.000001 0.033138
#
#
# Mechanical properties :
#
#
# Convention : Reuss Voigt Hill
#
# Bulk Modulus (GPa) = 59.30457 59.73988 59.52223
# Shear Modulus (GPa) = 29.89335 30.99225 30.44280
#
# Velocity S-wave (km/s) = 3.82514 3.89481 3.86013
# Velocity P-wave (km/s) = 6.96680 7.03325 7.00011
#
# Compressibility (1/GPa) = 0.01686211
#
# Stress axis : x y z
#
# Youngs Moduli (GPa) = 77.44682 76.52891 80.89416
#
# Poissons Ratio (x) = 0.28606 0.25853
# Poissons Ratio (y) = 0.28949 0.30785
# Poissons Ratio (z) = 0.24751 0.29124
#
# Static dielectric constant tensor:
#      x y z
#    x 3.801520 0.000000 0.061210 
#    y 0.000000 3.614010 -0.000010 
#    z 0.061210 -0.000010 3.690680 
# 
# 
# High freq. dielectric constant tensor:
#      x y z
#    x 1.811020 0.000000 0.001720 
#    y 0.000000 1.792540 0.000000 
#    z 0.001720 0.000000 1.801150 
# 
# From -- ./inp_files/274852.got.cif
#   From: 2010.06.25/outbox.cif.g09.slc.cpg/sg15_138_cif.got.tgz:274852.got - 2010.06.28 07:06:18.
