data_PCOD8142033
_publ_section_title
;
Structure prediction by ZEFSAII (Michael W. Deem and Ramdas Pophale) SiO2 
 PCOD8142033
Probable space group: C 2/C
;
_chemical_formula_sum "Si O2"
_cell_formula_units_Z 48
_cell_length_a 26.728055
_cell_length_b 12.962034
_cell_length_c 22.003799
_cell_angle_alpha 90.000000
_cell_angle_beta 17.692100
_cell_angle_gamma 90.000000
_cell_volume 2316.708100
_symmetry_space_group_name_H-M "C 2/C"
_symmetry_group_IT_number 15
_symmetry_cell_setting 'monoclinic'
loop_
_space_group_symop_operation_xyz
x,y,z
-x,y,1/2-z
-x,-y,-z
x,-y,1/2+z
1/2+x,1/2+y,z
1/2-x,1/2+y,1/2-z
1/2-x,1/2-y,-z
1/2+x,1/2-y,1/2+z
loop_
_atom_site_type_symbol
_atom_site_label
_atom_site_fract_x
_atom_site_fract_y
_atom_site_fract_z
Si Si1 0.900030 0.400137 0.637917
Si Si2 0.000000 0.789344 0.250000
Si Si3 0.500000 0.039729 0.750000
Si Si4 0.726721 0.869136 0.892471
Si Si5 0.142474 0.625860 0.173372
Si Si6 0.079984 0.215134 0.971611
Si Si7 0.317471 0.510270 0.689012
O O1 0.920254 0.386996 0.685807
O O2 0.958860 0.294647 0.537777
O O3 0.714587 0.430654 0.830293
O O4 0.000000 0.500000 0.500000
O O5 0.958077 0.720888 0.239303
O O6 0.839584 0.858628 0.448014
O O7 0.634726 0.112034 0.562026
O O8 0.397127 0.974642 0.820187
O O9 0.649286 0.769393 0.950675
O O10 0.702900 0.971624 0.877819
O O11 0.918598 0.845928 0.680548
O O12 0.214201 0.129824 0.792521
O O13 0.500000 0.500000 0.500000
#
# Coordination Sequence:
#
# PCOD8142033 Si02
#       7
#     8   4   4   8   8   8   8
#     4  11  22  37  62  91 120 154 198 253 304 355
#     4   9  22  40  62  87 116 160 204 249 302 371
#     4  11  24  40  56  81 126 166 198 247 294 365
#     4  10  22  39  59  86 119 158 199 244 302 359
#     4  10  22  40  60  87 120 157 203 250 307 361
#     4  10  21  38  61  87 117 152 197 251 303 357
#     4   9  20  37  59  88 117 149 192 247 303 354
#
# _framework density 20.719052999999999
#
# number of rings (size 3 to 8) (size 9 to 14) (size 15 to 20)
#    0.000    2.000    0.000    3.000    0.000   12.667 
#    0.000    0.000    0.000    0.000    0.000    0.000 
#    0.000    0.000    0.000    0.000    0.000    0.000 
#
# Total GULP energy -297463.315978 kJ/mol
# GULP energy per Si atom -12394.304832 kJ/mol
# Density = 2.067190 g / cm^3
# Si number density = 20.719053 Si / 1000 Ang^3
#
#
#
# Elastic Constant Matrix: (Units=GPa)
#
#
# Indices 1 2 3 4 5 6 
#
# 1 95.2288 17.2365 35.4095 -0.0088 10.1647 0.0080
# 2 17.2365 107.7456 44.5989 -0.0185 15.8157 0.0195
# 3 35.4095 44.5989 90.5630 -0.0074 10.3077 0.0097
# 4 -0.0088 -0.0185 -0.0074 40.3477 0.0058 -4.4131
# 5 10.1647 15.8157 10.3077 0.0058 41.6087 -0.0063
# 6 0.0080 0.0195 0.0097 -4.4131 -0.0063 28.2393
#
#
#
# Elastic Compliance Matrix: (Units=1/GPa)
#
#
# Indices 1 2 3 4 5 6 
#
# 1 0.012436 0.000275 -0.004774 0.000002 -0.001960 -0.000002
# 2 0.000275 0.012064 -0.005679 0.000004 -0.003246 -0.000006
# 3 -0.004774 -0.005679 0.015772 -0.000001 -0.000582 0.000000
# 4 0.000002 0.000004 -0.000001 0.025216 -0.000005 0.003941
# 5 -0.001960 -0.003246 -0.000582 -0.000005 0.025890 0.000008
# 6 -0.000002 -0.000006 0.000000 0.003941 0.000008 0.036028
#
#
# Mechanical properties :
#
#
# Convention : Reuss Voigt Hill
#
# Bulk Modulus (GPa) = 50.21633 54.22527 52.22080
# Shear Modulus (GPa) = 32.38309 35.12528 33.75419
#
# Velocity S-wave (km/s) = 3.95772 4.12188 4.04064
# Velocity P-wave (km/s) = 6.72117 6.99155 6.85769
#
# Compressibility (1/GPa) = 0.01991384
#
# Stress axis : x y z
#
# Youngs Moduli (GPa) = 80.41285 82.88826 63.40408
#
# Poissons Ratio (x) = -0.02275 0.30272
# Poissons Ratio (y) = -0.02207 0.36008
# Poissons Ratio (z) = 0.38393 0.47074
#
# Static dielectric constant tensor:
#      x y z
#    x 4.063720 -0.003780 -0.182340 
#    y -0.003780 8.803910 0.001510 
#    z -0.182340 0.001510 3.671360 
# 
# 
# High freq. dielectric constant tensor:
#      x y z
#    x 1.819450 0.000000 -0.019060 
#    y 0.000000 1.814920 0.000000 
#    z -0.019060 0.000000 1.803100 
# 
# From -- ./inp_files/257622.got.cif
#   From: 2010.06.25/outbox.cif.g09.slc.cpg/sg15_129_cif.got.tgz:257622.got - 2010.06.28 07:06:18.
