data_PCOD8142990
_publ_section_title
;
Structure prediction by ZEFSAII (Michael W. Deem and Ramdas Pophale) SiO2 
 PCOD8142990
Probable space group: C 2/C
;
_chemical_formula_sum "Si O2"
_cell_formula_units_Z 52
_cell_length_a 7.992617
_cell_length_b 11.716044
_cell_length_c 28.736093
_cell_angle_alpha 90.000000
_cell_angle_beta 106.240987
_cell_angle_gamma 90.000000
_cell_volume 2583.517513
_symmetry_space_group_name_H-M "C 2/C"
_symmetry_group_IT_number 15
_symmetry_cell_setting 'monoclinic'
loop_
_space_group_symop_operation_xyz
x,y,z
-x,y,1/2-z
-x,-y,-z
x,-y,1/2+z
1/2+x,1/2+y,z
1/2-x,1/2+y,1/2-z
1/2-x,1/2-y,-z
1/2+x,1/2-y,1/2+z
loop_
_atom_site_type_symbol
_atom_site_label
_atom_site_fract_x
_atom_site_fract_y
_atom_site_fract_z
Si Si1 0.000000 0.792917 0.750000
Si Si2 0.483828 0.737013 0.603477
Si Si3 0.985430 0.482999 0.634014
Si Si4 0.819704 0.550763 0.259779
Si Si5 0.367407 0.172748 0.476270
Si Si6 0.773642 0.370034 0.182147
Si Si7 0.333415 0.927123 0.441414
O O1 0.161941 0.862008 0.741545
O O2 0.068304 0.718979 0.798890
O O3 0.409998 0.860806 0.611843
O O4 0.605501 0.752250 0.567832
O O5 0.595689 0.693186 0.656008
O O6 0.335930 0.645541 0.582594
O O7 0.144637 0.472041 0.683041
O O8 0.052664 0.555623 0.595850
O O9 0.820607 0.545394 0.643795
O O10 0.754169 0.435630 0.229615
O O11 0.000000 0.595654 0.250000
O O12 0.250000 0.250000 0.500000
O O13 0.554822 0.145476 0.513195
O O14 0.276079 0.050764 0.457595
#
# Coordination Sequence:
#
# PCOD8142990 Si02
#       7
#     4   8   8   8   8   8   8
#     4  12  22  42  64  82 130 168 206 270 312 362
#     4  11  23  38  63  92 122 159 212 250 315 380
#     4  10  21  40  56  87 124 153 209 259 300 379
#     4  10  23  41  59  91 124 164 219 260 313 381
#     4  10  22  42  63  89 125 158 202 257 314 374
#     4  11  23  41  59  91 124 164 211 262 304 378
#     4  10  23  39  62  92 120 161 200 256 317 370
#
# _framework density 20.127597999999999
#
# number of rings (size 3 to 8) (size 9 to 14) (size 15 to 20)
#    0.000    1.538    3.846    1.385    2.154    4.308 
#    1.385    0.000    0.000    0.000    0.000    0.000 
#    0.000    0.000    0.000    0.000    0.000    0.000 
#
# Total GULP energy -322406.046950 kJ/mol
# GULP energy per Si atom -12400.232575 kJ/mol
# Density = 2.008179 g / cm^3
# Si number density = 20.127598 Si / 1000 Ang^3
#
#
#
# Elastic Constant Matrix: (Units=GPa)
#
#
# Indices 1 2 3 4 5 6 
#
# 1 65.5904 43.8561 15.4509 0.0000 16.1087 0.0000
# 2 43.8561 101.3694 29.1756 0.0000 9.8273 0.0000
# 3 15.4509 29.1756 85.0483 0.0000 9.8161 0.0000
# 4 0.0000 0.0000 0.0000 37.8978 0.0000 12.1293
# 5 16.1087 9.8273 9.8161 0.0000 35.0182 0.0000
# 6 0.0000 0.0000 0.0000 12.1293 0.0000 25.9829
#
#
#
# Elastic Compliance Matrix: (Units=1/GPa)
#
#
# Indices 1 2 3 4 5 6 
#
# 1 0.023536 -0.009355 -0.000124 0.000000 -0.008167 0.000000
# 2 -0.009355 0.014814 -0.003513 0.000000 0.001131 0.000000
# 3 -0.000124 -0.003513 0.013295 0.000000 -0.002684 0.000000
# 4 0.000000 0.000000 0.000000 0.031022 0.000000 -0.014481
# 5 -0.008167 0.001131 -0.002684 0.000000 0.032748 0.000000
# 6 0.000000 0.000000 0.000000 -0.014481 0.000000 0.045247
#
#
# Mechanical properties :
#
#
# Convention : Reuss Voigt Hill
#
# Bulk Modulus (GPa) = 38.96904 47.66371 43.31637
# Shear Modulus (GPa) = 25.61472 30.68149 28.14811
#
# Velocity S-wave (km/s) = 3.57125 3.90853 3.74369
# Velocity P-wave (km/s) = 6.03391 6.64086 6.34465
#
# Compressibility (1/GPa) = 0.02566140
#
# Stress axis : x y z
#
# Youngs Moduli (GPa) = 42.48753 67.50498 75.21402
#
# Poissons Ratio (x) = 0.63153 0.00933
# Poissons Ratio (y) = 0.39748 0.26421
# Poissons Ratio (z) = 0.00527 0.23713
#
# Static dielectric constant tensor:
#      x y z
#    x 3.290440 0.000000 0.040530 
#    y 0.000000 3.918110 0.000000 
#    z 0.040530 0.000000 3.915700 
# 
# 
# High freq. dielectric constant tensor:
#      x y z
#    x 1.759280 0.000000 0.003400 
#    y 0.000000 1.799170 0.000000 
#    z 0.003400 0.000000 1.802650 
# 
# From -- ./inp_files/287744.got.cif
#   From: 2010.06.25/outbox.cif.g09.slc.cpg/sg15_144_cif.got.tgz:287744.got - 2010.06.28 07:06:18.
