data_PCOD8142128
_publ_section_title
;
Structure prediction by ZEFSAII (Michael W. Deem and Ramdas Pophale) SiO2 
 PCOD8142128
Probable space group: C 2/C
;
_chemical_formula_sum "Si O2"
_cell_formula_units_Z 64
_cell_length_a 16.612784
_cell_length_b 13.081568
_cell_length_c 14.486240
_cell_angle_alpha 90.000000
_cell_angle_beta 99.775106
_cell_angle_gamma 90.000000
_cell_volume 3102.462118
_symmetry_space_group_name_H-M "C 2/C"
_symmetry_group_IT_number 15
_symmetry_cell_setting 'monoclinic'
loop_
_space_group_symop_operation_xyz
x,y,z
-x,y,1/2-z
-x,-y,-z
x,-y,1/2+z
1/2+x,1/2+y,z
1/2-x,1/2+y,1/2-z
1/2-x,1/2-y,-z
1/2+x,1/2-y,1/2+z
loop_
_atom_site_type_symbol
_atom_site_label
_atom_site_fract_x
_atom_site_fract_y
_atom_site_fract_z
Si Si1 0.147923 0.019643 0.646298
Si Si2 0.261286 0.929850 0.519843
Si Si3 0.589681 0.205273 0.392846
Si Si4 0.631757 0.410274 0.340381
Si Si5 0.563369 0.708139 0.532303
Si Si6 0.009675 0.909622 0.852335
Si Si7 0.384227 0.076962 0.468313
Si Si8 0.495093 0.998990 0.648697
O O1 0.174386 0.043822 0.757313
O O2 0.106386 0.121803 0.600439
O O3 0.226821 0.975350 0.609406
O O4 0.080028 0.931385 0.625181
O O5 0.325565 0.836981 0.545105
O O6 0.189262 0.893627 0.439839
O O7 0.298339 0.027076 0.474080
O O8 0.603177 0.292705 0.317619
O O9 0.527350 0.254487 0.455625
O O10 0.549226 0.108073 0.337142
O O11 0.556015 0.481549 0.353652
O O12 0.557613 0.667881 0.426571
O O13 0.626182 0.802619 0.549634
O O14 0.000000 0.858245 0.750000
O O15 0.417942 0.021237 0.382744
O O16 0.444223 0.066809 0.567759
O O17 0.500000 0.054545 0.750000
#
# Coordination Sequence:
#
# PCOD8142128 Si02
#       8
#     8   8   8   8   8   8   8   8
#     4  11  23  38  64  90 121 162 205 254 317 353
#     4  11  23  43  56  89 136 163 191 258 317 367
#     4  10  22  36  66  91 116 157 211 252 305 356
#     4  11  22  39  62  91 119 158 208 257 301 376
#     4  11  20  40  65  88 118 162 206 261 293 367
#     4  10  21  38  62  91 120 154 209 259 307 354
#     4   9  22  37  57  88 123 158 203 236 313 365
#     4   9  19  37  61  88 117 158 202 257 286 358
#
# _framework density 20.628776999999999
#
# number of rings (size 3 to 8) (size 9 to 14) (size 15 to 20)
#    0.000    1.750    2.500    2.250    3.500    3.000 
#    0.000    2.500    0.000    0.000    0.000    0.000 
#    0.000    0.000    0.000    0.000    0.000    0.000 
#
# Total GULP energy -396606.854923 kJ/mol
# GULP energy per Si atom -12393.964216 kJ/mol
# Density = 2.058183 g / cm^3
# Si number density = 20.628777 Si / 1000 Ang^3
#
#
#
# Elastic Constant Matrix: (Units=GPa)
#
#
# Indices 1 2 3 4 5 6 
#
# 1 70.3621 13.1416 14.9524 0.0000 -18.4168 0.0000
# 2 13.1416 61.7974 9.7024 0.0000 -14.7870 0.0000
# 3 14.9524 9.7024 95.3156 0.0000 -12.7805 0.0000
# 4 0.0000 0.0000 0.0000 8.8843 0.0000 4.7761
# 5 -18.4168 -14.7870 -12.7805 0.0000 27.4825 0.0000
# 6 0.0000 0.0000 0.0000 4.7761 0.0000 28.3133
#
#
#
# Elastic Compliance Matrix: (Units=1/GPa)
#
#
# Indices 1 2 3 4 5 6 
#
# 1 0.017424 -0.000982 -0.001214 0.000000 0.010583 0.000000
# 2 -0.000982 0.018659 -0.000520 0.000000 0.009140 0.000000
# 3 -0.001214 -0.000520 0.011292 0.000000 0.004158 0.000000
# 4 0.000000 0.000000 0.000000 0.123783 0.000000 -0.020881
# 5 0.010583 0.009140 0.004158 0.000000 0.050330 0.000000
# 6 0.000000 0.000000 0.000000 -0.020881 0.000000 0.038841
#
#
# Mechanical properties :
#
#
# Convention : Reuss Voigt Hill
#
# Bulk Modulus (GPa) = 23.84203 33.67419 28.75811
# Shear Modulus (GPa) = 17.87353 25.58128 21.72741
#
# Velocity S-wave (km/s) = 2.94672 3.52529 3.24891
# Velocity P-wave (km/s) = 4.81252 5.73843 5.29575
#
# Compressibility (1/GPa) = 0.04194273
#
# Stress axis : x y z
#
# Youngs Moduli (GPa) = 57.39314 53.59227 88.55516
#
# Poissons Ratio (x) = 0.05264 0.10753
# Poissons Ratio (y) = 0.05638 0.04603
# Poissons Ratio (z) = 0.06969 0.02786
#
# Static dielectric constant tensor:
#      x y z
#    x 3.617020 0.000000 -0.099910 
#    y 0.000000 3.805080 0.000000 
#    z -0.099910 0.000000 3.736680 
# 
# 
# High freq. dielectric constant tensor:
#      x y z
#    x 1.792820 0.000000 -0.006330 
#    y 0.000000 1.805700 0.000000 
#    z -0.006330 0.000000 1.807330 
# 
# From -- ./inp_files/161946.got.cif
#   From: 2010.06.25/outbox.cif.g09.slc.cpg/sg15_81_cif.got.tgz:161946.got - 2010.06.28 07:06:18.
