data_PCOD8142686
_publ_section_title
;
Structure prediction by ZEFSAII (Michael W. Deem and Ramdas Pophale) SiO2 
 PCOD8142686
Probable space group: C 2/C
;
_chemical_formula_sum "Si O2"
_cell_formula_units_Z 44
_cell_length_a 13.749407
_cell_length_b 6.506820
_cell_length_c 26.902660
_cell_angle_alpha 90.000000
_cell_angle_beta 120.723794
_cell_angle_gamma 90.000000
_cell_volume 2069.020000
_symmetry_space_group_name_H-M "C 2/C"
_symmetry_group_IT_number 15
_symmetry_cell_setting 'monoclinic'
loop_
_space_group_symop_operation_xyz
x,y,z
-x,y,1/2-z
-x,-y,-z
x,-y,1/2+z
1/2+x,1/2+y,z
1/2-x,1/2+y,1/2-z
1/2-x,1/2-y,-z
1/2+x,1/2-y,1/2+z
loop_
_atom_site_type_symbol
_atom_site_label
_atom_site_fract_x
_atom_site_fract_y
_atom_site_fract_z
Si Si1 0.758939 0.618708 0.666908
Si Si2 0.923103 0.176467 0.565982
Si Si3 0.290826 0.323529 0.933940
Si Si4 0.000000 0.749600 0.750000
Si Si5 0.116089 0.499796 0.615939
Si Si6 0.574586 0.619152 0.166780
O O1 0.722793 0.518089 0.605355
O O2 0.893096 0.602976 0.710566
O O3 0.694624 0.499833 0.694783
O O4 0.723480 0.857324 0.657083
O O5 0.832553 0.250552 0.582341
O O6 0.863534 0.101464 0.499957
O O7 0.007345 0.362187 0.575623
O O8 0.987708 0.981616 0.605244
O O9 0.355368 0.137105 0.924274
O O10 0.972469 0.896201 0.789635
O O11 0.090519 0.642357 0.656902
#
# Coordination Sequence:
#
# PCOD8142686 Si02
#       6
#     8   8   8   4   8   8
#     4  10  24  42  63  96 124 166 220 262 323 382
#     4  10  21  39  63  94 129 165 207 259 320 389
#     4  10  21  39  63  94 129 165 207 259 320 389
#     4  12  24  44  68  86 128 174 212 274 318 366
#     4  10  21  40  62  92 126 162 211 262 318 388
#     4  10  24  42  63  96 124 166 220 262 323 382
#
# _framework density 21.266105
#
# number of rings (size 3 to 8) (size 9 to 14) (size 15 to 20)
#    0.000    1.818    0.000    2.727    2.545    8.000 
#    0.000   11.818    0.000    0.000    0.000    0.000 
#    0.000    0.000    0.000    0.000    0.000    0.000 
#
# Total GULP energy -272889.639915 kJ/mol
# GULP energy per Si atom -12404.074542 kJ/mol
# Density = 2.121770 g / cm^3
# Si number density = 21.266105 Si / 1000 Ang^3
#
#
#
# Elastic Constant Matrix: (Units=GPa)
#
#
# Indices 1 2 3 4 5 6 
#
# 1 161.2663 52.1966 75.3792 0.0000 -0.1525 0.0000
# 2 52.1966 124.8967 62.7689 0.0000 1.0338 0.0000
# 3 75.3792 62.7689 113.4520 0.0000 0.4893 0.0000
# 4 0.0000 0.0000 0.0000 5.7769 0.0000 -0.5552
# 5 -0.1525 1.0338 0.4893 0.0000 20.5019 0.0000
# 6 0.0000 0.0000 0.0000 -0.5552 0.0000 25.1628
#
#
#
# Elastic Compliance Matrix: (Units=1/GPa)
#
#
# Indices 1 2 3 4 5 6 
#
# 1 0.009095 -0.001060 -0.005457 0.000000 0.000251 0.000000
# 2 -0.001060 0.011217 -0.005500 0.000000 -0.000442 0.000000
# 3 -0.005457 -0.005500 0.015484 0.000000 -0.000133 0.000000
# 4 0.000000 0.000000 0.000000 0.173471 0.000000 0.003828
# 5 0.000251 -0.000442 -0.000133 0.000000 0.048803 0.000000
# 6 0.000000 0.000000 0.000000 0.003828 0.000000 0.039826
#
#
# Mechanical properties :
#
#
# Convention : Reuss Voigt Hill
#
# Bulk Modulus (GPa) = 85.02526 86.70048 85.86287
# Shear Modulus (GPa) = 15.34441 24.23968 19.79204
#
# Velocity S-wave (km/s) = 2.68907 3.37979 3.05402
# Velocity P-wave (km/s) = 7.05052 7.48923 7.27318
#
# Compressibility (1/GPa) = 0.01176121
#
# Stress axis : x y z
#
# Youngs Moduli (GPa) = 109.94674 89.14699 64.58423
#
# Poissons Ratio (x) = 0.09454 0.35246
# Poissons Ratio (y) = 0.11659 0.35519
# Poissons Ratio (z) = 0.60003 0.49028
#
# Static dielectric constant tensor:
#      x y z
#    x 4.343580 0.000000 -0.019000 
#    y 0.000000 3.699780 0.000000 
#    z -0.019000 0.000000 3.678560 
# 
# 
# High freq. dielectric constant tensor:
#      x y z
#    x 1.859440 0.000000 -0.000870 
#    y 0.000000 1.824740 0.000000 
#    z -0.000870 0.000000 1.829900 
# 
# From -- ./inp_files/260418.got.cif
#   From: 2010.06.25/outbox.cif.g09.slc.cpg/sg15_131_cif.got.tgz:260418.got - 2010.06.28 07:06:18.
