data_PCOD8142758
_publ_section_title
;
Structure prediction by ZEFSAII (Michael W. Deem and Ramdas Pophale) SiO2 
 PCOD8142758
Probable space group: C 2/C
;
_chemical_formula_sum "Si O2"
_cell_formula_units_Z 36
_cell_length_a 10.699559
_cell_length_b 21.637591
_cell_length_c 7.786427
_cell_angle_alpha 90.000000
_cell_angle_beta 113.775618
_cell_angle_gamma 90.000000
_cell_volume 1649.667494
_symmetry_space_group_name_H-M "C 2/C"
_symmetry_group_IT_number 15
_symmetry_cell_setting 'monoclinic'
loop_
_space_group_symop_operation_xyz
x,y,z
-x,y,1/2-z
-x,-y,-z
x,-y,1/2+z
1/2+x,1/2+y,z
1/2-x,1/2+y,1/2-z
1/2-x,1/2-y,-z
1/2+x,1/2-y,1/2+z
loop_
_atom_site_type_symbol
_atom_site_label
_atom_site_fract_x
_atom_site_fract_y
_atom_site_fract_z
Si Si1 0.000000 0.102338 0.750000
Si Si2 0.808571 0.038768 0.889298
Si Si3 0.944390 0.604583 0.899926
Si Si4 0.776420 0.581132 0.299393
Si Si5 0.754343 0.677272 0.017430
O O1 0.951405 0.057058 0.877609
O O2 0.879119 0.148679 0.640281
O O3 0.680722 0.058615 0.701110
O O4 0.783377 0.964470 0.882729
O O5 0.812519 0.070221 0.078160
O O6 0.000000 0.631912 0.750000
O O7 0.891248 0.659781 0.989552
O O8 0.064969 0.568472 0.066738
O O9 0.762759 0.651030 0.218337
O O10 0.750000 0.750000 0.000000
#
# Coordination Sequence:
#
# PCOD8142758 Si02
#       5
#     4   8   8   8   8
#     4  10  24  44  62  92 138 168 214 266 322 386
#     4  10  21  39  65 101 133 163 209 265 332 379
#     4   9  20  40  63  95 126 165 211 263 319 376
#     4  11  22  38  67  96 129 167 210 268 323 380
#     4  11  25  42  62  90 126 177 219 261 314 378
#
# _framework density 21.822579999999999
#
# number of rings (size 3 to 8) (size 9 to 14) (size 15 to 20)
#    0.000    1.778    0.000    4.000    3.111    8.000 
#    4.000    3.333    0.000    0.000    0.000    0.000 
#    0.000    0.000    0.000    0.000    0.000    0.000 
#
# Total GULP energy -223132.600452 kJ/mol
# GULP energy per Si atom -12396.255581 kJ/mol
# Density = 2.177291 g / cm^3
# Si number density = 21.822580 Si / 1000 Ang^3
#
#
#
# Elastic Constant Matrix: (Units=GPa)
#
#
# Indices 1 2 3 4 5 6 
#
# 1 134.3217 43.1839 39.5416 0.0000 -28.0778 0.0000
# 2 43.1839 145.8136 43.2528 0.0000 -21.7089 0.0000
# 3 39.5416 43.2528 94.1729 0.0000 -25.2404 0.0000
# 4 0.0000 0.0000 0.0000 22.1022 0.0000 -2.4793
# 5 -28.0778 -21.7089 -25.2404 0.0000 37.0075 0.0000
# 6 0.0000 0.0000 0.0000 -2.4793 0.0000 24.9559
#
#
#
# Elastic Compliance Matrix: (Units=1/GPa)
#
#
# Indices 1 2 3 4 5 6 
#
# 1 0.009559 -0.001496 -0.001980 0.000000 0.005025 0.000000
# 2 -0.001496 0.008393 -0.002706 0.000000 0.001943 0.000000
# 3 -0.001980 -0.002706 0.014519 0.000000 0.006813 0.000000
# 4 0.000000 0.000000 0.000000 0.045754 0.000000 0.004546
# 5 0.005025 0.001943 0.006813 0.000000 0.036620 0.000000
# 6 0.000000 0.000000 0.000000 0.004546 0.000000 0.040522
#
#
# Mechanical properties :
#
#
# Convention : Reuss Voigt Hill
#
# Bulk Modulus (GPa) = 49.73247 69.58496 59.65872
# Shear Modulus (GPa) = 28.66429 33.36847 31.01638
#
# Velocity S-wave (km/s) = 3.62818 3.91459 3.77410
# Velocity P-wave (km/s) = 6.35535 7.23795 6.81096
#
# Compressibility (1/GPa) = 0.02010759
#
# Stress axis : x y z
#
# Youngs Moduli (GPa) = 104.61564 119.14721 68.87526
#
# Poissons Ratio (x) = 0.17819 0.13637
# Poissons Ratio (y) = 0.15645 0.18638
# Poissons Ratio (z) = 0.20714 0.32242
#
# Static dielectric constant tensor:
#      x y z
#    x 4.297840 0.000000 -0.068350 
#    y 0.000000 3.640340 0.000000 
#    z -0.068350 0.000000 4.021590 
# 
# 
# High freq. dielectric constant tensor:
#      x y z
#    x 1.877910 0.000000 0.007060 
#    y 0.000000 1.822670 0.000000 
#    z 0.007060 0.000000 1.867390 
# 
# From -- ./inp_files/29892.got.cif
#   From: 2010.06.25/outbox.cif.g09.slc.cpg/sg15_15_cif.got.tgz:29892.got - 2010.06.28 07:06:18.
