data_PCOD8142460
_publ_section_title
;
Structure prediction by ZEFSAII (Michael W. Deem and Ramdas Pophale) SiO2 
 PCOD8142460
Probable space group: C 2/C
;
_chemical_formula_sum "Si O2"
_cell_formula_units_Z 56
_cell_length_a 22.017759
_cell_length_b 8.463089
_cell_length_c 12.709040
_cell_angle_alpha 90.000000
_cell_angle_beta 81.589620
_cell_angle_gamma 90.000000
_cell_volume 2342.712561
_symmetry_space_group_name_H-M "C 2/C"
_symmetry_group_IT_number 15
_symmetry_cell_setting 'monoclinic'
loop_
_space_group_symop_operation_xyz
x,y,z
-x,y,1/2-z
-x,-y,-z
x,-y,1/2+z
1/2+x,1/2+y,z
1/2-x,1/2+y,1/2-z
1/2-x,1/2-y,-z
1/2+x,1/2-y,1/2+z
loop_
_atom_site_type_symbol
_atom_site_label
_atom_site_fract_x
_atom_site_fract_y
_atom_site_fract_z
Si Si1 0.108537 0.846774 0.547834
Si Si2 0.972724 0.627592 0.361847
Si Si3 0.515578 0.213185 0.908314
Si Si4 0.634827 0.379307 0.898534
Si Si5 0.205403 0.389236 0.979653
Si Si6 0.300082 0.506211 0.812528
Si Si7 0.333278 0.185892 0.408508
O O1 0.136594 0.682723 0.491525
O O2 0.042131 0.816117 0.616706
O O3 0.100477 0.970721 0.456411
O O4 0.152096 0.917464 0.625041
O O5 0.986526 0.725254 0.463737
O O6 0.900014 0.618467 0.363528
O O7 0.000000 0.711195 0.250000
O O8 0.007092 0.460340 0.364058
O O9 0.581457 0.278953 0.852416
O O10 0.687281 0.445254 0.807672
O O11 0.668186 0.275345 0.978710
O O12 0.209215 0.530487 0.065336
O O13 0.250000 0.250000 0.000000
O O14 0.230056 0.458879 0.861837
O O15 0.308860 0.696221 0.823514
#
# Coordination Sequence:
#
# PCOD8142460 Si02
#       7
#     8   8   8   8   8   8   8
#     4  10  21  40  59  87 125 158 207 265 313 374
#     4  10  22  36  63  93 120 168 212 254 327 386
#     4  10  21  39  59  90 128 160 205 266 315 379
#     4  10  23  38  60  92 123 165 208 262 322 380
#     4  10  21  40  66  89 124 169 213 263 321 375
#     4  10  23  39  62  91 118 171 214 254 323 377
#     4  10  21  43  61  90 134 161 214 274 314 383
#
# _framework density 23.903915000000001
#
# number of rings (size 3 to 8) (size 9 to 14) (size 15 to 20)
#    0.000    2.000    1.429    0.857    4.000    1.143 
#    0.000    2.857    0.000    0.000    0.000    0.000 
#    0.000    0.000    0.000    0.000    0.000    0.000 
#
# Total GULP energy -347056.796724 kJ/mol
# GULP energy per Si atom -12394.885597 kJ/mol
# Density = 2.384951 g / cm^3
# Si number density = 23.903915 Si / 1000 Ang^3
#
#
#
# Elastic Constant Matrix: (Units=GPa)
#
#
# Indices 1 2 3 4 5 6 
#
# 1 25.9444 17.4959 1.3082 0.0000 -3.0403 0.0000
# 2 17.4959 127.5955 21.4808 0.0000 -10.9662 0.0000
# 3 1.3082 21.4808 90.4016 0.0000 -7.6241 0.0000
# 4 0.0000 0.0000 0.0000 26.1990 0.0000 -12.8888
# 5 -3.0403 -10.9662 -7.6241 0.0000 21.5328 0.0000
# 6 0.0000 0.0000 0.0000 -12.8888 0.0000 32.6907
#
#
#
# Elastic Compliance Matrix: (Units=1/GPa)
#
#
# Indices 1 2 3 4 5 6 
#
# 1 0.042771 -0.005740 0.001039 0.000000 0.003483 0.000000
# 2 -0.005740 0.009211 -0.001833 0.000000 0.003231 0.000000
# 3 0.001039 -0.001833 0.011767 0.000000 0.003380 0.000000
# 4 0.000000 0.000000 0.000000 0.047354 0.000000 0.018670
# 5 0.003483 0.003231 0.003380 0.000000 0.049775 0.000000
# 6 0.000000 0.000000 0.000000 0.018670 0.000000 0.037951
#
#
# Mechanical properties :
#
#
# Convention : Reuss Voigt Hill
#
# Bulk Modulus (GPa) = 19.73168 36.05681 27.89424
# Shear Modulus (GPa) = 21.85401 29.66159 25.75780
#
# Velocity S-wave (km/s) = 3.02693 3.52642 3.28618
# Velocity P-wave (km/s) = 4.52646 5.63006 5.10816
#
# Compressibility (1/GPa) = 0.05067992
#
# Stress axis : x y z
#
# Youngs Moduli (GPa) = 23.38041 108.56967 84.98127
#
# Poissons Ratio (x) = 0.62322 -0.08828
# Poissons Ratio (y) = 0.13421 0.15577
# Poissons Ratio (z) = -0.02429 0.19901
#
# Static dielectric constant tensor:
#      x y z
#    x 4.275990 0.000000 -0.398940 
#    y 0.000000 4.600620 0.000000 
#    z -0.398940 0.000000 4.362520 
# 
# 
# High freq. dielectric constant tensor:
#      x y z
#    x 1.936240 0.000000 -0.023810 
#    y 0.000000 1.953570 0.000000 
#    z -0.023810 0.000000 1.933540 
# 
# From -- ./inp_files/172275.got.cif
#   From: 2010.06.25/outbox.cif.g09.slc.cpg/sg15_87_cif.got.tgz:172275.got - 2010.06.28 07:06:18.
