data_PCOD8142570
_publ_section_title
;
Structure prediction by ZEFSAII (Michael W. Deem and Ramdas Pophale) SiO2 
 PCOD8142570
Probable space group: C 2/C
;
_chemical_formula_sum "Si O2"
_cell_formula_units_Z 64
_cell_length_a 8.626487
_cell_length_b 28.236156
_cell_length_c 13.674637
_cell_angle_alpha 90.000000
_cell_angle_beta 82.273401
_cell_angle_gamma 90.000000
_cell_volume 3300.610949
_symmetry_space_group_name_H-M "C 2/C"
_symmetry_group_IT_number 15
_symmetry_cell_setting 'monoclinic'
loop_
_space_group_symop_operation_xyz
x,y,z
-x,y,1/2-z
-x,-y,-z
x,-y,1/2+z
1/2+x,1/2+y,z
1/2-x,1/2+y,1/2-z
1/2-x,1/2-y,-z
1/2+x,1/2-y,1/2+z
loop_
_atom_site_type_symbol
_atom_site_label
_atom_site_fract_x
_atom_site_fract_y
_atom_site_fract_z
Si Si1 0.904045 0.859890 0.355127
Si Si2 0.022233 0.530383 0.859785
Si Si3 0.581566 0.730069 0.526518
Si Si4 0.539753 0.332568 0.634524
Si Si5 0.003823 0.923652 0.976652
Si Si6 0.531041 0.138819 0.856932
Si Si7 0.252752 0.500839 0.991193
Si Si8 0.660414 0.202266 0.475853
O O1 0.947263 0.807910 0.387448
O O2 0.978269 0.898360 0.420942
O O3 0.716251 0.860586 0.364109
O O4 0.000000 0.870325 0.250000
O O5 0.976882 0.585141 0.876256
O O6 0.000000 0.514649 0.750000
O O7 0.900518 0.499736 0.930392
O O8 0.197328 0.518677 0.887291
O O9 0.750000 0.750000 0.500000
O O10 0.537785 0.708331 0.424341
O O11 0.484009 0.775864 0.571257
O O12 0.500000 0.322312 0.750000
O O13 0.477304 0.384680 0.610521
O O14 0.727707 0.330756 0.599314
O O15 0.139033 0.962460 0.959492
O O16 0.837351 0.949912 0.977865
O O17 0.500000 0.156406 0.750000
O O18 0.417961 0.171672 0.930919
O O19 0.750000 0.250000 0.500000
#
# Coordination Sequence:
#
# PCOD8142570 Si02
#       8
#     8   8   8   8   8   8   8   8
#     4  11  24  38  62  94 123 159 203 257 316 365
#     4  10  22  38  60  92 123 153 204 248 306 360
#     4  10  21  41  61  86 122 154 201 258 301 363
#     4  10  23  40  60  85 121 162 207 242 301 367
#     4  10  22  40  62  85 124 159 205 246 305 363
#     4  11  23  38  63  91 125 162 204 254 313 366
#     4  10  21  39  62  88 120 163 195 252 303 360
#     4  10  22  39  62  85 120 161 202 250 304 357
#
# _framework density 19.390349000000001
#
# number of rings (size 3 to 8) (size 9 to 14) (size 15 to 20)
#    0.000    1.750    2.500    0.750    8.750    4.000 
#    0.000    2.500    0.000    0.000    0.000    0.000 
#    0.000    0.000    0.000    0.000    0.000    0.000 
#
# Total GULP energy -396504.202502 kJ/mol
# GULP energy per Si atom -12390.756328 kJ/mol
# Density = 1.934622 g / cm^3
# Si number density = 19.390349 Si / 1000 Ang^3
#
#
#
# Elastic Constant Matrix: (Units=GPa)
#
#
# Indices 1 2 3 4 5 6 
#
# 1 111.3886 35.3875 37.7539 0.0000 -2.2812 0.0000
# 2 35.3875 90.0479 39.3278 0.0000 -0.3971 0.0000
# 3 37.7539 39.3278 96.9351 0.0000 -2.2274 0.0000
# 4 0.0000 0.0000 0.0000 17.9786 0.0000 3.6267
# 5 -2.2812 -0.3971 -2.2274 0.0000 32.0799 0.0000
# 6 0.0000 0.0000 0.0000 3.6267 0.0000 33.7936
#
#
#
# Elastic Compliance Matrix: (Units=1/GPa)
#
#
# Indices 1 2 3 4 5 6 
#
# 1 0.010968 -0.002975 -0.003053 0.000000 0.000531 0.000000
# 2 -0.002975 0.014305 -0.004653 0.000000 -0.000358 0.000000
# 3 -0.003053 -0.004653 0.013408 0.000000 0.000656 0.000000
# 4 0.000000 0.000000 0.000000 0.056853 0.000000 -0.006101
# 5 0.000531 -0.000358 0.000656 0.000000 0.031251 0.000000
# 6 0.000000 0.000000 0.000000 -0.006101 0.000000 0.030246
#
#
# Mechanical properties :
#
#
# Convention : Reuss Voigt Hill
#
# Bulk Modulus (GPa) = 57.73781 58.14555 57.94168
# Shear Modulus (GPa) = 27.14941 29.16389 28.15665
#
# Velocity S-wave (km/s) = 3.74592 3.88240 3.81477
# Velocity P-wave (km/s) = 6.96781 7.08162 7.02495
#
# Compressibility (1/GPa) = 0.01731967
#
# Stress axis : x y z
#
# Youngs Moduli (GPa) = 91.17252 69.90583 74.58142
#
# Poissons Ratio (x) = 0.20795 0.22768
# Poissons Ratio (y) = 0.27121 0.34705
# Poissons Ratio (z) = 0.27833 0.32530
#
# Static dielectric constant tensor:
#      x y z
#    x 3.994030 0.000000 0.154070 
#    y 0.000000 3.670670 0.000000 
#    z 0.154070 0.000000 3.426980 
# 
# 
# High freq. dielectric constant tensor:
#      x y z
#    x 1.772460 0.000000 0.006660 
#    y 0.000000 1.767680 0.000000 
#    z 0.006660 0.000000 1.732810 
# 
# From -- ./inp_files/82569.got.cif
#   From: 2010.06.25/outbox.cif.g09.slc.cpg/sg15_42_cif.got.tgz:82569.got - 2010.06.28 07:06:18.
