data_PCOD8142259
_publ_section_title
;
Structure prediction by ZEFSAII (Michael W. Deem and Ramdas Pophale) SiO2 
 PCOD8142259
Probable space group: C 2/C
;
_chemical_formula_sum "Si O2"
_cell_formula_units_Z 40
_cell_length_a 22.097020
_cell_length_b 7.322668
_cell_length_c 15.044237
_cell_angle_alpha 90.000000
_cell_angle_beta 143.807967
_cell_angle_gamma 90.000000
_cell_volume 1437.435303
_symmetry_space_group_name_H-M "C 2/C"
_symmetry_group_IT_number 15
_symmetry_cell_setting 'monoclinic'
loop_
_space_group_symop_operation_xyz
x,y,z
-x,y,1/2-z
-x,-y,-z
x,-y,1/2+z
1/2+x,1/2+y,z
1/2-x,1/2+y,1/2-z
1/2-x,1/2-y,-z
1/2+x,1/2-y,1/2+z
loop_
_atom_site_type_symbol
_atom_site_label
_atom_site_fract_x
_atom_site_fract_y
_atom_site_fract_z
Si Si1 0.565670 0.181293 0.083177
Si Si2 0.754383 0.574634 0.727796
Si Si3 0.383222 0.615841 0.309461
Si Si4 0.801135 0.019517 0.026847
Si Si5 0.901614 0.341027 0.682488
O O1 0.567205 0.247583 0.186966
O O2 0.681012 0.119259 0.186323
O O3 0.506207 0.348106 0.959767
O O4 0.500000 0.000000 0.000000
O O5 0.668371 0.573402 0.707654
O O6 0.837956 0.735557 0.825504
O O7 0.691336 0.609581 0.561145
O O8 0.350539 0.633663 0.166911
O O9 0.852974 0.824462 0.070116
O O10 0.679855 0.003351 0.904646
O O11 0.000000 0.424999 0.750000
#
# Coordination Sequence:
#
# PCOD8142259 Si02
#       5
#     8   8   8   8   8
#     4   9  21  39  61  91 128 164 212 262 319 392
#     4  10  23  42  66  96 131 169 217 268 335 388
#     4  11  23  41  71  91 133 172 218 270 331 387
#     4  10  23  40  64  96 131 172 218 274 324 393
#     4  10  21  38  64  93 132 169 217 268 334 385
#
# _framework density 27.827341000000001
#
# number of rings (size 3 to 8) (size 9 to 14) (size 15 to 20)
#    0.000    2.000    0.000    1.800   14.000    0.800 
#    3.600    0.000    0.000    0.000    0.000    0.000 
#    0.000    0.000    0.000    0.000    0.000    0.000 
#
# Total GULP energy -247809.587106 kJ/mol
# GULP energy per Si atom -12390.479355 kJ/mol
# Density = 2.776400 g / cm^3
# Si number density = 27.827341 Si / 1000 Ang^3
#
#
#
# Elastic Constant Matrix: (Units=GPa)
#
#
# Indices 1 2 3 4 5 6 
#
# 1 138.5640 4.3104 60.8094 0.0000 12.3134 0.0000
# 2 4.3104 67.9880 5.9018 0.0000 4.3755 0.0000
# 3 60.8094 5.9018 167.4584 0.0000 2.1120 0.0000
# 4 0.0000 0.0000 0.0000 54.0713 0.0000 5.6305
# 5 12.3134 4.3755 2.1120 0.0000 43.8293 0.0000
# 6 0.0000 0.0000 0.0000 5.6305 0.0000 25.5343
#
#
#
# Elastic Compliance Matrix: (Units=1/GPa)
#
#
# Indices 1 2 3 4 5 6 
#
# 1 0.008817 -0.000135 -0.003168 0.000000 -0.002311 0.000000
# 2 -0.000135 0.014848 -0.000456 0.000000 -0.001422 0.000000
# 3 -0.003168 -0.000456 0.007131 0.000000 0.000592 0.000000
# 4 0.000000 0.000000 0.000000 0.018929 0.000000 -0.004174
# 5 -0.002311 -0.001422 0.000592 0.000000 0.023578 0.000000
# 6 0.000000 0.000000 0.000000 -0.004174 0.000000 0.040083
#
#
# Mechanical properties :
#
#
# Convention : Reuss Voigt Hill
#
# Bulk Modulus (GPa) = 42.96097 57.33930 50.15013
# Shear Modulus (GPa) = 38.86115 44.88623 41.87369
#
# Velocity S-wave (km/s) = 3.74104 4.02061 3.88334
# Velocity P-wave (km/s) = 5.84230 6.49645 6.17804
#
# Compressibility (1/GPa) = 0.02327694
#
# Stress axis : x y z
#
# Youngs Moduli (GPa) = 113.42263 67.34822 140.24211
#
# Poissons Ratio (x) = 0.00911 0.44424
# Poissons Ratio (y) = 0.01534 0.06398
# Poissons Ratio (z) = 0.35929 0.03073
#
# Static dielectric constant tensor:
#      x y z
#    x 2.572830 0.000000 -2.871240 
#    y 0.000000 5.494580 0.000000 
#    z -2.871240 0.000000 1.002080 
# 
# 
# High freq. dielectric constant tensor:
#      x y z
#    x 2.118500 0.000000 0.023550 
#    y 0.000000 2.152020 0.000000 
#    z 0.023550 0.000000 2.134930 
# 
# From -- ./inp_files/166028.got.cif
#   From: 2010.06.25/outbox.cif.g09.slc.cpg/sg15_84_cif.got.tgz:166028.got - 2010.06.28 07:06:18.
