data_PCOD8142316
_publ_section_title
;
Structure prediction by ZEFSAII (Michael W. Deem and Ramdas Pophale) SiO2 
 PCOD8142316
Probable space group: C 2/C
;
_chemical_formula_sum "Si O2"
_cell_formula_units_Z 40
_cell_length_a 20.315841
_cell_length_b 7.447861
_cell_length_c 17.458875
_cell_angle_alpha 90.000000
_cell_angle_beta 48.901012
_cell_angle_gamma 90.000000
_cell_volume 1990.715086
_symmetry_space_group_name_H-M "C 2/C"
_symmetry_group_IT_number 15
_symmetry_cell_setting 'monoclinic'
loop_
_space_group_symop_operation_xyz
x,y,z
-x,y,1/2-z
-x,-y,-z
x,-y,1/2+z
1/2+x,1/2+y,z
1/2-x,1/2+y,1/2-z
1/2-x,1/2-y,-z
1/2+x,1/2-y,1/2+z
loop_
_atom_site_type_symbol
_atom_site_label
_atom_site_fract_x
_atom_site_fract_y
_atom_site_fract_z
Si Si1 0.620816 0.980123 0.224156
Si Si2 0.347420 0.712960 0.695276
Si Si3 0.985155 0.389739 0.933773
Si Si4 0.224916 0.866642 0.669762
Si Si5 0.813812 0.401975 0.982888
O O1 0.649470 0.777334 0.217028
O O2 0.680138 0.130893 0.222561
O O3 0.522251 0.994221 0.332959
O O4 0.627318 0.018328 0.129458
O O5 0.453797 0.710644 0.606421
O O6 0.307690 0.768866 0.644173
O O7 0.312483 0.521940 0.747621
O O8 0.884033 0.336556 0.994491
O O9 0.000000 0.500000 0.000000
O O10 0.253567 0.944163 0.565732
O O11 0.750000 0.250000 0.000000
#
# Coordination Sequence:
#
# PCOD8142316 Si02
#       5
#     8   8   8   8   8
#     4  10  23  38  63  92 129 166 208 266 320 378
#     4  10  21  38  66  88 126 167 215 256 318 378
#     4  10  21  42  64  90 131 172 209 268 318 382
#     4  12  21  41  66  94 125 170 217 264 317 391
#     4  12  22  40  68  97 130 168 211 268 332 382
#
# _framework density 20.093281000000001
#
# number of rings (size 3 to 8) (size 9 to 14) (size 15 to 20)
#    1.200    0.000    6.000    1.200    0.000    0.000 
#    0.000    7.000    0.000    0.000    0.000    0.000 
#    0.000    0.000    0.000    0.000    0.000    0.000 
#
# Total GULP energy -247761.733060 kJ/mol
# GULP energy per Si atom -12388.086653 kJ/mol
# Density = 2.004755 g / cm^3
# Si number density = 20.093281 Si / 1000 Ang^3
#
#
#
# Elastic Constant Matrix: (Units=GPa)
#
#
# Indices 1 2 3 4 5 6 
#
# 1 115.9880 42.2345 29.9111 0.0022 -12.4821 -0.0003
# 2 42.2345 92.2408 25.1225 0.0099 -4.5894 -0.0047
# 3 29.9111 25.1225 62.7688 0.0031 -1.7994 -0.0001
# 4 0.0022 0.0099 0.0031 21.0557 -0.0041 2.7882
# 5 -12.4821 -4.5894 -1.7994 -0.0041 36.8199 0.0015
# 6 -0.0003 -0.0047 -0.0001 2.7882 0.0015 31.9130
#
#
#
# Elastic Compliance Matrix: (Units=1/GPa)
#
#
# Indices 1 2 3 4 5 6 
#
# 1 0.011396 -0.004047 -0.003720 0.000002 0.003177 -0.000001
# 2 -0.004047 0.013665 -0.003536 -0.000006 0.000159 0.000002
# 3 -0.003720 -0.003536 0.019097 -0.000001 -0.000769 0.000000
# 4 0.000002 -0.000006 -0.000001 0.048049 0.000005 -0.004198
# 5 0.003177 0.000159 -0.000769 0.000005 0.028219 -0.000002
# 6 -0.000001 0.000002 0.000000 -0.004198 -0.000002 0.031702
#
#
# Mechanical properties :
#
#
# Convention : Reuss Voigt Hill
#
# Bulk Modulus (GPa) = 46.39767 51.72597 49.06182
# Shear Modulus (GPa) = 27.48478 29.53969 28.51224
#
# Velocity S-wave (km/s) = 3.70247 3.83838 3.77104
# Velocity P-wave (km/s) = 6.43576 6.74115 6.59022
#
# Compressibility (1/GPa) = 0.02155281
#
# Stress axis : x y z
#
# Youngs Moduli (GPa) = 87.74730 73.17875 52.36298
#
# Poissons Ratio (x) = 0.29614 0.19478
# Poissons Ratio (y) = 0.35510 0.18517
# Poissons Ratio (z) = 0.32641 0.25879
#
# Static dielectric constant tensor:
#      x y z
#    x 3.663860 0.000000 0.069840 
#    y 0.000000 3.365840 0.000000 
#    z 0.069840 0.000000 3.662690 
# 
# 
# High freq. dielectric constant tensor:
#      x y z
#    x 1.786940 0.000000 0.008200 
#    y 0.000000 1.759480 0.000000 
#    z 0.008200 0.000000 1.788240 
# 
# From -- ./inp_files/208883.got.cif
#   From: 2010.06.25/outbox.cif.g09.slc.cpg/sg15_105_cif.got.tgz:208883.got - 2010.06.28 07:06:18.
