data_PCOD8142799
_publ_section_title
;
Structure prediction by ZEFSAII (Michael W. Deem and Ramdas Pophale) SiO2 
 PCOD8142799
Probable space group: C 2/C
;
_chemical_formula_sum "Si O2"
_cell_formula_units_Z 64
_cell_length_a 15.248757
_cell_length_b 17.873617
_cell_length_c 11.591342
_cell_angle_alpha 90.000000
_cell_angle_beta 96.312339
_cell_angle_gamma 90.000000
_cell_volume 3140.071955
_symmetry_space_group_name_H-M "C 2/C"
_symmetry_group_IT_number 15
_symmetry_cell_setting 'monoclinic'
loop_
_space_group_symop_operation_xyz
x,y,z
-x,y,1/2-z
-x,-y,-z
x,-y,1/2+z
1/2+x,1/2+y,z
1/2-x,1/2+y,1/2-z
1/2-x,1/2-y,-z
1/2+x,1/2-y,1/2+z
loop_
_atom_site_type_symbol
_atom_site_label
_atom_site_fract_x
_atom_site_fract_y
_atom_site_fract_z
Si Si1 0.269596 0.371209 0.936772
Si Si2 0.591817 0.645319 0.216832
Si Si3 0.150576 0.503089 0.511079
Si Si4 0.493790 0.083244 0.880004
Si Si5 0.352168 0.281227 0.396732
Si Si6 0.025803 0.741578 0.530121
Si Si7 0.831552 0.770321 0.136452
Si Si8 0.242717 0.859245 0.926316
O O1 0.357700 0.399486 0.879921
O O2 0.201819 0.438858 0.936457
O O3 0.234815 0.299981 0.856969
O O4 0.287417 0.342246 0.069053
O O5 0.500000 0.607489 0.250000
O O6 0.566268 0.725417 0.154742
O O7 0.657275 0.652521 0.333926
O O8 0.100072 0.543059 0.609607
O O9 0.219994 0.443421 0.572725
O O10 0.076592 0.468957 0.418177
O O11 0.500000 0.107592 0.750000
O O12 0.503152 0.156686 0.958174
O O13 0.443196 0.291140 0.478389
O O14 0.364925 0.300698 0.264082
O O15 0.319986 0.195775 0.398189
O O16 0.283083 0.338265 0.445550
O O17 0.091843 0.739860 0.433163
#
# Coordination Sequence:
#
# PCOD8142799 Si02
#       8
#     8   8   8   8   8   8   8   8
#     4  10  22  41  66  92 129 177 218 270 324 394
#     4  11  22  41  69  93 125 170 227 274 325 376
#     4  11  25  46  59 100 139 173 219 262 335 413
#     4  11  25  39  66 100 143 174 206 264 344 407
#     4  11  22  39  63  97 130 165 221 274 321 386
#     4  11  21  41  67  99 132 167 214 275 328 392
#     4  10  21  39  65  95 127 173 222 266 324 386
#     4  11  24  39  64  95 128 173 217 272 329 385
#
# _framework density 20.381696999999999
#
# number of rings (size 3 to 8) (size 9 to 14) (size 15 to 20)
#    0.000    1.250    5.000    0.750    1.750    1.000 
#    0.000    0.625    0.000    0.000    0.000    0.000 
#    0.000    0.000    0.000    0.000    0.000    0.000 
#
# Total GULP energy -396697.314395 kJ/mol
# GULP energy per Si atom -12396.791075 kJ/mol
# Density = 2.033531 g / cm^3
# Si number density = 20.381697 Si / 1000 Ang^3
#
#
#
# Elastic Constant Matrix: (Units=GPa)
#
#
# Indices 1 2 3 4 5 6 
#
# 1 126.5790 39.6955 47.2782 0.0000 -9.7685 0.0000
# 2 39.6955 71.5737 35.9961 0.0000 -4.7708 0.0000
# 3 47.2782 35.9961 125.3573 0.0000 -6.4499 0.0000
# 4 0.0000 0.0000 0.0000 11.4894 0.0000 -0.6116
# 5 -9.7685 -4.7708 -6.4499 0.0000 34.6107 0.0000
# 6 0.0000 0.0000 0.0000 -0.6116 0.0000 37.5917
#
#
#
# Elastic Compliance Matrix: (Units=1/GPa)
#
#
# Indices 1 2 3 4 5 6 
#
# 1 0.010360 -0.004331 -0.002569 0.000000 0.001848 0.000000
# 2 -0.004331 0.018207 -0.003563 0.000000 0.000623 0.000000
# 3 -0.002569 -0.003563 0.010002 0.000000 0.000648 0.000000
# 4 0.000000 0.000000 0.000000 0.087112 0.000000 0.001417
# 5 0.001848 0.000623 0.000648 0.000000 0.029621 0.000000
# 6 0.000000 0.000000 0.000000 0.001417 0.000000 0.026625
#
#
# Mechanical properties :
#
#
# Convention : Reuss Voigt Hill
#
# Bulk Modulus (GPa) = 56.67272 63.27219 59.97245
# Shear Modulus (GPa) = 23.95397 30.10771 27.03084
#
# Velocity S-wave (km/s) = 3.43194 3.84760 3.64570
# Velocity P-wave (km/s) = 6.60078 7.13090 6.87095
#
# Compressibility (1/GPa) = 0.01764518
#
# Stress axis : x y z
#
# Youngs Moduli (GPa) = 96.52055 54.92431 99.97702
#
# Poissons Ratio (x) = 0.23788 0.25681
# Poissons Ratio (y) = 0.41803 0.35618
# Poissons Ratio (z) = 0.24793 0.19567
#
# Static dielectric constant tensor:
#      x y z
#    x 3.959310 0.000000 -0.159470 
#    y 0.000000 3.336560 0.000000 
#    z -0.159470 0.000000 3.660530 
# 
# 
# High freq. dielectric constant tensor:
#      x y z
#    x 1.813200 0.000000 -0.012120 
#    y 0.000000 1.759650 0.000000 
#    z -0.012120 0.000000 1.802040 
# 
# From -- ./inp_files/98766.got.cif
#   From: 2010.06.25/outbox.cif.g09.slc.cpg/sg15_50_cif.got.tgz:98766.got - 2010.06.28 07:06:18.
