data_PCOD8142645
_publ_section_title
;
Structure prediction by ZEFSAII (Michael W. Deem and Ramdas Pophale) SiO2 
 PCOD8142645
Probable space group: C 2/C
;
_chemical_formula_sum "Si O2"
_cell_formula_units_Z 48
_cell_length_a 29.501591
_cell_length_b 8.424045
_cell_length_c 8.829689
_cell_angle_alpha 90.000000
_cell_angle_beta 87.809482
_cell_angle_gamma 90.000000
_cell_volume 2192.774887
_symmetry_space_group_name_H-M "C 2/C"
_symmetry_group_IT_number 15
_symmetry_cell_setting 'monoclinic'
loop_
_space_group_symop_operation_xyz
x,y,z
-x,y,1/2-z
-x,-y,-z
x,-y,1/2+z
1/2+x,1/2+y,z
1/2-x,1/2+y,1/2-z
1/2-x,1/2-y,-z
1/2+x,1/2-y,1/2+z
loop_
_atom_site_type_symbol
_atom_site_label
_atom_site_fract_x
_atom_site_fract_y
_atom_site_fract_z
Si Si1 0.000000 0.534184 0.250000
Si Si2 0.730093 0.613509 0.106902
Si Si3 0.851482 0.881655 0.452137
Si Si4 0.406893 0.411204 0.151437
Si Si5 0.713435 0.817833 0.393847
Si Si6 0.000000 0.044921 0.250000
Si Si7 0.461353 0.796071 0.464484
O O1 0.959591 0.425227 0.328847
O O2 0.017722 0.637988 0.383940
O O3 0.689321 0.512200 0.037408
O O4 0.709664 0.703063 0.251628
O O5 0.772672 0.498629 0.148175
O O6 0.750000 0.750000 0.000000
O O7 0.870706 0.858234 0.281485
O O8 0.834254 0.707689 0.510824
O O9 0.890058 0.933410 0.565557
O O10 0.455654 0.439153 0.223470
O O11 0.412167 0.272064 0.022224
O O12 0.750000 0.750000 0.500000
O O13 0.008023 0.150350 0.098692
#
# Coordination Sequence:
#
# PCOD8142645 Si02
#       7
#     4   8   8   8   8   4   8
#     4   9  21  40  62  86 121 173 244 274 346 424
#     4  11  23  43  72  98 136 178 220 274 346 424
#     4  11  24  41  66 100 142 173 228 291 338 412
#     4  12  23  41  65 100 135 173 232 292 344 403
#     4  10  21  40  67  99 129 179 216 270 338 409
#     4  11  23  38  68  98 125 183 232 280 350 406
#     4  10  21  39  63  88 125 175 228 280 345 411
#
# _framework density 21.890070000000001
#
# number of rings (size 3 to 8) (size 9 to 14) (size 15 to 20)
#    0.000    1.333    3.333    3.000    4.667    0.000 
#    0.000    1.667    0.000    0.000    0.000    0.000 
#    0.000    0.000    0.000    0.000    0.000    0.000 
#
# Total GULP energy -297333.321853 kJ/mol
# GULP energy per Si atom -12388.888411 kJ/mol
# Density = 2.184025 g / cm^3
# Si number density = 21.890070 Si / 1000 Ang^3
#
#
#
# Elastic Constant Matrix: (Units=GPa)
#
#
# Indices 1 2 3 4 5 6 
#
# 1 89.8353 37.5419 33.2421 0.0000 -19.4210 0.0000
# 2 37.5419 101.2893 35.5604 0.0000 -20.8052 0.0000
# 3 33.2421 35.5604 121.3753 0.0000 -31.6994 0.0000
# 4 0.0000 0.0000 0.0000 35.5226 0.0000 -6.8697
# 5 -19.4210 -20.8052 -31.6994 0.0000 48.5601 0.0000
# 6 0.0000 0.0000 0.0000 -6.8697 0.0000 34.3713
#
#
#
# Elastic Compliance Matrix: (Units=1/GPa)
#
#
# Indices 1 2 3 4 5 6 
#
# 1 0.014108 -0.003984 -0.002012 0.000000 0.002622 0.000000
# 2 -0.003984 0.012544 -0.001925 0.000000 0.002525 0.000000
# 3 -0.002012 -0.001925 0.010763 0.000000 0.005397 0.000000
# 4 0.000000 0.000000 0.000000 0.029283 0.000000 0.005853
# 5 0.002622 0.002525 0.005397 0.000000 0.026246 0.000000
# 6 0.000000 0.000000 0.000000 0.005853 0.000000 0.030264
#
#
# Mechanical properties :
#
#
# Convention : Reuss Voigt Hill
#
# Bulk Modulus (GPa) = 46.35241 58.35430 52.35335
# Shear Modulus (GPa) = 34.19048 37.43448 35.81248
#
# Velocity S-wave (km/s) = 3.95640 4.13984 4.04916
# Velocity P-wave (km/s) = 6.48782 7.04037 6.76973
#
# Compressibility (1/GPa) = 0.02157385
#
# Stress axis : x y z
#
# Youngs Moduli (GPa) = 70.88350 79.72227 92.90865
#
# Poissons Ratio (x) = 0.31761 0.18691
# Poissons Ratio (y) = 0.28240 0.17881
# Poissons Ratio (z) = 0.14260 0.15343
#
# Static dielectric constant tensor:
#      x y z
#    x 4.707350 0.000000 -0.159370 
#    y 0.000000 4.603670 0.000000 
#    z -0.159370 0.000000 4.170400 
# 
# 
# High freq. dielectric constant tensor:
#      x y z
#    x 1.834230 0.000000 -0.024010 
#    y 0.000000 1.854610 0.000000 
#    z -0.024010 0.000000 1.886710 
# 
# From -- ./inp_files/68634.got.cif
#   From: 2010.06.25/outbox.cif.g09.slc.cpg/sg15_35_cif.got.tgz:68634.got - 2010.06.28 07:06:18.
