data_PCOD8142938
_publ_section_title
;
Structure prediction by ZEFSAII (Michael W. Deem and Ramdas Pophale) SiO2 
 PCOD8142938
Probable space group: C 2/C
;
_chemical_formula_sum "Si O2"
_cell_formula_units_Z 60
_cell_length_a 23.152832
_cell_length_b 8.918699
_cell_length_c 19.422827
_cell_angle_alpha 90.000000
_cell_angle_beta 39.567947
_cell_angle_gamma 90.000000
_cell_volume 2554.774785
_symmetry_space_group_name_H-M "C 2/C"
_symmetry_group_IT_number 15
_symmetry_cell_setting 'monoclinic'
loop_
_space_group_symop_operation_xyz
x,y,z
-x,y,1/2-z
-x,-y,-z
x,-y,1/2+z
1/2+x,1/2+y,z
1/2-x,1/2+y,1/2-z
1/2-x,1/2-y,-z
1/2+x,1/2-y,1/2+z
loop_
_atom_site_type_symbol
_atom_site_label
_atom_site_fract_x
_atom_site_fract_y
_atom_site_fract_z
Si Si1 0.115976 0.855940 0.412028
Si Si2 0.861442 0.337603 0.340346
Si Si3 0.770156 0.357496 0.167808
Si Si4 0.560842 0.316364 0.002672
Si Si5 0.309485 0.850518 0.543727
Si Si6 0.680343 0.849102 0.645963
Si Si7 0.376384 0.365390 0.411528
Si Si8 0.500000 0.622992 0.250000
O O1 0.211448 0.899808 0.288411
O O2 0.124817 0.731494 0.462700
O O3 0.041900 0.787400 0.426660
O O4 0.081294 0.008321 0.476934
O O5 0.775927 0.254940 0.387913
O O6 0.857985 0.371814 0.425830
O O7 0.873819 0.496724 0.290261
O O8 0.947339 0.231164 0.244849
O O9 0.867800 0.291934 0.102888
O O10 0.779316 0.490885 0.104188
O O11 0.712394 0.223083 0.187185
O O12 0.575863 0.277256 0.069474
O O13 0.614251 0.736411 0.665101
O O14 0.769770 0.897199 0.520062
O O15 0.424943 0.524749 0.357695
#
# Coordination Sequence:
#
# PCOD8142938 Si02
#       8
#     8   8   8   8   8   8   8   4
#     4  11  24  42  67  96 131 179 222 273 325 404
#     4  11  23  41  63  96 133 168 212 276 330 388
#     4  11  23  43  69  98 129 182 220 270 331 401
#     4  10  23  43  65  95 134 173 225 272 329 384
#     4  11  23  43  67  92 133 172 217 268 335 389
#     4  10  21  43  68  94 130 176 217 268 334 392
#     4  10  21  39  68  95 127 172 218 275 324 393
#     4  12  24  36  62 106 128 168 216 270 340 390
#
# _framework density 23.485436
#
# number of rings (size 3 to 8) (size 9 to 14) (size 15 to 20)
#    0.000    1.333    0.000    8.000    3.733    1.067 
#    4.800    0.000    0.000    0.000    0.000    0.000 
#    0.000    0.000    0.000    0.000    0.000    0.000 
#
# Total GULP energy -371989.478269 kJ/mol
# GULP energy per Si atom -12399.649276 kJ/mol
# Density = 2.343198 g / cm^3
# Si number density = 23.485436 Si / 1000 Ang^3
#
#
#
# Elastic Constant Matrix: (Units=GPa)
#
#
# Indices 1 2 3 4 5 6 
#
# 1 102.1322 29.1790 15.1187 -0.0002 -16.3218 0.0002
# 2 29.1790 122.7085 16.7354 0.0025 -10.5748 -0.0011
# 3 15.1187 16.7354 51.5468 0.0006 -11.6475 0.0000
# 4 -0.0002 0.0025 0.0006 33.0702 -0.0007 -12.9698
# 5 -16.3218 -10.5748 -11.6475 -0.0007 22.9865 0.0002
# 6 0.0002 -0.0011 0.0000 -12.9698 0.0002 40.9053
#
#
#
# Elastic Compliance Matrix: (Units=1/GPa)
#
#
# Indices 1 2 3 4 5 6 
#
# 1 0.011621 -0.002017 -0.001241 0.000000 0.006695 0.000000
# 2 -0.002017 0.009045 -0.001952 -0.000001 0.001740 0.000000
# 3 -0.001241 -0.001952 0.022581 0.000000 0.009663 0.000000
# 4 0.000000 -0.000001 0.000000 0.034533 0.000001 0.010949
# 5 0.006695 0.001740 0.009663 0.000001 0.053955 0.000000
# 6 0.000000 0.000000 0.000000 0.010949 0.000000 0.027918
#
#
# Mechanical properties :
#
#
# Convention : Reuss Voigt Hill
#
# Bulk Modulus (GPa) = 30.46219 44.27261 37.36740
# Shear Modulus (GPa) = 27.62196 33.74935 30.68565
#
# Velocity S-wave (km/s) = 3.43320 3.79493 3.61859
# Velocity P-wave (km/s) = 5.35860 6.17204 5.77965
#
# Compressibility (1/GPa) = 0.03282758
#
# Stress axis : x y z
#
# Youngs Moduli (GPa) = 86.04997 110.55570 44.28513
#
# Poissons Ratio (x) = 0.22302 0.05495
# Poissons Ratio (y) = 0.17358 0.08644
# Poissons Ratio (z) = 0.10677 0.21579
#
# Static dielectric constant tensor:
#      x y z
#    x 4.397760 0.000000 -0.193900 
#    y 0.000000 4.317920 0.000000 
#    z -0.193900 0.000000 3.972770 
# 
# 
# High freq. dielectric constant tensor:
#      x y z
#    x 1.935500 0.000000 -0.011590 
#    y 0.000000 1.938160 0.000000 
#    z -0.011590 0.000000 1.901700 
# 
# From -- ./inp_files/255163.got.cif
#   From: 2010.06.25/outbox.cif.g09.slc.cpg/sg15_128_cif.got.tgz:255163.got - 2010.06.28 07:06:18.
