data_PCOD8142627
_publ_section_title
;
Structure prediction by ZEFSAII (Michael W. Deem and Ramdas Pophale) SiO2 
 PCOD8142627
Probable space group: C 2/C
;
_chemical_formula_sum "Si O2"
_cell_formula_units_Z 60
_cell_length_a 16.936915
_cell_length_b 14.782993
_cell_length_c 11.545245
_cell_angle_alpha 90.000000
_cell_angle_beta 65.166958
_cell_angle_gamma 90.000000
_cell_volume 2623.393408
_symmetry_space_group_name_H-M "C 2/C"
_symmetry_group_IT_number 15
_symmetry_cell_setting 'monoclinic'
loop_
_space_group_symop_operation_xyz
x,y,z
-x,y,1/2-z
-x,-y,-z
x,-y,1/2+z
1/2+x,1/2+y,z
1/2-x,1/2+y,1/2-z
1/2-x,1/2-y,-z
1/2+x,1/2-y,1/2+z
loop_
_atom_site_type_symbol
_atom_site_label
_atom_site_fract_x
_atom_site_fract_y
_atom_site_fract_z
Si Si1 0.089936 0.319980 0.130293
Si Si2 0.002490 0.255529 0.964492
Si Si3 0.444581 0.585488 0.886536
Si Si4 0.828130 0.760197 0.701150
Si Si5 0.500000 0.880334 0.750000
Si Si6 0.177492 0.969197 0.856553
Si Si7 0.786973 0.116015 0.840083
Si Si8 0.165182 0.510500 0.077253
O O1 0.152081 0.261970 0.176762
O O2 0.139020 0.409565 0.056106
O O3 0.000000 0.345190 0.250000
O O4 0.072415 0.262396 0.024960
O O5 0.010032 0.155565 0.906580
O O6 0.023858 0.323476 0.848463
O O7 0.906585 0.274536 0.072991
O O8 0.500000 0.536084 0.750000
O O9 0.359051 0.642001 0.892521
O O10 0.405592 0.517105 0.005956
O O11 0.815507 0.867427 0.697028
O O12 0.742064 0.705714 0.711610
O O13 0.418339 0.942222 0.821271
O O14 0.266165 0.997409 0.862368
O O15 0.161822 0.041016 0.765889
O O16 0.702760 0.067051 0.946578
#
# Coordination Sequence:
#
# PCOD8142627 Si02
#       8
#     8   8   8   8   4   8   8   8
#     4  10  21  39  62  99 141 177 213 269 338 401
#     4  10  22  37  65 104 133 174 225 269 332 412
#     4  10  23  44  69  94 126 173 231 285 329 385
#     4  10  21  42  67  94 139 183 216 277 335 396
#     4  12  22  34  64 100 140 178 216 268 340 414
#     4  10  24  42  67  99 131 176 229 275 337 399
#     4  11  23  42  67  94 138 176 228 277 330 400
#     4  11  23  37  63  99 141 177 216 272 339 410
#
# _framework density 22.871138999999999
#
# number of rings (size 3 to 8) (size 9 to 14) (size 15 to 20)
#    0.000    1.600    4.000    0.000    3.733    2.667 
#    0.000    6.667    0.000    0.000    0.000    0.000 
#    0.000    0.000    0.000    0.000    0.000    0.000 
#
# Total GULP energy -371985.901692 kJ/mol
# GULP energy per Si atom -12399.530056 kJ/mol
# Density = 2.281908 g / cm^3
# Si number density = 22.871139 Si / 1000 Ang^3
#
#
#
# Elastic Constant Matrix: (Units=GPa)
#
#
# Indices 1 2 3 4 5 6 
#
# 1 65.9652 29.0012 18.5922 0.0000 9.1593 0.0000
# 2 29.0012 84.3121 43.7135 0.0000 5.0549 0.0000
# 3 18.5922 43.7135 113.9736 0.0000 -0.4732 0.0000
# 4 0.0000 0.0000 0.0000 19.9279 0.0000 -3.0286
# 5 9.1593 5.0549 -0.4732 0.0000 39.5236 0.0000
# 6 0.0000 0.0000 0.0000 -3.0286 0.0000 31.2308
#
#
#
# Elastic Compliance Matrix: (Units=1/GPa)
#
#
# Indices 1 2 3 4 5 6 
#
# 1 0.018383 -0.005677 -0.000836 0.000000 -0.003544 0.000000
# 2 -0.005677 0.016712 -0.005487 0.000000 -0.000887 0.000000
# 3 -0.000836 -0.005487 0.011019 0.000000 0.001027 0.000000
# 4 0.000000 0.000000 0.000000 0.050931 0.000000 0.004939
# 5 -0.003544 -0.000887 0.001027 0.000000 0.026248 0.000000
# 6 0.000000 0.000000 0.000000 0.004939 0.000000 0.032499
#
#
# Mechanical properties :
#
#
# Convention : Reuss Voigt Hill
#
# Bulk Modulus (GPa) = 45.22237 49.65163 47.43700
# Shear Modulus (GPa) = 26.71441 29.66607 28.19024
#
# Velocity S-wave (km/s) = 3.42137 3.60543 3.51460
# Velocity P-wave (km/s) = 5.95175 6.25209 6.10376
#
# Compressibility (1/GPa) = 0.02211295
#
# Stress axis : x y z
#
# Youngs Moduli (GPa) = 54.39722 59.83814 90.75105
#
# Poissons Ratio (x) = 0.33973 0.07587
# Poissons Ratio (y) = 0.30884 0.49797
# Poissons Ratio (z) = 0.04548 0.32834
#
# Static dielectric constant tensor:
#      x y z
#    x 4.150470 0.000000 0.114300 
#    y 0.000000 3.833380 0.000000 
#    z 0.114300 0.000000 4.330150 
# 
# 
# High freq. dielectric constant tensor:
#      x y z
#    x 1.913630 0.000000 0.002770 
#    y 0.000000 1.883320 0.000000 
#    z 0.002770 0.000000 1.912400 
# 
# From -- ./inp_files/105697.got.cif
#   From: 2010.06.25/outbox.cif.g09.slc.cpg/sg15_53_cif.got.tgz:105697.got - 2010.06.28 07:06:18.
