data_PCOD8142981
_publ_section_title
;
Structure prediction by ZEFSAII (Michael W. Deem and Ramdas Pophale) SiO2 
 PCOD8142981
Probable space group: C 2/C
;
_chemical_formula_sum "Si O2"
_cell_formula_units_Z 52
_cell_length_a 12.823768
_cell_length_b 17.685310
_cell_length_c 13.671240
_cell_angle_alpha 90.000000
_cell_angle_beta 130.908774
_cell_angle_gamma 90.000000
_cell_volume 2343.237071
_symmetry_space_group_name_H-M "C 2/C"
_symmetry_group_IT_number 15
_symmetry_cell_setting 'monoclinic'
loop_
_space_group_symop_operation_xyz
x,y,z
-x,y,1/2-z
-x,-y,-z
x,-y,1/2+z
1/2+x,1/2+y,z
1/2-x,1/2+y,1/2-z
1/2-x,1/2-y,-z
1/2+x,1/2-y,1/2+z
loop_
_atom_site_type_symbol
_atom_site_label
_atom_site_fract_x
_atom_site_fract_y
_atom_site_fract_z
Si Si1 0.721379 0.535377 0.245768
Si Si2 0.448080 0.601196 0.521148
Si Si3 0.500000 0.528291 0.750000
Si Si4 0.177332 0.260934 0.057382
Si Si5 0.404784 0.839196 0.931835
Si Si6 0.211854 0.812966 0.176975
Si Si7 0.057263 0.581957 0.686139
O O1 0.623575 0.521882 0.279822
O O2 0.800034 0.615455 0.298400
O O3 0.840250 0.472523 0.309686
O O4 0.617467 0.536691 0.088818
O O5 0.426721 0.579169 0.621547
O O6 0.380754 0.679871 0.449151
O O7 0.611971 0.613885 0.605032
O O8 0.284862 0.288074 0.206318
O O9 0.250000 0.250000 0.000000
O O10 0.052102 0.321698 0.970585
O O11 0.334269 0.758841 0.916522
O O12 0.428561 0.892971 0.040325
O O13 0.362073 0.840760 0.235006
O O14 0.000000 0.543135 0.750000
#
# Coordination Sequence:
#
# PCOD8142981 Si02
#       7
#     8   8   4   8   8   8   8
#     4  12  26  46  67 103 139 178 234 273 350 404
#     4  11  23  42  69  99 134 178 223 283 336 404
#     4  12  26  42  72  96 140 184 224 288 330 412
#     4  10  21  39  71  99 134 172 221 283 343 396
#     4  10  24  44  65  99 135 174 221 284 335 412
#     4  10  21  46  66  99 133 168 233 272 342 403
#     4  11  26  44  69  95 136 180 221 283 336 410
#
# _framework density 22.191524000000001
#
# number of rings (size 3 to 8) (size 9 to 14) (size 15 to 20)
#    0.000    1.231    3.077    1.846    4.308    3.692 
#    1.385    0.000    0.000    0.000    0.000    0.000 
#    0.000    0.000    0.000    0.000    0.000    0.000 
#
# Total GULP energy -322327.974426 kJ/mol
# GULP energy per Si atom -12397.229786 kJ/mol
# Density = 2.214102 g / cm^3
# Si number density = 22.191524 Si / 1000 Ang^3
#
#
#
# Elastic Constant Matrix: (Units=GPa)
#
#
# Indices 1 2 3 4 5 6 
#
# 1 96.4426 25.8138 28.3391 0.0000 -6.4540 0.0000
# 2 25.8138 83.6173 37.5187 0.0000 4.5504 0.0000
# 3 28.3391 37.5187 121.3854 0.0000 8.2252 0.0000
# 4 0.0000 0.0000 0.0000 46.9333 0.0000 9.7724
# 5 -6.4540 4.5504 8.2252 0.0000 31.4187 0.0000
# 6 0.0000 0.0000 0.0000 9.7724 0.0000 27.5579
#
#
#
# Elastic Compliance Matrix: (Units=1/GPa)
#
#
# Indices 1 2 3 4 5 6 
#
# 1 0.012013 -0.002941 -0.002129 0.000000 0.003451 0.000000
# 2 -0.002941 0.014630 -0.003717 0.000000 -0.001750 0.000000
# 3 -0.002129 -0.003717 0.010056 0.000000 -0.002532 0.000000
# 4 0.000000 0.000000 0.000000 0.023006 0.000000 -0.008158
# 5 0.003451 -0.001750 -0.002532 0.000000 0.033453 0.000000
# 6 0.000000 0.000000 0.000000 -0.008158 0.000000 0.039180
#
#
# Mechanical properties :
#
#
# Convention : Reuss Voigt Hill
#
# Bulk Modulus (GPa) = 52.28926 53.86539 53.07733
# Shear Modulus (GPa) = 31.99257 35.16690 33.57974
#
# Velocity S-wave (km/s) = 3.80104 3.98515 3.89418
# Velocity P-wave (km/s) = 6.54811 6.74543 6.64750
#
# Compressibility (1/GPa) = 0.01912439
#
# Stress axis : x y z
#
# Youngs Moduli (GPa) = 83.24559 68.35243 99.44591
#
# Poissons Ratio (x) = 0.20101 0.21176
# Poissons Ratio (y) = 0.24481 0.36962
# Poissons Ratio (z) = 0.17726 0.25405
#
# Static dielectric constant tensor:
#      x y z
#    x 3.852620 0.000000 0.457960 
#    y 0.000000 4.138830 0.000000 
#    z 0.457960 0.000000 4.218480 
# 
# 
# High freq. dielectric constant tensor:
#      x y z
#    x 1.851650 0.000000 0.026780 
#    y 0.000000 1.885970 0.000000 
#    z 0.026780 0.000000 1.881120 
# 
# From -- ./inp_files/89734.got.cif
#   From: 2010.06.25/outbox.cif.g09.slc.cpg/sg15_45_cif.got.tgz:89734.got - 2010.06.28 07:06:18.
