data_PCOD8142158
_publ_section_title
;
Structure prediction by ZEFSAII (Michael W. Deem and Ramdas Pophale) SiO2 
 PCOD8142158
Probable space group: C 2/C
;
_chemical_formula_sum "Si O2"
_cell_formula_units_Z 56
_cell_length_a 10.882109
_cell_length_b 19.171286
_cell_length_c 12.047153
_cell_angle_alpha 90.000000
_cell_angle_beta 66.860913
_cell_angle_gamma 90.000000
_cell_volume 2311.137625
_symmetry_space_group_name_H-M "C 2/C"
_symmetry_group_IT_number 15
_symmetry_cell_setting 'monoclinic'
loop_
_space_group_symop_operation_xyz
x,y,z
-x,y,1/2-z
-x,-y,-z
x,-y,1/2+z
1/2+x,1/2+y,z
1/2-x,1/2+y,1/2-z
1/2-x,1/2-y,-z
1/2+x,1/2-y,1/2+z
loop_
_atom_site_type_symbol
_atom_site_label
_atom_site_fract_x
_atom_site_fract_y
_atom_site_fract_z
Si Si1 0.350299 0.505381 0.327461
Si Si2 0.520162 0.287383 0.616288
Si Si3 0.775139 0.134460 0.781181
Si Si4 0.026559 0.640196 0.544183
Si Si5 0.290124 0.598937 0.533755
Si Si6 0.115518 0.585465 0.280157
Si Si7 0.238618 0.718099 0.128403
O O1 0.500000 0.532280 0.250000
O O2 0.343856 0.421280 0.338458
O O3 0.320838 0.525276 0.465570
O O4 0.243408 0.538155 0.274321
O O5 0.500000 0.263567 0.750000
O O6 0.563095 0.221771 0.526903
O O7 0.636011 0.344590 0.570493
O O8 0.379842 0.313036 0.617403
O O9 0.617450 0.126478 0.853068
O O10 0.835307 0.107049 0.643406
O O11 0.815643 0.215104 0.782205
O O12 0.131092 0.605781 0.590268
O O13 0.041095 0.611159 0.416309
O O14 0.146433 0.651430 0.186499
O O15 0.000000 0.543741 0.250000
O O16 0.250000 0.750000 0.000000
#
# Coordination Sequence:
#
# PCOD8142158 Si02
#       7
#     8   8   8   8   8   8   8
#     4  11  27  47  68  97 133 177 228 281 341 409
#     4  11  20  37  65  96 131 170 221 276 329 399
#     4  11  25  42  65  97 136 178 223 276 335 403
#     4  10  21  38  62  97 134 171 220 273 332 396
#     4  11  22  39  66  94 129 175 224 274 330 400
#     4  11  23  42  70  98 134 178 222 277 341 404
#     4  11  24  42  67 101 140 176 221 280 341 402
#
# _framework density 24.230491000000001
#
# number of rings (size 3 to 8) (size 9 to 14) (size 15 to 20)
#    0.000    1.143    0.000    8.143    0.000    8.000 
#    0.000    0.000    0.000    0.000    0.000    0.000 
#    0.000    0.000    0.000    0.000    0.000    0.000 
#
# Total GULP energy -346870.706218 kJ/mol
# GULP energy per Si atom -12388.239508 kJ/mol
# Density = 2.417534 g / cm^3
# Si number density = 24.230491 Si / 1000 Ang^3
#
#
#
# Elastic Constant Matrix: (Units=GPa)
#
#
# Indices 1 2 3 4 5 6 
#
# 1 102.5177 13.3833 21.7824 0.0000 4.7968 0.0000
# 2 13.3833 79.0252 13.0387 0.0000 -7.8897 0.0000
# 3 21.7824 13.0387 71.3026 0.0000 4.7594 0.0000
# 4 0.0000 0.0000 0.0000 12.4816 0.0000 1.8721
# 5 4.7968 -7.8897 4.7594 0.0000 32.8926 0.0000
# 6 0.0000 0.0000 0.0000 1.8721 0.0000 25.8421
#
#
#
# Elastic Compliance Matrix: (Units=1/GPa)
#
#
# Indices 1 2 3 4 5 6 
#
# 1 0.010628 -0.001473 -0.002878 0.000000 -0.001487 0.000000
# 2 -0.001473 0.013666 -0.002304 0.000000 0.003826 0.000000
# 3 -0.002878 -0.002304 0.015484 0.000000 -0.002373 0.000000
# 4 0.000000 0.000000 0.000000 0.080998 0.000000 -0.005868
# 5 -0.001487 0.003826 -0.002373 0.000000 0.031880 0.000000
# 6 0.000000 0.000000 0.000000 -0.005868 0.000000 0.039122
#
#
# Mechanical properties :
#
#
# Convention : Reuss Voigt Hill
#
# Bulk Modulus (GPa) = 37.78437 38.80603 38.29520
# Shear Modulus (GPa) = 23.37422 27.88601 25.63011
#
# Velocity S-wave (km/s) = 3.10927 3.39612 3.25586
# Velocity P-wave (km/s) = 5.34019 5.60610 5.47476
#
# Compressibility (1/GPa) = 0.02646597
#
# Stress axis : x y z
#
# Youngs Moduli (GPa) = 94.09247 73.17468 64.58391
#
# Poissons Ratio (x) = 0.10782 0.18587
# Poissons Ratio (y) = 0.13864 0.14882
# Poissons Ratio (z) = 0.27080 0.16861
#
# Static dielectric constant tensor:
#      x y z
#    x 4.945270 0.000000 -0.165300 
#    y 0.000000 4.518990 0.000000 
#    z -0.165300 0.000000 4.734700 
# 
# 
# High freq. dielectric constant tensor:
#      x y z
#    x 1.968490 0.000000 -0.002990 
#    y 0.000000 1.955900 0.000000 
#    z -0.002990 0.000000 1.965330 
# 
# From -- ./inp_files/89548.got.cif
#   From: 2010.06.25/outbox.cif.g09.slc.cpg/sg15_45_cif.got.tgz:89548.got - 2010.06.28 07:06:18.
