data_PCOD8142134
_publ_section_title
;
Structure prediction by ZEFSAII (Michael W. Deem and Ramdas Pophale) SiO2 
 PCOD8142134
Probable space group: C 2/C
;
_chemical_formula_sum "Si O2"
_cell_formula_units_Z 48
_cell_length_a 8.792487
_cell_length_b 16.764358
_cell_length_c 30.862350
_cell_angle_alpha 90.000000
_cell_angle_beta 151.565785
_cell_angle_gamma 90.000000
_cell_volume 2166.062144
_symmetry_space_group_name_H-M "C 2/C"
_symmetry_group_IT_number 15
_symmetry_cell_setting 'monoclinic'
loop_
_space_group_symop_operation_xyz
x,y,z
-x,y,1/2-z
-x,-y,-z
x,-y,1/2+z
1/2+x,1/2+y,z
1/2-x,1/2+y,1/2-z
1/2-x,1/2-y,-z
1/2+x,1/2-y,1/2+z
loop_
_atom_site_type_symbol
_atom_site_label
_atom_site_fract_x
_atom_site_fract_y
_atom_site_fract_z
Si Si1 0.363608 0.991664 0.918002
Si Si2 0.197898 0.775949 0.050967
Si Si3 0.367324 0.984754 0.763706
Si Si4 0.243259 0.928300 0.559783
Si Si5 0.397932 0.828352 0.272260
Si Si6 0.333262 0.828014 0.402290
O O1 0.370473 0.079787 0.899409
O O2 0.002794 0.961447 0.829505
O O3 0.564772 0.932634 0.937675
O O4 0.500000 0.000000 0.000000
O O5 0.357479 0.776141 0.137977
O O6 0.492797 0.779742 0.091704
O O7 0.943167 0.846338 0.982941
O O8 0.001734 0.694585 0.990801
O O9 0.500000 0.960890 0.750000
O O10 0.436872 0.077555 0.791425
O O11 0.524909 0.932413 0.840782
O O12 0.000000 0.000000 0.500000
O O13 0.500000 0.806637 0.250000
O O14 0.035267 0.801969 0.189405
#
# Coordination Sequence:
#
# PCOD8142134 Si02
#       6
#     8   8   8   8   8   8
#     4  11  23  40  65  93 127 168 215 265 324 390
#     4  11  23  41  66  92 131 167 217 269 319 391
#     4  10  21  38  62  91 128 166 214 264 321 384
#     4  12  21  38  64  96 125 167 216 272 317 377
#     4  10  21  39  63  90 123 171 212 259 321 391
#     4  10  23  42  63  92 125 171 213 258 332 385
#
# _framework density 22.160029999999999
#
# number of rings (size 3 to 8) (size 9 to 14) (size 15 to 20)
#    0.000    1.333    3.333    2.000    4.667    3.333 
#    3.000    0.000    0.000    0.000    0.000    0.000 
#    0.000    0.000    0.000    0.000    0.000    0.000 
#
# Total GULP energy -297623.717600 kJ/mol
# GULP energy per Si atom -12400.988233 kJ/mol
# Density = 2.210959 g / cm^3
# Si number density = 22.160030 Si / 1000 Ang^3
#
#
#
# Elastic Constant Matrix: (Units=GPa)
#
#
# Indices 1 2 3 4 5 6 
#
# 1 151.8156 24.4276 69.7874 -0.0028 1.7721 -0.0025
# 2 24.4276 30.1220 19.5990 -0.0034 11.8019 -0.0031
# 3 69.7874 19.5990 173.7376 0.0000 -5.7010 -0.0025
# 4 -0.0028 -0.0034 0.0000 31.6442 -0.0024 -3.3297
# 5 1.7721 11.8019 -5.7010 -0.0024 46.0103 -0.0020
# 6 -0.0025 -0.0031 -0.0025 -3.3297 -0.0020 20.2835
#
#
#
# Elastic Compliance Matrix: (Units=1/GPa)
#
#
# Indices 1 2 3 4 5 6 
#
# 1 0.008796 -0.005540 -0.002884 0.000000 0.000725 0.000000
# 2 -0.005540 0.044254 -0.003145 0.000004 -0.011528 0.000005
# 3 -0.002884 -0.003145 0.007329 0.000000 0.001826 0.000000
# 4 0.000000 0.000004 0.000000 0.032157 0.000001 0.005279
# 5 0.000725 -0.011528 0.001826 0.000001 0.024889 0.000001
# 6 0.000000 0.000005 0.000000 0.005279 0.000001 0.050168
#
#
# Mechanical properties :
#
#
# Convention : Reuss Voigt Hill
#
# Bulk Modulus (GPa) = 26.85308 64.81146 45.83227
# Shear Modulus (GPa) = 24.61286 35.71169 30.16228
#
# Velocity S-wave (km/s) = 3.33631 4.01875 3.69333
# Velocity P-wave (km/s) = 5.19475 7.13052 6.23818
#
# Compressibility (1/GPa) = 0.03723968
#
# Stress axis : x y z
#
# Youngs Moduli (GPa) = 113.69024 22.59671 136.44248
#
# Poissons Ratio (x) = 0.12519 0.39355
# Poissons Ratio (y) = 0.62989 0.42912
# Poissons Ratio (z) = 0.32792 0.07107
#
# Static dielectric constant tensor:
#      x y z
#    x 3.977910 -0.000010 0.134810 
#    y -0.000010 4.035160 0.000000 
#    z 0.134810 0.000000 4.172530 
# 
# 
# High freq. dielectric constant tensor:
#      x y z
#    x 1.883060 0.000000 0.005750 
#    y 0.000000 1.842910 0.000000 
#    z 0.005750 0.000000 1.891740 
# 
# From -- ./inp_files/308708.got.cif
#   From: 2010.06.25/outbox.cif.g09.slc.cpg/sg15_155_cif.got.tgz:308708.got - 2010.06.28 07:06:18.
