data_PCOD8142075
_publ_section_title
;
Structure prediction by ZEFSAII (Michael W. Deem and Ramdas Pophale) SiO2 
 PCOD8142075
Probable space group: C 2/C
;
_chemical_formula_sum "Si O2"
_cell_formula_units_Z 32
_cell_length_a 24.908147
_cell_length_b 9.222529
_cell_length_c 20.034162
_cell_angle_alpha 90.000000
_cell_angle_beta 20.698719
_cell_angle_gamma 90.000000
_cell_volume 1626.654972
_symmetry_space_group_name_H-M "C 2/C"
_symmetry_group_IT_number 15
_symmetry_cell_setting 'monoclinic'
loop_
_space_group_symop_operation_xyz
x,y,z
-x,y,1/2-z
-x,-y,-z
x,-y,1/2+z
1/2+x,1/2+y,z
1/2-x,1/2+y,1/2-z
1/2-x,1/2-y,-z
1/2+x,1/2-y,1/2+z
loop_
_atom_site_type_symbol
_atom_site_label
_atom_site_fract_x
_atom_site_fract_y
_atom_site_fract_z
Si Si1 0.412903 0.848554 0.054461
Si Si2 0.389913 0.476125 0.566936
Si Si3 0.056069 0.389448 0.334594
Si Si4 0.094337 0.160332 0.074649
O O1 0.369062 0.694301 0.074689
O O2 0.483808 0.823154 0.045872
O O3 0.269045 0.952616 0.230160
O O4 0.529193 0.935832 0.870520
O O5 0.500000 0.500000 0.500000
O O6 0.457799 0.545671 0.420806
O O7 0.943722 0.320446 0.410162
O O8 0.228370 0.352498 0.113819
O O9 0.000000 0.126149 0.250000
#
# Coordination Sequence:
#
# PCOD8142075 Si02
#       4
#     8   8   8   8
#     4  10  21  38  61  94 115 154 202 253 301 335
#     4  11  22  37  65  89 123 154 201 250 297 356
#     4  10  21  38  62  86 122 153 204 251 291 362
#     4  11  23  40  60  89 123 164 198 244 301 364
#
# _framework density 19.672270999999999
#
# number of rings (size 3 to 8) (size 9 to 14) (size 15 to 20)
#    0.000    1.500    2.500    3.750    7.000    0.000 
#    0.000    2.500    0.000    0.000    0.000    0.000 
#    0.000    0.000    0.000    0.000    0.000    0.000 
#
# Total GULP energy -198372.339321 kJ/mol
# GULP energy per Si atom -12398.271208 kJ/mol
# Density = 1.962750 g / cm^3
# Si number density = 19.672271 Si / 1000 Ang^3
#
#
#
# Elastic Constant Matrix: (Units=GPa)
#
#
# Indices 1 2 3 4 5 6 
#
# 1 78.7170 35.7663 45.7015 0.0002 5.6652 -0.0001
# 2 35.7663 140.3836 49.6896 0.0006 7.0949 -0.0004
# 3 45.7015 49.6896 118.1916 0.0003 7.4839 -0.0002
# 4 0.0002 0.0006 0.0003 25.8170 -0.0002 -5.0516
# 5 5.6652 7.0949 7.4839 -0.0002 30.8922 0.0001
# 6 -0.0001 -0.0004 -0.0002 -5.0516 0.0001 27.7311
#
#
#
# Elastic Compliance Matrix: (Units=1/GPa)
#
#
# Indices 1 2 3 4 5 6 
#
# 1 0.017068 -0.002323 -0.005544 0.000000 -0.001253 0.000000
# 2 -0.002323 0.008721 -0.002710 0.000000 -0.000920 0.000000
# 3 -0.005544 -0.002710 0.011821 0.000000 -0.001225 0.000000
# 4 0.000000 0.000000 0.000000 0.040166 0.000000 0.007317
# 5 -0.001253 -0.000920 -0.001225 0.000000 0.033109 0.000000
# 6 0.000000 0.000000 0.000000 0.007317 0.000000 0.037393
#
#
# Mechanical properties :
#
#
# Convention : Reuss Voigt Hill
#
# Bulk Modulus (GPa) = 60.76444 66.62301 63.69373
# Shear Modulus (GPa) = 28.58501 30.63039 29.60770
#
# Velocity S-wave (km/s) = 3.81604 3.95021 3.88370
# Velocity P-wave (km/s) = 7.09730 7.39902 7.24973
#
# Compressibility (1/GPa) = 0.01645699
#
# Stress axis : x y z
#
# Youngs Moduli (GPa) = 58.58921 114.66762 84.59311
#
# Poissons Ratio (x) = 0.26636 0.46896
# Poissons Ratio (y) = 0.13610 0.22924
# Poissons Ratio (z) = 0.32480 0.31074
#
# Static dielectric constant tensor:
#      x y z
#    x 3.991280 0.000000 -0.313380 
#    y 0.000000 3.954130 0.000000 
#    z -0.313380 0.000000 3.563200 
# 
# 
# High freq. dielectric constant tensor:
#      x y z
#    x 1.753300 0.000000 -0.022230 
#    y 0.000000 1.770990 0.000000 
#    z -0.022230 0.000000 1.758090 
# 
# From -- ./inp_files/53470.got.cif
#   From: 2010.06.25/outbox.cif.g09.slc.cpg/sg15_27_cif.got.tgz:53470.got - 2010.06.28 07:06:18.
