data_PCOD8142059
_publ_section_title
;
Structure prediction by ZEFSAII (Michael W. Deem and Ramdas Pophale) SiO2 
 PCOD8142059
Probable space group: C 2/C
;
_chemical_formula_sum "Si O2"
_cell_formula_units_Z 36
_cell_length_a 10.979482
_cell_length_b 17.054661
_cell_length_c 8.829315
_cell_angle_alpha 90.000000
_cell_angle_beta 104.210886
_cell_angle_gamma 90.000000
_cell_volume 1602.707974
_symmetry_space_group_name_H-M "C 2/C"
_symmetry_group_IT_number 15
_symmetry_cell_setting 'monoclinic'
loop_
_space_group_symop_operation_xyz
x,y,z
-x,y,1/2-z
-x,-y,-z
x,-y,1/2+z
1/2+x,1/2+y,z
1/2-x,1/2+y,1/2-z
1/2-x,1/2-y,-z
1/2+x,1/2-y,1/2+z
loop_
_atom_site_type_symbol
_atom_site_label
_atom_site_fract_x
_atom_site_fract_y
_atom_site_fract_z
Si Si1 0.742849 0.098271 0.613398
Si Si2 0.500000 0.687274 0.750000
Si Si3 0.632834 0.186673 0.103588
Si Si4 0.364838 0.032787 0.228660
Si Si5 0.364251 0.227213 0.729571
O O1 0.703220 0.068782 0.437361
O O2 0.642541 0.164749 0.635082
O O3 0.884070 0.132671 0.662268
O O4 0.735311 0.025140 0.726024
O O5 0.464259 0.743414 0.881432
O O6 0.589842 0.101987 0.144679
O O7 0.764210 0.204773 0.230035
O O8 0.664484 0.181473 0.935738
O O9 0.500000 0.988698 0.250000
O O10 0.500000 0.266167 0.750000
#
# Coordination Sequence:
#
# PCOD8142059 Si02
#       5
#     8   4   8   8   8
#     4  11  25  41  67  92 134 166 216 258 330 366
#     4  10  24  44  64  96 132 170 206 266 316 396
#     4  10  22  39  63  92 129 162 215 253 322 370
#     4  12  23  41  66  95 124 171 215 270 307 383
#     4  10  21  38  61  90 125 165 206 263 306 381
#
# _framework density 22.461983
#
# number of rings (size 3 to 8) (size 9 to 14) (size 15 to 20)
#    0.000    1.333    1.111    4.000    3.111    2.667 
#    2.000    0.000    0.000    0.000    0.000    0.000 
#    0.000    0.000    0.000    0.000    0.000    0.000 
#
# Total GULP energy -223149.344335 kJ/mol
# GULP energy per Si atom -12397.185796 kJ/mol
# Density = 2.241086 g / cm^3
# Si number density = 22.461983 Si / 1000 Ang^3
#
#
#
# Elastic Constant Matrix: (Units=GPa)
#
#
# Indices 1 2 3 4 5 6 
#
# 1 137.5449 42.4536 2.2002 0.0000 7.4633 0.0000
# 2 42.4536 69.6356 6.2827 0.0000 -0.6093 0.0000
# 3 2.2002 6.2827 48.6315 0.0000 -7.9485 0.0000
# 4 0.0000 0.0000 0.0000 33.3350 0.0000 -3.4282
# 5 7.4633 -0.6093 -7.9485 0.0000 29.7556 0.0000
# 6 0.0000 0.0000 0.0000 -3.4282 0.0000 34.3201
#
#
#
# Elastic Compliance Matrix: (Units=1/GPa)
#
#
# Indices 1 2 3 4 5 6 
#
# 1 0.009124 -0.005576 -0.000089 0.000000 -0.002427 0.000000
# 2 -0.005576 0.017939 -0.001858 0.000000 0.001270 0.000000
# 3 -0.000089 -0.001858 0.021754 0.000000 0.005795 0.000000
# 4 0.000000 0.000000 0.000000 0.030310 0.000000 0.003028
# 5 -0.002427 0.001270 0.005795 0.000000 0.035790 0.000000
# 6 0.000000 0.000000 0.000000 0.003028 0.000000 0.029440
#
#
# Mechanical properties :
#
#
# Convention : Reuss Voigt Hill
#
# Bulk Modulus (GPa) = 29.61064 39.74279 34.67672
# Shear Modulus (GPa) = 29.29813 33.14051 31.21932
#
# Velocity S-wave (km/s) = 3.61549 3.84527 3.73215
# Velocity P-wave (km/s) = 5.53536 6.11936 5.83467
#
# Compressibility (1/GPa) = 0.03377164
#
# Stress axis : x y z
#
# Youngs Moduli (GPa) = 109.59521 55.74576 45.96849
#
# Poissons Ratio (x) = 0.31084 0.00409
# Poissons Ratio (y) = 0.61110 0.08540
# Poissons Ratio (z) = 0.00976 0.10356
#
# Static dielectric constant tensor:
#      x y z
#    x 4.223180 0.000000 -0.122820 
#    y 0.000000 3.979400 0.000000 
#    z -0.122820 0.000000 3.974250 
# 
# 
# High freq. dielectric constant tensor:
#      x y z
#    x 1.895920 0.000000 -0.007030 
#    y 0.000000 1.871540 0.000000 
#    z -0.007030 0.000000 1.891750 
# 
# From -- ./inp_files/28722.got.cif
#   From: 2010.06.25/outbox.cif.g09.slc.cpg/sg15_15_cif.got.tgz:28722.got - 2010.06.28 07:06:18.
