data_PCOD8142336
_publ_section_title
;
Structure prediction by ZEFSAII (Michael W. Deem and Ramdas Pophale) SiO2 
 PCOD8142336
Probable space group: C 2/C
;
_chemical_formula_sum "Si O2"
_cell_formula_units_Z 60
_cell_length_a 15.921905
_cell_length_b 22.783988
_cell_length_c 12.254912
_cell_angle_alpha 90.000000
_cell_angle_beta 140.195698
_cell_angle_gamma 90.000000
_cell_volume 2845.958164
_symmetry_space_group_name_H-M "C 2/C"
_symmetry_group_IT_number 15
_symmetry_cell_setting 'monoclinic'
loop_
_space_group_symop_operation_xyz
x,y,z
-x,y,1/2-z
-x,-y,-z
x,-y,1/2+z
1/2+x,1/2+y,z
1/2-x,1/2+y,1/2-z
1/2-x,1/2-y,-z
1/2+x,1/2-y,1/2+z
loop_
_atom_site_type_symbol
_atom_site_label
_atom_site_fract_x
_atom_site_fract_y
_atom_site_fract_z
Si Si1 0.573002 0.061533 0.086588
Si Si2 0.643403 0.954801 0.423660
Si Si3 0.257915 0.428890 0.978219
Si Si4 0.000000 0.141468 0.750000
Si Si5 0.498993 0.733693 0.930470
Si Si6 0.242419 0.234923 0.312942
Si Si7 0.917871 0.355984 0.564484
Si Si8 0.650933 0.170423 0.877027
O O1 0.679155 0.065838 0.287486
O O2 0.465535 0.112026 0.001336
O O3 0.645454 0.074152 0.045755
O O4 0.500000 0.000000 0.000000
O O5 0.500000 0.982347 0.250000
O O6 0.671866 0.899046 0.374488
O O7 0.752437 0.005559 0.524262
O O8 0.221746 0.381083 0.036856
O O9 0.400326 0.404269 0.093824
O O10 0.049275 0.183970 0.701459
O O11 0.615743 0.708596 0.123388
O O12 0.371257 0.758356 0.865900
O O13 0.572462 0.786370 0.938916
O O14 0.265031 0.191280 0.435560
O O15 0.202358 0.298963 0.318378
O O16 0.000000 0.378491 0.750000
O O17 0.500000 0.186230 0.750000
#
# Coordination Sequence:
#
# PCOD8142336 Si02
#       8
#     8   8   8   4   8   8   8   8
#     4  11  20  37  69  99 122 157 209 282 336 377
#     4  11  21  40  69 101 126 166 220 282 336 388
#     4  11  24  44  62  94 136 172 221 283 334 404
#     4  12  30  46  60  88 144 188 226 264 342 412
#     4  12  25  43  67  97 131 186 227 274 335 407
#     4  11  24  42  68 101 137 174 224 277 336 405
#     4  10  21  38  66  96 126 160 219 279 325 379
#     4  10  22  42  68 102 136 171 220 281 340 405
#
# _framework density 21.082530999999999
#
# number of rings (size 3 to 8) (size 9 to 14) (size 15 to 20)
#    0.000    1.067    4.667    2.000    7.467    1.067 
#    2.400    2.000    0.000    0.000    0.000    0.000 
#    0.000    0.000    0.000    0.000    0.000    0.000 
#
# Total GULP energy -371752.536685 kJ/mol
# GULP energy per Si atom -12391.751223 kJ/mol
# Density = 2.103455 g / cm^3
# Si number density = 21.082531 Si / 1000 Ang^3
#
#
#
# Elastic Constant Matrix: (Units=GPa)
#
#
# Indices 1 2 3 4 5 6 
#
# 1 62.0185 19.3690 16.5711 0.0000 -7.3943 0.0000
# 2 19.3690 120.5927 25.1995 0.0000 3.8277 0.0000
# 3 16.5711 25.1995 96.9723 0.0000 -1.1159 0.0000
# 4 0.0000 0.0000 0.0000 29.8151 0.0000 -0.9602
# 5 -7.3943 3.8277 -1.1159 0.0000 29.8325 0.0000
# 6 0.0000 0.0000 0.0000 -0.9602 0.0000 30.6376
#
#
#
# Elastic Compliance Matrix: (Units=1/GPa)
#
#
# Indices 1 2 3 4 5 6 
#
# 1 0.018124 -0.002565 -0.002376 0.000000 0.004733 0.000000
# 2 -0.002565 0.009175 -0.001968 0.000000 -0.001887 0.000000
# 3 -0.002376 -0.001968 0.011231 0.000000 0.000084 0.000000
# 4 0.000000 0.000000 0.000000 0.033574 0.000000 0.001052
# 5 0.004733 -0.001887 0.000084 0.000000 0.034939 0.000000
# 6 0.000000 0.000000 0.000000 0.001052 0.000000 0.032673
#
#
# Mechanical properties :
#
#
# Convention : Reuss Voigt Hill
#
# Bulk Modulus (GPa) = 40.46473 44.65142 42.55807
# Shear Modulus (GPa) = 30.90794 32.61996 31.76395
#
# Velocity S-wave (km/s) = 3.83305 3.93778 3.88577
# Velocity P-wave (km/s) = 6.23096 6.47303 6.35315
#
# Compressibility (1/GPa) = 0.02471288
#
# Stress axis : x y z
#
# Youngs Moduli (GPa) = 55.17433 108.98734 89.04242
#
# Poissons Ratio (x) = 0.27952 0.21159
# Poissons Ratio (y) = 0.14151 0.17522
# Poissons Ratio (z) = 0.13111 0.21446
#
# Static dielectric constant tensor:
#      x y z
#    x 3.917460 0.000000 -0.267490 
#    y 0.000000 3.991550 0.000000 
#    z -0.267490 0.000000 3.915060 
# 
# 
# High freq. dielectric constant tensor:
#      x y z
#    x 1.810430 0.000000 -0.022430 
#    y 0.000000 1.831540 0.000000 
#    z -0.022430 0.000000 1.824180 
# 
# From -- ./inp_files/100678.got.cif
#   From: 2010.06.25/outbox.cif.g09.slc.cpg/sg15_51_cif.got.tgz:100678.got - 2010.06.28 07:06:18.
