data_PCOD8142462
_publ_section_title
;
Structure prediction by ZEFSAII (Michael W. Deem and Ramdas Pophale) SiO2 
 PCOD8142462
Probable space group: C 2/C
;
_chemical_formula_sum "Si O2"
_cell_formula_units_Z 52
_cell_length_a 20.070784
_cell_length_b 23.644085
_cell_length_c 5.249525
_cell_angle_alpha 90.000000
_cell_angle_beta 96.823325
_cell_angle_gamma 90.000000
_cell_volume 2473.545490
_symmetry_space_group_name_H-M "C 2/C"
_symmetry_group_IT_number 15
_symmetry_cell_setting 'monoclinic'
loop_
_space_group_symop_operation_xyz
x,y,z
-x,y,1/2-z
-x,-y,-z
x,-y,1/2+z
1/2+x,1/2+y,z
1/2-x,1/2+y,1/2-z
1/2-x,1/2-y,-z
1/2+x,1/2-y,1/2+z
loop_
_atom_site_type_symbol
_atom_site_label
_atom_site_fract_x
_atom_site_fract_y
_atom_site_fract_z
Si Si1 0.930223 0.256224 0.594909
Si Si2 0.670352 0.033547 0.372842
Si Si3 0.748035 0.683015 0.507319
Si Si4 0.329433 0.532424 0.450214
Si Si5 0.168404 0.155718 0.977426
Si Si6 0.880436 0.356197 0.887730
Si Si7 0.000000 0.333244 0.250000
O O1 0.890417 0.200276 0.503118
O O2 0.885004 0.295040 0.756288
O O3 0.945005 0.293137 0.354346
O O4 0.000000 0.236977 0.750000
O O5 0.749814 0.041392 0.413038
O O6 0.635084 0.094198 0.320082
O O7 0.647064 0.007426 0.631197
O O8 0.750000 0.750000 0.500000
O O9 0.702383 0.661931 0.717208
O O10 0.820762 0.652307 0.568290
O O11 0.722444 0.662321 0.223202
O O12 0.353074 0.491306 0.688560
O O13 0.363508 0.593243 0.515468
O O14 0.953845 0.371124 0.042081
#
# Coordination Sequence:
#
# PCOD8142462 Si02
#       7
#     8   8   8   8   8   8   4
#     4  10  24  43  63  92 126 170 207 257 317 386
#     4  10  23  38  60  88 123 166 209 256 310 366
#     4  12  24  36  62 101 131 159 203 268 323 378
#     4  10  21  39  59  91 129 167 204 256 317 376
#     4  12  24  40  65  98 128 166 210 257 325 382
#     4  11  23  41  63  89 128 167 210 260 318 369
#     4  10  24  42  66  84 126 172 212 250 326 376
#
# _framework density 21.022455999999998
#
# number of rings (size 3 to 8) (size 9 to 14) (size 15 to 20)
#    0.000    1.231    3.077    2.308   10.769    0.000 
#    0.000    0.769    0.000    0.923    0.000    0.000 
#    0.000    0.000    0.000    0.000    0.000    0.000 
#
# Total GULP energy -322388.939156 kJ/mol
# GULP energy per Si atom -12399.574583 kJ/mol
# Density = 2.097461 g / cm^3
# Si number density = 21.022456 Si / 1000 Ang^3
#
#
#
# Elastic Constant Matrix: (Units=GPa)
#
#
# Indices 1 2 3 4 5 6 
#
# 1 62.7142 14.3678 13.5349 0.0000 0.6089 0.0000
# 2 14.3678 92.4423 21.9620 0.0000 10.8078 0.0000
# 3 13.5349 21.9620 96.8638 0.0000 3.0586 0.0000
# 4 0.0000 0.0000 0.0000 36.8373 0.0000 9.5303
# 5 0.6089 10.8078 3.0586 0.0000 17.2999 0.0000
# 6 0.0000 0.0000 0.0000 9.5303 0.0000 7.9843
#
#
#
# Elastic Compliance Matrix: (Units=1/GPa)
#
#
# Indices 1 2 3 4 5 6 
#
# 1 0.016868 -0.002316 -0.001869 0.000000 0.001184 0.000000
# 2 -0.002316 0.012585 -0.002297 0.000000 -0.007375 0.000000
# 3 -0.001869 -0.002297 0.011120 0.000000 -0.000465 0.000000
# 4 0.000000 0.000000 0.000000 0.039275 0.000000 -0.046880
# 5 0.001184 -0.007375 -0.000465 0.000000 0.062452 0.000000
# 6 0.000000 0.000000 0.000000 -0.046880 0.000000 0.181203
#
#
# Mechanical properties :
#
#
# Convention : Reuss Voigt Hill
#
# Bulk Modulus (GPa) = 36.21967 39.08329 37.65148
# Shear Modulus (GPa) = 14.46461 25.90134 20.18298
#
# Velocity S-wave (km/s) = 2.62593 3.51391 3.10186
# Velocity P-wave (km/s) = 5.14397 5.92410 5.54776
#
# Compressibility (1/GPa) = 0.02760931
#
# Stress axis : x y z
#
# Youngs Moduli (GPa) = 59.28432 79.45679 89.92428
#
# Poissons Ratio (x) = 0.18402 0.16809
# Poissons Ratio (y) = 0.13730 0.20656
# Poissons Ratio (z) = 0.11082 0.18251
#
# Static dielectric constant tensor:
#      x y z
#    x 3.490070 0.000000 0.149530 
#    y 0.000000 4.132560 0.000000 
#    z 0.149530 0.000000 3.805730 
# 
# 
# High freq. dielectric constant tensor:
#      x y z
#    x 1.790150 0.000000 0.000460 
#    y 0.000000 1.825470 0.000000 
#    z 0.000460 0.000000 1.838360 
# 
# From -- ./inp_files/13315.got.cif
#   From: 2010.06.25/outbox.cif.g09.slc.cpg/sg15_7_cif.got.tgz:13315.got - 2010.06.28 07:06:18.
