data_PCOD8142099
_publ_section_title
;
Structure prediction by ZEFSAII (Michael W. Deem and Ramdas Pophale) SiO2 
 PCOD8142099
Probable space group: C 2/C
;
_chemical_formula_sum "Si O2"
_cell_formula_units_Z 52
_cell_length_a 13.515556
_cell_length_b 11.981724
_cell_length_c 18.627192
_cell_angle_alpha 90.000000
_cell_angle_beta 117.938824
_cell_angle_gamma 90.000000
_cell_volume 2664.905328
_symmetry_space_group_name_H-M "C 2/C"
_symmetry_group_IT_number 15
_symmetry_cell_setting 'monoclinic'
loop_
_space_group_symop_operation_xyz
x,y,z
-x,y,1/2-z
-x,-y,-z
x,-y,1/2+z
1/2+x,1/2+y,z
1/2-x,1/2+y,1/2-z
1/2-x,1/2-y,-z
1/2+x,1/2-y,1/2+z
loop_
_atom_site_type_symbol
_atom_site_label
_atom_site_fract_x
_atom_site_fract_y
_atom_site_fract_z
Si Si1 0.000000 0.033603 0.750000
Si Si2 0.428263 0.131536 0.634146
Si Si3 0.990677 0.122928 0.118285
Si Si4 0.712912 0.376616 0.614320
Si Si5 0.768831 0.875293 0.151138
Si Si6 0.247662 0.980514 0.988000
Si Si7 0.347571 0.047463 0.747584
O O1 0.963601 0.953645 0.802331
O O2 0.097906 0.116090 0.806618
O O3 0.488766 0.249109 0.643155
O O4 0.350270 0.102798 0.539879
O O5 0.352443 0.132079 0.680771
O O6 0.525930 0.037041 0.677364
O O7 0.081292 0.106025 0.086158
O O8 0.866944 0.089234 0.051377
O O9 0.734713 0.246514 0.615812
O O10 0.739391 0.425479 0.545668
O O11 0.794553 0.430423 0.702744
O O12 0.721172 0.964977 0.077833
O O13 0.730255 0.900190 0.218354
#
# Coordination Sequence:
#
# PCOD8142099 Si02
#       7
#     4   8   8   8   8   8   8
#     4  10  22  36  60  92 116 144 204 242 290 350
#     4  10  21  39  63  88 118 155 198 246 292 339
#     4  11  20  38  64  86 118 153 196 248 289 339
#     4  11  22  40  62  86 119 157 196 239 298 345
#     4  11  22  39  61  86 121 158 191 244 296 349
#     4  10  24  38  58  87 126 152 199 233 294 357
#     4  10  21  38  62  88 115 151 200 247 287 342
#
# _framework density 19.512886999999999
#
# number of rings (size 3 to 8) (size 9 to 14) (size 15 to 20)
#    0.000    1.538    3.077    2.308    0.000    3.077 
#    0.000    0.000    0.000    0.000    0.000    0.000 
#    0.000    0.000    0.000    0.000    0.000    0.000 
#
# Total GULP energy -322376.693069 kJ/mol
# GULP energy per Si atom -12399.103580 kJ/mol
# Density = 1.946848 g / cm^3
# Si number density = 19.512887 Si / 1000 Ang^3
#
#
#
# Elastic Constant Matrix: (Units=GPa)
#
#
# Indices 1 2 3 4 5 6 
#
# 1 71.2093 26.6896 14.3033 0.0000 -4.7901 0.0000
# 2 26.6896 58.8500 18.3190 0.0000 8.3035 0.0000
# 3 14.3033 18.3190 84.5204 0.0000 13.3527 0.0000
# 4 0.0000 0.0000 0.0000 12.5659 0.0000 -8.0108
# 5 -4.7901 8.3035 13.3527 0.0000 36.0074 0.0000
# 6 0.0000 0.0000 0.0000 -8.0108 0.0000 21.8143
#
#
#
# Elastic Compliance Matrix: (Units=1/GPa)
#
#
# Indices 1 2 3 4 5 6 
#
# 1 0.017852 -0.008168 -0.002043 0.000000 0.005016 0.000000
# 2 -0.008168 0.022250 -0.002611 0.000000 -0.005249 0.000000
# 3 -0.002043 -0.002611 0.013481 0.000000 -0.004669 0.000000
# 4 0.000000 0.000000 0.000000 0.103906 0.000000 0.038157
# 5 0.005016 -0.005249 -0.004669 0.000000 0.031381 0.000000
# 6 0.000000 0.000000 0.000000 0.038157 0.000000 0.059854
#
#
# Mechanical properties :
#
#
# Convention : Reuss Voigt Hill
#
# Bulk Modulus (GPa) = 35.79270 37.02262 36.40766
# Shear Modulus (GPa) = 17.62540 24.42872 21.02706
#
# Velocity S-wave (km/s) = 3.00870 3.54210 3.28624
# Velocity P-wave (km/s) = 5.51839 5.97856 5.75308
#
# Compressibility (1/GPa) = 0.02793866
#
# Stress axis : x y z
#
# Youngs Moduli (GPa) = 56.01479 44.94348 74.18001
#
# Poissons Ratio (x) = 0.36711 0.15157
# Poissons Ratio (y) = 0.45754 0.19368
# Poissons Ratio (z) = 0.11445 0.11734
#
# Static dielectric constant tensor:
#      x y z
#    x 3.674840 0.000000 0.010500 
#    y 0.000000 3.422380 0.000000 
#    z 0.010500 0.000000 3.699590 
# 
# 
# High freq. dielectric constant tensor:
#      x y z
#    x 1.767410 0.000000 0.002040 
#    y 0.000000 1.747790 0.000000 
#    z 0.002040 0.000000 1.766370 
# 
# From -- ./inp_files/203889.got.cif
#   From: 2010.06.25/outbox.cif.g09.slc.cpg/sg15_102_cif.got.tgz:203889.got - 2010.06.28 07:06:18.
