data_PCOD8142439
_publ_section_title
;
Structure prediction by ZEFSAII (Michael W. Deem and Ramdas Pophale) SiO2 
 PCOD8142439
Probable space group: C 2/C
;
_chemical_formula_sum "Si O2"
_cell_formula_units_Z 36
_cell_length_a 30.361119
_cell_length_b 8.768870
_cell_length_c 16.361226
_cell_angle_alpha 90.000000
_cell_angle_beta 23.319097
_cell_angle_gamma 90.000000
_cell_volume 1724.287414
_symmetry_space_group_name_H-M "C 2/C"
_symmetry_group_IT_number 15
_symmetry_cell_setting 'monoclinic'
loop_
_space_group_symop_operation_xyz
x,y,z
-x,y,1/2-z
-x,-y,-z
x,-y,1/2+z
1/2+x,1/2+y,z
1/2-x,1/2+y,1/2-z
1/2-x,1/2-y,-z
1/2+x,1/2-y,1/2+z
loop_
_atom_site_type_symbol
_atom_site_label
_atom_site_fract_x
_atom_site_fract_y
_atom_site_fract_z
Si Si1 0.741030 0.501799 0.025283
Si Si2 0.402143 0.752053 0.797511
Si Si3 0.000000 0.383176 0.250000
Si Si4 0.872061 0.666423 0.530073
Si Si5 0.283620 0.252427 0.067983
O O1 0.634486 0.396361 0.190325
O O2 0.727702 0.592289 0.133980
O O3 0.853430 0.401246 0.835605
O O4 0.754603 0.619047 0.928997
O O5 0.535287 0.749658 0.572184
O O6 0.356865 0.753305 0.968217
O O7 0.916333 0.491438 0.445382
O O8 0.917914 0.272590 0.338589
O O9 0.756544 0.689866 0.774515
#
# Coordination Sequence:
#
# PCOD8142439 Si02
#       5
#     8   8   4   8   8
#     4  10  21  39  58  94 126 157 202 271 298 374
#     4   9  20  41  62  85 131 156 206 260 307 368
#     4  10  22  46  58  96 130 158 212 270 290 386
#     4  10  21  40  65  87 119 174 200 249 318 373
#     4  11  23  39  65  89 123 163 212 247 321 363
#
# _framework density 20.87819
#
# number of rings (size 3 to 8) (size 9 to 14) (size 15 to 20)
#    0.000    2.222    4.444    0.000    3.111    3.556 
#    0.000    0.000    0.000    0.000    0.000    0.000 
#    0.000    0.000    0.000    0.000    0.000    0.000 
#
# Total GULP energy -223040.413591 kJ/mol
# GULP energy per Si atom -12391.134088 kJ/mol
# Density = 2.083067 g / cm^3
# Si number density = 20.878190 Si / 1000 Ang^3
#
#
#
# Elastic Constant Matrix: (Units=GPa)
#
#
# Indices 1 2 3 4 5 6 
#
# 1 105.7528 38.8081 30.6341 0.0000 -25.9456 0.0000
# 2 38.8081 99.3152 27.5627 0.0000 -12.9404 0.0000
# 3 30.6341 27.5627 66.2411 0.0000 -0.0481 0.0000
# 4 0.0000 0.0000 0.0000 15.0866 0.0000 4.5149
# 5 -25.9456 -12.9404 -0.0481 0.0000 30.3164 0.0000
# 6 0.0000 0.0000 0.0000 4.5149 0.0000 17.1751
#
#
#
# Elastic Compliance Matrix: (Units=1/GPa)
#
#
# Indices 1 2 3 4 5 6 
#
# 1 0.014997 -0.002734 -0.005789 0.000000 0.011658 0.000000
# 2 -0.002734 0.012643 -0.003994 0.000000 0.003050 0.000000
# 3 -0.005789 -0.003994 0.019431 0.000000 -0.006629 0.000000
# 4 0.000000 0.000000 0.000000 0.071944 0.000000 -0.018912
# 5 0.011658 0.003050 -0.006629 0.000000 0.044254 0.000000
# 6 0.000000 0.000000 0.000000 -0.018912 0.000000 0.063195
#
#
# Mechanical properties :
#
#
# Convention : Reuss Voigt Hill
#
# Bulk Modulus (GPa) = 45.38134 51.70211 48.54173
# Shear Modulus (GPa) = 19.31658 24.13590 21.72624
#
# Velocity S-wave (km/s) = 3.04502 3.40374 3.22936
# Velocity P-wave (km/s) = 5.84348 6.34545 6.09963
#
# Compressibility (1/GPa) = 0.02203549
#
# Stress axis : x y z
#
# Youngs Moduli (GPa) = 66.68125 79.09310 51.46476
#
# Poissons Ratio (x) = 0.21627 0.29794
# Poissons Ratio (y) = 0.18233 0.20555
# Poissons Ratio (z) = 0.38603 0.31590
#
# Static dielectric constant tensor:
#      x y z
#    x 4.038260 0.000000 -0.276420 
#    y 0.000000 3.966030 0.000000 
#    z -0.276420 0.000000 3.349580 
# 
# 
# High freq. dielectric constant tensor:
#      x y z
#    x 1.833910 0.000000 -0.023640 
#    y 0.000000 1.820260 0.000000 
#    z -0.023640 0.000000 1.771270 
# 
# From -- ./inp_files/176811.got.cif
#   From: 2010.06.25/outbox.cif.g09.slc.cpg/sg15_89_cif.got.tgz:176811.got - 2010.06.28 07:06:18.
