data_PCOD8142865
_publ_section_title
;
Structure prediction by ZEFSAII (Michael W. Deem and Ramdas Pophale) SiO2 
 PCOD8142865
Probable space group: C 2/C
;
_chemical_formula_sum "Si O2"
_cell_formula_units_Z 44
_cell_length_a 6.394601
_cell_length_b 22.717258
_cell_length_c 13.416504
_cell_angle_alpha 90.000000
_cell_angle_beta 95.304356
_cell_angle_gamma 90.000000
_cell_volume 1940.639833
_symmetry_space_group_name_H-M "C 2/C"
_symmetry_group_IT_number 15
_symmetry_cell_setting 'monoclinic'
loop_
_space_group_symop_operation_xyz
x,y,z
-x,y,1/2-z
-x,-y,-z
x,-y,1/2+z
1/2+x,1/2+y,z
1/2-x,1/2+y,1/2-z
1/2-x,1/2-y,-z
1/2+x,1/2-y,1/2+z
loop_
_atom_site_type_symbol
_atom_site_label
_atom_site_fract_x
_atom_site_fract_y
_atom_site_fract_z
Si Si1 0.000000 0.990417 0.750000
Si Si2 0.083911 0.675008 0.864707
Si Si3 0.789419 0.372152 0.523399
Si Si4 0.536990 0.307897 0.867124
Si Si5 0.803849 0.581114 0.396607
Si Si6 0.389817 0.425233 0.419116
O O1 0.109668 0.029639 0.671512
O O2 0.191136 0.950430 0.799284
O O3 0.298643 0.637807 0.879201
O O4 0.000000 0.667913 0.750000
O O5 0.128349 0.743165 0.891629
O O6 0.910131 0.652787 0.933843
O O7 0.680477 0.320285 0.582953
O O8 0.621720 0.418089 0.473570
O O9 0.945828 0.409428 0.603918
O O10 0.500000 0.318738 0.750000
O O11 0.711625 0.353376 0.912248
O O12 0.754175 0.547057 0.498584
#
# Coordination Sequence:
#
# PCOD8142865 Si02
#       6
#     4   8   8   8   8   8
#     4  12  22  44  70  88 142 176 224 278 322 394
#     4  10  21  39  66  96 133 171 215 268 330 396
#     4  10  22  40  63  96 132 169 219 266 343 389
#     4  10  21  40  63  95 132 170 218 273 324 394
#     4  10  23  42  63  94 129 175 220 273 327 390
#     4  10  23  41  63  97 130 170 219 271 326 395
#
# _framework density 22.672934999999999
#
# number of rings (size 3 to 8) (size 9 to 14) (size 15 to 20)
#    0.000    1.818    0.909    2.182    0.000    9.455 
#    0.000   16.364    0.000    0.000    0.000    0.000 
#    0.000    0.000    0.000    0.000    0.000    0.000 
#
# Total GULP energy -272756.449351 kJ/mol
# GULP energy per Si atom -12398.020425 kJ/mol
# Density = 2.262133 g / cm^3
# Si number density = 22.672935 Si / 1000 Ang^3
#
#
#
# Elastic Constant Matrix: (Units=GPa)
#
#
# Indices 1 2 3 4 5 6 
#
# 1 133.8819 60.4331 47.4016 0.0000 21.3469 0.0000
# 2 60.4331 122.7439 50.8769 0.0000 14.8598 0.0000
# 3 47.4016 50.8769 111.6589 0.0000 11.4265 0.0000
# 4 0.0000 0.0000 0.0000 23.5052 0.0000 -9.0785
# 5 21.3469 14.8598 11.4265 0.0000 36.4827 0.0000
# 6 0.0000 0.0000 0.0000 -9.0785 0.0000 14.7286
#
#
#
# Elastic Compliance Matrix: (Units=1/GPa)
#
#
# Indices 1 2 3 4 5 6 
#
# 1 0.010650 -0.003772 -0.002399 0.000000 -0.003944 0.000000
# 2 -0.003772 0.011653 -0.003563 0.000000 -0.001424 0.000000
# 3 -0.002399 -0.003563 0.011680 0.000000 -0.000803 0.000000
# 4 0.000000 0.000000 0.000000 0.055837 0.000000 0.034417
# 5 -0.003944 -0.001424 -0.000803 0.000000 0.030549 0.000000
# 6 0.000000 0.000000 0.000000 0.034417 0.000000 0.089109
#
#
# Mechanical properties :
#
#
# Convention : Reuss Voigt Hill
#
# Bulk Modulus (GPa) = 68.88976 76.18975 72.53976
# Shear Modulus (GPa) = 21.38731 28.91486 25.15108
#
# Velocity S-wave (km/s) = 3.07465 3.57501 3.33423
# Velocity P-wave (km/s) = 6.56161 7.12164 6.84735
#
# Compressibility (1/GPa) = 0.01451595
#
# Stress axis : x y z
#
# Youngs Moduli (GPa) = 93.89673 85.81343 85.61725
#
# Poissons Ratio (x) = 0.32366 0.20540
# Poissons Ratio (y) = 0.35415 0.30504
# Poissons Ratio (z) = 0.22526 0.30574
#
# Static dielectric constant tensor:
#      x y z
#    x 4.042560 0.000000 -0.023830 
#    y 0.000000 4.122660 0.000000 
#    z -0.023830 0.000000 4.358340 
# 
# 
# High freq. dielectric constant tensor:
#      x y z
#    x 1.887030 0.000000 0.001890 
#    y 0.000000 1.890910 0.000000 
#    z 0.001890 0.000000 1.918010 
# 
# From -- ./inp_files/129461.got.cif
#   From: 2010.06.25/outbox.cif.g09.slc.cpg/sg15_65_cif.got.tgz:129461.got - 2010.06.28 07:06:18.
