data_PCOD8142311
_publ_section_title
;
Structure prediction by ZEFSAII (Michael W. Deem and Ramdas Pophale) SiO2 
 PCOD8142311
Probable space group: C 2/C
;
_chemical_formula_sum "Si O2"
_cell_formula_units_Z 64
_cell_length_a 12.117211
_cell_length_b 19.008256
_cell_length_c 28.836264
_cell_angle_alpha 90.000000
_cell_angle_beta 152.655867
_cell_angle_gamma 90.000000
_cell_volume 3050.790778
_symmetry_space_group_name_H-M "C 2/C"
_symmetry_group_IT_number 15
_symmetry_cell_setting 'monoclinic'
loop_
_space_group_symop_operation_xyz
x,y,z
-x,y,1/2-z
-x,-y,-z
x,-y,1/2+z
1/2+x,1/2+y,z
1/2-x,1/2+y,1/2-z
1/2-x,1/2-y,-z
1/2+x,1/2-y,1/2+z
loop_
_atom_site_type_symbol
_atom_site_label
_atom_site_fract_x
_atom_site_fract_y
_atom_site_fract_z
Si Si1 0.144539 0.928117 0.546533
Si Si2 0.325672 0.609919 0.756210
Si Si3 0.125187 0.731669 0.246289
Si Si4 0.024599 0.115776 0.098681
Si Si5 0.888500 0.498464 0.257433
Si Si6 0.965211 0.428812 0.048105
Si Si7 0.183351 0.322520 0.951863
Si Si8 0.634127 0.082239 0.512935
O O1 0.078068 0.877769 0.564216
O O2 0.103845 0.878833 0.484975
O O3 0.423565 0.950095 0.647286
O O4 0.000000 0.000000 0.500000
O O5 0.308389 0.694105 0.751937
O O6 0.154577 0.573252 0.730487
O O7 0.596288 0.586651 0.866687
O O8 0.224788 0.586195 0.668251
O O9 0.367698 0.686529 0.339292
O O10 0.000000 0.740205 0.250000
O O11 0.957591 0.689749 0.148149
O O12 0.143918 0.043314 0.161683
O O13 0.741469 0.115452 0.003237
O O14 0.000000 0.475388 0.250000
O O15 0.962820 0.407538 0.993234
O O16 0.906445 0.510537 0.029744
O O17 0.250000 0.250000 0.000000
O O18 0.049151 0.359263 0.944650
#
# Coordination Sequence:
#
# PCOD8142311 Si02
#       8
#     8   8   8   8   8   8   8   8
#     4  11  22  39  71 103 134 172 230 295 348 406
#     4  12  24  43  66  98 138 183 231 287 346 420
#     4  12  24  45  70 100 136 184 234 279 352 424
#     4  11  21  43  69  98 136 177 233 287 342 417
#     4  10  21  38  66 100 130 168 228 290 347 398
#     4  11  25  42  68  99 137 184 232 285 342 413
#     4  12  24  41  69 103 135 183 230 284 349 422
#     4  11  24  44  66 100 138 180 236 282 343 417
#
# _framework density 20.978168
#
# number of rings (size 3 to 8) (size 9 to 14) (size 15 to 20)
#    0.000    0.750    5.000    3.750    1.750    0.500 
#    0.000    3.125    0.000    0.000    0.000    0.000 
#    0.000    0.000    0.000    0.000    0.000    0.000 
#
# Total GULP energy -396541.616749 kJ/mol
# GULP energy per Si atom -12391.925523 kJ/mol
# Density = 2.093042 g / cm^3
# Si number density = 20.978168 Si / 1000 Ang^3
#
#
#
# Elastic Constant Matrix: (Units=GPa)
#
#
# Indices 1 2 3 4 5 6 
#
# 1 88.1991 61.4519 19.7707 0.0005 -1.8882 0.0009
# 2 61.4519 139.7963 20.9044 0.0024 -6.8035 0.0014
# 3 19.7707 20.9044 71.1697 0.0017 -2.5773 0.0028
# 4 0.0005 0.0024 0.0017 28.0410 0.0013 -14.8260
# 5 -1.8882 -6.8035 -2.5773 0.0013 27.8430 0.0013
# 6 0.0009 0.0014 0.0028 -14.8260 0.0013 36.7305
#
#
#
# Elastic Compliance Matrix: (Units=1/GPa)
#
#
# Indices 1 2 3 4 5 6 
#
# 1 0.016814 -0.007037 -0.002634 0.000001 -0.000823 0.000000
# 2 -0.007037 0.010502 -0.001058 -0.000001 0.001991 -0.000001
# 3 -0.002634 -0.001058 0.015128 -0.000002 0.000963 -0.000002
# 4 0.000001 -0.000001 -0.000002 0.045338 -0.000003 0.018300
# 5 -0.000823 0.001991 0.000963 -0.000003 0.036435 -0.000003
# 6 0.000000 -0.000001 -0.000002 0.018300 -0.000003 0.034612
#
#
# Mechanical properties :
#
#
# Convention : Reuss Voigt Hill
#
# Bulk Modulus (GPa) = 47.64928 55.93547 51.79238
# Shear Modulus (GPa) = 26.69772 31.65878 29.17825
#
# Velocity S-wave (km/s) = 3.57128 3.88897 3.73351
# Velocity P-wave (km/s) = 6.30622 6.84741 6.58238
#
# Compressibility (1/GPa) = 0.02098668
#
# Stress axis : x y z
#
# Youngs Moduli (GPa) = 59.47463 95.22192 66.10229
#
# Poissons Ratio (x) = 0.67011 0.17409
# Poissons Ratio (y) = 0.41854 0.06991
# Poissons Ratio (z) = 0.15663 0.10071
#
# Static dielectric constant tensor:
#      x y z
#    x 3.788700 0.000000 -0.151560 
#    y 0.000000 3.985390 0.000000 
#    z -0.151560 0.000000 3.805670 
# 
# 
# High freq. dielectric constant tensor:
#      x y z
#    x 1.828190 0.000000 -0.019170 
#    y 0.000000 1.830720 0.000000 
#    z -0.019170 0.000000 1.807790 
# 
# From -- ./inp_files/311648.got.cif
#   From: 2010.06.25/outbox.cif.g09.slc.cpg/sg15_156_cif.got.tgz:311648.got - 2010.06.28 07:06:18.
