data_PCOD8142503
_publ_section_title
;
Structure prediction by ZEFSAII (Michael W. Deem and Ramdas Pophale) SiO2 
 PCOD8142503
Probable space group: C 2/C
;
_chemical_formula_sum "Si O2"
_cell_formula_units_Z 56
_cell_length_a 9.816945
_cell_length_b 10.759470
_cell_length_c 24.570224
_cell_angle_alpha 90.000000
_cell_angle_beta 78.467938
_cell_angle_gamma 90.000000
_cell_volume 2542.842986
_symmetry_space_group_name_H-M "C 2/C"
_symmetry_group_IT_number 15
_symmetry_cell_setting 'monoclinic'
loop_
_space_group_symop_operation_xyz
x,y,z
-x,y,1/2-z
-x,-y,-z
x,-y,1/2+z
1/2+x,1/2+y,z
1/2-x,1/2+y,1/2-z
1/2-x,1/2-y,-z
1/2+x,1/2-y,1/2+z
loop_
_atom_site_type_symbol
_atom_site_label
_atom_site_fract_x
_atom_site_fract_y
_atom_site_fract_z
Si Si1 0.846733 0.386284 0.329577
Si Si2 0.398061 0.118386 0.513922
Si Si3 0.568256 0.230667 0.879066
Si Si4 0.500000 0.075538 0.250000
Si Si5 0.500000 0.468083 0.250000
Si Si6 0.949465 0.997001 0.632513
Si Si7 0.731284 0.270962 0.237500
Si Si8 0.583803 0.607622 0.525119
O O1 0.700631 0.440573 0.359094
O O2 0.830716 0.289850 0.281072
O O3 0.915516 0.315400 0.374187
O O4 0.956285 0.493765 0.305059
O O5 0.372363 0.139846 0.580051
O O6 0.460525 0.248717 0.484957
O O7 0.248203 0.089226 0.499222
O O8 0.500000 0.000000 0.500000
O O9 0.550327 0.370597 0.903017
O O10 0.676978 0.247894 0.822215
O O11 0.632795 0.154451 0.258218
O O12 0.508843 0.538849 0.307722
O O13 0.639973 0.391213 0.234663
O O14 0.054158 0.089921 0.592605
O O15 0.500000 0.500000 0.500000
#
# Coordination Sequence:
#
# PCOD8142503 Si02
#       8
#     8   8   8   4   4   8   8   8
#     4  11  24  39  62 101 136 180 223 286 347 418
#     4  11  28  49  75 106 139 183 242 308 363 425
#     4  12  23  40  67  98 137 179 228 285 355 417
#     4  11  20  39  62  88 140 183 221 276 340 414
#     4   9  22  39  62  96 132 177 227 272 342 414
#     4  11  24  43  70 100 140 184 232 288 348 425
#     4  10  21  39  60  94 136 176 229 273 341 423
#     4  11  25  51  76 103 142 186 241 299 359 426
#
# _framework density 22.022594999999999
#
# number of rings (size 3 to 8) (size 9 to 14) (size 15 to 20)
#    0.000    1.143    4.286    0.857    4.000    1.714 
#   10.286    0.000    0.000    0.000    0.000    0.000 
#    0.000    0.000    0.000    0.000    0.000    0.000 
#
# Total GULP energy -347039.085338 kJ/mol
# GULP energy per Si atom -12394.253048 kJ/mol
# Density = 2.197247 g / cm^3
# Si number density = 22.022595 Si / 1000 Ang^3
#
#
#
# Elastic Constant Matrix: (Units=GPa)
#
#
# Indices 1 2 3 4 5 6 
#
# 1 105.7163 52.6758 36.7213 0.0000 1.2488 0.0000
# 2 52.6758 138.3299 51.7436 0.0000 -6.7886 0.0000
# 3 36.7213 51.7436 84.2893 0.0000 0.6707 0.0000
# 4 0.0000 0.0000 0.0000 24.2814 0.0000 5.8736
# 5 1.2488 -6.7886 0.6707 0.0000 30.1782 0.0000
# 6 0.0000 0.0000 0.0000 5.8736 0.0000 26.9323
#
#
#
# Elastic Compliance Matrix: (Units=1/GPa)
#
#
# Indices 1 2 3 4 5 6 
#
# 1 0.012362 -0.003580 -0.003178 0.000000 -0.001246 0.000000
# 2 -0.003580 0.010574 -0.004953 0.000000 0.002637 0.000000
# 3 -0.003178 -0.004953 0.016300 0.000000 -0.001345 0.000000
# 4 0.000000 0.000000 0.000000 0.043478 0.000000 -0.009482
# 5 -0.001246 0.002637 -0.001345 0.000000 0.033811 0.000000
# 6 0.000000 0.000000 0.000000 -0.009482 0.000000 0.039198
#
#
# Mechanical properties :
#
#
# Convention : Reuss Voigt Hill
#
# Bulk Modulus (GPa) = 63.23340 67.84633 65.53986
# Shear Modulus (GPa) = 27.11281 28.75802 27.93541
#
# Velocity S-wave (km/s) = 3.51256 3.61756 3.56545
# Velocity P-wave (km/s) = 6.72503 6.95151 6.83921
#
# Compressibility (1/GPa) = 0.01581443
#
# Stress axis : x y z
#
# Youngs Moduli (GPa) = 80.89597 94.56911 61.35130
#
# Poissons Ratio (x) = 0.33852 0.19498
# Poissons Ratio (y) = 0.28958 0.30386
# Poissons Ratio (z) = 0.25709 0.46838
#
# Static dielectric constant tensor:
#      x y z
#    x 4.090460 0.000000 0.135860 
#    y 0.000000 4.181960 0.000000 
#    z 0.135860 0.000000 4.128020 
# 
# 
# High freq. dielectric constant tensor:
#      x y z
#    x 1.872330 0.000000 -0.000110 
#    y 0.000000 1.873560 0.000000 
#    z -0.000110 0.000000 1.861680 
# 
# From -- ./inp_files/288008.got.cif
#   From: 2010.06.25/outbox.cif.g09.slc.cpg/sg15_145_cif.got.tgz:288008.got - 2010.06.28 07:06:18.
