data_PCOD8142683
_publ_section_title
;
Structure prediction by ZEFSAII (Michael W. Deem and Ramdas Pophale) SiO2 
 PCOD8142683
Probable space group: C 2/C
;
_chemical_formula_sum "Si O2"
_cell_formula_units_Z 44
_cell_length_a 10.985245
_cell_length_b 14.907383
_cell_length_c 14.911032
_cell_angle_alpha 90.000000
_cell_angle_beta 116.275518
_cell_angle_gamma 90.000000
_cell_volume 2189.546861
_symmetry_space_group_name_H-M "C 2/C"
_symmetry_group_IT_number 15
_symmetry_cell_setting 'monoclinic'
loop_
_space_group_symop_operation_xyz
x,y,z
-x,y,1/2-z
-x,-y,-z
x,-y,1/2+z
1/2+x,1/2+y,z
1/2-x,1/2+y,1/2-z
1/2-x,1/2-y,-z
1/2+x,1/2-y,1/2+z
loop_
_atom_site_type_symbol
_atom_site_label
_atom_site_fract_x
_atom_site_fract_y
_atom_site_fract_z
Si Si1 0.292139 0.968110 0.906796
Si Si2 0.478480 0.446635 0.140356
Si Si3 0.500000 0.933658 0.250000
Si Si4 0.354086 0.696757 0.473802
Si Si5 0.752663 0.048733 0.311539
Si Si6 0.976344 0.633099 0.931888
O O1 0.285724 0.930427 0.803657
O O2 0.143465 0.980632 0.901276
O O3 0.365994 0.064771 0.937511
O O4 0.372405 0.894212 0.989325
O O5 0.500000 0.414259 0.250000
O O6 0.610213 0.491287 0.140281
O O7 0.447748 0.361861 0.068977
O O8 0.535648 0.869525 0.179128
O O9 0.629084 0.995415 0.317599
O O10 0.250000 0.750000 0.500000
O O11 0.272406 0.639558 0.373466
O O12 0.450466 0.765993 0.453632
#
# Coordination Sequence:
#
# PCOD8142683 Si02
#       6
#     8   8   4   8   8   8
#     4   9  19  41  66  87 122 169 204 238 314 375
#     4  10  21  42  64  90 125 167 204 249 308 375
#     4  10  22  44  66  82 124 176 208 240 314 388
#     4  12  24  38  63  99 126 151 211 267 302 355
#     4  10  23  40  64  89 124 168 204 249 308 376
#     4  10  21  39  63  94 122 160 205 257 301 369
#
# _framework density 20.095482000000001
#
# number of rings (size 3 to 8) (size 9 to 14) (size 15 to 20)
#    0.000    1.818    1.818    1.636    5.091    1.455 
#    4.909    1.818    0.000    0.000    0.000    0.000 
#    0.000    0.000    0.000    0.000    0.000    0.000 
#
# Total GULP energy -272893.295952 kJ/mol
# GULP energy per Si atom -12404.240725 kJ/mol
# Density = 2.004974 g / cm^3
# Si number density = 20.095482 Si / 1000 Ang^3
#
#
#
# Elastic Constant Matrix: (Units=GPa)
#
#
# Indices 1 2 3 4 5 6 
#
# 1 119.0970 51.5432 34.4877 0.0000 12.4902 0.0000
# 2 51.5432 118.9736 72.8463 0.0000 -7.8328 0.0000
# 3 34.4877 72.8463 109.3816 0.0000 10.4203 0.0000
# 4 0.0000 0.0000 0.0000 31.5391 0.0000 -9.6155
# 5 12.4902 -7.8328 10.4203 0.0000 31.6133 0.0000
# 6 0.0000 0.0000 0.0000 -9.6155 0.0000 22.8137
#
#
#
# Elastic Compliance Matrix: (Units=1/GPa)
#
#
# Indices 1 2 3 4 5 6 
#
# 1 0.011332 -0.005908 0.000957 0.000000 -0.006257 0.000000
# 2 -0.005908 0.018869 -0.011740 0.000000 0.010879 0.000000
# 3 0.000957 -0.011740 0.017523 0.000000 -0.009063 0.000000
# 4 0.000000 0.000000 0.000000 0.036382 0.000000 0.015334
# 5 -0.006257 0.010879 -0.009063 0.000000 0.039787 0.000000
# 6 0.000000 0.000000 0.000000 0.015334 0.000000 0.050296
#
#
# Mechanical properties :
#
#
# Convention : Reuss Voigt Hill
#
# Bulk Modulus (GPa) = 69.72035 73.91186 71.81611
# Shear Modulus (GPa) = 23.54588 29.76491 26.65539
#
# Velocity S-wave (km/s) = 3.42672 3.85278 3.64598
# Velocity P-wave (km/s) = 7.10116 7.52676 7.31705
#
# Compressibility (1/GPa) = 0.01434301
#
# Stress axis : x y z
#
# Youngs Moduli (GPa) = 88.24481 52.99597 57.06854
#
# Poissons Ratio (x) = 0.31308 -0.05463
# Poissons Ratio (y) = 0.52131 0.67001
# Poissons Ratio (z) = -0.08448 0.62220
#
# Static dielectric constant tensor:
#      x y z
#    x 3.741720 0.000000 0.061790 
#    y 0.000000 3.483020 0.000000 
#    z 0.061790 0.000000 3.914960 
# 
# 
# High freq. dielectric constant tensor:
#      x y z
#    x 1.794780 0.000000 -0.000070 
#    y 0.000000 1.756920 0.000000 
#    z -0.000070 0.000000 1.803600 
# 
# From -- ./inp_files/196646.got.cif
#   From: 2010.06.25/outbox.cif.g09.slc.cpg/sg15_99_cif.got.tgz:196646.got - 2010.06.28 07:06:18.
