data_PCOD8142757
_publ_section_title
;
Structure prediction by ZEFSAII (Michael W. Deem and Ramdas Pophale) SiO2 
 PCOD8142757
Probable space group: C 2/C
;
_chemical_formula_sum "Si O2"
_cell_formula_units_Z 60
_cell_length_a 11.062571
_cell_length_b 15.592609
_cell_length_c 16.380808
_cell_angle_alpha 90.000000
_cell_angle_beta 81.036674
_cell_angle_gamma 90.000000
_cell_volume 2791.091306
_symmetry_space_group_name_H-M "C 2/C"
_symmetry_group_IT_number 15
_symmetry_cell_setting 'monoclinic'
loop_
_space_group_symop_operation_xyz
x,y,z
-x,y,1/2-z
-x,-y,-z
x,-y,1/2+z
1/2+x,1/2+y,z
1/2-x,1/2+y,1/2-z
1/2-x,1/2-y,-z
1/2+x,1/2-y,1/2+z
loop_
_atom_site_type_symbol
_atom_site_label
_atom_site_fract_x
_atom_site_fract_y
_atom_site_fract_z
Si Si1 0.402761 0.192219 0.828370
Si Si2 0.627239 0.711849 0.870823
Si Si3 0.819944 0.986436 0.861964
Si Si4 0.056938 0.833286 0.553537
Si Si5 0.372206 0.551057 0.019805
Si Si6 0.500000 0.598601 0.750000
Si Si7 0.365716 0.971952 0.418500
Si Si8 0.584282 0.094180 0.410452
O O1 0.500000 0.219917 0.750000
O O2 0.263610 0.216756 0.818714
O O3 0.440644 0.239912 0.907575
O O4 0.409717 0.090403 0.841872
O O5 0.537808 0.657821 0.821994
O O6 0.574164 0.807318 0.885276
O O7 0.632318 0.667449 0.959943
O O8 0.886739 0.900756 0.888277
O O9 0.685144 0.957685 0.845498
O O10 0.811042 0.056278 0.936576
O O11 0.888887 0.033990 0.781711
O O12 0.913515 0.856443 0.550349
O O13 0.500000 0.500000 0.000000
O O14 0.272064 0.504731 0.087847
O O15 0.369081 0.917406 0.501782
O O16 0.451036 0.055069 0.411863
#
# Coordination Sequence:
#
# PCOD8142757 Si02
#       8
#     8   8   8   8   8   4   8   8
#     4  12  26  42  66 103 134 175 237 288 335 402
#     4  12  24  48  69  98 139 184 227 280 348 415
#     4  10  21  39  65 100 127 172 224 277 334 394
#     4  11  21  42  73  99 127 181 231 282 331 409
#     4   9  18  37  67  96 125 165 227 269 327 402
#     4  12  28  40  68 100 140 180 226 290 342 394
#     4  10  22  41  68 101 128 179 220 281 346 405
#     4  10  21  43  70  93 135 178 224 268 343 423
#
# _framework density 21.496967000000001
#
# number of rings (size 3 to 8) (size 9 to 14) (size 15 to 20)
#    0.000    1.333    4.000    2.800    4.667    0.000 
#    3.600    0.667    0.000    0.000    0.000    0.000 
#    0.000    0.000    0.000    0.000    0.000    0.000 
#
# Total GULP energy -371861.638256 kJ/mol
# GULP energy per Si atom -12395.387942 kJ/mol
# Density = 2.144804 g / cm^3
# Si number density = 21.496967 Si / 1000 Ang^3
#
#
#
# Elastic Constant Matrix: (Units=GPa)
#
#
# Indices 1 2 3 4 5 6 
#
# 1 120.0148 58.2047 33.7132 0.0000 -17.8423 0.0000
# 2 58.2047 114.1905 33.3471 0.0000 -10.6135 0.0000
# 3 33.7132 33.3471 78.4145 0.0000 -16.6835 0.0000
# 4 0.0000 0.0000 0.0000 28.6380 0.0000 -1.4189
# 5 -17.8423 -10.6135 -16.6835 0.0000 27.0217 0.0000
# 6 0.0000 0.0000 0.0000 -1.4189 0.0000 33.1360
#
#
#
# Elastic Compliance Matrix: (Units=1/GPa)
#
#
# Indices 1 2 3 4 5 6 
#
# 1 0.012090 -0.005137 -0.002008 0.000000 0.004726 0.000000
# 2 -0.005137 0.012235 -0.003101 0.000000 -0.000501 0.000000
# 3 -0.002008 -0.003101 0.016570 0.000000 0.007687 0.000000
# 4 0.000000 0.000000 0.000000 0.034993 0.000000 0.001498
# 5 0.004726 -0.000501 0.007687 0.000000 0.044677 0.000000
# 6 0.000000 0.000000 0.000000 0.001498 0.000000 0.030243
#
#
# Mechanical properties :
#
#
# Convention : Reuss Voigt Hill
#
# Bulk Modulus (GPa) = 49.01197 62.57222 55.79209
# Shear Modulus (GPa) = 28.07398 30.24945 29.16172
#
# Velocity S-wave (km/s) = 3.61771 3.75527 3.68713
# Velocity P-wave (km/s) = 6.34819 6.92628 6.64352
#
# Compressibility (1/GPa) = 0.02040318
#
# Stress axis : x y z
#
# Youngs Moduli (GPa) = 82.71120 81.73459 60.34903
#
# Poissons Ratio (x) = 0.41987 0.12118
# Poissons Ratio (y) = 0.42488 0.18715
# Poissons Ratio (z) = 0.16608 0.25346
#
# Static dielectric constant tensor:
#      x y z
#    x 4.087160 0.000000 -0.070860 
#    y 0.000000 4.110910 0.000000 
#    z -0.070860 0.000000 3.663740 
# 
# 
# High freq. dielectric constant tensor:
#      x y z
#    x 1.842480 0.000000 -0.011310 
#    y 0.000000 1.845330 0.000000 
#    z -0.011310 0.000000 1.816580 
# 
# From -- ./inp_files/197850.got.cif
#   From: 2010.06.25/outbox.cif.g09.slc.cpg/sg15_99_cif.got.tgz:197850.got - 2010.06.28 07:06:18.
