data_PCOD8142550
_publ_section_title
;
Structure prediction by ZEFSAII (Michael W. Deem and Ramdas Pophale) SiO2 
 PCOD8142550
Probable space group: C 2/C
;
_chemical_formula_sum "Si O2"
_cell_formula_units_Z 64
_cell_length_a 13.754184
_cell_length_b 26.313864
_cell_length_c 11.903344
_cell_angle_alpha 90.000000
_cell_angle_beta 139.911917
_cell_angle_gamma 90.000000
_cell_volume 2774.280567
_symmetry_space_group_name_H-M "C 2/C"
_symmetry_group_IT_number 15
_symmetry_cell_setting 'monoclinic'
loop_
_space_group_symop_operation_xyz
x,y,z
-x,y,1/2-z
-x,-y,-z
x,-y,1/2+z
1/2+x,1/2+y,z
1/2-x,1/2+y,1/2-z
1/2-x,1/2-y,-z
1/2+x,1/2-y,1/2+z
loop_
_atom_site_type_symbol
_atom_site_label
_atom_site_fract_x
_atom_site_fract_y
_atom_site_fract_z
Si Si1 0.583147 0.070427 0.478260
Si Si2 0.601773 0.834729 0.744195
Si Si3 0.166059 0.914856 0.950604
Si Si4 0.761108 0.310732 0.098716
Si Si5 0.657662 0.388762 0.427838
Si Si6 0.654472 0.485855 0.578541
Si Si7 0.582692 0.215352 0.985193
Si Si8 0.881484 0.539892 0.477242
O O1 0.454489 0.106511 0.312348
O O2 0.743981 0.096818 0.596556
O O3 0.539136 0.064852 0.572171
O O4 0.583511 0.013033 0.425402
O O5 0.500000 0.806278 0.750000
O O6 0.606842 0.805203 0.631888
O O7 0.770544 0.841779 0.939668
O O8 0.294522 0.916560 0.967749
O O9 0.000000 0.910659 0.750000
O O10 0.200827 0.867805 0.064398
O O11 0.197014 0.966535 0.041085
O O12 0.620976 0.275400 0.013626
O O13 0.909737 0.296129 0.300638
O O14 0.798148 0.308121 0.998115
O O15 0.500000 0.365898 0.250000
O O16 0.627690 0.437679 0.476747
O O17 0.500000 0.500000 0.500000
O O18 0.783646 0.475770 0.782437
#
# Coordination Sequence:
#
# PCOD8142550 Si02
#       8
#     8   8   8   8   8   8   8   8
#     4  10  21  39  61  92 137 189 231 279 345 407
#     4  10  22  42  72 104 140 186 234 292 361 436
#     4  12  25  42  65 104 142 189 245 289 352 432
#     4  10  25  45  77 100 139 180 235 307 369 428
#     4  11  22  41  63  96 146 191 234 284 345 425
#     4  12  23  38  59  95 146 194 233 289 340 406
#     4  10  23  50  72 107 136 177 236 307 371 428
#     4  11  22  38  62  94 142 192 239 288 342 420
#
# _framework density 23.069044000000002
#
# number of rings (size 3 to 8) (size 9 to 14) (size 15 to 20)
#    0.000    1.250    3.750    1.875    5.250    0.000 
#    2.250    0.625    0.000    0.000    3.250    0.000 
#    0.000    0.000    0.000    0.000    0.000    0.000 
#
# Total GULP energy -396529.606392 kJ/mol
# GULP energy per Si atom -12391.550200 kJ/mol
# Density = 2.301654 g / cm^3
# Si number density = 23.069044 Si / 1000 Ang^3
#
#
#
# Elastic Constant Matrix: (Units=GPa)
#
#
# Indices 1 2 3 4 5 6 
#
# 1 140.4213 38.3308 57.9644 0.0000 -0.8878 0.0000
# 2 38.3308 91.0550 50.8598 0.0000 -8.3581 0.0000
# 3 57.9644 50.8598 125.2615 0.0000 -2.6470 0.0000
# 4 0.0000 0.0000 0.0000 25.2261 0.0000 -4.5884
# 5 -0.8878 -8.3581 -2.6470 0.0000 30.6477 0.0000
# 6 0.0000 0.0000 0.0000 -4.5884 0.0000 12.1077
#
#
#
# Elastic Compliance Matrix: (Units=1/GPa)
#
#
# Indices 1 2 3 4 5 6 
#
# 1 0.009060 -0.001963 -0.003408 0.000000 -0.000567 0.000000
# 2 -0.001963 0.014987 -0.005101 0.000000 0.003590 0.000000
# 3 -0.003408 -0.005101 0.011621 0.000000 -0.000486 0.000000
# 4 0.000000 0.000000 0.000000 0.042576 0.000000 0.016135
# 5 -0.000567 0.003590 -0.000486 0.000000 0.033549 0.000000
# 6 0.000000 0.000000 0.000000 0.016135 0.000000 0.088706
#
#
# Mechanical properties :
#
#
# Convention : Reuss Voigt Hill
#
# Bulk Modulus (GPa) = 67.90874 72.33864 70.12369
# Shear Modulus (GPa) = 22.08941 27.56850 24.82895
#
# Velocity S-wave (km/s) = 3.09776 3.46069 3.28424
# Velocity P-wave (km/s) = 6.50353 6.88433 6.69664
#
# Compressibility (1/GPa) = 0.01472565
#
# Stress axis : x y z
#
# Youngs Moduli (GPa) = 110.37222 66.72237 86.04982
#
# Poissons Ratio (x) = 0.13096 0.29323
# Poissons Ratio (y) = 0.21663 0.43896
# Poissons Ratio (z) = 0.37611 0.34037
#
# Static dielectric constant tensor:
#      x y z
#    x 4.729210 0.000000 0.252860 
#    y 0.000000 3.992070 0.000000 
#    z 0.252860 0.000000 4.012810 
# 
# 
# High freq. dielectric constant tensor:
#      x y z
#    x 1.925090 0.000000 0.007550 
#    y 0.000000 1.892520 0.000000 
#    z 0.007550 0.000000 1.902470 
# 
# From -- ./inp_files/101345.got.cif
#   From: 2010.06.25/outbox.cif.g09.slc.cpg/sg15_51_cif.got.tgz:101345.got - 2010.06.28 07:06:18.
