data_PCOD8142257
_publ_section_title
;
Structure prediction by ZEFSAII (Michael W. Deem and Ramdas Pophale) SiO2 
 PCOD8142257
Probable space group: C 2/C
;
_chemical_formula_sum "Si O2"
_cell_formula_units_Z 32
_cell_length_a 7.484102
_cell_length_b 13.395047
_cell_length_c 17.424474
_cell_angle_alpha 90.000000
_cell_angle_beta 47.338998
_cell_angle_gamma 90.000000
_cell_volume 1284.556095
_symmetry_space_group_name_H-M "C 2/C"
_symmetry_group_IT_number 15
_symmetry_cell_setting 'monoclinic'
loop_
_space_group_symop_operation_xyz
x,y,z
-x,y,1/2-z
-x,-y,-z
x,-y,1/2+z
1/2+x,1/2+y,z
1/2-x,1/2+y,1/2-z
1/2-x,1/2-y,-z
1/2+x,1/2-y,1/2+z
loop_
_atom_site_type_symbol
_atom_site_label
_atom_site_fract_x
_atom_site_fract_y
_atom_site_fract_z
Si Si1 0.058440 0.323148 0.431137
Si Si2 0.252204 0.394515 0.637558
Si Si3 0.210240 0.286410 0.135653
Si Si4 0.591359 0.439035 0.074162
O O1 0.209521 0.223602 0.366962
O O2 0.234423 0.414181 0.404151
O O3 0.902392 0.352200 0.401708
O O4 0.875921 0.302684 0.555179
O O5 0.251705 0.428322 0.549133
O O6 0.476708 0.450537 0.615343
O O7 0.000000 0.425195 0.750000
O O8 0.370147 0.360642 0.140005
O O9 0.000000 0.239671 0.250000
#
# Coordination Sequence:
#
# PCOD8142257 Si02
#       4
#     8   8   8   8
#     4  10  23  40  65  98 128 174 222 274 335 402
#     4  10  21  39  66  95 131 175 223 272 335 404
#     4  10  21  38  64  93 128 169 221 272 330 405
#     4  10  22  42  63  93 138 169 216 285 329 395
#
# _framework density 24.911328999999999
#
# number of rings (size 3 to 8) (size 9 to 14) (size 15 to 20)
#    0.000    2.000    0.000    3.750    7.000    0.000 
#    0.000   22.500    5.500    3.000    0.000    0.000 
#    0.000    0.000    0.000    0.000    0.000    0.000 
#
# Total GULP energy -198384.800786 kJ/mol
# GULP energy per Si atom -12399.050049 kJ/mol
# Density = 2.485463 g / cm^3
# Si number density = 24.911329 Si / 1000 Ang^3
#
#
#
# Elastic Constant Matrix: (Units=GPa)
#
#
# Indices 1 2 3 4 5 6 
#
# 1 126.3567 31.4987 0.2340 0.0003 -19.0338 0.0000
# 2 31.4987 65.4705 20.9118 -0.0008 -10.0180 0.0005
# 3 0.2340 20.9118 143.9165 -0.0026 -28.6401 -0.0001
# 4 0.0003 -0.0008 -0.0026 11.2973 0.0007 -4.5485
# 5 -19.0338 -10.0180 -28.6401 0.0007 19.4707 0.0003
# 6 0.0000 0.0005 -0.0001 -4.5485 0.0003 50.5736
#
#
#
# Elastic Compliance Matrix: (Units=1/GPa)
#
#
# Indices 1 2 3 4 5 6 
#
# 1 0.010983 -0.004286 0.003256 -0.000001 0.013320 0.000000
# 2 -0.004286 0.018355 -0.002283 0.000001 0.001897 0.000000
# 3 0.003256 -0.002283 0.010851 0.000001 0.017969 0.000000
# 4 -0.000001 0.000001 0.000001 0.091843 -0.000002 0.008260
# 5 0.013320 0.001897 0.017969 -0.000002 0.091787 -0.000001
# 6 0.000000 0.000000 0.000000 0.008260 -0.000001 0.020516
#
#
# Mechanical properties :
#
#
# Convention : Reuss Voigt Hill
#
# Bulk Modulus (GPa) = 29.79415 49.00363 39.39889
# Shear Modulus (GPa) = 19.07318 35.14160 27.10739
#
# Velocity S-wave (km/s) = 2.77003 3.75996 3.30230
# Velocity P-wave (km/s) = 4.71347 6.20996 5.51273
#
# Compressibility (1/GPa) = 0.03356363
#
# Stress axis : x y z
#
# Youngs Moduli (GPa) = 91.05044 54.48005 92.15964
#
# Poissons Ratio (x) = 0.23349 -0.30004
# Poissons Ratio (y) = 0.39022 0.21037
# Poissons Ratio (z) = -0.29643 0.12436
#
# Static dielectric constant tensor:
#      x y z
#    x 4.496890 0.000000 -0.155310 
#    y 0.000000 4.166720 0.000010 
#    z -0.155310 0.000010 4.500830 
# 
# 
# High freq. dielectric constant tensor:
#      x y z
#    x 1.987170 0.000000 -0.016660 
#    y 0.000000 1.966540 0.000000 
#    z -0.016660 0.000000 1.994810 
# 
# From -- ./inp_files/76043.got.cif
#   From: 2010.06.25/outbox.cif.g09.slc.cpg/sg15_39_cif.got.tgz:76043.got - 2010.06.28 07:06:18.
