data_PCOD8142839
_publ_section_title
;
Structure prediction by ZEFSAII (Michael W. Deem and Ramdas Pophale) SiO2 
 PCOD8142839
Probable space group: C 2/C
;
_chemical_formula_sum "Si O2"
_cell_formula_units_Z 56
_cell_length_a 20.351537
_cell_length_b 15.743959
_cell_length_c 18.138741
_cell_angle_alpha 90.000000
_cell_angle_beta 25.759502
_cell_angle_gamma 90.000000
_cell_volume 2525.821488
_symmetry_space_group_name_H-M "C 2/C"
_symmetry_group_IT_number 15
_symmetry_cell_setting 'monoclinic'
loop_
_space_group_symop_operation_xyz
x,y,z
-x,y,1/2-z
-x,-y,-z
x,-y,1/2+z
1/2+x,1/2+y,z
1/2-x,1/2+y,1/2-z
1/2-x,1/2-y,-z
1/2+x,1/2-y,1/2+z
loop_
_atom_site_type_symbol
_atom_site_label
_atom_site_fract_x
_atom_site_fract_y
_atom_site_fract_z
Si Si1 0.744211 0.438912 0.135139
Si Si2 0.069389 0.385056 0.842888
Si Si3 0.805737 0.906839 0.721826
Si Si4 0.839769 0.733624 0.054056
Si Si5 0.887747 0.334646 0.297409
Si Si6 0.067957 0.196204 0.888949
Si Si7 0.161682 0.527608 0.115977
O O1 0.652212 0.504727 0.280958
O O2 0.677572 0.346475 0.218274
O O3 0.722276 0.462089 0.070256
O O4 0.920401 0.441268 0.979397
O O5 0.148436 0.416892 0.837301
O O6 0.023860 0.285972 0.896743
O O7 0.189352 0.405715 0.654909
O O8 0.780937 0.841661 0.814020
O O9 0.928270 0.867592 0.542349
O O10 0.772039 0.784695 0.051570
O O11 0.843671 0.792826 0.122766
O O12 0.006059 0.691136 0.878808
O O13 0.839246 0.432166 0.351458
O O14 0.000000 0.307445 0.250000
O O15 0.000000 0.554211 0.250000
#
# Coordination Sequence:
#
# PCOD8142839 Si02
#       7
#     8   8   8   8   8   8   8
#     4  11  23  41  66  89 127 166 208 265 313 374
#     4  10  21  39  66  93 119 166 217 255 312 377
#     4  11  22  39  63  94 127 164 212 260 313 376
#     4  11  22  39  63  95 129 167 212 261 315 381
#     4  11  22  39  65  92 132 166 211 259 319 383
#     4  11  24  40  61  95 130 161 207 268 321 365
#     4   9  21  41  63  93 121 164 217 256 308 379
#
# _framework density 22.171005999999998
#
# number of rings (size 3 to 8) (size 9 to 14) (size 15 to 20)
#    0.000    1.429    1.429    5.571    4.000    0.571 
#    0.000    2.143    0.000    0.000    0.000    0.000 
#    0.000    0.000    0.000    0.000    0.000    0.000 
#
# Total GULP energy -346937.320559 kJ/mol
# GULP energy per Si atom -12390.618591 kJ/mol
# Density = 2.212054 g / cm^3
# Si number density = 22.171006 Si / 1000 Ang^3
#
#
#
# Elastic Constant Matrix: (Units=GPa)
#
#
# Indices 1 2 3 4 5 6 
#
# 1 73.2821 54.5402 18.7202 -0.0189 13.3423 0.0140
# 2 54.5402 113.1190 43.7914 -0.0076 21.7078 0.0088
# 3 18.7202 43.7914 70.0900 -0.0156 20.3378 0.0151
# 4 -0.0189 -0.0076 -0.0156 29.8168 0.0079 10.7608
# 5 13.3423 21.7078 20.3378 0.0079 31.4668 -0.0085
# 6 0.0140 0.0088 0.0151 10.7608 -0.0085 30.6631
#
#
#
# Elastic Compliance Matrix: (Units=1/GPa)
#
#
# Indices 1 2 3 4 5 6 
#
# 1 0.021550 -0.010452 0.001642 0.000018 -0.002988 -0.000015
# 2 -0.010452 0.017178 -0.007124 -0.000007 -0.002814 0.000005
# 3 0.001642 -0.007124 0.020993 0.000019 -0.009350 -0.000018
# 4 0.000018 -0.000007 0.000019 0.038402 -0.000029 -0.013477
# 5 -0.002988 -0.002814 -0.009350 -0.000029 0.041031 0.000028
# 6 -0.000015 0.000005 -0.000018 -0.013477 0.000028 0.037342
#
#
# Mechanical properties :
#
#
# Convention : Reuss Voigt Hill
#
# Bulk Modulus (GPa) = 35.90563 54.51050 45.20806
# Shear Modulus (GPa) = 22.97286 27.68529 25.32907
#
# Velocity S-wave (km/s) = 3.22245 3.53755 3.38367
# Velocity P-wave (km/s) = 5.48412 6.42849 5.97499
#
# Compressibility (1/GPa) = 0.02785079
#
# Stress axis : x y z
#
# Youngs Moduli (GPa) = 46.40446 58.21456 47.63485
#
# Poissons Ratio (x) = 0.60848 -0.07821
# Poissons Ratio (y) = 0.48504 0.33937
# Poissons Ratio (z) = -0.07619 0.41474
#
# Static dielectric constant tensor:
#      x y z
#    x 3.937470 -0.000010 0.295560 
#    y -0.000010 3.890380 0.000010 
#    z 0.295560 0.000010 4.056200 
# 
# 
# High freq. dielectric constant tensor:
#      x y z
#    x 1.859940 0.000000 0.015340 
#    y 0.000000 1.871980 0.000000 
#    z 0.015340 0.000000 1.864480 
# 
# From -- ./inp_files/215722.got.cif
#   From: 2010.06.25/outbox.cif.g09.slc.cpg/sg15_108_cif.got.tgz:215722.got - 2010.06.28 07:06:18.
