data_PCOD8142475
_publ_section_title
;
Structure prediction by ZEFSAII (Michael W. Deem and Ramdas Pophale) SiO2 
 PCOD8142475
Probable space group: C 2/C
;
_chemical_formula_sum "Si O2"
_cell_formula_units_Z 64
_cell_length_a 16.924619
_cell_length_b 24.308038
_cell_length_c 22.195587
_cell_angle_alpha 90.000000
_cell_angle_beta 159.675950
_cell_angle_gamma 90.000000
_cell_volume 3171.588726
_symmetry_space_group_name_H-M "C 2/C"
_symmetry_group_IT_number 15
_symmetry_cell_setting 'monoclinic'
loop_
_space_group_symop_operation_xyz
x,y,z
-x,y,1/2-z
-x,-y,-z
x,-y,1/2+z
1/2+x,1/2+y,z
1/2-x,1/2+y,1/2-z
1/2-x,1/2-y,-z
1/2+x,1/2-y,1/2+z
loop_
_atom_site_type_symbol
_atom_site_label
_atom_site_fract_x
_atom_site_fract_y
_atom_site_fract_z
Si Si1 0.422726 0.812489 0.432001
Si Si2 0.609613 0.606365 0.769220
Si Si3 0.375704 0.874793 0.222207
Si Si4 0.630392 0.996305 0.279804
Si Si5 0.642828 0.003944 0.040674
Si Si6 0.949005 0.193335 0.937225
Si Si7 0.753331 0.123332 0.094219
Si Si8 0.756059 0.893339 0.909719
O O1 0.332608 0.857637 0.414729
O O2 0.234060 0.807112 0.246306
O O3 0.461166 0.754391 0.490365
O O4 0.664915 0.833932 0.581009
O O5 0.500000 0.632992 0.750000
O O6 0.671563 0.543428 0.825907
O O7 0.423911 0.606848 0.585182
O O8 0.500000 0.858091 0.250000
O O9 0.256957 0.935583 0.136717
O O10 0.178604 0.830559 0.094828
O O11 0.575005 0.876297 0.413017
O O12 0.500000 0.002866 0.250000
O O13 0.796168 0.049378 0.401150
O O14 0.493702 0.002037 0.119605
O O15 0.772788 0.062173 0.135394
O O16 0.500000 0.000000 0.000000
O O17 0.169946 0.156351 0.081082
O O18 0.000000 0.144062 0.250000
O O19 0.500000 0.883658 0.750000
#
# Coordination Sequence:
#
# PCOD8142475 Si02
#       8
#     8   8   8   8   8   8   8   8
#     4  10  23  42  58  85 116 154 205 248 302 355
#     4  11  22  39  64  87 122 161 194 250 305 357
#     4   9  20  39  59  85 118 155 196 239 297 356
#     4   9  19  37  61  88 126 160 197 245 297 369
#     4  11  21  38  62  94 128 158 203 249 300 367
#     4  10  23  41  61  81 118 156 197 259 297 353
#     4  10  21  39  60  86 122 155 194 246 296 357
#     4  10  22  40  59  89 122 156 201 246 299 365
#
# _framework density 20.179162000000002
#
# number of rings (size 3 to 8) (size 9 to 14) (size 15 to 20)
#    0.000    2.000    1.250    1.875    1.750    7.500 
#    2.250    5.000    0.000    0.000    0.000    0.000 
#    0.000    0.000    0.000    0.000    0.000    0.000 
#
# Total GULP energy -396580.728237 kJ/mol
# GULP energy per Si atom -12393.147757 kJ/mol
# Density = 2.013323 g / cm^3
# Si number density = 20.179162 Si / 1000 Ang^3
#
#
#
# Elastic Constant Matrix: (Units=GPa)
#
#
# Indices 1 2 3 4 5 6 
#
# 1 108.4505 18.5017 27.3999 -0.1895 2.8601 -0.0291
# 2 18.5017 100.9895 26.4526 -0.4342 0.5333 -0.0195
# 3 27.3999 26.4526 61.0443 0.2464 16.2199 -0.3334
# 4 -0.1895 -0.4342 0.2464 3.2009 -0.1240 -0.5822
# 5 2.8601 0.5333 16.2199 -0.1240 27.3925 -0.1029
# 6 -0.0291 -0.0195 -0.3334 -0.5822 -0.1029 27.8603
#
#
#
# Elastic Compliance Matrix: (Units=1/GPa)
#
#
# Indices 1 2 3 4 5 6 
#
# 1 0.010532 -0.000640 -0.004944 0.000985 0.001845 -0.000021
# 2 -0.000640 0.011456 -0.005514 0.002061 0.003118 -0.000004
# 3 -0.004944 -0.005514 0.024735 -0.003459 -0.014038 0.000163
# 4 0.000985 0.002061 -0.003459 0.314333 0.003353 0.006542
# 5 0.001845 0.003118 -0.014038 0.003353 0.044581 0.000071
# 6 -0.000021 -0.000004 0.000163 0.006542 0.000071 0.036032
#
#
# Mechanical properties :
#
#
# Convention : Reuss Voigt Hill
#
# Bulk Modulus (GPa) = 40.77174 46.13251 43.45212
# Shear Modulus (GPa) = 10.59230 24.89942 17.74586
#
# Velocity S-wave (km/s) = 2.29358 3.51653 2.96871
# Velocity P-wave (km/s) = 5.22138 6.27687 5.77329
#
# Compressibility (1/GPa) = 0.02452679
#
# Stress axis : x y z
#
# Youngs Moduli (GPa) = 94.94670 87.29119 40.42861
#
# Poissons Ratio (x) = 0.05586 0.19989
# Poissons Ratio (y) = 0.06076 0.22292
# Poissons Ratio (z) = 0.46945 0.48131
#
# Static dielectric constant tensor:
#      x y z
#    x 4.034610 -0.000480 0.183690 
#    y -0.000480 4.033580 -0.000790 
#    z 0.183690 -0.000790 3.330440 
# 
# 
# High freq. dielectric constant tensor:
#      x y z
#    x 1.801280 0.000000 0.000670 
#    y 0.000000 1.795150 -0.000050 
#    z 0.000670 -0.000050 1.770280 
# 
# From -- ./inp_files/278160.got.cif
#   From: 2010.06.25/outbox.cif.g09.slc.cpg/sg15_140_cif.got.tgz:278160.got - 2010.06.28 07:06:18.
