data_PCOD8142801
_publ_section_title
;
Structure prediction by ZEFSAII (Michael W. Deem and Ramdas Pophale) SiO2 
 PCOD8142801
Probable space group: C 2/C
;
_chemical_formula_sum "Si O2"
_cell_formula_units_Z 52
_cell_length_a 13.375224
_cell_length_b 11.978111
_cell_length_c 19.581779
_cell_angle_alpha 90.000000
_cell_angle_beta 46.226952
_cell_angle_gamma 90.000000
_cell_volume 2265.323898
_symmetry_space_group_name_H-M "C 2/C"
_symmetry_group_IT_number 15
_symmetry_cell_setting 'monoclinic'
loop_
_space_group_symop_operation_xyz
x,y,z
-x,y,1/2-z
-x,-y,-z
x,-y,1/2+z
1/2+x,1/2+y,z
1/2-x,1/2+y,1/2-z
1/2-x,1/2-y,-z
1/2+x,1/2-y,1/2+z
loop_
_atom_site_type_symbol
_atom_site_label
_atom_site_fract_x
_atom_site_fract_y
_atom_site_fract_z
Si Si1 0.092550 0.254342 0.451969
Si Si2 0.217209 0.529684 0.851353
Si Si3 0.126324 0.610668 0.748234
Si Si4 0.500000 0.559374 0.250000
Si Si5 0.353508 0.866816 0.796281
Si Si6 0.343501 0.790505 0.648050
Si Si7 0.410260 0.262066 0.901912
O O1 0.147439 0.381478 0.434967
O O2 0.222973 0.172933 0.402375
O O3 0.989383 0.230875 0.564016
O O4 0.009404 0.230472 0.421194
O O5 0.190461 0.576145 0.789353
O O6 0.382077 0.524100 0.779881
O O7 0.155752 0.406473 0.894941
O O8 0.136148 0.499978 0.698013
O O9 0.218230 0.715005 0.677454
O O10 0.965075 0.652983 0.832105
O O11 0.561372 0.629695 0.157401
O O12 0.500000 0.814032 0.750000
O O13 0.319914 0.819668 0.737458
O O14 0.250000 0.250000 0.000000
#
# Coordination Sequence:
#
# PCOD8142801 Si02
#       7
#     8   8   8   4   8   8   8
#     4  11  24  43  65  96 133 172 216 261 323 396
#     4  10  21  39  65  95 128 169 212 269 320 377
#     4  10  22  44  64  90 134 173 206 267 330 378
#     4  12  22  38  68  98 128 162 220 270 318 368
#     4  11  25  42  64  95 133 173 212 265 323 385
#     4  11  21  44  69  89 130 176 213 266 329 372
#     4  11  23  39  67 101 125 161 218 270 317 378
#
# _framework density 22.954774
#
# number of rings (size 3 to 8) (size 9 to 14) (size 15 to 20)
#    0.000    1.231    4.615    2.308    2.154    3.692 
#    0.000    1.538    0.000    0.000    0.000    0.000 
#    0.000    0.000    0.000    0.000    0.000    0.000 
#
# Total GULP energy -322296.059961 kJ/mol
# GULP energy per Si atom -12396.002306 kJ/mol
# Density = 2.290253 g / cm^3
# Si number density = 22.954774 Si / 1000 Ang^3
#
#
#
# Elastic Constant Matrix: (Units=GPa)
#
#
# Indices 1 2 3 4 5 6 
#
# 1 72.2490 44.1656 32.7881 0.0000 -49.5320 0.0000
# 2 44.1656 120.4582 61.2537 0.0000 -23.9376 0.0000
# 3 32.7881 61.2537 152.8747 0.0000 -46.2835 0.0000
# 4 0.0000 0.0000 0.0000 26.2869 0.0000 -15.7516
# 5 -49.5320 -23.9376 -46.2835 0.0000 45.0168 0.0000
# 6 0.0000 0.0000 0.0000 -15.7516 0.0000 30.4841
#
#
#
# Elastic Compliance Matrix: (Units=1/GPa)
#
#
# Indices 1 2 3 4 5 6 
#
# 1 0.117798 -0.029939 0.030712 0.000000 0.145269 0.000000
# 2 -0.029939 0.018138 -0.011470 0.000000 -0.035090 0.000000
# 3 0.030712 -0.011470 0.018780 0.000000 0.047002 0.000000
# 4 0.000000 0.000000 0.000000 0.055103 0.000000 0.028473
# 5 0.145269 -0.035090 0.047002 0.000000 0.211718 0.000000
# 6 0.000000 0.000000 0.000000 0.028473 0.000000 0.047516
#
#
# Mechanical properties :
#
#
# Convention : Reuss Voigt Hill
#
# Bulk Modulus (GPa) = 7.50068 69.11075 38.30571
# Shear Modulus (GPa) = 9.34774 34.18252 21.76513
#
# Velocity S-wave (km/s) = 2.02017 3.86310 3.08258
# Velocity P-wave (km/s) = 2.95231 7.07607 5.42157
#
# Compressibility (1/GPa) = 0.13332123
#
# Stress axis : x y z
#
# Youngs Moduli (GPa) = 8.48914 55.13222 53.24782
#
# Poissons Ratio (x) = 1.65062 -1.63535
# Poissons Ratio (y) = 0.25416 0.61075
# Poissons Ratio (z) = -0.26072 0.63237
#
# Static dielectric constant tensor:
#      x y z
#    x 4.229430 0.000000 -0.236080 
#    y 0.000000 4.546270 0.000000 
#    z -0.236080 0.000000 4.137730 
# 
# 
# High freq. dielectric constant tensor:
#      x y z
#    x 1.916160 0.000000 -0.021990 
#    y 0.000000 1.906320 0.000000 
#    z -0.021990 0.000000 1.901300 
# 
# From -- ./inp_files/273804.got.cif
#   From: 2010.06.25/outbox.cif.g09.slc.cpg/sg15_137_cif.got.tgz:273804.got - 2010.06.28 07:06:18.
