data_PCOD8142320
_publ_section_title
;
Structure prediction by ZEFSAII (Michael W. Deem and Ramdas Pophale) SiO2 
 PCOD8142320
Probable space group: C 2/C
;
_chemical_formula_sum "Si O2"
_cell_formula_units_Z 56
_cell_length_a 14.681559
_cell_length_b 25.885477
_cell_length_c 8.420423
_cell_angle_alpha 90.000000
_cell_angle_beta 124.375953
_cell_angle_gamma 90.000000
_cell_volume 2641.196400
_symmetry_space_group_name_H-M "C 2/C"
_symmetry_group_IT_number 15
_symmetry_cell_setting 'monoclinic'
loop_
_space_group_symop_operation_xyz
x,y,z
-x,y,1/2-z
-x,-y,-z
x,-y,1/2+z
1/2+x,1/2+y,z
1/2-x,1/2+y,1/2-z
1/2-x,1/2-y,-z
1/2+x,1/2-y,1/2+z
loop_
_atom_site_type_symbol
_atom_site_label
_atom_site_fract_x
_atom_site_fract_y
_atom_site_fract_z
Si Si1 0.936935 0.827208 0.488912
Si Si2 0.785382 0.441736 0.127198
Si Si3 0.615074 0.972191 0.593885
Si Si4 0.291763 0.845636 0.350495
Si Si5 0.850911 0.362180 0.768029
Si Si6 0.979530 0.715545 0.913912
Si Si7 0.854478 0.871359 0.708807
O O1 0.840709 0.839456 0.269708
O O2 0.991993 0.772905 0.500044
O O3 0.878042 0.825129 0.605237
O O4 0.030392 0.873358 0.577753
O O5 0.781905 0.491795 0.240662
O O6 0.827024 0.394370 0.276345
O O7 0.872986 0.456679 0.078139
O O8 0.673297 0.423838 0.921285
O O9 0.610209 0.921089 0.694279
O O10 0.500000 0.000000 0.500000
O O11 0.326650 0.849944 0.564315
O O12 0.351803 0.795897 0.331865
O O13 0.745120 0.354911 0.777071
O O14 0.947563 0.325184 0.918600
O O15 0.000000 0.707280 0.750000
#
# Coordination Sequence:
#
# PCOD8142320 Si02
#       7
#     8   8   8   8   8   8   8
#     4  10  22  42  69  87 124 177 223 280 319 397
#     4  10  21  38  66  90 131 169 214 265 324 396
#     4  11  21  37  63  97 127 171 211 263 339 390
#     4  11  25  43  60  94 136 172 220 272 336 392
#     4  11  25  41  63  97 140 167 214 279 329 409
#     4  12  23  39  65  91 125 173 224 267 332 393
#     4   9  20  43  64  94 122 173 230 264 332 383
#
# _framework density 21.202511999999999
#
# number of rings (size 3 to 8) (size 9 to 14) (size 15 to 20)
#    0.000    1.429    1.429    5.143    2.000    4.571 
#    2.571    0.000    0.000   56.571    0.000    0.000 
#    0.000    0.000    0.000    0.000    0.000    0.000 
#
# Total GULP energy -346957.372810 kJ/mol
# GULP energy per Si atom -12391.334743 kJ/mol
# Density = 2.115425 g / cm^3
# Si number density = 21.202512 Si / 1000 Ang^3
#
#
#
# Elastic Constant Matrix: (Units=GPa)
#
#
# Indices 1 2 3 4 5 6 
#
# 1 68.5983 24.7048 18.8404 0.0000 19.2667 0.0000
# 2 24.7048 116.9138 41.3833 0.0000 16.6885 0.0000
# 3 18.8404 41.3833 112.4981 0.0000 14.3498 0.0000
# 4 0.0000 0.0000 0.0000 25.2404 0.0000 4.0431
# 5 19.2667 16.6885 14.3498 0.0000 37.7543 0.0000
# 6 0.0000 0.0000 0.0000 4.0431 0.0000 31.8324
#
#
#
# Elastic Compliance Matrix: (Units=1/GPa)
#
#
# Indices 1 2 3 4 5 6 
#
# 1 0.017872 -0.002263 -0.001182 0.000000 -0.007671 0.000000
# 2 -0.002263 0.010484 -0.003188 0.000000 -0.002267 0.000000
# 3 -0.001182 -0.003188 0.010513 0.000000 -0.001983 0.000000
# 4 0.000000 0.000000 0.000000 0.040442 0.000000 -0.005137
# 5 -0.007671 -0.002267 -0.001983 0.000000 0.032158 0.000000
# 6 0.000000 0.000000 0.000000 -0.005137 0.000000 0.032067
#
#
# Mechanical properties :
#
#
# Convention : Reuss Voigt Hill
#
# Bulk Modulus (GPa) = 39.06058 51.98523 45.52291
# Shear Modulus (GPa) = 30.24158 33.17087 31.70622
#
# Velocity S-wave (km/s) = 3.78076 3.95964 3.87123
# Velocity P-wave (km/s) = 6.12548 6.74364 6.44198
#
# Compressibility (1/GPa) = 0.02560126
#
# Stress axis : x y z
#
# Youngs Moduli (GPa) = 55.95444 95.38611 95.12204
#
# Poissons Ratio (x) = 0.21587 0.11244
# Poissons Ratio (y) = 0.12663 0.30328
# Poissons Ratio (z) = 0.06614 0.30412
#
# Static dielectric constant tensor:
#      x y z
#    x 3.918940 0.000000 0.150070 
#    y 0.000000 4.063500 0.000000 
#    z 0.150070 0.000000 4.150410 
# 
# 
# High freq. dielectric constant tensor:
#      x y z
#    x 1.822310 0.000000 -0.000440 
#    y 0.000000 1.819980 0.000000 
#    z -0.000440 0.000000 1.846320 
# 
# From -- ./inp_files/42762.got.cif
#   From: 2010.06.25/outbox.cif.g09.slc.cpg/sg15_22_cif.got.tgz:42762.got - 2010.06.28 07:06:18.
