data_PCOD8142709
_publ_section_title
;
Structure prediction by ZEFSAII (Michael W. Deem and Ramdas Pophale) SiO2 
 PCOD8142709
Probable space group: C 2/C
;
_chemical_formula_sum "Si O2"
_cell_formula_units_Z 44
_cell_length_a 30.545722
_cell_length_b 13.078259
_cell_length_c 5.165398
_cell_angle_alpha 90.000000
_cell_angle_beta 99.466229
_cell_angle_gamma 90.000000
_cell_volume 2035.399064
_symmetry_space_group_name_H-M "C 2/C"
_symmetry_group_IT_number 15
_symmetry_cell_setting 'monoclinic'
loop_
_space_group_symop_operation_xyz
x,y,z
-x,y,1/2-z
-x,-y,-z
x,-y,1/2+z
1/2+x,1/2+y,z
1/2-x,1/2+y,1/2-z
1/2-x,1/2-y,-z
1/2+x,1/2-y,1/2+z
loop_
_atom_site_type_symbol
_atom_site_label
_atom_site_fract_x
_atom_site_fract_y
_atom_site_fract_z
Si Si1 0.821597 0.433906 0.061475
Si Si2 0.358765 0.715280 0.091810
Si Si3 0.000000 0.070523 0.750000
Si Si4 0.086381 0.791326 0.353287
Si Si5 0.219437 0.934109 0.961201
Si Si6 0.052157 0.564037 0.297411
O O1 0.833126 0.498097 0.325874
O O2 0.853221 0.336656 0.089452
O O3 0.770436 0.398545 0.008821
O O4 0.390076 0.679641 0.355980
O O5 0.381208 0.678096 0.848883
O O6 0.310310 0.666624 0.072140
O O7 0.042264 0.143314 0.786946
O O8 0.000000 0.000000 0.500000
O O9 0.076733 0.671350 0.332680
O O10 0.207894 0.998658 0.202245
O O11 0.066795 0.494760 0.553093
O O12 0.000000 0.585567 0.250000
#
# Coordination Sequence:
#
# PCOD8142709 Si02
#       6
#     8   8   4   8   8   8
#     4  10  22  41  64  94 132 172 205 248 313 382
#     4  12  25  39  66  96 129 164 208 269 312 369
#     4  12  28  50  70  88 124 172 216 266 318 368
#     4  12  26  43  64  96 127 162 215 264 315 377
#     4  10  22  41  64  90 127 169 215 259 307 373
#     4  10  21  39  64  88 119 158 196 249 312 378
#
# _framework density 21.617384000000001
#
# number of rings (size 3 to 8) (size 9 to 14) (size 15 to 20)
#    0.000    1.091    0.909    4.909    0.000    8.727 
#    0.000    7.273    0.000    0.000    0.000    0.000 
#    0.000    0.000    0.000    0.000    0.000    0.000 
#
# Total GULP energy -272960.012928 kJ/mol
# GULP energy per Si atom -12407.273315 kJ/mol
# Density = 2.156818 g / cm^3
# Si number density = 21.617384 Si / 1000 Ang^3
#
#
#
# Elastic Constant Matrix: (Units=GPa)
#
#
# Indices 1 2 3 4 5 6 
#
# 1 79.8527 31.7264 16.4663 0.0000 5.6069 0.0000
# 2 31.7264 69.4995 33.4853 0.0000 5.1942 0.0000
# 3 16.4663 33.4853 159.4742 0.0000 0.6066 0.0000
# 4 0.0000 0.0000 0.0000 -26.3804 0.0000 15.5399
# 5 5.6069 5.1942 0.6066 0.0000 32.4718 0.0000
# 6 0.0000 0.0000 0.0000 15.5399 0.0000 33.2805
#
#
#
# Elastic Compliance Matrix: (Units=1/GPa)
#
#
# Indices 1 2 3 4 5 6 
#
# 1 0.015377 -0.006832 -0.000147 0.000000 -0.001560 0.000000
# 2 -0.006832 0.019249 -0.003329 0.000000 -0.001837 0.000000
# 3 -0.000147 -0.003329 0.006983 0.000000 0.000428 0.000000
# 4 0.000000 0.000000 0.000000 -0.029730 0.000000 0.013882
# 5 -0.001560 -0.001837 0.000428 0.000000 0.031351 0.000000
# 6 0.000000 0.000000 0.000000 0.013882 0.000000 0.023566
#
#
# Mechanical properties :
#
#
# Convention : Reuss Voigt Hill
#
# Bulk Modulus (GPa) = 47.63732 52.46470 50.05101
# Shear Modulus (GPa) = 52.95948 23.01762 37.98855
#
# Velocity S-wave (km/s) = 4.95497 3.26663 4.19658
# Velocity P-wave (km/s) = 7.40406 6.20888 6.83265
#
# Compressibility (1/GPa) = 0.02099195
#
# Stress axis : x y z
#
# Youngs Moduli (GPa) = 65.03022 51.95100 143.19979
#
# Poissons Ratio (x) = 0.35494 0.02109
# Poissons Ratio (y) = 0.44430 0.47676
# Poissons Ratio (z) = 0.00958 0.17296
#
# Static dielectric constant tensor:
#      x y z
#    x 4.058210 0.000000 -0.148250 
#    y 0.000000 3.765150 0.000000 
#    z -0.148250 0.000000 4.459210 
# 
# 
# High freq. dielectric constant tensor:
#      x y z
#    x 1.867590 0.000000 0.000030 
#    y 0.000000 1.848870 0.000000 
#    z 0.000030 0.000000 1.867950 
# 
# From -- ./inp_files/18030.got.cif
#   From: 2010.06.25/outbox.cif.g09.slc.cpg/sg15_10_cif.got.tgz:18030.got - 2010.06.28 07:06:18.
