data_PCOD8142061
_publ_section_title
;
Structure prediction by ZEFSAII (Michael W. Deem and Ramdas Pophale) SiO2 
 PCOD8142061
Probable space group: C 2/C
;
_chemical_formula_sum "Si O2"
_cell_formula_units_Z 28
_cell_length_a 10.257481
_cell_length_b 24.838624
_cell_length_c 4.871611
_cell_angle_alpha 90.000000
_cell_angle_beta 95.873496
_cell_angle_gamma 90.000000
_cell_volume 1234.681436
_symmetry_space_group_name_H-M "C 2/C"
_symmetry_group_IT_number 15
_symmetry_cell_setting 'monoclinic'
loop_
_space_group_symop_operation_xyz
x,y,z
-x,y,1/2-z
-x,-y,-z
x,-y,1/2+z
1/2+x,1/2+y,z
1/2-x,1/2+y,1/2-z
1/2-x,1/2-y,-z
1/2+x,1/2-y,1/2+z
loop_
_atom_site_type_symbol
_atom_site_label
_atom_site_fract_x
_atom_site_fract_y
_atom_site_fract_z
Si Si1 0.500000 0.289785 0.750000
Si Si2 0.277424 0.647058 0.444275
Si Si3 0.368657 0.186231 0.587678
Si Si4 0.153970 0.033151 0.256714
O O1 0.577895 0.328034 0.559420
O O2 0.386690 0.251557 0.591571
O O3 0.248274 0.660638 0.755298
O O4 0.276907 0.584846 0.358887
O O5 0.161161 0.672966 0.234859
O O6 0.500000 0.159955 0.750000
O O7 0.000000 0.043134 0.250000
O O8 0.196923 0.017353 0.573219
#
# Coordination Sequence:
#
# PCOD8142061 Si02
#       4
#     4   8   8   8
#     4  10  24  38  62  96 118 166 192 256 288 374
#     4  12  21  42  62  90 124 160 196 252 302 352
#     4  10  25  37  61  87 130 160 203 235 293 363
#     4  10  21  38  61  91 118 149 198 254 306 350
#
# _framework density 22.677917000000001
#
# number of rings (size 3 to 8) (size 9 to 14) (size 15 to 20)
#    0.857    0.571    1.429    4.286    0.000    3.429 
#    0.000    0.000    0.000   17.143    0.000    0.000 
#    0.000    0.000    0.000    0.000    0.000    0.000 
#
# Total GULP energy -173453.159692 kJ/mol
# GULP energy per Si atom -12389.511407 kJ/mol
# Density = 2.262630 g / cm^3
# Si number density = 22.677917 Si / 1000 Ang^3
#
#
#
# Elastic Constant Matrix: (Units=GPa)
#
#
# Indices 1 2 3 4 5 6 
#
# 1 60.7972 12.8650 -7.4349 0.0000 -13.3140 0.0000
# 2 12.8650 102.1916 -5.4753 0.0000 -7.0181 0.0000
# 3 -7.4349 -5.4753 65.0916 0.0000 -2.9229 0.0000
# 4 0.0000 0.0000 0.0000 16.8446 0.0000 -4.1281
# 5 -13.3140 -7.0181 -2.9229 0.0000 21.8554 0.0000
# 6 0.0000 0.0000 0.0000 -4.1281 0.0000 18.5821
#
#
#
# Elastic Compliance Matrix: (Units=1/GPa)
#
#
# Indices 1 2 3 4 5 6 
#
# 1 0.019693 -0.001522 0.002654 0.000000 0.011862 0.000000
# 2 -0.001522 0.010188 0.000793 0.000000 0.002450 0.000000
# 3 0.002654 0.000793 0.015912 0.000000 0.004000 0.000000
# 4 0.000000 0.000000 0.000000 0.062784 0.000000 0.013948
# 5 0.011862 0.002450 0.004000 0.000000 0.054303 0.000000
# 6 0.000000 0.000000 0.000000 0.013948 0.000000 0.056914
#
#
# Mechanical properties :
#
#
# Convention : Reuss Voigt Hill
#
# Bulk Modulus (GPa) = 20.14401 25.33223 22.73812
# Shear Modulus (GPa) = 21.50609 26.66479 24.08544
#
# Velocity S-wave (km/s) = 3.08283 3.43272 3.26247
# Velocity P-wave (km/s) = 4.64476 5.18711 4.92341
#
# Compressibility (1/GPa) = 0.04964254
#
# Stress axis : x y z
#
# Youngs Moduli (GPa) = 50.78059 98.15519 62.84403
#
# Poissons Ratio (x) = 0.14942 -0.16679
# Poissons Ratio (y) = 0.07730 -0.04984
# Poissons Ratio (z) = -0.13477 -0.07785
#
# Static dielectric constant tensor:
#      x y z
#    x 3.837730 0.000000 -0.116030 
#    y 0.000000 3.900720 0.000000 
#    z -0.116030 0.000000 3.900210 
# 
# 
# High freq. dielectric constant tensor:
#      x y z
#    x 1.880080 0.000000 -0.008610 
#    y 0.000000 1.884910 0.000000 
#    z -0.008610 0.000000 1.895380 
# 
# From -- ./inp_files/3889.got.cif
#   From: 2010.06.25/outbox.cif.g09.slc.cpg/sg15_2_cif.got.tgz:3889.got - 2010.06.28 07:06:18.
