data_PCOD8142473
_publ_section_title
;
Structure prediction by ZEFSAII (Michael W. Deem and Ramdas Pophale) SiO2 
 PCOD8142473
Probable space group: C 2/C
;
_chemical_formula_sum "Si O2"
_cell_formula_units_Z 40
_cell_length_a 25.316695
_cell_length_b 4.982646
_cell_length_c 15.782000
_cell_angle_alpha 90.000000
_cell_angle_beta 108.349234
_cell_angle_gamma 90.000000
_cell_volume 1889.584708
_symmetry_space_group_name_H-M "C 2/C"
_symmetry_group_IT_number 15
_symmetry_cell_setting 'monoclinic'
loop_
_space_group_symop_operation_xyz
x,y,z
-x,y,1/2-z
-x,-y,-z
x,-y,1/2+z
1/2+x,1/2+y,z
1/2-x,1/2+y,1/2-z
1/2-x,1/2-y,-z
1/2+x,1/2-y,1/2+z
loop_
_atom_site_type_symbol
_atom_site_label
_atom_site_fract_x
_atom_site_fract_y
_atom_site_fract_z
Si Si1 0.626618 0.937672 0.614518
Si Si2 0.280357 0.345116 0.431772
Si Si3 0.564335 0.552606 0.020028
Si Si4 0.636104 0.583578 0.910778
Si Si5 0.164653 0.578560 0.818686
O O1 0.685460 0.897765 0.595103
O O2 0.596607 0.649724 0.598797
O O3 0.584192 0.145682 0.550480
O O4 0.637817 0.032499 0.714879
O O5 0.250000 0.250000 0.500000
O O6 0.322119 0.576172 0.486102
O O7 0.231959 0.459911 0.345570
O O8 0.500000 0.500000 0.000000
O O9 0.577065 0.511843 0.925396
O O10 0.650699 0.377797 0.843209
O O11 0.637530 0.879646 0.873406
#
# Coordination Sequence:
#
# PCOD8142473 Si02
#       5
#     8   8   8   8   8
#     4  11  24  39  61  94 122 154 207 256 302 364
#     4   9  20  36  59  86 121 162 192 228 294 367
#     4  11  23  44  65  84 115 163 211 258 306 362
#     4  10  21  39  60  86 120 163 205 239 295 374
#     4  11  22  38  59  92 128 156 192 253 305 359
#
# _framework density 21.168673999999999
#
# number of rings (size 3 to 8) (size 9 to 14) (size 15 to 20)
#    0.000    1.600    0.000    6.000    0.000   11.200 
#    0.000    6.000    0.000    0.000    0.000    0.000 
#    0.000    0.000    0.000    0.000    0.000    0.000 
#
# Total GULP energy -247881.814728 kJ/mol
# GULP energy per Si atom -12394.090736 kJ/mol
# Density = 2.112049 g / cm^3
# Si number density = 21.168674 Si / 1000 Ang^3
#
#
#
# Elastic Constant Matrix: (Units=GPa)
#
#
# Indices 1 2 3 4 5 6 
#
# 1 156.6667 24.4685 40.7498 0.0000 -2.7720 0.0000
# 2 24.4685 76.8353 15.4950 0.0000 2.5495 0.0000
# 3 40.7498 15.4950 94.5751 0.0000 -2.0987 0.0000
# 4 0.0000 0.0000 0.0000 32.3291 0.0000 -4.6265
# 5 -2.7720 2.5495 -2.0987 0.0000 15.7181 0.0000
# 6 0.0000 0.0000 0.0000 -4.6265 0.0000 28.3805
#
#
#
# Elastic Compliance Matrix: (Units=1/GPa)
#
#
# Indices 1 2 3 4 5 6 
#
# 1 0.007439 -0.001829 -0.002878 0.000000 0.001224 0.000000
# 2 -0.001829 0.014007 -0.001569 0.000000 -0.002804 0.000000
# 3 -0.002878 -0.001569 0.012101 0.000000 0.001363 0.000000
# 4 0.000000 0.000000 0.000000 0.031671 0.000000 0.005163
# 5 0.001224 -0.002804 0.001363 0.000000 0.064474 0.000000
# 6 0.000000 0.000000 0.000000 0.005163 0.000000 0.036077
#
#
# Mechanical properties :
#
#
# Convention : Reuss Voigt Hill
#
# Bulk Modulus (GPa) = 47.63280 54.38929 51.01105
# Shear Modulus (GPa) = 26.98043 31.77645 29.37844
#
# Velocity S-wave (km/s) = 3.57395 3.87862 3.72940
# Velocity P-wave (km/s) = 6.29136 6.76811 6.53408
#
# Compressibility (1/GPa) = 0.02099394
#
# Stress axis : x y z
#
# Youngs Moduli (GPa) = 134.42655 71.39398 82.63692
#
# Poissons Ratio (x) = 0.13059 0.23786
# Poissons Ratio (y) = 0.24588 0.12965
# Poissons Ratio (z) = 0.38693 0.11201
#
# Static dielectric constant tensor:
#      x y z
#    x 4.422950 0.000000 0.113600 
#    y 0.000000 3.959800 0.000000 
#    z 0.113600 0.000000 3.792020 
# 
# 
# High freq. dielectric constant tensor:
#      x y z
#    x 1.826600 0.000000 -0.013490 
#    y 0.000000 1.836130 0.000000 
#    z -0.013490 0.000000 1.816300 
# 
# From -- ./inp_files/170603.got.cif
#   From: 2010.06.25/outbox.cif.g09.slc.cpg/sg15_86_cif.got.tgz:170603.got - 2010.06.28 07:06:18.
