data_PCOD8142969
_publ_section_title
;
Structure prediction by ZEFSAII (Michael W. Deem and Ramdas Pophale) SiO2 
 PCOD8142969
Probable space group: C 2/C
;
_chemical_formula_sum "Si O2"
_cell_formula_units_Z 56
_cell_length_a 17.054885
_cell_length_b 18.381498
_cell_length_c 9.129222
_cell_angle_alpha 90.000000
_cell_angle_beta 68.427918
_cell_angle_gamma 90.000000
_cell_volume 2661.495573
_symmetry_space_group_name_H-M "C 2/C"
_symmetry_group_IT_number 15
_symmetry_cell_setting 'monoclinic'
loop_
_space_group_symop_operation_xyz
x,y,z
-x,y,1/2-z
-x,-y,-z
x,-y,1/2+z
1/2+x,1/2+y,z
1/2-x,1/2+y,1/2-z
1/2-x,1/2-y,-z
1/2+x,1/2-y,1/2+z
loop_
_atom_site_type_symbol
_atom_site_label
_atom_site_fract_x
_atom_site_fract_y
_atom_site_fract_z
Si Si1 0.073401 0.801816 0.393229
Si Si2 0.232773 0.171390 0.948098
Si Si3 0.024513 0.346907 0.068449
Si Si4 0.817284 0.440931 0.580410
Si Si5 0.847673 0.677986 0.595497
Si Si6 0.266408 0.920545 0.937573
Si Si7 0.610485 0.670257 0.538470
O O1 0.137661 0.842187 0.458017
O O2 0.069026 0.719315 0.453635
O O3 0.110975 0.800259 0.204201
O O4 0.984740 0.845169 0.452621
O O5 0.295390 0.153882 0.772460
O O6 0.250000 0.250000 0.000000
O O7 0.248860 0.115355 0.066878
O O8 0.000000 0.323406 0.250000
O O9 0.937965 0.363172 0.041917
O O10 0.087062 0.416500 0.026289
O O11 0.810358 0.444621 0.759020
O O12 0.789993 0.519198 0.540650
O O13 0.804387 0.654452 0.473507
O O14 0.854358 0.765447 0.589138
O O15 0.166178 0.903478 0.985178
#
# Coordination Sequence:
#
# PCOD8142969 Si02
#       7
#     8   8   8   8   8   8   8
#     4  10  21  39  70 102 132 164 221 281 343 384
#     4  12  21  39  68 100 131 175 219 279 337 397
#     4  11  22  41  64 103 139 168 220 277 340 399
#     4  12  27  43  65  94 135 181 221 278 327 409
#     4  11  22  39  69  95 134 172 221 279 333 400
#     4  12  26  45  65  94 133 181 232 264 339 401
#     4  10  22  40  70 101 131 169 221 285 334 398
#
# _framework density 21.040800999999998
#
# number of rings (size 3 to 8) (size 9 to 14) (size 15 to 20)
#    0.000    0.857    4.286    3.000    0.000    3.429 
#    0.000    0.714    0.000    0.000    0.000    0.000 
#    0.000    0.000    0.000    0.000    0.000    0.000 
#
# Total GULP energy -347203.990593 kJ/mol
# GULP energy per Si atom -12400.142521 kJ/mol
# Density = 2.099291 g / cm^3
# Si number density = 21.040801 Si / 1000 Ang^3
#
#
#
# Elastic Constant Matrix: (Units=GPa)
#
#
# Indices 1 2 3 4 5 6 
#
# 1 153.1058 40.4319 20.0161 0.0000 -2.1333 0.0000
# 2 40.4319 68.2749 23.7257 0.0000 -8.5553 0.0000
# 3 20.0161 23.7257 106.2577 0.0000 3.6835 0.0000
# 4 0.0000 0.0000 0.0000 26.4964 0.0000 6.8467
# 5 -2.1333 -8.5553 3.6835 0.0000 28.5345 0.0000
# 6 0.0000 0.0000 0.0000 6.8467 0.0000 40.7077
#
#
#
# Elastic Compliance Matrix: (Units=1/GPa)
#
#
# Indices 1 2 3 4 5 6 
#
# 1 0.007778 -0.004550 -0.000424 0.000000 -0.000728 0.000000
# 2 -0.004550 0.019361 -0.003672 0.000000 0.005939 0.000000
# 3 -0.000424 -0.003672 0.010397 0.000000 -0.002475 0.000000
# 4 0.000000 0.000000 0.000000 0.039456 0.000000 -0.006636
# 5 -0.000728 0.005939 -0.002475 0.000000 0.037091 0.000000
# 6 0.000000 0.000000 0.000000 -0.006636 0.000000 0.025681
#
#
# Mechanical properties :
#
#
# Convention : Reuss Voigt Hill
#
# Bulk Modulus (GPa) = 49.39660 55.10953 52.25306
# Shear Modulus (GPa) = 30.52422 35.37872 32.95147
#
# Velocity S-wave (km/s) = 3.81296 4.10498 3.96166
# Velocity P-wave (km/s) = 6.55076 6.97971 6.76863
#
# Compressibility (1/GPa) = 0.02024431
#
# Stress axis : x y z
#
# Youngs Moduli (GPa) = 128.56264 51.64931 96.18521
#
# Poissons Ratio (x) = 0.23501 0.04078
# Poissons Ratio (y) = 0.58498 0.35318
# Poissons Ratio (z) = 0.05451 0.18965
#
# Static dielectric constant tensor:
#      x y z
#    x 4.366680 0.000000 0.165880 
#    y 0.000000 3.609770 0.000000 
#    z 0.165880 0.000000 3.868510 
# 
# 
# High freq. dielectric constant tensor:
#      x y z
#    x 1.846680 0.000000 0.009500 
#    y 0.000000 1.788820 0.000000 
#    z 0.009500 0.000000 1.830460 
# 
# From -- ./inp_files/48998.got.cif
#   From: 2010.06.25/outbox.cif.g09.slc.cpg/sg15_25_cif.got.tgz:48998.got - 2010.06.28 07:06:18.
