data_PCOD8142794
_publ_section_title
;
Structure prediction by ZEFSAII (Michael W. Deem and Ramdas Pophale) SiO2 
 PCOD8142794
Probable space group: C 2/C
;
_chemical_formula_sum "Si O2"
_cell_formula_units_Z 40
_cell_length_a 24.105722
_cell_length_b 14.082339
_cell_length_c 5.135191
_cell_angle_alpha 90.000000
_cell_angle_beta 82.546347
_cell_angle_gamma 90.000000
_cell_volume 1728.487375
_symmetry_space_group_name_H-M "C 2/C"
_symmetry_group_IT_number 15
_symmetry_cell_setting 'monoclinic'
loop_
_space_group_symop_operation_xyz
x,y,z
-x,y,1/2-z
-x,-y,-z
x,-y,1/2+z
1/2+x,1/2+y,z
1/2-x,1/2+y,1/2-z
1/2-x,1/2-y,-z
1/2+x,1/2-y,1/2+z
loop_
_atom_site_type_symbol
_atom_site_label
_atom_site_fract_x
_atom_site_fract_y
_atom_site_fract_z
Si Si1 0.150778 0.284026 0.311739
Si Si2 0.065283 0.440537 0.212587
Si Si3 0.524956 0.605709 0.983633
Si Si4 0.740580 0.940348 0.293469
Si Si5 0.647237 0.338803 0.320880
O O1 0.097879 0.343626 0.243348
O O2 0.203811 0.346983 0.357781
O O3 0.133689 0.226368 0.579978
O O4 0.169047 0.217696 0.060409
O O5 0.082358 0.516481 0.423320
O O6 0.000000 0.416088 0.250000
O O7 0.500000 0.661153 0.750000
O O8 0.591847 0.603717 0.937813
O O9 0.500000 0.660155 0.250000
O O10 0.500000 0.500000 0.000000
O O11 0.805674 0.914689 0.283922
O O12 0.725317 0.016329 0.523551
#
# Coordination Sequence:
#
# PCOD8142794 Si02
#       5
#     8   8   8   8   8
#     4  12  24  44  66 101 138 172 226 287 350 395
#     4  10  21  39  65  93 128 172 219 269 337 412
#     4  10  23  41  66  92 133 173 228 269 325 398
#     4  12  26  44  72  96 134 179 236 276 347 412
#     4  12  26  42  69  98 138 179 223 290 338 403
#
# _framework density 23.141621000000001
#
# number of rings (size 3 to 8) (size 9 to 14) (size 15 to 20)
#    0.000    0.800    0.000    7.200    5.600    2.400 
#    0.000    0.000    0.000    0.000    0.000    0.000 
#    0.000    0.000    0.000    0.000    0.000    0.000 
#
# Total GULP energy -248088.835372 kJ/mol
# GULP energy per Si atom -12404.441769 kJ/mol
# Density = 2.308895 g / cm^3
# Si number density = 23.141621 Si / 1000 Ang^3
#
#
#
# Elastic Constant Matrix: (Units=GPa)
#
#
# Indices 1 2 3 4 5 6 
#
# 1 106.4173 24.3395 38.5704 0.0000 2.3605 0.0000
# 2 24.3395 67.8009 30.7132 0.0000 -0.8218 0.0000
# 3 38.5704 30.7132 158.6787 0.0000 13.1496 0.0000
# 4 0.0000 0.0000 0.0000 24.7529 0.0000 -2.3971
# 5 2.3605 -0.8218 13.1496 0.0000 34.9224 0.0000
# 6 0.0000 0.0000 0.0000 -2.3971 0.0000 27.7658
#
#
#
# Elastic Compliance Matrix: (Units=1/GPa)
#
#
# Indices 1 2 3 4 5 6 
#
# 1 0.010818 -0.002953 -0.002056 0.000000 -0.000027 0.000000
# 2 -0.002953 0.017060 -0.002719 0.000000 0.001625 0.000000
# 3 -0.002056 -0.002719 0.007558 0.000000 -0.002771 0.000000
# 4 0.000000 0.000000 0.000000 0.040740 0.000000 0.003517
# 5 -0.000027 0.001625 -0.002771 0.000000 0.029718 0.000000
# 6 0.000000 0.000000 0.000000 0.003517 0.000000 0.036319
#
#
# Mechanical properties :
#
#
# Convention : Reuss Voigt Hill
#
# Bulk Modulus (GPa) = 50.04745 57.79370 53.92058
# Shear Modulus (GPa) = 30.42681 33.43981 31.93331
#
# Velocity S-wave (km/s) = 3.62996 3.80545 3.71874
# Velocity P-wave (km/s) = 6.26437 6.65858 6.46448
#
# Compressibility (1/GPa) = 0.01998104
#
# Stress axis : x y z
#
# Youngs Moduli (GPa) = 92.43860 58.61528 132.31566
#
# Poissons Ratio (x) = 0.17306 0.27202
# Poissons Ratio (y) = 0.27293 0.35978
# Poissons Ratio (z) = 0.19004 0.15938
#
# Static dielectric constant tensor:
#      x y z
#    x 4.035180 0.000000 -0.360800 
#    y 0.000000 3.840810 0.000000 
#    z -0.360800 0.000000 2.904000 
# 
# 
# High freq. dielectric constant tensor:
#      x y z
#    x 1.927630 0.000000 0.004630 
#    y 0.000000 1.897280 0.000000 
#    z 0.004630 0.000000 1.942780 
# 
# From -- ./inp_files/15085.got.cif
#   From: 2010.06.25/outbox.cif.g09.slc.cpg/sg15_8_cif.got.tgz:15085.got - 2010.06.28 07:06:18.
