data_PCOD8142142
_publ_section_title
;
Structure prediction by ZEFSAII (Michael W. Deem and Ramdas Pophale) SiO2 
 PCOD8142142
Probable space group: C 2/C
;
_chemical_formula_sum "Si O2"
_cell_formula_units_Z 56
_cell_length_a 22.784246
_cell_length_b 11.029454
_cell_length_c 16.764288
_cell_angle_alpha 90.000000
_cell_angle_beta 38.657605
_cell_angle_gamma 90.000000
_cell_volume 2631.606646
_symmetry_space_group_name_H-M "C 2/C"
_symmetry_group_IT_number 15
_symmetry_cell_setting 'monoclinic'
loop_
_space_group_symop_operation_xyz
x,y,z
-x,y,1/2-z
-x,-y,-z
x,-y,1/2+z
1/2+x,1/2+y,z
1/2-x,1/2+y,1/2-z
1/2-x,1/2-y,-z
1/2+x,1/2-y,1/2+z
loop_
_atom_site_type_symbol
_atom_site_label
_atom_site_fract_x
_atom_site_fract_y
_atom_site_fract_z
Si Si1 0.902727 0.221602 0.025518
Si Si2 0.753871 0.962128 0.695408
Si Si3 0.325096 0.157608 0.453215
Si Si4 0.419370 0.153251 0.191530
Si Si5 0.501809 0.079534 0.656013
Si Si6 0.830915 0.700408 0.771307
Si Si7 0.711420 0.926857 0.917166
O O1 0.859355 0.086147 0.061249
O O2 0.857987 0.273915 0.152316
O O3 0.873693 0.305331 0.983114
O O4 0.017425 0.231665 0.906231
O O5 0.678973 0.854546 0.752278
O O6 0.746010 0.988256 0.797875
O O7 0.733643 0.079300 0.662340
O O8 0.250000 0.250000 0.500000
O O9 0.403932 0.156000 0.302481
O O10 0.280126 0.024833 0.519623
O O11 0.478089 0.028773 0.118692
O O12 0.500000 0.038801 0.750000
O O13 0.424506 0.184405 0.724935
O O14 0.605332 0.123662 0.521602
O O15 0.775304 0.811083 0.870584
#
# Coordination Sequence:
#
# PCOD8142142 Si02
#       7
#     8   8   8   8   8   8   8
#     4  11  20  37  62  91 123 161 209 262 314 363
#     4  10  21  38  62  93 126 162 211 260 314 378
#     4  12  22  38  61  94 127 160 209 263 317 364
#     4  11  20  36  63  93 120 163 215 265 305 366
#     4  11  20  37  60  89 119 164 217 259 304 372
#     4  10  23  39  62  93 124 168 211 254 317 382
#     4  11  22  40  63  90 130 164 208 264 312 370
#
# _framework density 21.279776999999999
#
# number of rings (size 3 to 8) (size 9 to 14) (size 15 to 20)
#    0.000    1.143    5.714    1.286    0.000    2.857 
#    0.000    1.429    0.000    5.143    0.000    0.000 
#    0.000    0.000    0.000    0.000    0.000    0.000 
#
# Total GULP energy -347034.140942 kJ/mol
# GULP energy per Si atom -12394.076462 kJ/mol
# Density = 2.123134 g / cm^3
# Si number density = 21.279777 Si / 1000 Ang^3
#
#
#
# Elastic Constant Matrix: (Units=GPa)
#
#
# Indices 1 2 3 4 5 6 
#
# 1 54.5291 25.2812 7.7269 0.0000 -13.5462 0.0000
# 2 25.2812 101.2908 48.1270 0.0000 -22.5729 0.0000
# 3 7.7269 48.1270 100.8417 0.0000 -9.3144 0.0000
# 4 0.0000 0.0000 0.0000 31.3915 0.0000 -5.5766
# 5 -13.5462 -22.5729 -9.3144 0.0000 32.4125 0.0000
# 6 0.0000 0.0000 0.0000 -5.5766 0.0000 33.3849
#
#
#
# Elastic Compliance Matrix: (Units=1/GPa)
#
#
# Indices 1 2 3 4 5 6 
#
# 1 0.021863 -0.004578 0.001088 0.000000 0.006261 0.000000
# 2 -0.004578 0.015685 -0.006474 0.000000 0.007149 0.000000
# 3 0.001088 -0.006474 0.012891 0.000000 -0.000350 0.000000
# 4 0.000000 0.000000 0.000000 0.032830 0.000000 0.005484
# 5 0.006261 0.007149 -0.000350 0.000000 0.038348 0.000000
# 6 0.000000 0.000000 0.000000 0.005484 0.000000 0.030870
#
#
# Mechanical properties :
#
#
# Convention : Reuss Voigt Hill
#
# Bulk Modulus (GPa) = 32.77725 46.54800 39.66262
# Shear Modulus (GPa) = 27.38457 31.13954 29.26206
#
# Velocity S-wave (km/s) = 3.59121 3.82951 3.71227
# Velocity P-wave (km/s) = 5.71245 6.44013 6.08718
#
# Compressibility (1/GPa) = 0.03050897
#
# Stress axis : x y z
#
# Youngs Moduli (GPa) = 45.73989 63.75603 77.57474
#
# Poissons Ratio (x) = 0.29190 -0.08442
# Poissons Ratio (y) = 0.20942 0.50225
# Poissons Ratio (z) = -0.04977 0.41279
#
# Static dielectric constant tensor:
#      x y z
#    x 4.025580 0.000000 -0.132580 
#    y 0.000000 3.911520 0.000000 
#    z -0.132580 0.000000 4.347970 
# 
# 
# High freq. dielectric constant tensor:
#      x y z
#    x 1.836280 0.000000 0.004590 
#    y 0.000000 1.804450 0.000000 
#    z 0.004590 0.000000 1.836700 
# 
# From -- ./inp_files/219069.got.cif
#   From: 2010.06.25/outbox.cif.g09.slc.cpg/sg15_110_cif.got.tgz:219069.got - 2010.06.28 07:06:18.
