data_PCOD8142648
_publ_section_title
;
Structure prediction by ZEFSAII (Michael W. Deem and Ramdas Pophale) SiO2 
 PCOD8142648
Probable space group: C 2/C
;
_chemical_formula_sum "Si O2"
_cell_formula_units_Z 40
_cell_length_a 9.196095
_cell_length_b 8.419312
_cell_length_c 23.125833
_cell_angle_alpha 90.000000
_cell_angle_beta 94.873827
_cell_angle_gamma 90.000000
_cell_volume 1784.038716
_symmetry_space_group_name_H-M "C 2/C"
_symmetry_group_IT_number 15
_symmetry_cell_setting 'monoclinic'
loop_
_space_group_symop_operation_xyz
x,y,z
-x,y,1/2-z
-x,-y,-z
x,-y,1/2+z
1/2+x,1/2+y,z
1/2-x,1/2+y,1/2-z
1/2-x,1/2-y,-z
1/2+x,1/2-y,1/2+z
loop_
_atom_site_type_symbol
_atom_site_label
_atom_site_fract_x
_atom_site_fract_y
_atom_site_fract_z
Si Si1 0.563200 0.479034 0.917013
Si Si2 0.742093 0.658327 0.326960
Si Si3 0.843055 0.487176 0.221580
Si Si4 0.550900 0.155808 0.382073
Si Si5 0.224087 0.080076 0.026108
O O1 0.602755 0.376786 0.862055
O O2 0.564542 0.662347 0.899989
O O3 0.406847 0.415762 0.931764
O O4 0.680869 0.455751 0.973871
O O5 0.740224 0.554158 0.268769
O O6 0.881944 0.610845 0.370362
O O7 0.743719 0.843361 0.310924
O O8 0.868670 0.628567 0.176537
O O9 0.000000 0.426288 0.250000
O O10 0.626991 0.040844 0.433191
O O11 0.250000 0.250000 0.000000
#
# Coordination Sequence:
#
# PCOD8142648 Si02
#       5
#     8   8   8   8   8
#     4  10  21  39  63  89 120 161 199 243 300 354
#     4  11  23  39  63  89 117 158 202 245 299 357
#     4  10  23  39  58  90 122 153 197 249 300 355
#     4  10  21  40  61  87 123 156 197 247 296 356
#     4   9  20  39  61  88 123 158 198 247 298 354
#
# _framework density 22.421037999999999
#
# number of rings (size 3 to 8) (size 9 to 14) (size 15 to 20)
#    0.000    2.000    0.000    2.400    0.000   10.400 
#    0.000   14.000    0.000    0.000    0.000    0.000 
#    0.000    0.000    0.000    0.000    0.000    0.000 
#
# Total GULP energy -247914.129855 kJ/mol
# GULP energy per Si atom -12395.706493 kJ/mol
# Density = 2.237001 g / cm^3
# Si number density = 22.421038 Si / 1000 Ang^3
#
#
#
# Elastic Constant Matrix: (Units=GPa)
#
#
# Indices 1 2 3 4 5 6 
#
# 1 73.4863 33.6952 38.5461 0.0000 -18.2016 0.0000
# 2 33.6952 74.1302 28.1738 0.0000 -17.9764 0.0000
# 3 38.5461 28.1738 90.8889 0.0000 -19.4363 0.0000
# 4 0.0000 0.0000 0.0000 33.9507 0.0000 -4.3121
# 5 -18.2016 -17.9764 -19.4363 0.0000 55.0187 0.0000
# 6 0.0000 0.0000 0.0000 -4.3121 0.0000 30.3051
#
#
#
# Elastic Compliance Matrix: (Units=1/GPa)
#
#
# Indices 1 2 3 4 5 6 
#
# 1 0.020337 -0.006306 -0.006136 0.000000 0.002500 0.000000
# 2 -0.006306 0.017933 -0.002247 0.000000 0.002979 0.000000
# 3 -0.006136 -0.002247 0.014830 0.000000 0.002475 0.000000
# 4 0.000000 0.000000 0.000000 0.029997 0.000000 0.004268
# 5 0.002500 0.002979 0.002475 0.000000 0.020850 0.000000
# 6 0.000000 0.000000 0.000000 0.004268 0.000000 0.033605
#
#
# Mechanical properties :
#
#
# Convention : Reuss Voigt Hill
#
# Bulk Modulus (GPa) = 42.15415 48.81507 45.48461
# Shear Modulus (GPa) = 28.59805 33.06092 30.82949
#
# Velocity S-wave (km/s) = 3.57529 3.84415 3.71216
# Velocity P-wave (km/s) = 5.99046 6.44380 6.22126
#
# Compressibility (1/GPa) = 0.02372246
#
# Stress axis : x y z
#
# Youngs Moduli (GPa) = 49.17162 55.76438 67.42869
#
# Poissons Ratio (x) = 0.35164 0.41372
# Poissons Ratio (y) = 0.31007 0.15154
# Poissons Ratio (z) = 0.30170 0.12532
#
# Static dielectric constant tensor:
#      x y z
#    x 4.136920 0.000000 0.271640 
#    y 0.000000 3.603170 0.000000 
#    z 0.271640 0.000000 4.733140 
# 
# 
# High freq. dielectric constant tensor:
#      x y z
#    x 1.877830 0.000000 0.003880 
#    y 0.000000 1.854590 0.000000 
#    z 0.003880 0.000000 1.911100 
# 
# From -- ./inp_files/262421.got.cif
#   From: 2010.06.25/outbox.cif.g09.slc.cpg/sg15_132_cif.got.tgz:262421.got - 2010.06.28 07:06:18.
