data_PCOD8142341
_publ_section_title
;
Structure prediction by ZEFSAII (Michael W. Deem and Ramdas Pophale) SiO2 
 PCOD8142341
Probable space group: C 2/C
;
_chemical_formula_sum "Si O2"
_cell_formula_units_Z 44
_cell_length_a 12.239752
_cell_length_b 20.845293
_cell_length_c 7.846652
_cell_angle_alpha 90.000000
_cell_angle_beta 64.613559
_cell_angle_gamma 90.000000
_cell_volume 1808.684342
_symmetry_space_group_name_H-M "C 2/C"
_symmetry_group_IT_number 15
_symmetry_cell_setting 'monoclinic'
loop_
_space_group_symop_operation_xyz
x,y,z
-x,y,1/2-z
-x,-y,-z
x,-y,1/2+z
1/2+x,1/2+y,z
1/2-x,1/2+y,1/2-z
1/2-x,1/2-y,-z
1/2+x,1/2-y,1/2+z
loop_
_atom_site_type_symbol
_atom_site_label
_atom_site_fract_x
_atom_site_fract_y
_atom_site_fract_z
Si Si1 0.180193 0.860658 0.717147
Si Si2 0.250114 0.524059 0.540636
Si Si3 0.942927 0.328530 0.609467
Si Si4 0.872687 0.075376 0.776831
Si Si5 0.945820 0.184435 0.530995
Si Si6 0.000000 0.583574 0.750000
O O1 0.218314 0.933872 0.649479
O O2 0.297732 0.826817 0.718456
O O3 0.140523 0.820281 0.576036
O O4 0.069179 0.858048 0.924632
O O5 0.347889 0.544727 0.610891
O O6 0.268425 0.448555 0.478971
O O7 0.114312 0.536643 0.694973
O O8 0.985700 0.256508 0.540476
O O9 0.000000 0.351756 0.750000
O O10 0.990569 0.373317 0.424864
O O11 0.878248 0.152676 0.741181
O O12 0.000000 0.046440 0.750000
#
# Coordination Sequence:
#
# PCOD8142341 Si02
#       6
#     8   8   8   8   8   4
#     4   9  21  39  63  94 135 180 220 271 344 403
#     4  10  24  42  66  94 133 180 222 277 342 400
#     4  11  23  42  68 101 134 178 230 276 338 407
#     4  11  24  39  64 100 133 170 224 278 340 406
#     4  10  21  38  66  99 136 176 220 283 341 398
#     4  10  24  50  68  94 140 182 230 278 336 398
#
# _framework density 24.327076000000002
#
# number of rings (size 3 to 8) (size 9 to 14) (size 15 to 20)
#    0.000    1.818    0.000    2.727    7.636    5.818 
#    3.273    0.000    0.000    0.000    0.000    0.000 
#    0.000    0.000    0.000    0.000    0.000    0.000 
#
# Total GULP energy -272754.850629 kJ/mol
# GULP energy per Si atom -12397.947756 kJ/mol
# Density = 2.427171 g / cm^3
# Si number density = 24.327076 Si / 1000 Ang^3
#
#
#
# Elastic Constant Matrix: (Units=GPa)
#
#
# Indices 1 2 3 4 5 6 
#
# 1 176.1421 44.6141 63.4390 0.0000 -9.4759 0.0000
# 2 44.6141 78.6123 34.0419 0.0000 -22.2138 0.0000
# 3 63.4390 34.0419 101.5763 0.0000 -4.4707 0.0000
# 4 0.0000 0.0000 0.0000 24.5835 0.0000 -16.0218
# 5 -9.4759 -22.2138 -4.4707 0.0000 31.9514 0.0000
# 6 0.0000 0.0000 0.0000 -16.0218 0.0000 9.8664
#
#
#
# Elastic Compliance Matrix: (Units=1/GPa)
#
#
# Indices 1 2 3 4 5 6 
#
# 1 0.007788 -0.002755 -0.003948 0.000000 -0.000158 0.000000
# 2 -0.002755 0.019600 -0.004311 0.000000 0.012207 0.000000
# 3 -0.003948 -0.004311 0.013656 0.000000 -0.002257 0.000000
# 4 0.000000 0.000000 0.000000 -0.697435 0.000000 -1.132546
# 5 -0.000158 0.012207 -0.002257 0.000000 0.039421 0.000000
# 6 0.000000 0.000000 0.000000 -1.132546 0.000000 -1.737756
#
#
# Mechanical properties :
#
#
# Convention : Reuss Voigt Hill
#
# Bulk Modulus (GPa) = 52.58484 71.16895 61.87689
# Shear Modulus (GPa) = -2.14928 27.56265 12.70668
#
# Velocity S-wave (km/s) = -0.94096 3.36966 2.28793
# Velocity P-wave (km/s) = 4.52572 6.66769 5.69825
#
# Compressibility (1/GPa) = 0.01901689
#
# Stress axis : x y z
#
# Youngs Moduli (GPa) = 128.39576 51.01978 73.22926
#
# Poissons Ratio (x) = 0.14057 0.28910
# Poissons Ratio (y) = 0.35376 0.31567
# Poissons Ratio (z) = 0.50688 0.21993
#
# Static dielectric constant tensor:
#      x y z
#    x 4.513400 0.000000 0.143950 
#    y 0.000000 4.320100 0.000000 
#    z 0.143950 0.000000 4.365920 
# 
# 
# High freq. dielectric constant tensor:
#      x y z
#    x 1.977930 0.000000 0.016850 
#    y 0.000000 1.953180 0.000000 
#    z 0.016850 0.000000 1.965060 
# 
# From -- ./inp_files/30722.got.cif
#   From: 2010.06.25/outbox.cif.g09.slc.cpg/sg15_16_cif.got.tgz:30722.got - 2010.06.28 07:06:18.
