data_PCOD8142147
_publ_section_title
;
Structure prediction by ZEFSAII (Michael W. Deem and Ramdas Pophale) SiO2 
 PCOD8142147
Probable space group: C 2/C
;
_chemical_formula_sum "Si O2"
_cell_formula_units_Z 64
_cell_length_a 18.219384
_cell_length_b 8.556877
_cell_length_c 30.234510
_cell_angle_alpha 90.000000
_cell_angle_beta 38.550937
_cell_angle_gamma 90.000000
_cell_volume 2937.557840
_symmetry_space_group_name_H-M "C 2/C"
_symmetry_group_IT_number 15
_symmetry_cell_setting 'monoclinic'
loop_
_space_group_symop_operation_xyz
x,y,z
-x,y,1/2-z
-x,-y,-z
x,-y,1/2+z
1/2+x,1/2+y,z
1/2-x,1/2+y,1/2-z
1/2-x,1/2-y,-z
1/2+x,1/2-y,1/2+z
loop_
_atom_site_type_symbol
_atom_site_label
_atom_site_fract_x
_atom_site_fract_y
_atom_site_fract_z
Si Si1 0.476620 0.922624 0.406447
Si Si2 0.702089 0.226173 0.908482
Si Si3 0.791604 0.740417 0.694592
Si Si4 0.901780 0.947802 0.170103
Si Si5 0.540539 0.346444 0.455210
Si Si6 0.133047 0.898603 0.571621
Si Si7 0.702329 0.883184 0.554582
Si Si8 0.317221 0.893111 0.558837
O O1 0.617607 0.904818 0.339995
O O2 0.425035 0.754013 0.419986
O O3 0.430366 0.954639 0.477775
O O4 0.431360 0.060606 0.394761
O O5 0.710195 0.296450 0.855620
O O6 0.793313 0.321420 0.897071
O O7 0.729339 0.041470 0.891063
O O8 0.573955 0.238012 0.991349
O O9 0.663806 0.682217 0.769911
O O10 0.827931 0.891521 0.705536
O O11 0.917547 0.883900 0.113418
O O12 0.029949 0.976681 0.131798
O O13 0.500000 0.500000 0.500000
O O14 0.649359 0.256268 0.427277
O O15 0.208231 0.850289 0.578627
O O16 0.214571 0.967033 0.493776
O O17 0.750000 0.750000 0.500000
#
# Coordination Sequence:
#
# PCOD8142147 Si02
#       8
#     8   8   8   8   8   8   8   8
#     4  10  21  38  62  93 133 169 214 265 331 405
#     4  12  23  38  64 102 133 166 220 282 333 398
#     4  11  26  43  64  93 133 173 224 272 342 410
#     4  11  25  44  67  93 130 182 222 276 343 410
#     4  12  23  40  68  99 133 169 230 281 328 398
#     4  10  21  39  62  92 128 175 216 266 331 399
#     4  11  20  34  62  98 133 164 214 272 335 389
#     4  11  22  36  63 101 131 165 215 283 335 385
#
# _framework density 21.786805999999999
#
# number of rings (size 3 to 8) (size 9 to 14) (size 15 to 20)
#    0.000    1.000    6.250    2.625    3.500    1.000 
#    0.000    0.625    0.000    1.500    0.000    0.000 
#    0.000    0.000    0.000    0.000    0.000    0.000 
#
# Total GULP energy -396697.727617 kJ/mol
# GULP energy per Si atom -12396.803988 kJ/mol
# Density = 2.173722 g / cm^3
# Si number density = 21.786806 Si / 1000 Ang^3
#
#
#
# Elastic Constant Matrix: (Units=GPa)
#
#
# Indices 1 2 3 4 5 6 
#
# 1 100.8231 37.4332 30.2248 0.0042 1.6047 -0.0234
# 2 37.4332 70.2562 14.4917 0.0088 2.9655 -0.0153
# 3 30.2248 14.4917 85.0673 0.0019 -3.8963 0.0008
# 4 0.0042 0.0088 0.0019 34.4962 -0.0002 -4.4364
# 5 1.6047 2.9655 -3.8963 -0.0002 16.1439 0.0005
# 6 -0.0234 -0.0153 0.0008 -4.4364 0.0005 46.2677
#
#
#
# Elastic Compliance Matrix: (Units=1/GPa)
#
#
# Indices 1 2 3 4 5 6 
#
# 1 0.013403 -0.006326 -0.003734 0.000001 -0.001071 0.000005
# 2 -0.006326 0.017920 -0.000937 -0.000003 -0.002889 0.000002
# 3 -0.003734 -0.000937 0.013415 0.000000 0.003781 -0.000003
# 4 0.000001 -0.000003 0.000000 0.029351 0.000001 0.002814
# 5 -0.001071 -0.002889 0.003781 0.000001 0.063493 -0.000002
# 6 0.000005 0.000002 -0.000003 0.002814 -0.000002 0.021883
#
#
# Mechanical properties :
#
#
# Convention : Reuss Voigt Hill
#
# Bulk Modulus (GPa) = 43.96851 46.71625 45.34238
# Shear Modulus (GPa) = 26.44948 30.98136 28.71542
#
# Velocity S-wave (km/s) = 3.48805 3.77506 3.63439
# Velocity P-wave (km/s) = 6.03714 6.36321 6.20232
#
# Compressibility (1/GPa) = 0.02274355
#
# Stress axis : x y z
#
# Youngs Moduli (GPa) = 74.60768 55.80505 74.54423
#
# Poissons Ratio (x) = 0.35303 0.27833
# Poissons Ratio (y) = 0.47198 0.06987
# Poissons Ratio (z) = 0.27856 0.05231
#
# Static dielectric constant tensor:
#      x y z
#    x 4.208050 0.000080 -0.171040 
#    y 0.000080 4.422080 0.000060 
#    z -0.171040 0.000060 3.746160 
# 
# 
# High freq. dielectric constant tensor:
#      x y z
#    x 1.861540 0.000000 -0.009640 
#    y 0.000000 1.877370 0.000000 
#    z -0.009640 0.000000 1.807370 
# 
# From -- ./inp_files/315704.got.cif
#   From: 2010.06.25/outbox.cif.g09.slc.cpg/sg15_158_cif.got.tgz:315704.got - 2010.06.28 07:06:18.
