data_PCOD8142511
_publ_section_title
;
Structure prediction by ZEFSAII (Michael W. Deem and Ramdas Pophale) SiO2 
 PCOD8142511
Probable space group: C 2/C
;
_chemical_formula_sum "Si O2"
_cell_formula_units_Z 56
_cell_length_a 9.413577
_cell_length_b 16.318641
_cell_length_c 27.707213
_cell_angle_alpha 90.000000
_cell_angle_beta 140.062470
_cell_angle_gamma 90.000000
_cell_volume 2732.335785
_symmetry_space_group_name_H-M "C 2/C"
_symmetry_group_IT_number 15
_symmetry_cell_setting 'monoclinic'
loop_
_space_group_symop_operation_xyz
x,y,z
-x,y,1/2-z
-x,-y,-z
x,-y,1/2+z
1/2+x,1/2+y,z
1/2-x,1/2+y,1/2-z
1/2-x,1/2-y,-z
1/2+x,1/2-y,1/2+z
loop_
_atom_site_type_symbol
_atom_site_label
_atom_site_fract_x
_atom_site_fract_y
_atom_site_fract_z
Si Si1 0.703219 0.154983 0.479103
Si Si2 0.570136 0.633696 0.061393
Si Si3 0.793804 0.514351 0.668782
Si Si4 0.906201 0.401822 0.100180
Si Si5 0.281843 0.713695 0.664701
Si Si6 0.430697 0.584274 0.628320
Si Si7 0.908749 0.473289 0.924824
O O1 0.750000 0.250000 0.500000
O O2 0.771060 0.131415 0.443244
O O3 0.832378 0.095536 0.549067
O O4 0.446187 0.124512 0.422622
O O5 0.617576 0.552223 0.104483
O O6 0.632571 0.710541 0.110260
O O7 0.313683 0.640374 0.979453
O O8 0.865615 0.574754 0.644802
O O9 0.687202 0.568703 0.684368
O O10 0.000000 0.471872 0.750000
O O11 0.118280 0.341957 0.153981
O O12 0.958591 0.481970 0.083105
O O13 0.500000 0.742693 0.750000
O O14 0.375254 0.666683 0.642386
O O15 0.344137 0.505109 0.637163
O O16 0.000000 0.500000 0.000000
#
# Coordination Sequence:
#
# PCOD8142511 Si02
#       7
#     8   8   8   8   8   8   8
#     4  11  19  35  61  91 120 155 202 257 309 359
#     4  12  22  39  64  94 124 159 214 262 308 367
#     4  12  24  40  63  93 128 167 205 265 323 368
#     4  11  22  40  66  92 120 162 220 258 299 377
#     4  11  24  42  61  91 130 168 202 258 324 380
#     4  10  21  39  61  85 118 163 211 248 306 377
#     4   9  19  35  59  89 118 153 201 260 300 356
#
# _framework density 20.495284999999999
#
# number of rings (size 3 to 8) (size 9 to 14) (size 15 to 20)
#    0.000    1.143    4.286    3.857    0.000    0.000 
#    2.571    0.000    0.000    0.000    0.000    0.000 
#    0.000    0.000    0.000    0.000    0.000    0.000 
#
# Total GULP energy -346897.313969 kJ/mol
# GULP energy per Si atom -12389.189785 kJ/mol
# Density = 2.044864 g / cm^3
# Si number density = 20.495285 Si / 1000 Ang^3
#
#
#
# Elastic Constant Matrix: (Units=GPa)
#
#
# Indices 1 2 3 4 5 6 
#
# 1 123.7009 46.4826 21.5267 0.0000 4.7274 0.0000
# 2 46.4826 111.2878 22.4313 0.0000 4.4057 0.0000
# 3 21.5267 22.4313 91.1510 -0.0001 11.3346 0.0000
# 4 0.0000 0.0000 -0.0001 21.8849 -0.0001 1.0876
# 5 4.7274 4.4057 11.3346 -0.0001 18.1916 0.0000
# 6 0.0000 0.0000 0.0000 1.0876 0.0000 26.8351
#
#
#
# Elastic Compliance Matrix: (Units=1/GPa)
#
#
# Indices 1 2 3 4 5 6 
#
# 1 0.009760 -0.003788 -0.001270 0.000000 -0.000828 0.000000
# 2 -0.003788 0.010939 -0.001724 0.000000 -0.000591 0.000000
# 3 -0.001270 -0.001724 0.012576 0.000000 -0.007088 0.000000
# 4 0.000000 0.000000 0.000000 0.045786 0.000000 -0.001856
# 5 -0.000828 -0.000591 -0.007088 0.000000 0.059745 0.000000
# 6 0.000000 0.000000 0.000000 -0.001856 0.000000 0.037340
#
#
# Mechanical properties :
#
#
# Convention : Reuss Voigt Hill
#
# Bulk Modulus (GPa) = 50.73095 56.33565 53.53330
# Shear Modulus (GPa) = 25.47386 29.09558 27.28472
#
# Velocity S-wave (km/s) = 3.52932 3.77188 3.65261
# Velocity P-wave (km/s) = 6.43540 6.82028 6.63063
#
# Compressibility (1/GPa) = 0.01971183
#
# Stress axis : x y z
#
# Youngs Moduli (GPa) = 102.45934 91.41898 79.51407
#
# Poissons Ratio (x) = 0.34628 0.10098
# Poissons Ratio (y) = 0.38810 0.13707
# Poissons Ratio (z) = 0.13011 0.15759
#
# Static dielectric constant tensor:
#      x y z
#    x 4.122380 0.000000 0.084070 
#    y 0.000000 3.762240 0.000000 
#    z 0.084070 0.000000 3.624360 
# 
# 
# High freq. dielectric constant tensor:
#      x y z
#    x 1.821420 0.000000 -0.004700 
#    y 0.000000 1.790070 0.000000 
#    z -0.004700 0.000000 1.783600 
# 
# From -- ./inp_files/289779.got.cif
#   From: 2010.06.25/outbox.cif.g09.slc.cpg/sg15_145_cif.got.tgz:289779.got - 2010.06.28 07:06:18.
