data_PCOD8142052
_publ_section_title
;
Structure prediction by ZEFSAII (Michael W. Deem and Ramdas Pophale) SiO2 
 PCOD8142052
Probable space group: C 2/C
;
_chemical_formula_sum "Si O2"
_cell_formula_units_Z 44
_cell_length_a 12.575313
_cell_length_b 19.457443
_cell_length_c 13.750789
_cell_angle_alpha 90.000000
_cell_angle_beta 137.681955
_cell_angle_gamma 90.000000
_cell_volume 2265.195019
_symmetry_space_group_name_H-M "C 2/C"
_symmetry_group_IT_number 15
_symmetry_cell_setting 'monoclinic'
loop_
_space_group_symop_operation_xyz
x,y,z
-x,y,1/2-z
-x,-y,-z
x,-y,1/2+z
1/2+x,1/2+y,z
1/2-x,1/2+y,1/2-z
1/2-x,1/2-y,-z
1/2+x,1/2-y,1/2+z
loop_
_atom_site_type_symbol
_atom_site_label
_atom_site_fract_x
_atom_site_fract_y
_atom_site_fract_z
Si Si1 0.470897 0.828665 0.425693
Si Si2 0.116478 0.796230 0.134076
Si Si3 0.373514 0.440730 0.416135
Si Si4 0.500000 0.653552 0.750000
Si Si5 0.788522 0.435328 0.397012
Si Si6 0.127423 0.557061 0.911039
O O1 0.306978 0.799865 0.270126
O O2 0.574810 0.767758 0.539267
O O3 0.432838 0.881275 0.488011
O O4 0.572938 0.867925 0.412282
O O5 0.046504 0.865843 0.039059
O O6 0.031309 0.794291 0.181861
O O7 0.500000 0.500000 0.500000
O O8 0.256585 0.451735 0.245686
O O9 0.290910 0.438751 0.464593
O O10 0.351948 0.601314 0.637407
O O11 0.849498 0.505039 0.484768
O O12 0.000000 0.526487 0.750000
#
# Coordination Sequence:
#
# PCOD8142052 Si02
#       6
#     8   8   8   4   8   8
#     4  10  23  40  57  88 123 161 203 258 297 378
#     4  10  21  40  59  86 126 161 205 251 309 360
#     4  10  22  40  64  91 121 155 205 257 306 368
#     4   8  18  40  60  84 122 154 196 268 310 354
#     4  10  21  38  61  89 121 153 208 257 307 366
#     4  12  21  40  62  87 121 165 197 253 313 355
#
# _framework density 19.424375999999999
#
# number of rings (size 3 to 8) (size 9 to 14) (size 15 to 20)
#    0.000    2.182    3.636    2.727    0.000    5.091 
#    4.909    0.000    0.000    0.000    0.000    0.000 
#    0.000    0.000    0.000    0.000    0.000    0.000 
#
# Total GULP energy -272651.140790 kJ/mol
# GULP energy per Si atom -12393.233672 kJ/mol
# Density = 1.938017 g / cm^3
# Si number density = 19.424376 Si / 1000 Ang^3
#
#
#
# Elastic Constant Matrix: (Units=GPa)
#
#
# Indices 1 2 3 4 5 6 
#
# 1 132.9783 66.9847 41.9898 0.0000 9.6685 0.0000
# 2 66.9847 142.5938 78.0468 0.0000 -7.5226 0.0000
# 3 41.9898 78.0468 74.1010 0.0000 -3.8531 0.0000
# 4 0.0000 0.0000 0.0000 41.2934 0.0000 -4.0338
# 5 9.6685 -7.5226 -3.8531 0.0000 25.9943 0.0000
# 6 0.0000 0.0000 0.0000 -4.0338 0.0000 29.3591
#
#
#
# Elastic Compliance Matrix: (Units=1/GPa)
#
#
# Indices 1 2 3 4 5 6 
#
# 1 0.010656 -0.004330 -0.001762 0.000000 -0.005478 0.000000
# 2 -0.004330 0.018447 -0.016743 0.000000 0.004467 0.000000
# 3 -0.001762 -0.016743 0.032159 0.000000 0.000577 0.000000
# 4 0.000000 0.000000 0.000000 0.024546 0.000000 0.003373
# 5 -0.005478 0.004467 0.000577 0.000000 0.041886 0.000000
# 6 0.000000 0.000000 0.000000 0.003373 0.000000 0.034524
#
#
# Mechanical properties :
#
#
# Convention : Reuss Voigt Hill
#
# Bulk Modulus (GPa) = 64.14387 80.41284 72.27836
# Shear Modulus (GPa) = 23.46468 30.17280 26.81874
#
# Velocity S-wave (km/s) = 3.47940 3.94553 3.71977
# Velocity P-wave (km/s) = 7.01682 7.88949 7.46591
#
# Compressibility (1/GPa) = 0.01558995
#
# Stress axis : x y z
#
# Youngs Moduli (GPa) = 93.84379 54.20974 31.09588
#
# Poissons Ratio (x) = 0.23473 0.05481
# Poissons Ratio (y) = 0.40635 0.52065
# Poissons Ratio (z) = 0.16540 0.90765
#
# Static dielectric constant tensor:
#      x y z
#    x 3.570900 0.000000 -0.049710 
#    y 0.000000 3.639280 0.000000 
#    z -0.049710 0.000000 3.301180 
# 
# 
# High freq. dielectric constant tensor:
#      x y z
#    x 1.776570 0.000000 0.004870 
#    y 0.000000 1.753460 0.000000 
#    z 0.004870 0.000000 1.729700 
# 
# From -- ./inp_files/119171.got.cif
#   From: 2010.06.25/outbox.cif.g09.slc.cpg/sg15_60_cif.got.tgz:119171.got - 2010.06.28 07:06:18.
