data_PCOD8142102
_publ_section_title
;
Structure prediction by ZEFSAII (Michael W. Deem and Ramdas Pophale) SiO2 
 PCOD8142102
Probable space group: C 2/C
;
_chemical_formula_sum "Si O2"
_cell_formula_units_Z 56
_cell_length_a 13.774596
_cell_length_b 8.503483
_cell_length_c 24.772739
_cell_angle_alpha 90.000000
_cell_angle_beta 64.933241
_cell_angle_gamma 90.000000
_cell_volume 2628.385934
_symmetry_space_group_name_H-M "C 2/C"
_symmetry_group_IT_number 15
_symmetry_cell_setting 'monoclinic'
loop_
_space_group_symop_operation_xyz
x,y,z
-x,y,1/2-z
-x,-y,-z
x,-y,1/2+z
1/2+x,1/2+y,z
1/2-x,1/2+y,1/2-z
1/2-x,1/2-y,-z
1/2+x,1/2-y,1/2+z
loop_
_atom_site_type_symbol
_atom_site_label
_atom_site_fract_x
_atom_site_fract_y
_atom_site_fract_z
Si Si1 0.130532 0.732332 0.380304
Si Si2 0.971397 0.334074 0.194412
Si Si3 0.560604 0.489179 0.324998
Si Si4 0.331179 0.361492 0.381632
Si Si5 0.758567 0.473282 0.201882
Si Si6 0.914100 0.442551 0.907329
Si Si7 0.704726 0.884124 0.973910
O O1 0.110265 0.914234 0.368483
O O2 0.225600 0.654100 0.321857
O O3 0.151864 0.715306 0.438255
O O4 0.027444 0.632263 0.390964
O O5 0.856887 0.420561 0.216437
O O6 0.000000 0.304494 0.250000
O O7 0.069532 0.430055 0.144365
O O8 0.963830 0.172526 0.162530
O O9 0.452167 0.398801 0.334109
O O10 0.646357 0.462235 0.258070
O O11 0.251141 0.362909 0.349143
O O12 0.295147 0.493731 0.432988
O O13 0.327135 0.187741 0.408926
O O14 0.881425 0.519511 0.971479
O O15 0.750000 0.750000 0.000000
#
# Coordination Sequence:
#
# PCOD8142102 Si02
#       7
#     8   8   8   8   8   8   8
#     4   9  22  40  59  85 117 157 202 241 297 364
#     4  11  24  39  60  92 124 156 201 253 304 364
#     4  11  21  38  60  86 122 159 196 249 304 358
#     4  10  22  39  61  90 120 158 203 245 302 369
#     4  10  21  38  62  88 120 159 196 246 305 366
#     4  10  22  41  61  83 119 161 199 246 301 361
#     4  11  22  39  62  88 118 154 201 256 301 352
#
# _framework density 21.305852000000002
#
# number of rings (size 3 to 8) (size 9 to 14) (size 15 to 20)
#    0.000    1.714    0.000    3.857    0.000    9.143 
#    0.000    8.571    0.000    0.000    0.000    0.000 
#    0.000    0.000    0.000    0.000    0.000    0.000 
#
# Total GULP energy -347143.782795 kJ/mol
# GULP energy per Si atom -12397.992243 kJ/mol
# Density = 2.125736 g / cm^3
# Si number density = 21.305852 Si / 1000 Ang^3
#
#
#
# Elastic Constant Matrix: (Units=GPa)
#
#
# Indices 1 2 3 4 5 6 
#
# 1 75.0959 39.5827 47.9158 0.0000 17.2478 0.0000
# 2 39.5827 143.9786 63.9360 0.0000 23.9910 0.0000
# 3 47.9158 63.9360 123.6666 0.0000 3.6969 0.0000
# 4 0.0000 0.0000 0.0000 31.0323 0.0000 2.1690
# 5 17.2478 23.9910 3.6969 0.0000 35.9054 0.0000
# 6 0.0000 0.0000 0.0000 2.1690 0.0000 32.8374
#
#
#
# Elastic Compliance Matrix: (Units=1/GPa)
#
#
# Indices 1 2 3 4 5 6 
#
# 1 0.020292 -0.001054 -0.007069 0.000000 -0.008316 0.000000
# 2 -0.001054 0.010332 -0.004757 0.000000 -0.005907 0.000000
# 3 -0.007069 -0.004757 0.013128 0.000000 0.005222 0.000000
# 4 0.000000 0.000000 0.000000 0.032374 0.000000 -0.002138
# 5 -0.008316 -0.005907 0.005222 0.000000 0.035255 0.000000
# 6 0.000000 0.000000 0.000000 -0.002138 0.000000 0.030594
#
#
# Mechanical properties :
#
#
# Convention : Reuss Voigt Hill
#
# Bulk Modulus (GPa) = 55.57665 71.73447 63.65556
# Shear Modulus (GPa) = 28.77996 32.70879 30.74437
#
# Velocity S-wave (km/s) = 3.67931 3.92242 3.80281
# Velocity P-wave (km/s) = 6.64767 7.36585 7.01596
#
# Compressibility (1/GPa) = 0.01799317
#
# Stress axis : x y z
#
# Youngs Moduli (GPa) = 49.28021 96.78826 76.17203
#
# Poissons Ratio (x) = 0.10202 0.53845
# Poissons Ratio (y) = 0.05195 0.36232
# Poissons Ratio (z) = 0.34835 0.46038
#
# Static dielectric constant tensor:
#      x y z
#    x 3.836520 0.000000 -0.248840 
#    y 0.000000 4.100840 0.000000 
#    z -0.248840 0.000000 3.313040 
# 
# 
# High freq. dielectric constant tensor:
#      x y z
#    x 1.836330 0.000000 -0.003260 
#    y 0.000000 1.839100 0.000000 
#    z -0.003260 0.000000 1.834950 
# 
# From -- ./inp_files/273074.got.cif
#   From: 2010.06.25/outbox.cif.g09.slc.cpg/sg15_137_cif.got.tgz:273074.got - 2010.06.28 07:06:18.
