data_PCOD8142364
_publ_section_title
;
Structure prediction by ZEFSAII (Michael W. Deem and Ramdas Pophale) SiO2 
 PCOD8142364
Probable space group: C 2/C
;
_chemical_formula_sum "Si O2"
_cell_formula_units_Z 52
_cell_length_a 25.755569
_cell_length_b 9.161358
_cell_length_c 14.558676
_cell_angle_alpha 90.000000
_cell_angle_beta 135.672046
_cell_angle_gamma 90.000000
_cell_volume 2400.400140
_symmetry_space_group_name_H-M "C 2/C"
_symmetry_group_IT_number 15
_symmetry_cell_setting 'monoclinic'
loop_
_space_group_symop_operation_xyz
x,y,z
-x,y,1/2-z
-x,-y,-z
x,-y,1/2+z
1/2+x,1/2+y,z
1/2-x,1/2+y,1/2-z
1/2-x,1/2-y,-z
1/2+x,1/2-y,1/2+z
loop_
_atom_site_type_symbol
_atom_site_label
_atom_site_fract_x
_atom_site_fract_y
_atom_site_fract_z
Si Si1 0.500000 0.892410 0.750000
Si Si2 0.531843 0.309906 0.451265
Si Si3 0.626695 0.314619 0.919494
Si Si4 0.339493 0.995845 0.062812
Si Si5 0.505035 0.355214 0.618835
Si Si6 0.258370 0.998545 0.645570
Si Si7 0.802381 0.712728 0.861085
O O1 0.510972 0.794204 0.673241
O O2 0.572203 0.993312 0.842862
O O3 0.509914 0.272404 0.527911
O O4 0.507255 0.473119 0.401116
O O5 0.618615 0.289448 0.545970
O O6 0.680213 0.172738 0.983671
O O7 0.583263 0.332619 0.768799
O O8 0.566323 0.287711 0.922398
O O9 0.678291 0.455927 0.001998
O O10 0.317207 0.029233 0.139072
O O11 0.296023 0.103931 0.939807
O O12 0.284603 0.126694 0.746018
O O13 0.254831 0.845529 0.695781
#
# Coordination Sequence:
#
# PCOD8142364 Si02
#       7
#     4   8   8   8   8   8   8
#     4  10  22  40  66  90 132 164 224 270 324 386
#     4  10  21  40  63  98 127 172 216 277 322 391
#     4  11  22  41  66  95 131 169 222 274 323 395
#     4  11  25  43  65  98 131 177 216 272 334 388
#     4  10  21  38  67  96 129 169 223 265 336 378
#     4  12  25  45  66  96 134 177 217 273 331 395
#     4  11  25  44  65  97 135 173 224 268 329 397
#
# _framework density 21.663056000000001
#
# number of rings (size 3 to 8) (size 9 to 14) (size 15 to 20)
#    0.000    1.231    1.538    4.615    2.154    3.692 
#    0.000    3.846    0.000    0.000    0.000    0.000 
#    0.000    0.000    0.000    0.000    0.000    0.000 
#
# Total GULP energy -322461.643646 kJ/mol
# GULP energy per Si atom -12402.370909 kJ/mol
# Density = 2.161375 g / cm^3
# Si number density = 21.663056 Si / 1000 Ang^3
#
#
#
# Elastic Constant Matrix: (Units=GPa)
#
#
# Indices 1 2 3 4 5 6 
#
# 1 89.8536 31.6229 30.1970 0.0000 -29.6944 0.0000
# 2 31.6229 100.5083 31.4574 0.0000 -13.5397 0.0000
# 3 30.1970 31.4574 60.9569 0.0000 -23.8213 0.0000
# 4 0.0000 0.0000 0.0000 34.2009 0.0000 -7.4529
# 5 -29.6944 -13.5397 -23.8213 0.0000 40.3863 0.0000
# 6 0.0000 0.0000 0.0000 -7.4529 0.0000 30.3607
#
#
#
# Elastic Compliance Matrix: (Units=1/GPa)
#
#
# Indices 1 2 3 4 5 6 
#
# 1 0.016180 -0.002943 -0.002902 0.000000 0.009198 0.000000
# 2 -0.002943 0.012408 -0.005413 0.000000 -0.001197 0.000000
# 3 -0.002902 -0.005413 0.024812 0.000000 0.010687 0.000000
# 4 0.000000 0.000000 0.000000 0.030892 0.000000 0.007583
# 5 0.009198 -0.001197 0.010687 0.000000 0.037426 0.000000
# 6 0.000000 0.000000 0.000000 0.007583 0.000000 0.034799
#
#
# Mechanical properties :
#
#
# Convention : Reuss Voigt Hill
#
# Bulk Modulus (GPa) = 32.37908 48.65257 40.51582
# Shear Modulus (GPa) = 26.40905 31.52567 28.96736
#
# Velocity S-wave (km/s) = 3.49532 3.81894 3.66071
# Velocity P-wave (km/s) = 5.59186 6.47714 6.05071
#
# Compressibility (1/GPa) = 0.03088414
#
# Stress axis : x y z
#
# Youngs Moduli (GPa) = 61.80433 80.58994 40.30247
#
# Poissons Ratio (x) = 0.23721 0.11695
# Poissons Ratio (y) = 0.18192 0.21817
# Poissons Ratio (z) = 0.17934 0.43625
#
# Static dielectric constant tensor:
#      x y z
#    x 3.992410 0.000000 -0.213830 
#    y 0.000000 3.918960 0.000000 
#    z -0.213830 0.000000 3.928410 
# 
# 
# High freq. dielectric constant tensor:
#      x y z
#    x 1.855700 0.000000 -0.010480 
#    y 0.000000 1.860580 0.000000 
#    z -0.010480 0.000000 1.848800 
# 
# From -- ./inp_files/176706.got.cif
#   From: 2010.06.25/outbox.cif.g09.slc.cpg/sg15_89_cif.got.tgz:176706.got - 2010.06.28 07:06:18.
