data_PCOD8142094
_publ_section_title
;
Structure prediction by ZEFSAII (Michael W. Deem and Ramdas Pophale) SiO2 
 PCOD8142094
Probable space group: C 2/C
;
_chemical_formula_sum "Si O2"
_cell_formula_units_Z 56
_cell_length_a 23.749703
_cell_length_b 9.689487
_cell_length_c 20.657278
_cell_angle_alpha 90.000000
_cell_angle_beta 29.559842
_cell_angle_gamma 90.000000
_cell_volume 2345.155448
_symmetry_space_group_name_H-M "C 2/C"
_symmetry_group_IT_number 15
_symmetry_cell_setting 'monoclinic'
loop_
_space_group_symop_operation_xyz
x,y,z
-x,y,1/2-z
-x,-y,-z
x,-y,1/2+z
1/2+x,1/2+y,z
1/2-x,1/2+y,1/2-z
1/2-x,1/2-y,-z
1/2+x,1/2-y,1/2+z
loop_
_atom_site_type_symbol
_atom_site_label
_atom_site_fract_x
_atom_site_fract_y
_atom_site_fract_z
Si Si1 0.980800 0.509158 0.340410
Si Si2 0.374304 0.690766 0.954307
Si Si3 0.286583 0.811299 0.564608
Si Si4 0.371245 0.418070 0.890572
Si Si5 0.176893 0.916007 0.798028
Si Si6 0.472048 0.349687 0.087433
Si Si7 0.830762 0.391573 0.763219
O O1 0.925837 0.661469 0.384395
O O2 0.896038 0.409584 0.463206
O O3 0.000000 0.446162 0.250000
O O4 0.103064 0.501840 0.255480
O O5 0.361736 0.585135 0.906657
O O6 0.458996 0.607897 0.917435
O O7 0.251204 0.706797 0.111749
O O8 0.322584 0.658023 0.504360
O O9 0.200280 0.877799 0.600243
O O10 0.230686 0.809019 0.692332
O O11 0.500000 0.369359 0.750000
O O12 0.260703 0.955359 0.773517
O O13 0.144248 0.061888 0.798899
O O14 0.054862 0.855766 0.942663
O O15 0.434958 0.192021 0.128174
#
# Coordination Sequence:
#
# PCOD8142094 Si02
#       7
#     8   8   8   8   8   8   8
#     4  11  23  41  64  92 124 158 202 259 307 354
#     4  10  21  39  66  92 120 159 204 251 306 367
#     4  11  25  41  61  91 127 161 204 256 303 356
#     4  11  24  42  62  90 125 166 208 247 300 369
#     4  10  21  38  62  86 121 167 202 245 307 370
#     4   9  20  40  61  91 123 155 205 256 302 365
#     4  10  22  39  62  92 122 155 203 256 305 359
#
# _framework density 23.879013
#
# number of rings (size 3 to 8) (size 9 to 14) (size 15 to 20)
#    0.000    1.714    0.000    3.429    0.000   10.857 
#    0.000    1.429    0.000    0.000    0.000    0.000 
#    0.000    0.000    0.000    0.000    0.000    0.000 
#
# Total GULP energy -347122.497267 kJ/mol
# GULP energy per Si atom -12397.232045 kJ/mol
# Density = 2.382466 g / cm^3
# Si number density = 23.879013 Si / 1000 Ang^3
#
#
#
# Elastic Constant Matrix: (Units=GPa)
#
#
# Indices 1 2 3 4 5 6 
#
# 1 99.4297 -2.8735 31.8998 -0.0002 -12.2451 0.0001
# 2 -2.8735 43.6144 2.0679 0.0014 -3.8936 -0.0008
# 3 31.8998 2.0679 107.8266 0.0000 -1.8625 -0.0001
# 4 -0.0002 0.0014 0.0000 27.2593 -0.0002 -2.8679
# 5 -12.2451 -3.8936 -1.8625 -0.0002 42.0180 0.0001
# 6 0.0001 -0.0008 -0.0001 -2.8679 0.0001 24.9696
#
#
#
# Elastic Compliance Matrix: (Units=1/GPa)
#
#
# Indices 1 2 3 4 5 6 
#
# 1 0.011594 0.001223 -0.003396 0.000000 0.003342 0.000000
# 2 0.001223 0.023266 -0.000765 -0.000001 0.002478 0.000001
# 3 -0.003396 -0.000765 0.010283 0.000000 -0.000605 0.000000
# 4 0.000000 -0.000001 0.000000 0.037133 0.000000 0.004265
# 5 0.003342 0.002478 -0.000605 0.000000 0.024976 0.000000
# 6 0.000000 0.000001 0.000000 0.004265 0.000000 0.040539
#
#
# Mechanical properties :
#
#
# Convention : Reuss Voigt Hill
#
# Bulk Modulus (GPa) = 25.46642 34.78436 30.12539
# Shear Modulus (GPa) = 29.98400 33.50114 31.74257
#
# Velocity S-wave (km/s) = 3.54738 3.74967 3.64992
# Velocity P-wave (km/s) = 5.24084 5.77453 5.51415
#
# Compressibility (1/GPa) = 0.03926740
#
# Stress axis : x y z
#
# Youngs Moduli (GPa) = 86.25424 42.98058 97.24823
#
# Poissons Ratio (x) = -0.05257 0.33022
# Poissons Ratio (y) = -0.10550 0.07442
# Poissons Ratio (z) = 0.29289 0.03289
#
# Static dielectric constant tensor:
#      x y z
#    x 4.448040 0.000000 -0.193750 
#    y 0.000000 3.995860 0.000000 
#    z -0.193750 0.000000 4.511650 
# 
# 
# High freq. dielectric constant tensor:
#      x y z
#    x 1.950570 0.000000 -0.010530 
#    y 0.000000 1.921070 0.000000 
#    z -0.010530 0.000000 1.962160 
# 
# From -- ./inp_files/255438.got.cif
#   From: 2010.06.25/outbox.cif.g09.slc.cpg/sg15_128_cif.got.tgz:255438.got - 2010.06.28 07:06:18.
