data_PCOD8142941
_publ_section_title
;
Structure prediction by ZEFSAII (Michael W. Deem and Ramdas Pophale) SiO2 
 PCOD8142941
Probable space group: C 2/C
;
_chemical_formula_sum "Si O2"
_cell_formula_units_Z 44
_cell_length_a 15.878400
_cell_length_b 8.894814
_cell_length_c 14.693794
_cell_angle_alpha 90.000000
_cell_angle_beta 96.268837
_cell_angle_gamma 90.000000
_cell_volume 2062.874911
_symmetry_space_group_name_H-M "C 2/C"
_symmetry_group_IT_number 15
_symmetry_cell_setting 'monoclinic'
loop_
_space_group_symop_operation_xyz
x,y,z
-x,y,1/2-z
-x,-y,-z
x,-y,1/2+z
1/2+x,1/2+y,z
1/2-x,1/2+y,1/2-z
1/2-x,1/2-y,-z
1/2+x,1/2-y,1/2+z
loop_
_atom_site_type_symbol
_atom_site_label
_atom_site_fract_x
_atom_site_fract_y
_atom_site_fract_z
Si Si1 0.000000 0.637981 0.250000
Si Si2 0.468839 0.920833 0.405445
Si Si3 0.438741 0.621679 0.098566
Si Si4 0.633434 0.629121 0.787883
Si Si5 0.883495 0.967998 0.406486
Si Si6 0.292008 0.761161 0.407749
O O1 0.043586 0.536837 0.178052
O O2 0.068409 0.741211 0.312702
O O3 0.537750 0.795521 0.379691
O O4 0.378301 0.853473 0.420114
O O5 0.500000 0.000000 0.500000
O O6 0.395141 0.537037 0.179567
O O7 0.524009 0.536731 0.085581
O O8 0.375065 0.612759 0.003900
O O9 0.629363 0.645442 0.678230
O O10 0.728157 0.662754 0.829838
O O11 0.810962 0.090996 0.381598
O O12 0.250000 0.750000 0.500000
#
# Coordination Sequence:
#
# PCOD8142941 Si02
#       6
#     4   8   8   8   8   8
#     4  12  26  42  70 100 140 176 230 290 344 408
#     4  11  26  45  67 102 138 176 227 294 350 402
#     4  10  21  42  70  94 127 180 233 265 337 423
#     4  12  23  43  70 100 133 182 232 277 346 414
#     4  10  21  39  68  96 128 177 226 272 330 415
#     4  11  24  43  68 100 139 175 225 291 345 402
#
# _framework density 21.329454999999999
#
# number of rings (size 3 to 8) (size 9 to 14) (size 15 to 20)
#    0.000    1.091    3.636    2.182   10.182    0.000 
#    0.000    0.909    0.000    0.000    0.000    0.000 
#    0.000    0.000    0.000    0.000    0.000    0.000 
#
# Total GULP energy -272746.176339 kJ/mol
# GULP energy per Si atom -12397.553470 kJ/mol
# Density = 2.128091 g / cm^3
# Si number density = 21.329455 Si / 1000 Ang^3
#
#
#
# Elastic Constant Matrix: (Units=GPa)
#
#
# Indices 1 2 3 4 5 6 
#
# 1 94.7171 48.1077 30.0657 0.0000 10.4052 0.0000
# 2 48.1077 108.8502 39.6562 0.0000 11.9787 0.0000
# 3 30.0657 39.6562 128.1814 0.0000 2.7121 0.0000
# 4 0.0000 0.0000 0.0000 36.0457 0.0000 -0.4329
# 5 10.4052 11.9787 2.7121 0.0000 33.0317 0.0000
# 6 0.0000 0.0000 0.0000 -0.4329 0.0000 35.6527
#
#
#
# Elastic Compliance Matrix: (Units=1/GPa)
#
#
# Indices 1 2 3 4 5 6 
#
# 1 0.014047 -0.005373 -0.001583 0.000000 -0.002346 0.000000
# 2 -0.005373 0.012829 -0.002651 0.000000 -0.002742 0.000000
# 3 -0.001583 -0.002651 0.008977 0.000000 0.000723 0.000000
# 4 0.000000 0.000000 0.000000 0.027747 0.000000 0.000337
# 5 -0.002346 -0.002742 0.000723 0.000000 0.031948 0.000000
# 6 0.000000 0.000000 0.000000 0.000337 0.000000 0.028052
#
#
# Mechanical properties :
#
#
# Convention : Reuss Voigt Hill
#
# Bulk Modulus (GPa) = 60.09596 63.04532 61.57064
# Shear Modulus (GPa) = 33.70142 35.20728 34.45435
#
# Velocity S-wave (km/s) = 3.97929 4.06722 4.02349
# Velocity P-wave (km/s) = 7.02490 7.18877 7.10731
#
# Compressibility (1/GPa) = 0.01664005
#
# Stress axis : x y z
#
# Youngs Moduli (GPa) = 71.18876 77.94679 111.39017
#
# Poissons Ratio (x) = 0.41884 0.17631
# Poissons Ratio (y) = 0.38253 0.29526
# Poissons Ratio (z) = 0.11268 0.20661
#
# Static dielectric constant tensor:
#      x y z
#    x 1.728600 0.000000 -1.306360 
#    y 0.000000 4.589010 0.000000 
#    z -1.306360 0.000000 3.194080 
# 
# 
# High freq. dielectric constant tensor:
#      x y z
#    x 1.821340 0.000000 0.004070 
#    y 0.000000 1.835450 0.000000 
#    z 0.004070 0.000000 1.849350 
# 
# From -- ./inp_files/159441.got.cif
#   From: 2010.06.25/outbox.cif.g09.slc.cpg/sg15_80_cif.got.tgz:159441.got - 2010.06.28 07:06:18.
