data_PCOD8142607
_publ_section_title
;
Structure prediction by ZEFSAII (Michael W. Deem and Ramdas Pophale) SiO2 
 PCOD8142607
Probable space group: C 2/C
;
_chemical_formula_sum "Si O2"
_cell_formula_units_Z 56
_cell_length_a 14.996989
_cell_length_b 11.236864
_cell_length_c 30.689876
_cell_angle_alpha 90.000000
_cell_angle_beta 32.670192
_cell_angle_gamma 90.000000
_cell_volume 2791.767102
_symmetry_space_group_name_H-M "C 2/C"
_symmetry_group_IT_number 15
_symmetry_cell_setting 'monoclinic'
loop_
_space_group_symop_operation_xyz
x,y,z
-x,y,1/2-z
-x,-y,-z
x,-y,1/2+z
1/2+x,1/2+y,z
1/2-x,1/2+y,1/2-z
1/2-x,1/2-y,-z
1/2+x,1/2-y,1/2+z
loop_
_atom_site_type_symbol
_atom_site_label
_atom_site_fract_x
_atom_site_fract_y
_atom_site_fract_z
Si Si1 0.129915 0.021430 0.983239
Si Si2 0.296054 0.220367 0.028141
Si Si3 0.619193 0.838120 0.827527
Si Si4 0.428429 0.977939 0.981718
Si Si5 0.864246 0.856235 0.437251
Si Si6 0.973667 0.233096 0.211661
Si Si7 0.990601 0.510709 0.303593
O O1 0.089467 0.954614 0.045076
O O2 0.117778 0.163755 0.988087
O O3 0.306100 0.972222 0.896405
O O4 0.000000 0.000000 0.000000
O O5 0.134276 0.182902 0.121475
O O6 0.250000 0.250000 0.000000
O O7 0.422551 0.113368 0.968617
O O8 0.542784 0.902620 0.901830
O O9 0.534859 0.708434 0.853035
O O10 0.812265 0.824789 0.757059
O O11 0.605731 0.914355 0.788843
O O12 0.241571 0.921186 0.057762
O O13 0.500000 0.000000 0.000000
O O14 0.750000 0.750000 0.500000
O O15 0.000000 0.191198 0.250000
O O16 0.953106 0.374708 0.217119
O O17 0.000000 0.558459 0.250000
#
# Coordination Sequence:
#
# PCOD8142607 Si02
#       7
#     8   8   8   8   8   8   8
#     4  11  23  38  66  97 123 165 219 262 322 380
#     4  11  22  41  62  95 129 160 220 272 309 382
#     4  11  23  43  66  92 133 171 211 267 335 387
#     4  11  22  38  65  94 130 169 211 266 326 387
#     4  10  21  39  62  93 125 167 210 261 323 388
#     4  10  23  40  64  90 128 172 214 261 326 388
#     4  10  22  41  60  91 126 164 217 267 312 384
#
# _framework density 20.058979000000001
#
# number of rings (size 3 to 8) (size 9 to 14) (size 15 to 20)
#    0.000    1.429    4.286    1.714   10.000    2.286 
#    0.000    1.429    0.000    0.857    0.000    0.000 
#    0.000    0.000    0.000    0.000    0.000    0.000 
#
# Total GULP energy -346902.469464 kJ/mol
# GULP energy per Si atom -12389.373909 kJ/mol
# Density = 2.001332 g / cm^3
# Si number density = 20.058979 Si / 1000 Ang^3
#
#
#
# Elastic Constant Matrix: (Units=GPa)
#
#
# Indices 1 2 3 4 5 6 
#
# 1 164.1502 45.3657 13.1330 -0.0006 0.1352 -0.0002
# 2 45.3657 92.0503 23.9162 0.0000 -10.3695 -0.0002
# 3 13.1330 23.9162 18.1807 -0.0004 13.2993 -0.0002
# 4 -0.0006 0.0000 -0.0004 28.0465 0.0005 2.0445
# 5 0.1352 -10.3695 13.2993 0.0005 35.6013 -0.0001
# 6 -0.0002 -0.0002 -0.0002 2.0445 -0.0001 39.4345
#
#
#
# Elastic Compliance Matrix: (Units=1/GPa)
#
#
# Indices 1 2 3 4 5 6 
#
# 1 0.007106 -0.004157 0.001707 0.000000 -0.001875 0.000000
# 2 -0.004157 0.035133 -0.069780 -0.000002 0.036316 0.000000
# 3 0.001707 -0.069780 0.220763 0.000005 -0.102800 0.000000
# 4 0.000000 -0.000002 0.000005 0.035790 -0.000003 -0.001856
# 5 -0.001875 0.036316 -0.102800 -0.000003 0.077076 0.000000
# 6 0.000000 0.000000 0.000000 -0.001856 0.000000 0.025455
#
#
# Mechanical properties :
#
#
# Convention : Reuss Voigt Hill
#
# Bulk Modulus (GPa) = 8.43575 48.80123 28.61849
# Shear Modulus (GPa) = 8.54269 33.41422 20.97845
#
# Velocity S-wave (km/s) = 2.06592 4.08585 3.23745
# Velocity P-wave (km/s) = 3.14727 6.82939 5.31723
#
# Compressibility (1/GPa) = 0.11854316
#
# Stress axis : x y z
#
# Youngs Moduli (GPa) = 140.73125 28.46310 4.52975
#
# Poissons Ratio (x) = 0.11832 -0.00773
# Poissons Ratio (y) = 0.58499 0.31608
# Poissons Ratio (z) = -0.24025 1.98615
#
# Static dielectric constant tensor:
#      x y z
#    x 3.817070 0.000000 -0.058600 
#    y 0.000000 4.323770 0.000000 
#    z -0.058600 0.000000 3.560550 
# 
# 
# High freq. dielectric constant tensor:
#      x y z
#    x 1.800320 0.000000 -0.004770 
#    y 0.000000 1.793020 0.000000 
#    z -0.004770 0.000000 1.761040 
# 
# From -- ./inp_files/313715.got.cif
#   From: 2010.06.25/outbox.cif.g09.slc.cpg/sg15_157_cif.got.tgz:313715.got - 2010.06.28 07:06:18.
