data_PCOD8142593
_publ_section_title
;
Structure prediction by ZEFSAII (Michael W. Deem and Ramdas Pophale) SiO2 
 PCOD8142593
Probable space group: C 2/C
;
_chemical_formula_sum "Si O2"
_cell_formula_units_Z 40
_cell_length_a 9.355301
_cell_length_b 8.584750
_cell_length_c 23.251580
_cell_angle_alpha 90.000000
_cell_angle_beta 77.873204
_cell_angle_gamma 90.000000
_cell_volume 1825.731387
_symmetry_space_group_name_H-M "C 2/C"
_symmetry_group_IT_number 15
_symmetry_cell_setting 'monoclinic'
loop_
_space_group_symop_operation_xyz
x,y,z
-x,y,1/2-z
-x,-y,-z
x,-y,1/2+z
1/2+x,1/2+y,z
1/2-x,1/2+y,1/2-z
1/2-x,1/2-y,-z
1/2+x,1/2-y,1/2+z
loop_
_atom_site_type_symbol
_atom_site_label
_atom_site_fract_x
_atom_site_fract_y
_atom_site_fract_z
Si Si1 0.093673 0.355309 0.868317
Si Si2 0.042894 0.858642 0.035534
Si Si3 0.311462 0.804751 0.820266
Si Si4 0.161891 0.645475 0.931161
Si Si5 0.666190 0.463834 0.731485
O O1 0.070263 0.506316 0.910589
O O2 0.252466 0.363872 0.825112
O O3 0.080604 0.199064 0.908539
O O4 0.969137 0.358624 0.829958
O O5 0.182129 0.916887 0.059613
O O6 0.072609 0.711424 0.992207
O O7 0.000000 0.000000 0.000000
O O8 0.196419 0.781331 0.881944
O O9 0.328271 0.646108 0.782698
O O10 0.247005 0.939636 0.785391
O O11 0.500000 0.403613 0.750000
#
# Coordination Sequence:
#
# PCOD8142593 Si02
#       5
#     8   8   8   8   8
#     4  10  21  41  63  87 124 164 199 246 304 360
#     4  10  21  39  62  91 123 155 199 252 300 356
#     4  10  23  41  62  87 122 160 201 250 299 358
#     4   9  21  39  60  89 121 157 200 247 299 358
#     4  11  23  40  61  89 122 158 203 252 299 355
#
# _framework density 21.909029
#
# number of rings (size 3 to 8) (size 9 to 14) (size 15 to 20)
#    0.000    2.000    0.000    2.400    0.000   10.400 
#    0.000   10.000    0.000    0.000    0.000    0.000 
#    0.000    0.000    0.000    0.000    0.000    0.000 
#
# Total GULP energy -248003.381437 kJ/mol
# GULP energy per Si atom -12400.169072 kJ/mol
# Density = 2.185916 g / cm^3
# Si number density = 21.909029 Si / 1000 Ang^3
#
#
#
# Elastic Constant Matrix: (Units=GPa)
#
#
# Indices 1 2 3 4 5 6 
#
# 1 114.6131 59.7626 63.5608 0.0000 6.0976 0.0000
# 2 59.7626 79.4427 38.5740 0.0000 21.7369 0.0000
# 3 63.5608 38.5740 108.9055 0.0000 18.3300 0.0000
# 4 0.0000 0.0000 0.0000 50.8256 0.0000 19.6888
# 5 6.0976 21.7369 18.3300 0.0000 40.7121 0.0000
# 6 0.0000 0.0000 0.0000 19.6888 0.0000 28.7779
#
#
#
# Elastic Compliance Matrix: (Units=1/GPa)
#
#
# Indices 1 2 3 4 5 6 
#
# 1 0.019498 -0.012795 -0.008121 0.000000 0.007568 0.000000
# 2 -0.012795 0.025174 0.000531 0.000000 -0.011764 0.000000
# 3 -0.008121 0.000531 0.014690 0.000000 -0.005681 0.000000
# 4 0.000000 0.000000 0.000000 0.026770 0.000000 -0.018315
# 5 0.007568 -0.011764 -0.005681 0.000000 0.032268 0.000000
# 6 0.000000 0.000000 0.000000 -0.018315 0.000000 0.047279
#
#
# Mechanical properties :
#
#
# Convention : Reuss Voigt Hill
#
# Bulk Modulus (GPa) = 53.78859 69.63958 61.71409
# Shear Modulus (GPa) = 23.51306 33.46737 28.49022
#
# Velocity S-wave (km/s) = 3.27955 3.91264 3.61000
# Velocity P-wave (km/s) = 6.24057 7.22956 6.75319
#
# Compressibility (1/GPa) = 0.01859130
#
# Stress axis : x y z
#
# Youngs Moduli (GPa) = 51.28722 39.72359 68.07190
#
# Poissons Ratio (x) = 0.50827 0.55284
# Poissons Ratio (y) = 0.65623 -0.03615
# Poissons Ratio (z) = 0.41653 -0.02109
#
# Static dielectric constant tensor:
#      x y z
#    x 3.864750 0.000000 0.032010 
#    y 0.000000 3.711740 0.000000 
#    z 0.032010 0.000000 4.443560 
# 
# 
# High freq. dielectric constant tensor:
#      x y z
#    x 1.847720 0.000000 0.002200 
#    y 0.000000 1.842780 0.000000 
#    z 0.002200 0.000000 1.892450 
# 
# From -- ./inp_files/262440.got.cif
#   From: 2010.06.25/outbox.cif.g09.slc.cpg/sg15_132_cif.got.tgz:262440.got - 2010.06.28 07:06:18.
