data_PCOD8142387
_publ_section_title
;
Structure prediction by ZEFSAII (Michael W. Deem and Ramdas Pophale) SiO2 
 PCOD8142387
Probable space group: C 2/C
;
_chemical_formula_sum "Si O2"
_cell_formula_units_Z 40
_cell_length_a 10.891855
_cell_length_b 16.229108
_cell_length_c 15.119214
_cell_angle_alpha 90.000000
_cell_angle_beta 42.090514
_cell_angle_gamma 90.000000
_cell_volume 1791.419823
_symmetry_space_group_name_H-M "C 2/C"
_symmetry_group_IT_number 15
_symmetry_cell_setting 'monoclinic'
loop_
_space_group_symop_operation_xyz
x,y,z
-x,y,1/2-z
-x,-y,-z
x,-y,1/2+z
1/2+x,1/2+y,z
1/2-x,1/2+y,1/2-z
1/2-x,1/2-y,-z
1/2+x,1/2-y,1/2+z
loop_
_atom_site_type_symbol
_atom_site_label
_atom_site_fract_x
_atom_site_fract_y
_atom_site_fract_z
Si Si1 0.837760 0.110885 0.669544
Si Si2 0.706874 0.276314 0.152646
Si Si3 0.998530 0.521214 0.898175
Si Si4 0.668452 0.174881 0.596710
Si Si5 0.753511 0.380007 0.966067
O O1 0.745597 0.185847 0.776996
O O2 0.709085 0.030339 0.752446
O O3 0.831296 0.139392 0.571416
O O4 0.045055 0.086614 0.584756
O O5 0.500000 0.301470 0.250000
O O6 0.816456 0.323160 0.015801
O O7 0.734198 0.177283 0.129064
O O8 0.892299 0.606754 0.941611
O O9 0.897227 0.454497 0.889818
O O10 0.000000 0.500000 0.000000
O O11 0.500000 0.200732 0.750000
O O12 0.750000 0.250000 0.500000
#
# Coordination Sequence:
#
# PCOD8142387 Si02
#       5
#     8   8   8   8   8
#     4  10  22  41  69  98 142 179 231 290 344 424
#     4   9  19  36  64 103 130 175 225 285 340 420
#     4  11  23  42  68  95 139 181 227 288 351 408
#     4  10  25  46  67  99 141 185 232 284 353 425
#     4  10  21  38  68  99 137 174 232 282 353 406
#
# _framework density 22.328657
#
# number of rings (size 3 to 8) (size 9 to 14) (size 15 to 20)
#    0.000    2.000    2.000    0.000    5.600    4.800 
#    3.600    0.000    0.000    0.000    0.000    0.000 
#    0.000    0.000    0.000    0.000    0.000    0.000 
#
# Total GULP energy -247862.061514 kJ/mol
# GULP energy per Si atom -12393.103076 kJ/mol
# Density = 2.227784 g / cm^3
# Si number density = 22.328657 Si / 1000 Ang^3
#
#
#
# Elastic Constant Matrix: (Units=GPa)
#
#
# Indices 1 2 3 4 5 6 
#
# 1 122.2322 54.9069 46.1738 0.0008 1.7885 -0.0002
# 2 54.9069 134.4043 61.6389 0.0014 -11.1808 -0.0004
# 3 46.1738 61.6389 75.4305 0.0015 2.0706 -0.0002
# 4 0.0008 0.0014 0.0015 43.4502 -0.0007 5.2865
# 5 1.7885 -11.1808 2.0706 -0.0007 35.1720 0.0002
# 6 -0.0002 -0.0004 -0.0002 5.2865 0.0002 40.1021
#
#
#
# Elastic Compliance Matrix: (Units=1/GPa)
#
#
# Indices 1 2 3 4 5 6 
#
# 1 0.011092 -0.002429 -0.004776 0.000000 -0.001055 0.000000
# 2 -0.002429 0.013139 -0.009384 0.000000 0.004853 0.000000
# 3 -0.004776 -0.009384 0.023963 -0.000001 -0.004151 0.000000
# 4 0.000000 0.000000 -0.000001 0.023390 0.000000 -0.003083
# 5 -0.001055 0.004853 -0.004151 0.000000 0.030272 0.000000
# 6 0.000000 0.000000 0.000000 -0.003083 0.000000 0.025343
#
#
# Mechanical properties :
#
#
# Convention : Reuss Voigt Hill
#
# Bulk Modulus (GPa) = 66.59028 73.05625 69.82326
# Shear Modulus (GPa) = 30.23310 35.03470 32.63390
#
# Velocity S-wave (km/s) = 3.68367 3.96542 3.82714
# Velocity P-wave (km/s) = 6.92677 7.33183 7.13217
#
# Compressibility (1/GPa) = 0.01501721
#
# Stress axis : x y z
#
# Youngs Moduli (GPa) = 90.15730 76.10659 41.73135
#
# Poissons Ratio (x) = 0.18483 0.19932
# Poissons Ratio (y) = 0.21895 0.39159
# Poissons Ratio (z) = 0.43061 0.71416
#
# Static dielectric constant tensor:
#      x y z
#    x 4.445390 0.000000 0.125980 
#    y 0.000000 3.923500 0.000000 
#    z 0.125980 0.000000 3.988350 
# 
# 
# High freq. dielectric constant tensor:
#      x y z
#    x 1.888290 0.000000 -0.000920 
#    y 0.000000 1.863530 0.000000 
#    z -0.000920 0.000000 1.868840 
# 
# From -- ./inp_files/197577.got.cif
#   From: 2010.06.25/outbox.cif.g09.slc.cpg/sg15_99_cif.got.tgz:197577.got - 2010.06.28 07:06:18.
