data_PCOD8142002
_publ_section_title
;
Structure prediction by ZEFSAII (Michael W. Deem and Ramdas Pophale) SiO2 
 PCOD8142002
Probable space group: C 2/C
;
_chemical_formula_sum "Si O2"
_cell_formula_units_Z 48
_cell_length_a 10.448351
_cell_length_b 8.715475
_cell_length_c 26.810558
_cell_angle_alpha 90.000000
_cell_angle_beta 59.939176
_cell_angle_gamma 90.000000
_cell_volume 2113.045229
_symmetry_space_group_name_H-M "C 2/C"
_symmetry_group_IT_number 15
_symmetry_cell_setting 'monoclinic'
loop_
_space_group_symop_operation_xyz
x,y,z
-x,y,1/2-z
-x,-y,-z
x,-y,1/2+z
1/2+x,1/2+y,z
1/2-x,1/2+y,1/2-z
1/2-x,1/2-y,-z
1/2+x,1/2-y,1/2+z
loop_
_atom_site_type_symbol
_atom_site_label
_atom_site_fract_x
_atom_site_fract_y
_atom_site_fract_z
Si Si1 0.159870 0.898471 0.736887
Si Si2 0.661732 0.851591 0.892849
Si Si3 0.420861 0.374583 0.480310
Si Si4 0.837713 0.754344 0.284961
Si Si5 0.343530 0.802886 0.086170
Si Si6 0.854972 0.839846 0.942624
O O1 0.291180 0.848781 0.673801
O O2 0.209297 0.839097 0.781551
O O3 0.000000 0.832883 0.750000
O O4 0.150160 0.080722 0.743427
O O5 0.533852 0.730390 0.927693
O O6 0.807336 0.804740 0.895632
O O7 0.610140 0.018942 0.922151
O O8 0.500000 0.500000 0.500000
O O9 0.316125 0.265506 0.535431
O O10 0.332466 0.476214 0.456986
O O11 0.798031 0.770799 0.351321
O O12 0.000000 0.674204 0.250000
O O13 0.477836 0.709670 0.083948
O O14 0.750000 0.750000 0.000000
#
# Coordination Sequence:
#
# PCOD8142002 Si02
#       6
#     8   8   8   8   8   8
#     4  10  23  43  67  94 129 171 216 269 323 378
#     4  11  22  40  63  91 129 165 210 262 324 385
#     4  10  21  38  60  91 123 163 204 257 320 378
#     4  10  23  44  64  94 130 167 219 269 318 383
#     4  10  22  41  61  91 128 161 215 267 313 388
#     4  11  22  40  61  90 128 164 207 261 319 388
#
# _framework density 22.71603
#
# number of rings (size 3 to 8) (size 9 to 14) (size 15 to 20)
#    0.000    1.667    3.333    1.500    0.000    8.000 
#    6.000    0.000    0.000    0.000    0.000    0.000 
#    0.000    0.000    0.000    0.000    0.000    0.000 
#
# Total GULP energy -297562.914122 kJ/mol
# GULP energy per Si atom -12398.454755 kJ/mol
# Density = 2.266433 g / cm^3
# Si number density = 22.716030 Si / 1000 Ang^3
#
#
#
# Elastic Constant Matrix: (Units=GPa)
#
#
# Indices 1 2 3 4 5 6 
#
# 1 69.5746 11.6787 8.0997 0.0000 -13.2031 0.0000
# 2 11.6787 101.4726 30.4685 0.0000 -16.7707 0.0000
# 3 8.0997 30.4685 82.2403 0.0000 -12.7523 0.0000
# 4 0.0000 0.0000 0.0000 34.0575 0.0000 -0.0995
# 5 -13.2031 -16.7707 -12.7523 0.0000 33.8246 0.0000
# 6 0.0000 0.0000 0.0000 -0.0995 0.0000 31.3004
#
#
#
# Elastic Compliance Matrix: (Units=1/GPa)
#
#
# Indices 1 2 3 4 5 6 
#
# 1 0.015602 -0.000758 -0.000393 0.000000 0.005566 0.000000
# 2 -0.000758 0.011715 -0.003623 0.000000 0.004147 0.000000
# 3 -0.000393 -0.003623 0.014060 0.000000 0.003351 0.000000
# 4 0.000000 0.000000 0.000000 0.029362 0.000000 0.000093
# 5 0.005566 0.004147 0.003351 0.000000 0.035057 0.000000
# 6 0.000000 0.000000 0.000000 0.000093 0.000000 0.031949
#
#
# Mechanical properties :
#
#
# Convention : Reuss Voigt Hill
#
# Bulk Modulus (GPa) = 31.41574 39.30903 35.36238
# Shear Modulus (GPa) = 31.66521 33.37254 32.51887
#
# Velocity S-wave (km/s) = 3.73763 3.83707 3.78767
# Velocity P-wave (km/s) = 5.69967 6.08053 5.89318
#
# Compressibility (1/GPa) = 0.03183118
#
# Stress axis : x y z
#
# Youngs Moduli (GPa) = 64.09297 85.35915 71.12405
#
# Poissons Ratio (x) = 0.06469 0.02793
# Poissons Ratio (y) = 0.04857 0.25765
# Poissons Ratio (z) = 0.02517 0.30922
#
# Static dielectric constant tensor:
#      x y z
#    x 3.841770 0.000000 0.290750 
#    y 0.000000 4.118700 0.000000 
#    z 0.290750 0.000000 4.332850 
# 
# 
# High freq. dielectric constant tensor:
#      x y z
#    x 1.893380 0.000000 0.004360 
#    y 0.000000 1.899930 0.000000 
#    z 0.004360 0.000000 1.898470 
# 
# From -- ./inp_files/267631.got.cif
#   From: 2010.06.25/outbox.cif.g09.slc.cpg/sg15_134_cif.got.tgz:267631.got - 2010.06.28 07:06:18.
