data_PCOD8142847
_publ_section_title
;
Structure prediction by ZEFSAII (Michael W. Deem and Ramdas Pophale) SiO2 
 PCOD8142847
Probable space group: C 2/C
;
_chemical_formula_sum "Si O2"
_cell_formula_units_Z 60
_cell_length_a 15.810323
_cell_length_b 10.641888
_cell_length_c 14.835724
_cell_angle_alpha 90.000000
_cell_angle_beta 76.687940
_cell_angle_gamma 90.000000
_cell_volume 2429.065492
_symmetry_space_group_name_H-M "C 2/C"
_symmetry_group_IT_number 15
_symmetry_cell_setting 'monoclinic'
loop_
_space_group_symop_operation_xyz
x,y,z
-x,y,1/2-z
-x,-y,-z
x,-y,1/2+z
1/2+x,1/2+y,z
1/2-x,1/2+y,1/2-z
1/2-x,1/2-y,-z
1/2+x,1/2-y,1/2+z
loop_
_atom_site_type_symbol
_atom_site_label
_atom_site_fract_x
_atom_site_fract_y
_atom_site_fract_z
Si Si1 0.000000 0.950800 0.750000
Si Si2 0.898948 0.159396 0.683994
Si Si3 0.722204 0.251813 0.141559
Si Si4 0.067209 0.272739 0.555980
Si Si5 0.145164 0.561715 0.818931
Si Si6 0.000698 0.256853 0.389911
Si Si7 0.874790 0.546317 0.996273
Si Si8 0.740839 0.518801 0.882338
O O1 0.030511 0.861818 0.660397
O O2 0.081418 0.036443 0.759177
O O3 0.840029 0.255869 0.755023
O O4 0.842859 0.107773 0.612517
O O5 0.988928 0.227728 0.639239
O O6 0.660528 0.271088 0.069962
O O7 0.788080 0.365864 0.131350
O O8 0.781696 0.127885 0.120203
O O9 0.066780 0.424889 0.546321
O O10 0.056339 0.207131 0.461698
O O11 0.184637 0.534918 0.712489
O O12 0.060173 0.645882 0.818124
O O13 0.127936 0.444723 0.892437
O O14 0.917846 0.326060 0.451866
O O15 0.780702 0.545958 0.970953
#
# Coordination Sequence:
#
# PCOD8142847 Si02
#       8
#     4   8   8   8   8   8   8   8
#     4  12  24  42  60  92 142 164 216 266 332 404
#     4  11  23  43  63  97 132 170 220 268 332 393
#     4  10  21  39  66  93 126 173 219 264 329 383
#     4  10  21  41  67  95 126 168 222 271 318 396
#     4  10  21  40  64  95 133 165 222 275 315 398
#     4  11  24  40  67  95 130 176 213 272 335 382
#     4  10  23  42  66 101 125 170 228 271 326 390
#     4  10  23  39  65  94 131 177 214 269 335 385
#
# _framework density 24.700856999999999
#
# number of rings (size 3 to 8) (size 9 to 14) (size 15 to 20)
#    0.000    1.600    1.333    3.200    3.733    7.467 
#    4.800    0.667    0.000    0.000    0.000    0.000 
#    0.000    0.000    0.000    0.000    0.000    0.000 
#
# Total GULP energy -371898.673723 kJ/mol
# GULP energy per Si atom -12396.622457 kJ/mol
# Density = 2.464464 g / cm^3
# Si number density = 24.700857 Si / 1000 Ang^3
#
#
#
# Elastic Constant Matrix: (Units=GPa)
#
#
# Indices 1 2 3 4 5 6 
#
# 1 63.7191 5.3150 -13.4414 0.0000 7.1592 0.0000
# 2 5.3150 36.4677 1.0979 0.0000 5.2846 0.0000
# 3 -13.4414 1.0979 51.2953 0.0000 16.2232 0.0000
# 4 0.0000 0.0000 0.0000 27.8294 0.0000 2.3452
# 5 7.1592 5.2846 16.2232 0.0000 36.1743 0.0000
# 6 0.0000 0.0000 0.0000 2.3452 0.0000 32.4054
#
#
#
# Elastic Compliance Matrix: (Units=1/GPa)
#
#
# Indices 1 2 3 4 5 6 
#
# 1 0.017985 -0.001910 0.006748 0.000000 -0.006307 0.000000
# 2 -0.001910 0.028246 0.000094 0.000000 -0.003790 0.000000
# 3 0.006748 0.000094 0.025273 0.000000 -0.012683 0.000000
# 4 0.000000 0.000000 0.000000 0.036154 0.000000 -0.002616
# 5 -0.006307 -0.003790 -0.012683 0.000000 0.035134 0.000000
# 6 0.000000 0.000000 0.000000 -0.002616 0.000000 0.031048
#
#
# Mechanical properties :
#
#
# Convention : Reuss Voigt Hill
#
# Bulk Modulus (GPa) = 12.28992 15.26945 13.77968
# Shear Modulus (GPa) = 26.16432 29.84921 28.00677
#
# Velocity S-wave (km/s) = 3.25814 3.48002 3.37090
# Velocity P-wave (km/s) = 4.37496 4.72679 4.55427
#
# Compressibility (1/GPa) = 0.08136751
#
# Stress axis : x y z
#
# Youngs Moduli (GPa) = 55.60061 35.40275 39.56846
#
# Poissons Ratio (x) = 0.06764 -0.26703
# Poissons Ratio (y) = 0.10622 -0.00370
# Poissons Ratio (z) = -0.37522 -0.00331
#
# Static dielectric constant tensor:
#      x y z
#    x 4.487570 0.000000 0.212270 
#    y 0.000000 4.323270 0.000000 
#    z 0.212270 0.000000 4.502690 
# 
# 
# High freq. dielectric constant tensor:
#      x y z
#    x 1.987450 0.000000 0.011850 
#    y 0.000000 1.968600 0.000000 
#    z 0.011850 0.000000 1.983440 
# 
# From -- ./inp_files/160889.got.cif
#   From: 2010.06.25/outbox.cif.g09.slc.cpg/sg15_81_cif.got.tgz:160889.got - 2010.06.28 07:06:18.
