data_PCOD8142146
_publ_section_title
;
Structure prediction by ZEFSAII (Michael W. Deem and Ramdas Pophale) SiO2 
 PCOD8142146
Probable space group: C 2/C
;
_chemical_formula_sum "Si O2"
_cell_formula_units_Z 40
_cell_length_a 13.047594
_cell_length_b 23.283781
_cell_length_c 8.446701
_cell_angle_alpha 90.000000
_cell_angle_beta 133.113023
_cell_angle_gamma 90.000000
_cell_volume 1873.259994
_symmetry_space_group_name_H-M "C 2/C"
_symmetry_group_IT_number 15
_symmetry_cell_setting 'monoclinic'
loop_
_space_group_symop_operation_xyz
x,y,z
-x,y,1/2-z
-x,-y,-z
x,-y,1/2+z
1/2+x,1/2+y,z
1/2-x,1/2+y,1/2-z
1/2-x,1/2-y,-z
1/2+x,1/2-y,1/2+z
loop_
_atom_site_type_symbol
_atom_site_label
_atom_site_fract_x
_atom_site_fract_y
_atom_site_fract_z
Si Si1 0.305388 0.238254 0.884785
Si Si2 0.532419 0.562302 0.967327
Si Si3 0.500000 0.843678 0.750000
Si Si4 0.351459 0.933911 0.790436
Si Si5 0.472038 0.681594 0.037015
Si Si6 0.000000 0.472836 0.250000
O O1 0.388377 0.292990 0.901062
O O2 0.171806 0.217358 0.642270
O O3 0.250000 0.250000 0.000000
O O4 0.424998 0.190387 0.029430
O O5 0.500000 0.563436 0.750000
O O6 0.500000 0.500000 0.000000
O O7 0.693428 0.571426 0.175098
O O8 0.448169 0.615222 0.958684
O O9 0.383407 0.879205 0.718580
O O10 0.380787 0.988921 0.709814
O O11 0.436162 0.933634 0.044737
O O12 0.500000 0.683967 0.250000
#
# Coordination Sequence:
#
# PCOD8142146 Si02
#       6
#     8   8   4   8   8   4
#     4  12  23  46  71  98 135 183 234 283 348 414
#     4  12  25  43  69  98 137 180 227 283 350 417
#     4  11  22  38  68  96 128 176 227 284 332 416
#     4  10  21  38  62  93 131 171 227 271 345 397
#     4  12  27  45  70 103 141 179 234 291 351 416
#     4   9  20  38  60  90 130 176 215 284 328 412
#
# _framework density 21.353149999999999
#
# number of rings (size 3 to 8) (size 9 to 14) (size 15 to 20)
#    0.000    0.800    2.000    6.000    0.000    4.800 
#    1.800    0.000    0.000    0.000    0.000    0.000 
#    0.000    0.000    0.000    0.000    0.000    0.000 
#
# Total GULP energy -247942.114443 kJ/mol
# GULP energy per Si atom -12397.105722 kJ/mol
# Density = 2.130455 g / cm^3
# Si number density = 21.353150 Si / 1000 Ang^3
#
#
#
# Elastic Constant Matrix: (Units=GPa)
#
#
# Indices 1 2 3 4 5 6 
#
# 1 88.8773 41.2028 33.0448 0.0000 -4.1719 0.0000
# 2 41.2028 125.5959 46.9462 0.0000 -1.2952 0.0000
# 3 33.0448 46.9462 126.4694 0.0000 -15.6504 0.0000
# 4 0.0000 0.0000 0.0000 24.7893 0.0000 -18.3723
# 5 -4.1719 -1.2952 -15.6504 0.0000 48.2256 0.0000
# 6 0.0000 0.0000 0.0000 -18.3723 0.0000 22.6611
#
#
#
# Elastic Compliance Matrix: (Units=1/GPa)
#
#
# Indices 1 2 3 4 5 6 
#
# 1 0.013800 -0.003708 -0.002182 0.000000 0.000386 0.000000
# 2 -0.003708 0.010279 -0.002972 0.000000 -0.001009 0.000000
# 3 -0.002182 -0.002972 0.009946 0.000000 0.002959 0.000000
# 4 0.000000 0.000000 0.000000 0.101070 0.000000 0.081941
# 5 0.000386 -0.001009 0.002959 0.000000 0.021703 0.000000
# 6 0.000000 0.000000 0.000000 0.081941 0.000000 0.110562
#
#
# Mechanical properties :
#
#
# Convention : Reuss Voigt Hill
#
# Bulk Modulus (GPa) = 61.33851 64.81449 63.07650
# Shear Modulus (GPa) = 17.21085 33.78511 25.49798
#
# Velocity S-wave (km/s) = 2.84211 3.98201 3.45934
# Velocity P-wave (km/s) = 6.28953 7.18063 6.74980
#
# Compressibility (1/GPa) = 0.01630297
#
# Stress axis : x y z
#
# Youngs Moduli (GPa) = 72.46625 97.28836 100.53927
#
# Poissons Ratio (x) = 0.36071 0.21933
# Poissons Ratio (y) = 0.26868 0.29877
# Poissons Ratio (z) = 0.15809 0.28911
#
# Static dielectric constant tensor:
#      x y z
#    x 4.157520 0.000000 0.060510 
#    y 0.000000 4.293530 0.000000 
#    z 0.060510 0.000000 4.858910 
# 
# 
# High freq. dielectric constant tensor:
#      x y z
#    x 1.844110 0.000000 0.000830 
#    y 0.000000 1.844000 0.000000 
#    z 0.000830 0.000000 1.849860 
# 
# From -- ./inp_files/42466.got.cif
#   From: 2010.06.25/outbox.cif.g09.slc.cpg/sg15_22_cif.got.tgz:42466.got - 2010.06.28 07:06:18.
