data_PCOD8142303
_publ_section_title
;
Structure prediction by ZEFSAII (Michael W. Deem and Ramdas Pophale) SiO2 
 PCOD8142303
Probable space group: C 2/C
;
_chemical_formula_sum "Si O2"
_cell_formula_units_Z 56
_cell_length_a 14.390304
_cell_length_b 14.632383
_cell_length_c 18.237203
_cell_angle_alpha 90.000000
_cell_angle_beta 134.970829
_cell_angle_gamma 90.000000
_cell_volume 2716.747419
_symmetry_space_group_name_H-M "C 2/C"
_symmetry_group_IT_number 15
_symmetry_cell_setting 'monoclinic'
loop_
_space_group_symop_operation_xyz
x,y,z
-x,y,1/2-z
-x,-y,-z
x,-y,1/2+z
1/2+x,1/2+y,z
1/2-x,1/2+y,1/2-z
1/2-x,1/2-y,-z
1/2+x,1/2-y,1/2+z
loop_
_atom_site_type_symbol
_atom_site_label
_atom_site_fract_x
_atom_site_fract_y
_atom_site_fract_z
Si Si1 0.462758 0.606331 0.907655
Si Si2 0.498029 0.264924 0.835640
Si Si3 0.537959 0.113181 0.185992
Si Si4 0.350469 0.235427 0.991277
Si Si5 0.739039 0.259466 0.278174
Si Si6 0.125238 0.936969 0.983471
Si Si7 0.428965 0.926602 0.134987
O O1 0.366529 0.663880 0.802536
O O2 0.528992 0.519124 0.903437
O O3 0.583569 0.670246 0.997874
O O4 0.383175 0.573381 0.933906
O O5 0.500000 0.281695 0.750000
O O6 0.347830 0.257329 0.777418
O O7 0.580189 0.345367 0.918500
O O8 0.566478 0.170957 0.903578
O O9 0.500000 0.125778 0.250000
O O10 0.681659 0.156984 0.258649
O O11 0.521617 0.006887 0.153342
O O12 0.453479 0.164272 0.078665
O O13 0.286921 0.197572 0.881554
O O14 0.250000 0.250000 0.000000
O O15 0.278187 0.960853 0.053592
O O16 0.500000 0.900659 0.250000
#
# Coordination Sequence:
#
# PCOD8142303 Si02
#       7
#     8   8   8   8   8   8   8
#     4  10  23  38  68  98 125 173 213 265 327 394
#     4  11  24  44  66  92 126 176 216 271 315 383
#     4  10  21  38  65  97 124 169 212 267 325 397
#     4  11  20  38  62  94 135 168 206 266 336 381
#     4  11  23  41  66  97 135 163 218 270 331 388
#     4  11  22  43  67  93 128 171 221 264 320 395
#     4  10  22  39  66  91 125 168 219 259 317 385
#
# _framework density 20.612884000000001
#
# number of rings (size 3 to 8) (size 9 to 14) (size 15 to 20)
#    0.000    1.429    2.857    3.000    2.000    1.143 
#    5.143    0.714    0.000    0.000    0.000    0.000 
#    0.000    0.000    0.000    0.000    0.000    0.000 
#
# Total GULP energy -346969.647141 kJ/mol
# GULP energy per Si atom -12391.773112 kJ/mol
# Density = 2.056597 g / cm^3
# Si number density = 20.612884 Si / 1000 Ang^3
#
#
#
# Elastic Constant Matrix: (Units=GPa)
#
#
# Indices 1 2 3 4 5 6 
#
# 1 106.9962 31.9706 35.6912 0.0000 8.3657 0.0000
# 2 31.9706 148.0411 42.3587 0.0000 4.5556 0.0000
# 3 35.6912 42.3587 103.7269 0.0000 2.0091 0.0000
# 4 0.0000 0.0000 0.0000 21.1285 0.0000 4.0918
# 5 8.3657 4.5556 2.0091 0.0000 28.1028 0.0000
# 6 0.0000 0.0000 0.0000 4.0918 0.0000 29.8759
#
#
#
# Elastic Compliance Matrix: (Units=1/GPa)
#
#
# Indices 1 2 3 4 5 6 
#
# 1 0.011043 -0.001388 -0.003178 0.000000 -0.002835 0.000000
# 2 -0.001388 0.007852 -0.002716 0.000000 -0.000665 0.000000
# 3 -0.003178 -0.002716 0.011833 0.000000 0.000540 0.000000
# 4 0.000000 0.000000 0.000000 0.048619 0.000000 -0.006659
# 5 -0.002835 -0.000665 0.000540 0.000000 0.036497 0.000000
# 6 0.000000 0.000000 0.000000 -0.006659 0.000000 0.034384
#
#
# Mechanical properties :
#
#
# Convention : Reuss Voigt Hill
#
# Bulk Modulus (GPa) = 61.86763 64.31168 63.08965
# Shear Modulus (GPa) = 29.38077 32.40436 30.89256
#
# Velocity S-wave (km/s) = 3.77949 3.96920 3.87551
# Velocity P-wave (km/s) = 7.00894 7.23005 7.12035
#
# Compressibility (1/GPa) = 0.01616354
#
# Stress axis : x y z
#
# Youngs Moduli (GPa) = 90.55814 127.35120 84.51062
#
# Poissons Ratio (x) = 0.17679 0.26856
# Poissons Ratio (y) = 0.12572 0.22954
# Poissons Ratio (z) = 0.28778 0.34589
#
# Static dielectric constant tensor:
#      x y z
#    x 3.742700 0.000000 0.166270 
#    y 0.000000 4.331430 0.000000 
#    z 0.166270 0.000000 3.597350 
# 
# 
# High freq. dielectric constant tensor:
#      x y z
#    x 1.799560 0.000000 0.016460 
#    y 0.000000 1.820660 0.000000 
#    z 0.016460 0.000000 1.804100 
# 
# From -- ./inp_files/205493.got.cif
#   From: 2010.06.25/outbox.cif.g09.slc.cpg/sg15_103_cif.got.tgz:205493.got - 2010.06.28 07:06:18.
