data_PCOD8142447
_publ_section_title
;
Structure prediction by ZEFSAII (Michael W. Deem and Ramdas Pophale) SiO2 
 PCOD8142447
Probable space group: C 2/C
;
_chemical_formula_sum "Si O2"
_cell_formula_units_Z 56
_cell_length_a 16.095929
_cell_length_b 22.342291
_cell_length_c 14.227338
_cell_angle_alpha 90.000000
_cell_angle_beta 36.309177
_cell_angle_gamma 90.000000
_cell_volume 3029.656943
_symmetry_space_group_name_H-M "C 2/C"
_symmetry_group_IT_number 15
_symmetry_cell_setting 'monoclinic'
loop_
_space_group_symop_operation_xyz
x,y,z
-x,y,1/2-z
-x,-y,-z
x,-y,1/2+z
1/2+x,1/2+y,z
1/2-x,1/2+y,1/2-z
1/2-x,1/2-y,-z
1/2+x,1/2-y,1/2+z
loop_
_atom_site_type_symbol
_atom_site_label
_atom_site_fract_x
_atom_site_fract_y
_atom_site_fract_z
Si Si1 0.345040 0.931141 0.435251
Si Si2 0.339787 0.949219 0.858208
Si Si3 0.732254 0.749463 0.367505
Si Si4 0.854663 0.300746 0.432400
Si Si5 0.086204 0.439848 0.916857
Si Si6 0.156796 0.841170 0.092947
Si Si7 0.030244 0.692396 0.469907
O O1 0.500000 0.931306 0.250000
O O2 0.284967 0.865002 0.466977
O O3 0.329504 0.938770 0.562168
O O4 0.268764 0.987284 0.454712
O O5 0.500000 0.945938 0.750000
O O6 0.321397 0.943641 0.762308
O O7 0.256386 0.896662 0.983052
O O8 0.786990 0.810139 0.364398
O O9 0.654010 0.707054 0.512395
O O10 0.864279 0.712983 0.207955
O O11 0.614725 0.770141 0.398931
O O12 0.750000 0.250000 0.500000
O O13 0.882696 0.295781 0.516490
O O14 0.000000 0.289386 0.250000
O O15 0.995095 0.378598 0.992396
O O16 0.000000 0.500000 0.000000
O O17 0.000000 0.865459 0.250000
#
# Coordination Sequence:
#
# PCOD8142447 Si02
#       7
#     8   8   8   8   8   8   8
#     4   9  19  33  55  85 115 144 196 247 288 342
#     4  11  20  35  61  86 114 155 196 246 296 342
#     4  11  22  37  56  89 119 161 192 237 297 357
#     4  10  21  39  59  85 115 152 196 250 300 344
#     4  11  19  33  55  89 115 144 197 250 291 338
#     4  11  23  37  56  84 129 154 192 232 299 366
#     4  11  22  37  60  88 122 154 198 247 297 353
#
# _framework density 18.483941000000002
#
# number of rings (size 3 to 8) (size 9 to 14) (size 15 to 20)
#    0.000    1.429    5.714    1.714    0.000    0.000 
#    0.000    0.714    0.000    0.857    0.000    0.000 
#    0.000    0.000    0.000    0.000    0.000    0.000 
#
# Total GULP energy -346943.208876 kJ/mol
# GULP energy per Si atom -12390.828888 kJ/mol
# Density = 1.844187 g / cm^3
# Si number density = 18.483941 Si / 1000 Ang^3
#
#
#
# Elastic Constant Matrix: (Units=GPa)
#
#
# Indices 1 2 3 4 5 6 
#
# 1 64.0588 58.0158 29.5168 -0.0070 9.8330 0.0043
# 2 58.0158 163.3215 41.4989 -0.0040 -8.1968 0.0041
# 3 29.5168 41.4989 75.8416 -0.0147 6.8125 0.0135
# 4 -0.0070 -0.0040 -0.0147 34.5664 0.0083 5.3182
# 5 9.8330 -8.1968 6.8125 0.0083 32.7630 -0.0061
# 6 0.0043 0.0041 0.0135 5.3182 -0.0061 27.2569
#
#
#
# Elastic Compliance Matrix: (Units=1/GPa)
#
#
# Indices 1 2 3 4 5 6 
#
# 1 0.027466 -0.008980 -0.004926 0.000005 -0.009466 -0.000004
# 2 -0.008980 0.010279 -0.002652 -0.000004 0.005818 0.000003
# 3 -0.004926 -0.002652 0.016794 0.000008 -0.002677 -0.000009
# 4 0.000005 -0.000004 0.000008 0.029825 -0.000013 -0.005819
# 5 -0.009466 0.005818 -0.002677 -0.000013 0.035375 0.000012
# 6 -0.000004 0.000003 -0.000009 -0.005819 0.000012 0.037823
#
#
# Mechanical properties :
#
#
# Convention : Reuss Voigt Hill
#
# Bulk Modulus (GPa) = 46.67759 62.36499 54.52129
# Shear Modulus (GPa) = 25.27558 30.52997 27.90278
#
# Velocity S-wave (km/s) = 3.70190 4.06852 3.88953
# Velocity P-wave (km/s) = 6.60151 7.47555 7.05208
#
# Compressibility (1/GPa) = 0.02142356
#
# Stress axis : x y z
#
# Youngs Moduli (GPa) = 36.40826 97.28837 59.54543
#
# Poissons Ratio (x) = 0.87367 0.29329
# Poissons Ratio (y) = 0.32695 0.15791
# Poissons Ratio (z) = 0.17933 0.25800
#
# Static dielectric constant tensor:
#      x y z
#    x 2.613760 -0.004520 -0.349030 
#    y -0.004520 -0.751500 -0.004750 
#    z -0.349030 -0.004750 2.570930 
# 
# 
# High freq. dielectric constant tensor:
#      x y z
#    x 1.696650 0.000000 0.035170 
#    y 0.000000 1.742600 0.000000 
#    z 0.035170 0.000000 1.699660 
# 
# From -- ./inp_files/163768.got.cif
#   From: 2010.06.25/outbox.cif.g09.slc.cpg/sg15_82_cif.got.tgz:163768.got - 2010.06.28 07:06:18.
