data_PCOD8142468
_publ_section_title
;
Structure prediction by ZEFSAII (Michael W. Deem and Ramdas Pophale) SiO2 
 PCOD8142468
Probable space group: C 2/C
;
_chemical_formula_sum "Si O2"
_cell_formula_units_Z 48
_cell_length_a 12.698570
_cell_length_b 11.838958
_cell_length_c 16.538323
_cell_angle_alpha 90.000000
_cell_angle_beta 111.102529
_cell_angle_gamma 90.000000
_cell_volume 2319.596175
_symmetry_space_group_name_H-M "C 2/C"
_symmetry_group_IT_number 15
_symmetry_cell_setting 'monoclinic'
loop_
_space_group_symop_operation_xyz
x,y,z
-x,y,1/2-z
-x,-y,-z
x,-y,1/2+z
1/2+x,1/2+y,z
1/2-x,1/2+y,1/2-z
1/2-x,1/2-y,-z
1/2+x,1/2-y,1/2+z
loop_
_atom_site_type_symbol
_atom_site_label
_atom_site_fract_x
_atom_site_fract_y
_atom_site_fract_z
Si Si1 0.729974 0.263582 0.589746
Si Si2 0.878242 0.419490 0.742366
Si Si3 0.714672 0.431076 0.280919
Si Si4 0.510735 0.373903 0.969791
Si Si5 0.610112 0.652677 0.324772
Si Si6 0.156367 0.758299 0.141893
O O1 0.750000 0.250000 0.500000
O O2 0.824814 0.342092 0.656907
O O3 0.732264 0.138438 0.629375
O O4 0.611950 0.321919 0.578062
O O5 0.807983 0.531748 0.741052
O O6 0.887298 0.357827 0.831714
O O7 0.000000 0.461089 0.750000
O O8 0.641652 0.536024 0.289838
O O9 0.635318 0.350460 0.206002
O O10 0.582730 0.377405 0.908710
O O11 0.500000 0.500000 0.000000
O O12 0.578983 0.289883 0.045966
O O13 0.500000 0.704256 0.250000
O O14 0.712155 0.742662 0.347215
#
# Coordination Sequence:
#
# PCOD8142468 Si02
#       6
#     8   8   8   8   8   8
#     4  11  23  40  61  90 121 158 202 249 299 358
#     4  10  21  39  60  85 118 156 196 243 299 356
#     4  10  22  39  60  85 118 155 197 242 298 357
#     4  12  23  39  62  88 118 155 199 248 299 358
#     4  11  22  39  61  88 118 155 197 243 295 354
#     4  10  22  40  59  86 118 155 196 243 296 355
#
# _framework density 20.693256999999999
#
# number of rings (size 3 to 8) (size 9 to 14) (size 15 to 20)
#    0.000    1.333    0.000    7.500    0.000    6.000 
#    0.000    9.167    0.000    0.000    0.000    0.000 
#    0.000    0.000    0.000    0.000    0.000    0.000 
#
# Total GULP energy -297602.594831 kJ/mol
# GULP energy per Si atom -12400.108118 kJ/mol
# Density = 2.064616 g / cm^3
# Si number density = 20.693257 Si / 1000 Ang^3
#
#
#
# Elastic Constant Matrix: (Units=GPa)
#
#
# Indices 1 2 3 4 5 6 
#
# 1 91.7316 -4.1754 17.0663 0.0000 -6.0675 0.0000
# 2 -4.1754 43.0827 5.1027 0.0000 0.4701 0.0000
# 3 17.0663 5.1027 95.0912 0.0000 -10.0181 0.0000
# 4 0.0000 0.0000 0.0000 24.0304 0.0000 -3.2066
# 5 -6.0675 0.4701 -10.0181 0.0000 44.2411 0.0000
# 6 0.0000 0.0000 0.0000 -3.2066 0.0000 24.2395
#
#
#
# Elastic Compliance Matrix: (Units=1/GPa)
#
#
# Indices 1 2 3 4 5 6 
#
# 1 0.011407 0.001331 -0.002003 0.000000 0.001097 0.000000
# 2 0.001331 0.023528 -0.001545 0.000000 -0.000417 0.000000
# 3 -0.002003 -0.001545 0.011199 0.000000 0.002278 0.000000
# 4 0.000000 0.000000 0.000000 0.042362 0.000000 0.005604
# 5 0.001097 -0.000417 0.002278 0.000000 0.023274 0.000000
# 6 0.000000 0.000000 0.000000 0.005604 0.000000 0.041996
#
#
# Mechanical properties :
#
#
# Convention : Reuss Voigt Hill
#
# Bulk Modulus (GPa) = 23.98186 29.54363 26.76275
# Shear Modulus (GPa) = 29.05280 32.62963 30.84122
#
# Velocity S-wave (km/s) = 3.75103 3.97523 3.86476
# Velocity P-wave (km/s) = 5.51132 5.94793 5.73378
#
# Compressibility (1/GPa) = 0.04169818
#
# Stress axis : x y z
#
# Youngs Moduli (GPa) = 87.66416 42.50300 89.29681
#
# Poissons Ratio (x) = -0.05656 0.17888
# Poissons Ratio (y) = -0.11667 0.13799
# Poissons Ratio (z) = 0.17561 0.06568
#
# Static dielectric constant tensor:
#      x y z
#    x 3.855470 0.000000 -0.076190 
#    y 0.000000 3.842050 0.000000 
#    z -0.076190 0.000000 3.818100 
# 
# 
# High freq. dielectric constant tensor:
#      x y z
#    x 1.818910 0.000000 -0.008230 
#    y 0.000000 1.811840 0.000000 
#    z -0.008230 0.000000 1.816060 
# 
# From -- ./inp_files/196479.got.cif
#   From: 2010.06.25/outbox.cif.g09.slc.cpg/sg15_99_cif.got.tgz:196479.got - 2010.06.28 07:06:18.
