data_PCOD8142712
_publ_section_title
;
Structure prediction by ZEFSAII (Michael W. Deem and Ramdas Pophale) SiO2 
 PCOD8142712
Probable space group: C 2/C
;
_chemical_formula_sum "Si O2"
_cell_formula_units_Z 48
_cell_length_a 11.261340
_cell_length_b 11.089510
_cell_length_c 18.314945
_cell_angle_alpha 90.000000
_cell_angle_beta 89.323764
_cell_angle_gamma 90.000000
_cell_volume 2287.061258
_symmetry_space_group_name_H-M "C 2/C"
_symmetry_group_IT_number 15
_symmetry_cell_setting 'monoclinic'
loop_
_space_group_symop_operation_xyz
x,y,z
-x,y,1/2-z
-x,-y,-z
x,-y,1/2+z
1/2+x,1/2+y,z
1/2-x,1/2+y,1/2-z
1/2-x,1/2-y,-z
1/2+x,1/2-y,1/2+z
loop_
_atom_site_type_symbol
_atom_site_label
_atom_site_fract_x
_atom_site_fract_y
_atom_site_fract_z
Si Si1 0.493516 0.205715 0.834610
Si Si2 0.180466 0.497498 0.329482
Si Si3 0.351158 0.342293 0.412549
Si Si4 0.064182 0.260980 0.822179
Si Si5 0.842309 0.136033 0.079608
Si Si6 0.258190 0.925238 0.326651
O O1 0.500000 0.243680 0.750000
O O2 0.579182 0.095504 0.852743
O O3 0.536431 0.321983 0.880614
O O4 0.361869 0.161565 0.857715
O O5 0.302930 0.458258 0.367967
O O6 0.137086 0.628176 0.357334
O O7 0.195478 0.503927 0.241715
O O8 0.475890 0.295092 0.381850
O O9 0.258856 0.234029 0.406888
O O10 0.372106 0.383734 0.495031
O O11 0.154976 0.158790 0.795886
O O12 0.000000 0.308868 0.750000
O O13 0.792915 0.010093 0.110052
#
# Coordination Sequence:
#
# PCOD8142712 Si02
#       6
#     8   8   8   8   8   8
#     4   9  20  38  60  91 118 162 214 258 315 367
#     4  10  21  39  64  88 124 160 212 266 305 377
#     4  10  22  42  62  96 118 168 212 253 324 370
#     4  12  23  39  63  91 127 163 212 263 312 376
#     4  10  22  40  66  86 130 160 210 265 306 386
#     4  11  23  37  61  92 122 165 211 258 317 371
#
# _framework density 20.987632999999999
#
# number of rings (size 3 to 8) (size 9 to 14) (size 15 to 20)
#    0.000    1.667    1.667    3.500    4.667    4.000 
#    0.000    6.667    0.000    0.000    0.000    0.000 
#    0.000    0.000    0.000    0.000    0.000    0.000 
#
# Total GULP energy -297661.894290 kJ/mol
# GULP energy per Si atom -12402.578929 kJ/mol
# Density = 2.093986 g / cm^3
# Si number density = 20.987633 Si / 1000 Ang^3
#
#
#
# Elastic Constant Matrix: (Units=GPa)
#
#
# Indices 1 2 3 4 5 6 
#
# 1 115.7912 63.0997 53.0960 0.0000 -6.4696 0.0000
# 2 63.0997 66.6980 43.9339 0.0000 9.4620 0.0000
# 3 53.0960 43.9339 90.1183 0.0000 7.5117 0.0000
# 4 0.0000 0.0000 0.0000 24.9089 0.0000 -0.0061
# 5 -6.4696 9.4620 7.5117 0.0000 28.5869 0.0000
# 6 0.0000 0.0000 0.0000 -0.0061 0.0000 39.5417
#
#
#
# Elastic Compliance Matrix: (Units=1/GPa)
#
#
# Indices 1 2 3 4 5 6 
#
# 1 0.022267 -0.019942 -0.004465 0.000000 0.012813 0.000000
# 2 -0.019942 0.040548 -0.006669 0.000000 -0.016182 0.000000
# 3 -0.004465 -0.006669 0.017257 0.000000 -0.003338 0.000000
# 4 0.000000 0.000000 0.000000 0.040146 0.000000 0.000006
# 5 0.012813 -0.016182 -0.003338 0.000000 0.044114 0.000000
# 6 0.000000 0.000000 0.000000 0.000006 0.000000 0.025290
#
#
# Mechanical properties :
#
#
# Convention : Reuss Voigt Hill
#
# Bulk Modulus (GPa) = 55.80859 65.87407 60.84133
# Shear Modulus (GPa) = 19.39877 26.10606 22.75242
#
# Velocity S-wave (km/s) = 3.04352 3.53069 3.29612
# Velocity P-wave (km/s) = 6.24497 6.93371 6.59833
#
# Compressibility (1/GPa) = 0.01791839
#
# Stress axis : x y z
#
# Youngs Moduli (GPa) = 44.90927 24.66212 57.94776
#
# Poissons Ratio (x) = 0.49182 0.25875
# Poissons Ratio (y) = 0.89559 0.38647
# Poissons Ratio (z) = 0.20053 0.16448
#
# Static dielectric constant tensor:
#      x y z
#    x 3.992290 0.000000 0.103020 
#    y 0.000000 3.657840 0.000000 
#    z 0.103020 0.000000 3.603980 
# 
# 
# High freq. dielectric constant tensor:
#      x y z
#    x 1.832910 0.000000 0.002290 
#    y 0.000000 1.819490 0.000000 
#    z 0.002290 0.000000 1.802210 
# 
# From -- ./inp_files/196013.got.cif
#   From: 2010.06.25/outbox.cif.g09.slc.cpg/sg15_99_cif.got.tgz:196013.got - 2010.06.28 07:06:18.
