data_PCOD8142253
_publ_section_title
;
Structure prediction by ZEFSAII (Michael W. Deem and Ramdas Pophale) SiO2 
 PCOD8142253
Probable space group: C 2/C
;
_chemical_formula_sum "Si O2"
_cell_formula_units_Z 64
_cell_length_a 22.101870
_cell_length_b 18.413610
_cell_length_c 18.180111
_cell_angle_alpha 90.000000
_cell_angle_beta 155.039129
_cell_angle_gamma 90.000000
_cell_volume 3122.310848
_symmetry_space_group_name_H-M "C 2/C"
_symmetry_group_IT_number 15
_symmetry_cell_setting 'monoclinic'
loop_
_space_group_symop_operation_xyz
x,y,z
-x,y,1/2-z
-x,-y,-z
x,-y,1/2+z
1/2+x,1/2+y,z
1/2-x,1/2+y,1/2-z
1/2-x,1/2-y,-z
1/2+x,1/2-y,1/2+z
loop_
_atom_site_type_symbol
_atom_site_label
_atom_site_fract_x
_atom_site_fract_y
_atom_site_fract_z
Si Si1 0.628128 0.949687 0.071041
Si Si2 0.385833 0.666906 0.040154
Si Si3 0.330426 0.321925 0.305274
Si Si4 0.147240 0.809170 0.630523
Si Si5 0.186417 0.438739 0.753114
Si Si6 0.802376 0.202611 0.145638
Si Si7 0.845616 0.992952 0.558143
Si Si8 0.142568 0.555210 0.953277
O O1 0.749565 0.892086 0.183622
O O2 0.671080 0.983462 0.196835
O O3 0.474099 0.909052 0.907303
O O4 0.615052 0.015595 0.999613
O O5 0.553049 0.686993 0.242386
O O6 0.352819 0.586648 0.030661
O O7 0.358231 0.670675 0.922835
O O8 0.279073 0.722213 0.966821
O O9 0.229867 0.252978 0.176067
O O10 0.479123 0.314560 0.424078
O O11 0.226115 0.884932 0.702823
O O12 0.150184 0.787778 0.718514
O O13 0.272950 0.449695 0.923659
O O14 0.691201 0.137138 0.019764
O O15 0.759363 0.991193 0.538709
O O16 0.000000 0.023634 0.750000
O O17 0.000000 0.558431 0.750000
#
# Coordination Sequence:
#
# PCOD8142253 Si02
#       8
#     8   8   8   8   8   8   8   8
#     4  11  23  40  65  91 122 162 211 255 303 364
#     4  10  22  38  58  88 122 167 209 247 299 362
#     4  10  21  38  64  93 124 157 205 260 305 359
#     4  10  21  38  64  93 122 158 205 259 307 356
#     4  11  23  40  65  92 120 164 209 256 305 359
#     4  10  22  38  58  86 124 166 208 248 298 366
#     4  12  25  41  59  89 130 163 205 255 306 366
#     4  12  25  41  57  90 127 166 201 251 315 363
#
# _framework density 20.497637999999998
#
# number of rings (size 3 to 8) (size 9 to 14) (size 15 to 20)
#    0.000    1.250    5.000    0.750    3.500    2.500 
#    0.000    0.000    0.000    1.500    0.000    0.000 
#    0.000    0.000    0.000    0.000    0.000    0.000 
#
# Total GULP energy -396906.697183 kJ/mol
# GULP energy per Si atom -12403.334287 kJ/mol
# Density = 2.045098 g / cm^3
# Si number density = 20.497638 Si / 1000 Ang^3
#
#
#
# Elastic Constant Matrix: (Units=GPa)
#
#
# Indices 1 2 3 4 5 6 
#
# 1 19.8584 -68.8210 8.0485 0.0044 5.8106 0.0053
# 2 -68.8210 -169.4236 5.3353 0.0107 -34.2016 0.0175
# 3 8.0485 5.3353 137.6170 0.0036 15.2278 0.0037
# 4 0.0044 0.0107 0.0036 36.2545 0.0050 4.1772
# 5 5.8106 -34.2016 15.2278 0.0050 29.2572 0.0043
# 6 0.0053 0.0175 0.0037 4.1772 0.0043 29.2816
#
#
#
# Elastic Compliance Matrix: (Units=1/GPa)
#
#
# Indices 1 2 3 4 5 6 
#
# 1 0.026989 -0.007953 0.000373 0.000001 -0.014852 0.000002
# 2 -0.007953 -0.002339 0.000725 0.000001 -0.001533 0.000003
# 3 0.000373 0.000725 0.007567 0.000000 -0.003164 -0.000001
# 4 0.000001 0.000001 0.000000 0.028044 -0.000002 -0.004001
# 5 -0.014852 -0.001533 -0.003164 -0.000002 0.036984 -0.000001
# 6 0.000002 0.000003 -0.000001 -0.004001 -0.000001 0.034722
#
#
# Mechanical properties :
#
#
# Convention : Reuss Voigt Hill
#
# Bulk Modulus (GPa) = 54.03311 -13.64696 20.19307
# Shear Modulus (GPa) = 32.92861 21.85793 27.39327
#
# Velocity S-wave (km/s) = 4.01241 3.26906 3.65966
# Velocity P-wave (km/s) = 6.91981 2.75259 5.26596
#
# Compressibility (1/GPa) = 0.01850717
#
# Stress axis : x y z
#
# Youngs Moduli (GPa) = 37.05262 -427.44847 132.15729
#
# Poissons Ratio (x) = -3.39955 -0.04933
# Poissons Ratio (y) = 0.29468 -0.09587
# Poissons Ratio (z) = -0.01383 0.31009
#
# Static dielectric constant tensor:
#      x y z
#    x 3.515790 -0.000020 0.196070 
#    y -0.000020 3.454410 -0.000020 
#    z 0.196070 -0.000020 4.023830 
# 
# 
# High freq. dielectric constant tensor:
#      x y z
#    x 1.790000 0.000000 0.013520 
#    y 0.000000 1.783450 0.000000 
#    z 0.013520 0.000000 1.820700 
# 
# From -- ./inp_files/63439.got.cif
#   From: 2010.06.25/outbox.cif.g09.slc.cpg/sg15_32_cif.got.tgz:63439.got - 2010.06.28 07:06:18.
