data_PCOD8142042
_publ_section_title
;
Structure prediction by ZEFSAII (Michael W. Deem and Ramdas Pophale) SiO2 
 PCOD8142042
Probable space group: C 2/C
;
_chemical_formula_sum "Si O2"
_cell_formula_units_Z 64
_cell_length_a 17.416465
_cell_length_b 24.315006
_cell_length_c 14.813136
_cell_angle_alpha 90.000000
_cell_angle_beta 149.987809
_cell_angle_gamma 90.000000
_cell_volume 3137.700015
_symmetry_space_group_name_H-M "C 2/C"
_symmetry_group_IT_number 15
_symmetry_cell_setting 'monoclinic'
loop_
_space_group_symop_operation_xyz
x,y,z
-x,y,1/2-z
-x,-y,-z
x,-y,1/2+z
1/2+x,1/2+y,z
1/2-x,1/2+y,1/2-z
1/2-x,1/2-y,-z
1/2+x,1/2-y,1/2+z
loop_
_atom_site_type_symbol
_atom_site_label
_atom_site_fract_x
_atom_site_fract_y
_atom_site_fract_z
Si Si1 0.755467 0.493403 0.755977
Si Si2 0.026813 0.715660 0.996376
Si Si3 0.280504 0.752267 0.375043
Si Si4 0.035540 0.170712 0.691494
Si Si5 0.518350 0.009421 0.666122
Si Si6 0.920084 0.822219 0.572142
Si Si7 0.920136 0.364673 0.258033
Si Si8 0.478681 0.410697 0.489194
O O1 0.628825 0.447311 0.637998
O O2 0.676039 0.553004 0.664339
O O3 0.857356 0.478284 0.770888
O O4 0.855460 0.493367 0.949584
O O5 0.055521 0.766559 0.958623
O O6 0.858140 0.719397 0.867801
O O7 0.030158 0.657346 0.949679
O O8 0.149588 0.712489 0.201600
O O9 0.201524 0.799155 0.356956
O O10 0.403680 0.717077 0.554428
O O11 0.000000 0.140225 0.750000
O O12 0.026421 0.126836 0.603927
O O13 0.500000 0.984788 0.750000
O O14 0.587854 0.070129 0.745440
O O15 0.742144 0.834627 0.404254
O O16 0.000000 0.816991 0.750000
O O17 0.994379 0.873022 0.593368
O O18 0.000000 0.343557 0.250000
#
# Coordination Sequence:
#
# PCOD8142042 Si02
#       8
#     8   8   8   8   8   8   8   8
#     4  10  24  43  67  89 122 160 206 268 311 359
#     4  11  21  38  61  90 131 166 201 245 298 373
#     4  10  21  38  61  87 124 162 199 258 299 358
#     4  11  23  41  64  91 124 165 211 256 307 366
#     4  10  23  43  65  92 123 159 205 254 315 371
#     4  12  25  39  62  96 132 162 204 249 302 379
#     4  11  24  37  59  92 129 167 203 244 302 375
#     4  11  23  43  64  92 122 162 210 256 313 362
#
# _framework density 20.397105
#
# number of rings (size 3 to 8) (size 9 to 14) (size 15 to 20)
#    0.000    1.250    5.000    0.750    7.000    2.000 
#    0.000    2.500    0.000    1.500    0.000    0.000 
#    0.000    0.000    0.000    0.000    0.000    0.000 
#
# Total GULP energy -396685.031461 kJ/mol
# GULP energy per Si atom -12396.407233 kJ/mol
# Density = 2.035068 g / cm^3
# Si number density = 20.397105 Si / 1000 Ang^3
#
#
#
# Elastic Constant Matrix: (Units=GPa)
#
#
# Indices 1 2 3 4 5 6 
#
# 1 141.2530 19.2052 43.4684 0.0000 -3.0895 0.0000
# 2 19.2052 38.5334 11.1249 0.0000 1.7531 0.0000
# 3 43.4684 11.1249 71.7827 0.0000 11.5412 0.0000
# 4 0.0000 0.0000 0.0000 1.4989 0.0000 -12.7168
# 5 -3.0895 1.7531 11.5412 0.0000 30.9474 0.0000
# 6 0.0000 0.0000 0.0000 -12.7168 0.0000 0.7720
#
#
#
# Elastic Compliance Matrix: (Units=1/GPa)
#
#
# Indices 1 2 3 4 5 6 
#
# 1 0.009326 -0.003156 -0.005677 0.000000 0.003227 0.000000
# 2 -0.003156 0.028235 -0.002295 0.000000 -0.001059 0.000000
# 3 -0.005677 -0.002295 0.018930 0.000000 -0.007496 0.000000
# 4 0.000000 0.000000 0.000000 -0.004808 0.000000 -0.079203
# 5 0.003227 -0.001059 -0.007496 0.000000 0.035491 0.000000
# 6 0.000000 0.000000 0.000000 -0.079203 0.000000 -0.009335
#
#
# Mechanical properties :
#
#
# Convention : Reuss Voigt Hill
#
# Bulk Modulus (GPa) = 29.20950 44.35181 36.78065
# Shear Modulus (GPa) = 44.84086 18.49503 31.66795
#
# Velocity S-wave (km/s) = 4.69379 3.01449 3.94454
# Velocity P-wave (km/s) = 6.61264 5.82302 6.23035
#
# Compressibility (1/GPa) = 0.03423544
#
# Stress axis : x y z
#
# Youngs Moduli (GPa) = 107.22386 35.41690 52.82699
#
# Poissons Ratio (x) = 0.11178 0.29992
# Poissons Ratio (y) = 0.33840 0.12121
# Poissons Ratio (z) = 0.60874 0.08126
#
# Static dielectric constant tensor:
#      x y z
#    x 4.120450 0.000000 0.092130 
#    y 0.000000 3.577790 0.000000 
#    z 0.092130 0.000000 3.835390 
# 
# 
# High freq. dielectric constant tensor:
#      x y z
#    x 1.820080 0.000000 0.008210 
#    y 0.000000 1.780260 0.000000 
#    z 0.008210 0.000000 1.800380 
# 
# From -- ./inp_files/164281.got.cif
#   From: 2010.06.25/outbox.cif.g09.slc.cpg/sg15_83_cif.got.tgz:164281.got - 2010.06.28 07:06:18.
