data_PCOD8142248
_publ_section_title
;
Structure prediction by ZEFSAII (Michael W. Deem and Ramdas Pophale) SiO2 
 PCOD8142248
Probable space group: C 2/C
;
_chemical_formula_sum "Si O2"
_cell_formula_units_Z 56
_cell_length_a 13.999032
_cell_length_b 21.052334
_cell_length_c 13.909398
_cell_angle_alpha 90.000000
_cell_angle_beta 42.069968
_cell_angle_gamma 90.000000
_cell_volume 2746.665522
_symmetry_space_group_name_H-M "C 2/C"
_symmetry_group_IT_number 15
_symmetry_cell_setting 'monoclinic'
loop_
_space_group_symop_operation_xyz
x,y,z
-x,y,1/2-z
-x,-y,-z
x,-y,1/2+z
1/2+x,1/2+y,z
1/2-x,1/2+y,1/2-z
1/2-x,1/2-y,-z
1/2+x,1/2-y,1/2+z
loop_
_atom_site_type_symbol
_atom_site_label
_atom_site_fract_x
_atom_site_fract_y
_atom_site_fract_z
Si Si1 0.860826 0.539522 0.631186
Si Si2 0.610928 0.546800 0.370871
Si Si3 0.380363 0.247911 0.626847
Si Si4 0.946294 0.153857 0.394471
Si Si5 0.400234 0.853523 0.958307
Si Si6 0.291872 0.145552 0.336090
Si Si7 0.856806 0.359815 0.297117
O O1 0.730296 0.491434 0.724491
O O2 0.826659 0.592655 0.577385
O O3 0.871086 0.574003 0.727697
O O4 0.000000 0.500000 0.500000
O O5 0.500000 0.500000 0.500000
O O6 0.531891 0.589922 0.352390
O O7 0.679294 0.589161 0.404421
O O8 0.514386 0.289946 0.560981
O O9 0.426828 0.210971 0.496719
O O10 0.248534 0.293156 0.697139
O O11 0.331518 0.199142 0.745177
O O12 0.777222 0.139527 0.529147
O O13 0.000000 0.176632 0.250000
O O14 0.554152 0.879483 0.811740
O O15 0.297440 0.838315 0.945152
O O16 0.000000 0.349578 0.250000
#
# Coordination Sequence:
#
# PCOD8142248 Si02
#       7
#     8   8   8   8   8   8   8
#     4  11  23  41  65  93 127 165 204 256 311 371
#     4  11  23  43  63  89 130 164 202 258 312 367
#     4  10  22  40  64  89 129 159 207 259 319 365
#     4  11  25  41  64  93 125 166 208 260 318 372
#     4  10  21  38  64  93 121 162 207 253 305 369
#     4  10  21  38  64  92 122 162 207 252 306 370
#     4  11  25  41  64  94 124 164 214 259 310 377
#
# _framework density 20.388358
#
# number of rings (size 3 to 8) (size 9 to 14) (size 15 to 20)
#    0.000    1.429    2.857    1.714    2.000    5.714 
#    0.000    0.000    0.000    0.000    0.000    0.000 
#    0.000    0.000    0.000    0.000    0.000    0.000 
#
# Total GULP energy -347240.986914 kJ/mol
# GULP energy per Si atom -12401.463818 kJ/mol
# Density = 2.034195 g / cm^3
# Si number density = 20.388358 Si / 1000 Ang^3
#
#
#
# Elastic Constant Matrix: (Units=GPa)
#
#
# Indices 1 2 3 4 5 6 
#
# 1 138.5439 55.4012 59.9784 0.0024 0.1824 -0.0015
# 2 55.4012 121.4306 48.1848 0.0023 -3.0040 -0.0013
# 3 59.9784 48.1848 131.2528 0.0075 -10.6214 -0.0053
# 4 0.0024 0.0023 0.0075 33.0205 -0.0041 -1.2686
# 5 0.1824 -3.0040 -10.6214 -0.0041 35.9457 0.0025
# 6 -0.0015 -0.0013 -0.0053 -1.2686 0.0025 20.7493
#
#
#
# Elastic Compliance Matrix: (Units=1/GPa)
#
#
# Indices 1 2 3 4 5 6 
#
# 1 0.010025 -0.003214 -0.003511 0.000000 -0.001357 0.000000
# 2 -0.003214 0.010672 -0.002434 0.000000 0.000189 0.000000
# 3 -0.003511 -0.002434 0.010349 -0.000001 0.002872 0.000002
# 4 0.000000 0.000000 -0.000001 0.030356 0.000003 0.001856
# 5 -0.001357 0.000189 0.002872 0.000003 0.028691 -0.000003
# 6 0.000000 0.000000 0.000002 0.001856 -0.000003 0.048308
#
#
# Mechanical properties :
#
#
# Convention : Reuss Voigt Hill
#
# Bulk Modulus (GPa) = 78.56440 79.81734 79.19087
# Shear Modulus (GPa) = 31.06338 33.12063 32.09201
#
# Velocity S-wave (km/s) = 3.90755 4.03487 3.97172
# Velocity P-wave (km/s) = 7.67959 7.80643 7.74327
#
# Compressibility (1/GPa) = 0.01272841
#
# Stress axis : x y z
#
# Youngs Moduli (GPa) = 99.75119 93.70318 96.62585
#
# Poissons Ratio (x) = 0.30118 0.33925
# Poissons Ratio (y) = 0.32062 0.23517
# Poissons Ratio (z) = 0.35022 0.22805
#
# Static dielectric constant tensor:
#      x y z
#    x 3.845470 0.000000 0.259300 
#    y 0.000000 3.849440 0.000000 
#    z 0.259300 0.000000 3.826800 
# 
# 
# High freq. dielectric constant tensor:
#      x y z
#    x 1.797390 0.000000 -0.001190 
#    y 0.000000 1.810670 0.000000 
#    z -0.001190 0.000000 1.792540 
# 
# From -- ./inp_files/156151.got.cif
#   From: 2010.06.25/outbox.cif.g09.slc.cpg/sg15_79_cif.got.tgz:156151.got - 2010.06.28 07:06:18.
