data_PCOD8142040
_publ_section_title
;
Structure prediction by ZEFSAII (Michael W. Deem and Ramdas Pophale) SiO2 
 PCOD8142040
Probable space group: C 2/C
;
_chemical_formula_sum "Si O2"
_cell_formula_units_Z 44
_cell_length_a 7.903643
_cell_length_b 10.776038
_cell_length_c 28.140448
_cell_angle_alpha 90.000000
_cell_angle_beta 118.146263
_cell_angle_gamma 90.000000
_cell_volume 2113.299571
_symmetry_space_group_name_H-M "C 2/C"
_symmetry_group_IT_number 15
_symmetry_cell_setting 'monoclinic'
loop_
_space_group_symop_operation_xyz
x,y,z
-x,y,1/2-z
-x,-y,-z
x,-y,1/2+z
1/2+x,1/2+y,z
1/2-x,1/2+y,1/2-z
1/2-x,1/2-y,-z
1/2+x,1/2-y,1/2+z
loop_
_atom_site_type_symbol
_atom_site_label
_atom_site_fract_x
_atom_site_fract_y
_atom_site_fract_z
Si Si1 0.226660 0.857137 0.786314
Si Si2 0.987875 0.378172 0.467024
Si Si3 0.688674 0.607983 0.658042
Si Si4 0.697334 0.721372 0.559868
Si Si5 0.500000 0.975264 0.750000
Si Si6 0.685857 0.523828 0.377145
O O1 0.333486 0.730262 0.813434
O O2 0.328746 0.898384 0.751441
O O3 0.000000 0.836127 0.750000
O O4 0.262544 0.953718 0.834019
O O5 0.164648 0.362347 0.454244
O O6 0.002493 0.258066 0.504314
O O7 0.000000 0.500000 0.500000
O O8 0.792257 0.399525 0.411515
O O9 0.645985 0.635856 0.597373
O O10 0.902949 0.555821 0.695141
O O11 0.537894 0.506114 0.655317
O O12 0.794414 0.851441 0.588680
#
# Coordination Sequence:
#
# PCOD8142040 Si02
#       6
#     8   8   8   8   4   8
#     4  11  23  41  59  87 122 157 209 256 302 371
#     4   9  18  38  62  88 122 161 197 254 305 360
#     4  11  23  39  60  88 121 162 207 258 305 367
#     4   9  20  38  61  86 123 159 201 252 303 367
#     4  12  24  38  62  86 118 166 206 250 320 364
#     4  10  21  38  61  87 121 158 201 253 308 359
#
# _framework density 20.820519999999998
#
# number of rings (size 3 to 8) (size 9 to 14) (size 15 to 20)
#    0.000    1.818    2.727    1.091    0.000    3.636 
#    0.000    8.182    0.000    0.000    0.000    0.000 
#    0.000    0.000    0.000    0.000    0.000    0.000 
#
# Total GULP energy -272600.132662 kJ/mol
# GULP energy per Si atom -12390.915121 kJ/mol
# Density = 2.077313 g / cm^3
# Si number density = 20.820520 Si / 1000 Ang^3
#
#
#
# Elastic Constant Matrix: (Units=GPa)
#
#
# Indices 1 2 3 4 5 6 
#
# 1 101.9204 45.3015 35.4895 0.0000 -9.3904 0.0000
# 2 45.3015 65.6012 23.8130 0.0000 -9.3248 0.0000
# 3 35.4895 23.8130 84.9888 0.0000 -8.9890 0.0000
# 4 0.0000 0.0000 0.0000 25.2559 0.0000 1.4725
# 5 -9.3904 -9.3248 -8.9890 0.0000 37.0129 0.0000
# 6 0.0000 0.0000 0.0000 1.4725 0.0000 32.5733
#
#
#
# Elastic Compliance Matrix: (Units=1/GPa)
#
#
# Indices 1 2 3 4 5 6 
#
# 1 0.015194 -0.009039 -0.003741 0.000000 0.000669 0.000000
# 2 -0.009039 0.022725 -0.002289 0.000000 0.002876 0.000000
# 3 -0.003741 -0.002289 0.014172 0.000000 0.001916 0.000000
# 4 0.000000 0.000000 0.000000 0.039699 0.000000 -0.001795
# 5 0.000669 0.002876 0.001916 0.000000 0.028377 0.000000
# 6 0.000000 0.000000 0.000000 -0.001795 0.000000 0.030781
#
#
# Mechanical properties :
#
#
# Convention : Reuss Voigt Hill
#
# Bulk Modulus (GPa) = 45.55067 51.30207 48.42637
# Shear Modulus (GPa) = 26.53869 28.82885 27.68377
#
# Velocity S-wave (km/s) = 3.57408 3.72511 3.65038
# Velocity P-wave (km/s) = 6.24158 6.57233 6.40909
#
# Compressibility (1/GPa) = 0.02195357
#
# Stress axis : x y z
#
# Youngs Moduli (GPa) = 65.81758 44.00411 70.55966
#
# Poissons Ratio (x) = 0.39775 0.26397
# Poissons Ratio (y) = 0.59492 0.16149
# Poissons Ratio (z) = 0.24623 0.10071
#
# Static dielectric constant tensor:
#      x y z
#    x 3.466960 0.000000 0.046670 
#    y 0.000000 3.694110 0.000000 
#    z 0.046670 0.000000 4.283650 
# 
# 
# High freq. dielectric constant tensor:
#      x y z
#    x 1.794080 0.000000 -0.003740 
#    y 0.000000 1.804380 0.000000 
#    z -0.003740 0.000000 1.840050 
# 
# From -- ./inp_files/262808.got.cif
#   From: 2010.06.25/outbox.cif.g09.slc.cpg/sg15_132_cif.got.tgz:262808.got - 2010.06.28 07:06:18.
