data_PCOD8142385
_publ_section_title
;
Structure prediction by ZEFSAII (Michael W. Deem and Ramdas Pophale) SiO2 
 PCOD8142385
Probable space group: C 2/C
;
_chemical_formula_sum "Si O2"
_cell_formula_units_Z 40
_cell_length_a 14.888676
_cell_length_b 21.926783
_cell_length_c 9.136430
_cell_angle_alpha 90.000000
_cell_angle_beta 37.142275
_cell_angle_gamma 90.000000
_cell_volume 1800.934776
_symmetry_space_group_name_H-M "C 2/C"
_symmetry_group_IT_number 15
_symmetry_cell_setting 'monoclinic'
loop_
_space_group_symop_operation_xyz
x,y,z
-x,y,1/2-z
-x,-y,-z
x,-y,1/2+z
1/2+x,1/2+y,z
1/2-x,1/2+y,1/2-z
1/2-x,1/2-y,-z
1/2+x,1/2-y,1/2+z
loop_
_atom_site_type_symbol
_atom_site_label
_atom_site_fract_x
_atom_site_fract_y
_atom_site_fract_z
Si Si1 0.353328 0.035331 0.542826
Si Si2 0.351389 0.287537 0.535823
Si Si3 0.152485 0.572844 0.624200
Si Si4 0.825557 0.659756 0.480272
Si Si5 0.347138 0.310636 0.863039
O O1 0.384385 0.036297 0.676626
O O2 0.257792 0.096641 0.630233
O O3 0.268167 0.973819 0.596555
O O4 0.500000 0.030776 0.250000
O O5 0.230531 0.329204 0.611555
O O6 0.284797 0.218165 0.636126
O O7 0.389192 0.318631 0.638656
O O8 0.500000 0.282368 0.250000
O O9 0.257519 0.629545 0.528514
O O10 0.000000 0.598696 0.750000
O O11 0.000000 0.648890 0.250000
O O12 0.500000 0.303628 0.750000
O O13 0.250000 0.250000 0.000000
#
# Coordination Sequence:
#
# PCOD8142385 Si02
#       5
#     8   8   8   8   8
#     4  10  21  38  68  98 133 170 228 265 324 386
#     4  10  23  40  67  94 131 168 219 268 334 386
#     4  11  24  42  69  98 134 175 224 273 330 387
#     4   9  20  36  67  96 126 166 222 264 319 390
#     4  12  29  46  67  98 138 173 219 276 339 392
#
# _framework density 22.210688999999999
#
# number of rings (size 3 to 8) (size 9 to 14) (size 15 to 20)
#    0.000    1.600    0.000    4.200   19.600    0.000 
#    0.000    2.000    0.000    0.000    0.000    0.000 
#    0.000    0.000    0.000    0.000    0.000    0.000 
#
# Total GULP energy -247831.928946 kJ/mol
# GULP energy per Si atom -12391.596447 kJ/mol
# Density = 2.216014 g / cm^3
# Si number density = 22.210689 Si / 1000 Ang^3
#
#
#
# Elastic Constant Matrix: (Units=GPa)
#
#
# Indices 1 2 3 4 5 6 
#
# 1 181.8976 65.1516 44.6023 0.0000 6.5589 0.0000
# 2 65.1516 136.8109 33.2628 0.0000 -7.1874 0.0000
# 3 44.6023 33.2628 61.6355 0.0000 12.3089 0.0000
# 4 0.0000 0.0000 0.0000 28.3687 0.0000 3.9163
# 5 6.5589 -7.1874 12.3089 0.0000 40.7460 0.0000
# 6 0.0000 0.0000 0.0000 3.9163 0.0000 42.8924
#
#
#
# Elastic Compliance Matrix: (Units=1/GPa)
#
#
# Indices 1 2 3 4 5 6 
#
# 1 0.007393 -0.002612 -0.003842 0.000000 -0.000490 0.000000
# 2 -0.002612 0.009705 -0.004015 0.000000 0.003346 0.000000
# 3 -0.003842 -0.004015 0.022550 0.000000 -0.006902 0.000000
# 4 0.000000 0.000000 0.000000 0.035700 0.000000 -0.003260
# 5 -0.000490 0.003346 -0.006902 0.000000 0.027296 0.000000
# 6 0.000000 0.000000 0.000000 -0.003260 0.000000 0.023612
#
#
# Mechanical properties :
#
#
# Convention : Reuss Voigt Hill
#
# Bulk Modulus (GPa) = 53.45125 74.04193 63.74659
# Shear Modulus (GPa) = 32.58743 38.22323 35.40533
#
# Velocity S-wave (km/s) = 3.83455 4.15292 3.99691
# Velocity P-wave (km/s) = 6.61233 7.51027 7.07556
#
# Compressibility (1/GPa) = 0.01870864
#
# Stress axis : x y z
#
# Youngs Moduli (GPa) = 135.26141 103.03544 44.34533
#
# Poissons Ratio (x) = 0.26916 0.17039
# Poissons Ratio (y) = 0.35334 0.17807
# Poissons Ratio (z) = 0.51972 0.41374
#
# Static dielectric constant tensor:
#      x y z
#    x 4.052940 0.000000 0.238120 
#    y 0.000000 4.982770 0.000000 
#    z 0.238120 0.000000 3.612160 
# 
# 
# High freq. dielectric constant tensor:
#      x y z
#    x 1.881770 0.000000 0.027690 
#    y 0.000000 1.894770 0.000000 
#    z 0.027690 0.000000 1.835070 
# 
# From -- ./inp_files/41947.got.cif
#   From: 2010.06.25/outbox.cif.g09.slc.cpg/sg15_21_cif.got.tgz:41947.got - 2010.06.28 07:06:18.
