data_PCOD8142855
_publ_section_title
;
Structure prediction by ZEFSAII (Michael W. Deem and Ramdas Pophale) SiO2 
 PCOD8142855
Probable space group: C 2/C
;
_chemical_formula_sum "Si O2"
_cell_formula_units_Z 44
_cell_length_a 7.729091
_cell_length_b 25.505450
_cell_length_c 10.972482
_cell_angle_alpha 90.000000
_cell_angle_beta 112.208077
_cell_angle_gamma 90.000000
_cell_volume 2002.587888
_symmetry_space_group_name_H-M "C 2/C"
_symmetry_group_IT_number 15
_symmetry_cell_setting 'monoclinic'
loop_
_space_group_symop_operation_xyz
x,y,z
-x,y,1/2-z
-x,-y,-z
x,-y,1/2+z
1/2+x,1/2+y,z
1/2-x,1/2+y,1/2-z
1/2-x,1/2-y,-z
1/2+x,1/2-y,1/2+z
loop_
_atom_site_type_symbol
_atom_site_label
_atom_site_fract_x
_atom_site_fract_y
_atom_site_fract_z
Si Si1 0.281947 0.369967 0.680842
Si Si2 0.906648 0.173986 0.853242
Si Si3 0.500000 0.805918 0.250000
Si Si4 0.493730 0.957784 0.890614
Si Si5 0.965581 0.714756 0.479277
Si Si6 0.746435 0.138058 0.439722
O O1 0.500000 0.374838 0.750000
O O2 0.209143 0.326139 0.566917
O O3 0.194613 0.351676 0.786149
O O4 0.199099 0.427358 0.632541
O O5 0.687271 0.157558 0.794116
O O6 0.919183 0.235689 0.885345
O O7 0.000000 0.161320 0.750000
O O8 0.027861 0.139870 0.981988
O O9 0.508382 0.768758 0.371945
O O10 0.500000 0.979141 0.750000
O O11 0.667376 0.918266 0.959310
O O12 0.500000 0.000000 0.000000
O O13 0.156018 0.686272 0.489593
#
# Coordination Sequence:
#
# PCOD8142855 Si02
#       6
#     8   8   4   8   8   8
#     4  10  21  39  66  94 126 171 225 265 323 395
#     4  12  24  40  61  89 134 172 225 275 316 377
#     4  12  26  38  56  92 128 174 236 254 322 380
#     4   9  20  43  69  97 128 166 213 273 345 408
#     4  11  23  39  61  87 131 179 222 273 317 375
#     4  10  21  42  65  90 127 175 213 266 340 384
#
# _framework density 21.971568000000001
#
# number of rings (size 3 to 8) (size 9 to 14) (size 15 to 20)
#    0.000    1.455    1.818    4.909    3.818    0.000 
#    6.545    4.545    0.000    0.000    0.000    0.000 
#    0.000    0.000    0.000    0.000    0.000    0.000 
#
# Total GULP energy -272671.291141 kJ/mol
# GULP energy per Si atom -12394.149597 kJ/mol
# Density = 2.192156 g / cm^3
# Si number density = 21.971568 Si / 1000 Ang^3
#
#
#
# Elastic Constant Matrix: (Units=GPa)
#
#
# Indices 1 2 3 4 5 6 
#
# 1 126.1868 31.7476 31.7266 0.0000 38.7479 0.0000
# 2 31.7476 85.2209 46.5270 0.0000 0.7385 0.0000
# 3 31.7266 46.5270 108.9687 0.0000 1.3370 0.0000
# 4 0.0000 0.0000 0.0000 33.6682 0.0000 1.3975
# 5 38.7479 0.7385 1.3370 0.0000 51.3974 0.0000
# 6 0.0000 0.0000 0.0000 1.3975 0.0000 15.3260
#
#
#
# Elastic Compliance Matrix: (Units=1/GPa)
#
#
# Indices 1 2 3 4 5 6 
#
# 1 0.012003 -0.003320 -0.001967 0.000000 -0.008950 0.000000
# 2 -0.003320 0.016219 -0.005988 0.000000 0.002425 0.000000
# 3 -0.001967 -0.005988 0.012291 0.000000 0.001250 0.000000
# 4 0.000000 0.000000 0.000000 0.029814 0.000000 -0.002719
# 5 -0.008950 0.002425 0.001250 0.000000 0.026136 0.000000
# 6 0.000000 0.000000 0.000000 -0.002719 0.000000 0.065496
#
#
# Mechanical properties :
#
#
# Convention : Reuss Voigt Hill
#
# Bulk Modulus (GPa) = 55.67218 60.04210 57.85714
# Shear Modulus (GPa) = 26.24680 34.10335 30.17507
#
# Velocity S-wave (km/s) = 3.46002 3.94402 3.70992
# Velocity P-wave (km/s) = 6.43083 6.93735 6.68889
#
# Compressibility (1/GPa) = 0.01796229
#
# Stress axis : x y z
#
# Youngs Moduli (GPa) = 83.31321 61.65470 81.35797
#
# Poissons Ratio (x) = 0.20468 0.16006
# Poissons Ratio (y) = 0.27658 0.48721
# Poissons Ratio (z) = 0.16391 0.36922
#
# Static dielectric constant tensor:
#      x y z
#    x 4.401020 0.000000 0.068690 
#    y 0.000000 3.394080 0.000000 
#    z 0.068690 0.000000 4.382290 
# 
# 
# High freq. dielectric constant tensor:
#      x y z
#    x 1.884990 0.000000 0.000370 
#    y 0.000000 1.802990 0.000000 
#    z 0.000370 0.000000 1.889650 
# 
# From -- ./inp_files/79967.got.cif
#   From: 2010.06.25/outbox.cif.g09.slc.cpg/sg15_40_cif.got.tgz:79967.got - 2010.06.28 07:06:18.
