data_PCOD8142324
_publ_section_title
;
Structure prediction by ZEFSAII (Michael W. Deem and Ramdas Pophale) SiO2 
 PCOD8142324
Probable space group: C 2/C
;
_chemical_formula_sum "Si O2"
_cell_formula_units_Z 56
_cell_length_a 8.572400
_cell_length_b 23.384832
_cell_length_c 15.936375
_cell_angle_alpha 90.000000
_cell_angle_beta 117.967959
_cell_angle_gamma 90.000000
_cell_volume 2821.565891
_symmetry_space_group_name_H-M "C 2/C"
_symmetry_group_IT_number 15
_symmetry_cell_setting 'monoclinic'
loop_
_space_group_symop_operation_xyz
x,y,z
-x,y,1/2-z
-x,-y,-z
x,-y,1/2+z
1/2+x,1/2+y,z
1/2-x,1/2+y,1/2-z
1/2-x,1/2-y,-z
1/2+x,1/2-y,1/2+z
loop_
_atom_site_type_symbol
_atom_site_label
_atom_site_fract_x
_atom_site_fract_y
_atom_site_fract_z
Si Si1 0.192486 0.596485 0.413709
Si Si2 0.381483 0.494802 0.388729
Si Si3 0.740990 0.300519 0.692907
Si Si4 0.185465 0.372912 0.637196
Si Si5 0.000000 0.954557 0.750000
Si Si6 0.000000 0.200891 0.750000
Si Si7 0.145982 0.192653 0.461407
Si Si8 0.464102 0.626560 0.905178
O O1 0.218657 0.538647 0.364054
O O2 0.192974 0.650423 0.352531
O O3 0.341180 0.602846 0.522704
O O4 0.003448 0.595553 0.411636
O O5 0.500000 0.500000 0.500000
O O6 0.494525 0.508990 0.333805
O O7 0.329199 0.427810 0.365459
O O8 0.807242 0.316257 0.802936
O O9 0.529869 0.294918 0.636829
O O10 0.828628 0.240297 0.689420
O O11 0.325489 0.416966 0.708736
O O12 0.233917 0.354158 0.555272
O O13 0.033235 0.160106 0.680318
O O14 0.250000 0.250000 0.500000
O O15 0.101199 0.169601 0.541095
#
# Coordination Sequence:
#
# PCOD8142324 Si02
#       8
#     8   8   8   8   4   4   8   8
#     4  10  21  38  66  92 122 161 216 266 309 385
#     4  10  21  42  63  89 126 165 214 274 325 388
#     4  11  21  37  62  94 127 161 215 262 308 383
#     4  12  20  37  62  99 121 162 217 265 322 375
#     4  12  21  36  68  90 122 169 212 268 330 376
#     4  12  23  38  68  90 130 175 218 258 324 402
#     4  11  24  39  62  91 132 169 208 267 330 383
#     4  10  24  43  61  89 126 173 206 262 333 387
#
# _framework density 19.847135000000002
#
# number of rings (size 3 to 8) (size 9 to 14) (size 15 to 20)
#    0.000    1.143    4.286    3.000    2.000    1.143 
#    0.000    6.429    6.286    0.000    0.000    0.000 
#    0.000    0.000    0.000    0.000    0.000    0.000 
#
# Total GULP energy -347181.981072 kJ/mol
# GULP energy per Si atom -12399.356467 kJ/mol
# Density = 1.980196 g / cm^3
# Si number density = 19.847135 Si / 1000 Ang^3
#
#
#
# Elastic Constant Matrix: (Units=GPa)
#
#
# Indices 1 2 3 4 5 6 
#
# 1 136.0357 53.4758 42.6130 0.0000 3.5061 0.0000
# 2 53.4758 138.2953 47.7515 0.0000 -0.4004 0.0000
# 3 42.6130 47.7515 97.6418 0.0000 -23.4489 0.0000
# 4 0.0000 0.0000 0.0000 75.8761 0.0000 26.9108
# 5 3.5061 -0.4004 -23.4489 0.0000 29.0194 0.0000
# 6 0.0000 0.0000 0.0000 26.9108 0.0000 55.5863
#
#
#
# Elastic Compliance Matrix: (Units=1/GPa)
#
#
# Indices 1 2 3 4 5 6 
#
# 1 0.009695 -0.002310 -0.004207 0.000000 -0.004603 0.000000
# 2 -0.002310 0.009666 -0.004491 0.000000 -0.003217 0.000000
# 3 -0.004207 -0.004491 0.017844 0.000000 0.014865 0.000000
# 4 0.000000 0.000000 0.000000 0.015911 0.000000 -0.007703
# 5 -0.004603 -0.003217 0.014865 0.000000 0.046983 0.000000
# 6 0.000000 0.000000 0.000000 -0.007703 0.000000 0.021719
#
#
# Mechanical properties :
#
#
# Convention : Reuss Voigt Hill
#
# Bulk Modulus (GPa) = 65.83945 73.29483 69.56714
# Shear Modulus (GPa) = 33.57999 47.30520 40.44260
#
# Velocity S-wave (km/s) = 4.11777 4.88738 4.51899
# Velocity P-wave (km/s) = 7.47351 8.29810 7.89658
#
# Compressibility (1/GPa) = 0.01518846
#
# Stress axis : x y z
#
# Youngs Moduli (GPa) = 103.14105 103.46041 56.04114
#
# Poissons Ratio (x) = 0.23896 0.23577
# Poissons Ratio (y) = 0.23822 0.25171
# Poissons Ratio (z) = 0.43393 0.46469
#
# Static dielectric constant tensor:
#      x y z
#    x 3.792990 0.000000 -0.148870 
#    y 0.000000 4.028990 0.000000 
#    z -0.148870 0.000000 3.775290 
# 
# 
# High freq. dielectric constant tensor:
#      x y z
#    x 1.770420 0.000000 -0.015360 
#    y 0.000000 1.778710 0.000000 
#    z -0.015360 0.000000 1.770050 
# 
# From -- ./inp_files/137320.got.cif
#   From: 2010.06.25/outbox.cif.g09.slc.cpg/sg15_69_cif.got.tgz:137320.got - 2010.06.28 07:06:18.
