data_PCOD8142049
_publ_section_title
;
Structure prediction by ZEFSAII (Michael W. Deem and Ramdas Pophale) SiO2 
 PCOD8142049
Probable space group: C 2/C
;
_chemical_formula_sum "Si O2"
_cell_formula_units_Z 48
_cell_length_a 8.508919
_cell_length_b 12.086128
_cell_length_c 23.845279
_cell_angle_alpha 90.000000
_cell_angle_beta 109.230418
_cell_angle_gamma 90.000000
_cell_volume 2315.414450
_symmetry_space_group_name_H-M "C 2/C"
_symmetry_group_IT_number 15
_symmetry_cell_setting 'monoclinic'
loop_
_space_group_symop_operation_xyz
x,y,z
-x,y,1/2-z
-x,-y,-z
x,-y,1/2+z
1/2+x,1/2+y,z
1/2-x,1/2+y,1/2-z
1/2-x,1/2-y,-z
1/2+x,1/2-y,1/2+z
loop_
_atom_site_type_symbol
_atom_site_label
_atom_site_fract_x
_atom_site_fract_y
_atom_site_fract_z
Si Si1 0.476679 0.302631 0.092905
Si Si2 0.132130 0.330268 0.814716
Si Si3 0.713504 0.076253 0.823917
Si Si4 0.887155 0.669778 0.488580
Si Si5 0.823556 0.452452 0.419276
Si Si6 0.653438 0.868450 0.195386
O O1 0.458346 0.216188 0.141196
O O2 0.642583 0.372610 0.122048
O O3 0.489833 0.241442 0.035249
O O4 0.320378 0.382520 0.068320
O O5 0.206077 0.448306 0.839778
O O6 0.283685 0.253276 0.813215
O O7 0.000000 0.346243 0.750000
O O8 0.543179 0.139746 0.817985
O O9 0.750184 0.087978 0.761724
O O10 0.750000 0.750000 0.500000
O O11 0.802778 0.576755 0.439381
O O12 0.997545 0.605371 0.547706
O O13 0.802037 0.453922 0.349396
#
# Coordination Sequence:
#
# PCOD8142049 Si02
#       6
#     8   8   8   8   8   8
#     4  11  24  40  66  92 126 163 207 250 315 364
#     4  11  21  39  61  89 126 162 198 250 307 368
#     4  11  22  37  61  93 124 164 199 255 303 377
#     4  11  24  43  66  89 124 162 211 258 306 355
#     4  10  24  42  62  92 122 163 206 259 302 368
#     4  10  21  38  61  88 126 158 205 246 312 362
#
# _framework density 20.730629
#
# number of rings (size 3 to 8) (size 9 to 14) (size 15 to 20)
#    0.000    1.333    3.333    2.500    0.000    6.000 
#    0.000    5.000    0.000    0.000    0.000    0.000 
#    0.000    0.000    0.000    0.000    0.000    0.000 
#
# Total GULP energy -297701.021184 kJ/mol
# GULP energy per Si atom -12404.209216 kJ/mol
# Density = 2.068344 g / cm^3
# Si number density = 20.730629 Si / 1000 Ang^3
#
#
#
# Elastic Constant Matrix: (Units=GPa)
#
#
# Indices 1 2 3 4 5 6 
#
# 1 75.6709 43.4744 10.1321 0.0000 -10.9035 0.0000
# 2 43.4744 114.6443 18.8314 0.0000 -5.3815 0.0000
# 3 10.1321 18.8314 52.1210 0.0000 -11.2557 0.0000
# 4 0.0000 0.0000 0.0000 -88.6904 0.0000 21.7950
# 5 -10.9035 -5.3815 -11.2557 0.0000 35.8096 0.0000
# 6 0.0000 0.0000 0.0000 21.7950 0.0000 27.5772
#
#
#
# Elastic Compliance Matrix: (Units=1/GPa)
#
#
# Indices 1 2 3 4 5 6 
#
# 1 0.017552 -0.006427 -0.000155 0.000000 0.004330 0.000000
# 2 -0.006427 0.011631 -0.003216 0.000000 -0.001220 0.000000
# 3 -0.000155 -0.003216 0.021739 0.000000 0.006303 0.000000
# 4 0.000000 0.000000 0.000000 -0.009441 0.000000 0.007462
# 5 0.004330 -0.001220 0.006303 0.000000 0.031042 0.000000
# 6 0.000000 0.000000 0.000000 0.007462 0.000000 0.030365
#
#
# Mechanical properties :
#
#
# Convention : Reuss Voigt Hill
#
# Bulk Modulus (GPa) = 31.92268 43.03467 37.47868
# Shear Modulus (GPa) = 37.61481 6.27252 21.94366
#
# Velocity S-wave (km/s) = 4.26426 1.74135 3.25701
# Velocity P-wave (km/s) = 6.29901 4.98469 5.67999
#
# Compressibility (1/GPa) = 0.03132569
#
# Stress axis : x y z
#
# Youngs Moduli (GPa) = 56.97224 85.97704 45.99951
#
# Poissons Ratio (x) = 0.55261 0.00712
# Poissons Ratio (y) = 0.36618 0.14795
# Poissons Ratio (z) = 0.00882 0.27653
#
# Static dielectric constant tensor:
#      x y z
#    x 3.763590 0.000000 -0.097200 
#    y 0.000000 3.830620 0.000000 
#    z -0.097200 0.000000 3.854320 
# 
# 
# High freq. dielectric constant tensor:
#      x y z
#    x 1.812300 0.000000 -0.008610 
#    y 0.000000 1.814740 0.000000 
#    z -0.008610 0.000000 1.818140 
# 
# From -- ./inp_files/263247.got.cif
#   From: 2010.06.25/outbox.cif.g09.slc.cpg/sg15_132_cif.got.tgz:263247.got - 2010.06.28 07:06:18.
