data_PCOD8142351
_publ_section_title
;
Structure prediction by ZEFSAII (Michael W. Deem and Ramdas Pophale) SiO2 
 PCOD8142351
Probable space group: C 2/C
;
_chemical_formula_sum "Si O2"
_cell_formula_units_Z 48
_cell_length_a 12.686807
_cell_length_b 23.894741
_cell_length_c 8.280739
_cell_angle_alpha 90.000000
_cell_angle_beta 119.072624
_cell_angle_gamma 90.000000
_cell_volume 2194.004041
_symmetry_space_group_name_H-M "C 2/C"
_symmetry_group_IT_number 15
_symmetry_cell_setting 'monoclinic'
loop_
_space_group_symop_operation_xyz
x,y,z
-x,y,1/2-z
-x,-y,-z
x,-y,1/2+z
1/2+x,1/2+y,z
1/2-x,1/2+y,1/2-z
1/2-x,1/2-y,-z
1/2+x,1/2-y,1/2+z
loop_
_atom_site_type_symbol
_atom_site_label
_atom_site_fract_x
_atom_site_fract_y
_atom_site_fract_z
Si Si1 0.580565 0.457682 0.456571
Si Si2 0.534919 0.928366 0.521078
Si Si3 0.113595 0.305824 0.572486
Si Si4 0.154251 0.518690 0.424652
Si Si5 0.000000 0.226519 0.750000
Si Si6 0.000000 0.767320 0.750000
Si Si7 0.630831 0.662581 0.097074
O O1 0.500000 0.435637 0.250000
O O2 0.500000 0.500000 0.500000
O O3 0.700828 0.486601 0.471836
O O4 0.618751 0.404397 0.591986
O O5 0.536550 0.862388 0.499970
O O6 0.395295 0.946515 0.453850
O O7 0.611489 0.949713 0.732589
O O8 0.593915 0.957041 0.404592
O O9 0.245175 0.320257 0.729786
O O10 0.050818 0.266477 0.652961
O O11 0.108099 0.273441 0.395483
O O12 0.891056 0.187379 0.599329
O O13 0.029616 0.808952 0.628471
#
# Coordination Sequence:
#
# PCOD8142351 Si02
#       7
#     8   8   8   8   4   4   8
#     4  12  26  42  67  99 134 179 222 265 337 413
#     4  10  21  38  67  91 128 165 211 276 329 389
#     4  11  22  41  67  95 128 173 223 276 335 393
#     4  10  21  40  59  96 127 166 214 266 331 392
#     4  10  22  42  65  95 126 168 228 266 338 396
#     4  10  26  42  63  97 134 178 228 272 336 394
#     4  11  23  44  65  94 133 175 216 285 326 398
#
# _framework density 21.877808000000002
#
# number of rings (size 3 to 8) (size 9 to 14) (size 15 to 20)
#    0.000    1.333    2.500    3.000    1.167    2.667 
#    0.000    1.667    0.000    0.000    0.000    0.000 
#    0.000    0.000    0.000    0.000    0.000    0.000 
#
# Total GULP energy -297388.402451 kJ/mol
# GULP energy per Si atom -12391.183435 kJ/mol
# Density = 2.182801 g / cm^3
# Si number density = 21.877808 Si / 1000 Ang^3
#
#
#
# Elastic Constant Matrix: (Units=GPa)
#
#
# Indices 1 2 3 4 5 6 
#
# 1 129.4639 48.6777 23.7875 0.0000 15.0286 0.0000
# 2 48.6777 146.7368 30.5445 0.0000 -4.2789 0.0000
# 3 23.7875 30.5445 70.9754 0.0000 8.8737 0.0000
# 4 0.0000 0.0000 0.0000 29.5342 0.0000 1.6822
# 5 15.0286 -4.2789 8.8737 0.0000 34.4720 0.0000
# 6 0.0000 0.0000 0.0000 1.6822 0.0000 25.8883
#
#
#
# Elastic Compliance Matrix: (Units=1/GPa)
#
#
# Indices 1 2 3 4 5 6 
#
# 1 0.009603 -0.003018 -0.001394 0.000000 -0.004202 0.000000
# 2 -0.003018 0.008546 -0.003062 0.000000 0.003165 0.000000
# 3 -0.001394 -0.003062 0.016373 0.000000 -0.003987 0.000000
# 4 0.000000 0.000000 0.000000 0.033985 0.000000 -0.002208
# 5 -0.004202 0.003165 -0.003987 0.000000 0.032260 0.000000
# 6 0.000000 0.000000 0.000000 -0.002208 0.000000 0.038771
#
#
# Mechanical properties :
#
#
# Convention : Reuss Voigt Hill
#
# Bulk Modulus (GPa) = 51.08999 61.46616 56.27807
# Shear Modulus (GPa) = 31.05398 34.25666 32.65532
#
# Velocity S-wave (km/s) = 3.77162 3.96133 3.86764
# Velocity P-wave (km/s) = 6.50922 7.00565 6.76199
#
# Compressibility (1/GPa) = 0.01957331
#
# Stress axis : x y z
#
# Youngs Moduli (GPa) = 104.13564 117.01784 61.07676
#
# Poissons Ratio (x) = 0.35315 0.08516
# Poissons Ratio (y) = 0.31427 0.18701
# Poissons Ratio (z) = 0.14519 0.35829
#
# Static dielectric constant tensor:
#      x y z
#    x 4.091720 0.000000 0.085660 
#    y 0.000000 4.113970 0.000000 
#    z 0.085660 0.000000 4.640080 
# 
# 
# High freq. dielectric constant tensor:
#      x y z
#    x 1.843410 0.000000 0.000590 
#    y 0.000000 1.867890 0.000000 
#    z 0.000590 0.000000 1.873250 
# 
# From -- ./inp_files/32685.got.cif
#   From: 2010.06.25/outbox.cif.g09.slc.cpg/sg15_17_cif.got.tgz:32685.got - 2010.06.28 07:06:18.
