data_PCOD8142497
_publ_section_title
;
Structure prediction by ZEFSAII (Michael W. Deem and Ramdas Pophale) SiO2 
 PCOD8142497
Probable space group: C 2/C
;
_chemical_formula_sum "Si O2"
_cell_formula_units_Z 52
_cell_length_a 21.141381
_cell_length_b 8.570689
_cell_length_c 26.773506
_cell_angle_alpha 90.000000
_cell_angle_beta 29.462296
_cell_angle_gamma 90.000000
_cell_volume 2386.094481
_symmetry_space_group_name_H-M "C 2/C"
_symmetry_group_IT_number 15
_symmetry_cell_setting 'monoclinic'
loop_
_space_group_symop_operation_xyz
x,y,z
-x,y,1/2-z
-x,-y,-z
x,-y,1/2+z
1/2+x,1/2+y,z
1/2-x,1/2+y,1/2-z
1/2-x,1/2-y,-z
1/2+x,1/2-y,1/2+z
loop_
_atom_site_type_symbol
_atom_site_label
_atom_site_fract_x
_atom_site_fract_y
_atom_site_fract_z
Si Si1 0.579366 0.038436 0.008505
Si Si2 0.198745 0.166219 0.177882
Si Si3 0.500000 0.486335 0.750000
Si Si4 0.908634 0.254954 0.147285
Si Si5 0.674219 0.415247 0.475580
Si Si6 0.761697 0.917434 0.470497
Si Si7 0.903070 0.863512 0.550153
O O1 0.634748 0.047175 0.026280
O O2 0.533621 0.205812 0.017534
O O3 0.689998 0.966122 0.895851
O O4 0.455203 0.927748 0.099419
O O5 0.187515 0.252235 0.239330
O O6 0.236794 0.282020 0.107465
O O7 0.058530 0.109005 0.256604
O O8 0.614150 0.590737 0.650136
O O9 0.833936 0.187091 0.149640
O O10 0.027567 0.141739 0.078526
O O11 0.725916 0.453337 0.494931
O O12 0.689886 0.566700 0.428392
O O13 0.750000 0.750000 0.500000
O O14 0.000000 0.000000 0.500000
#
# Coordination Sequence:
#
# PCOD8142497 Si02
#       7
#     8   8   4   8   8   8   8
#     4  10  22  38  62  91 119 163 206 256 315 369
#     4  10  22  37  61  92 122 162 209 252 316 379
#     4  10  22  38  62  88 124 166 196 248 320 382
#     4  10  21  39  62  85 120 163 203 257 307 377
#     4  10  21  39  60  91 120 159 206 259 312 360
#     4  11  21  40  64  87 129 158 202 262 311 376
#     4  10  21  40  62  86 124 164 208 256 311 371
#
# _framework density 21.792933999999999
#
# number of rings (size 3 to 8) (size 9 to 14) (size 15 to 20)
#    0.000    1.846    3.077    0.462    2.154    3.077 
#    2.769    3.077    0.000    0.000    0.000    0.000 
#    0.000    0.000    0.000    0.000    0.000    0.000 
#
# Total GULP energy -322164.901606 kJ/mol
# GULP energy per Si atom -12390.957754 kJ/mol
# Density = 2.174333 g / cm^3
# Si number density = 21.792934 Si / 1000 Ang^3
#
#
#
# Elastic Constant Matrix: (Units=GPa)
#
#
# Indices 1 2 3 4 5 6 
#
# 1 92.8976 34.9708 23.2190 0.0018 31.0516 -0.0151
# 2 34.9708 117.8694 23.4716 0.0013 7.5988 -0.0221
# 3 23.2190 23.4716 67.5061 0.0014 19.1742 -0.0040
# 4 0.0018 0.0013 0.0014 20.5319 0.0004 14.0158
# 5 31.0516 7.5988 19.1742 0.0004 30.2362 -0.0018
# 6 -0.0151 -0.0221 -0.0040 14.0158 -0.0018 37.5988
#
#
#
# Elastic Compliance Matrix: (Units=1/GPa)
#
#
# Indices 1 2 3 4 5 6 
#
# 1 0.018305 -0.004336 0.000295 -0.000005 -0.017896 0.000006
# 2 -0.004336 0.010145 -0.003143 -0.000004 0.003896 0.000006
# 3 0.000295 -0.003143 0.019108 -0.000001 -0.011630 0.000000
# 4 -0.000005 -0.000004 -0.000001 0.065329 0.000005 -0.024353
# 5 -0.017896 0.003896 -0.011630 0.000005 0.057847 -0.000005
# 6 0.000006 0.000006 0.000000 -0.024353 -0.000005 0.035675
#
#
# Mechanical properties :
#
#
# Convention : Reuss Voigt Hill
#
# Bulk Modulus (GPa) = 30.12949 49.06623 39.59786
# Shear Modulus (GPa) = 21.56659 30.78082 26.17371
#
# Velocity S-wave (km/s) = 3.14923 3.76230 3.46933
# Velocity P-wave (km/s) = 5.20374 6.43714 5.85302
#
# Compressibility (1/GPa) = 0.03319007
#
# Stress axis : x y z
#
# Youngs Moduli (GPa) = 54.63036 98.57060 52.33342
#
# Poissons Ratio (x) = 0.42739 -0.01541
# Poissons Ratio (y) = 0.23687 0.16447
# Poissons Ratio (z) = -0.01609 0.30978
#
# Static dielectric constant tensor:
#      x y z
#    x 4.236640 0.000060 0.381530 
#    y 0.000060 4.030100 0.000020 
#    z 0.381530 0.000020 3.691150 
# 
# 
# High freq. dielectric constant tensor:
#      x y z
#    x 1.872040 0.000000 0.028890 
#    y 0.000000 1.861760 0.000000 
#    z 0.028890 0.000000 1.824860 
# 
# From -- ./inp_files/171402.got.cif
#   From: 2010.06.25/outbox.cif.g09.slc.cpg/sg15_86_cif.got.tgz:171402.got - 2010.06.28 07:06:18.
