data_PCOD8142271
_publ_section_title
;
Structure prediction by ZEFSAII (Michael W. Deem and Ramdas Pophale) SiO2 
 PCOD8142271
Probable space group: C 2/C
;
_chemical_formula_sum "Si O2"
_cell_formula_units_Z 56
_cell_length_a 17.732643
_cell_length_b 20.776944
_cell_length_c 7.766248
_cell_angle_alpha 90.000000
_cell_angle_beta 116.739654
_cell_angle_gamma 90.000000
_cell_volume 2555.330813
_symmetry_space_group_name_H-M "C 2/C"
_symmetry_group_IT_number 15
_symmetry_cell_setting 'monoclinic'
loop_
_space_group_symop_operation_xyz
x,y,z
-x,y,1/2-z
-x,-y,-z
x,-y,1/2+z
1/2+x,1/2+y,z
1/2-x,1/2+y,1/2-z
1/2-x,1/2-y,-z
1/2+x,1/2-y,1/2+z
loop_
_atom_site_type_symbol
_atom_site_label
_atom_site_fract_x
_atom_site_fract_y
_atom_site_fract_z
Si Si1 0.261131 0.895027 0.521911
Si Si2 0.680250 0.809890 0.219525
Si Si3 0.586399 0.554460 0.754002
Si Si4 0.032233 0.395505 0.101449
Si Si5 0.911203 0.912003 0.636972
Si Si6 0.915773 0.472824 0.766469
Si Si7 0.732479 0.669718 0.336399
O O1 0.260855 0.845840 0.360662
O O2 0.168115 0.924973 0.447222
O O3 0.332581 0.951350 0.575732
O O4 0.280210 0.863188 0.726381
O O5 0.585116 0.835012 0.079812
O O6 0.691942 0.733920 0.211499
O O7 0.700212 0.822904 0.441149
O O8 0.500000 0.583627 0.750000
O O9 0.579975 0.477717 0.745458
O O10 0.605175 0.577394 0.580706
O O11 0.098170 0.457411 0.157648
O O12 0.000000 0.372011 0.250000
O O13 0.946115 0.411965 0.910736
O O14 0.840567 0.871014 0.653501
O O15 0.000000 0.874653 0.750000
O O16 0.000000 0.492575 0.750000
#
# Coordination Sequence:
#
# PCOD8142271 Si02
#       7
#     8   8   8   8   8   8   8
#     4  12  23  42  71  96 132 175 222 275 341 394
#     4  11  24  43  65  90 135 181 224 272 332 385
#     4  11  23  41  68 102 132 168 212 282 345 403
#     4  10  21  39  62  96 134 167 216 274 333 399
#     4  11  22  42  65  97 133 165 221 277 333 406
#     4  10  21  38  64  98 132 163 215 278 331 396
#     4  11  25  42  63  96 129 180 228 272 320 405
#
# _framework density 21.91497
#
# number of rings (size 3 to 8) (size 9 to 14) (size 15 to 20)
#    0.000    1.143    2.857    4.714    2.000    1.714 
#    0.000    0.000    6.286    0.000    0.000    0.000 
#    0.000    0.000    0.000    0.000    0.000    0.000 
#
# Total GULP energy -346885.540164 kJ/mol
# GULP energy per Si atom -12388.769292 kJ/mol
# Density = 2.186509 g / cm^3
# Si number density = 21.914970 Si / 1000 Ang^3
#
#
#
# Elastic Constant Matrix: (Units=GPa)
#
#
# Indices 1 2 3 4 5 6 
#
# 1 106.6000 33.8466 21.5992 0.0000 11.0549 0.0000
# 2 33.8466 64.9022 6.8797 0.0000 13.7365 0.0000
# 3 21.5992 6.8797 66.5798 0.0000 7.7571 0.0000
# 4 0.0000 0.0000 0.0000 34.1652 0.0000 4.1398
# 5 11.0549 13.7365 7.7571 0.0000 31.9693 0.0000
# 6 0.0000 0.0000 0.0000 4.1398 0.0000 33.4556
#
#
#
# Elastic Compliance Matrix: (Units=1/GPa)
#
#
# Indices 1 2 3 4 5 6 
#
# 1 0.011925 -0.005690 -0.003175 0.000000 -0.000908 0.000000
# 2 -0.005690 0.019720 0.000583 0.000000 -0.006647 0.000000
# 3 -0.003175 0.000583 0.016353 0.000000 -0.003120 0.000000
# 4 0.000000 0.000000 0.000000 0.029715 0.000000 -0.003677
# 5 -0.000908 -0.006647 -0.003120 0.000000 0.035207 0.000000
# 6 0.000000 0.000000 0.000000 -0.003677 0.000000 0.030345
#
#
# Mechanical properties :
#
#
# Convention : Reuss Voigt Hill
#
# Bulk Modulus (GPa) = 31.81301 40.30366 36.05834
# Shear Modulus (GPa) = 29.35850 31.63512 30.49681
#
# Velocity S-wave (km/s) = 3.66410 3.80352 3.73446
# Velocity P-wave (km/s) = 5.69640 6.14165 5.92321
#
# Compressibility (1/GPa) = 0.03143368
#
# Stress axis : x y z
#
# Youngs Moduli (GPa) = 83.85740 50.70917 61.15139
#
# Poissons Ratio (x) = 0.28854 0.19414
# Poissons Ratio (y) = 0.47716 -0.03563
# Poissons Ratio (z) = 0.26623 -0.02955
#
# Static dielectric constant tensor:
#      x y z
#    x 4.020850 0.000000 -0.170510 
#    y 0.000000 3.798360 0.000000 
#    z -0.170510 0.000000 4.282480 
# 
# 
# High freq. dielectric constant tensor:
#      x y z
#    x 1.874870 0.000000 -0.011140 
#    y 0.000000 1.833080 0.000000 
#    z -0.011140 0.000000 1.868190 
# 
# From -- ./inp_files/50327.got.cif
#   From: 2010.06.25/outbox.cif.g09.slc.cpg/sg15_26_cif.got.tgz:50327.got - 2010.06.28 07:06:18.
