data_PCOD8142835
_publ_section_title
;
Structure prediction by ZEFSAII (Michael W. Deem and Ramdas Pophale) SiO2 
 PCOD8142835
Probable space group: C 2/C
;
_chemical_formula_sum "Si O2"
_cell_formula_units_Z 64
_cell_length_a 26.210870
_cell_length_b 14.696434
_cell_length_c 12.742705
_cell_angle_alpha 90.000000
_cell_angle_beta 142.059260
_cell_angle_gamma 90.000000
_cell_volume 3018.015538
_symmetry_space_group_name_H-M "C 2/C"
_symmetry_group_IT_number 15
_symmetry_cell_setting 'monoclinic'
loop_
_space_group_symop_operation_xyz
x,y,z
-x,y,1/2-z
-x,-y,-z
x,-y,1/2+z
1/2+x,1/2+y,z
1/2-x,1/2+y,1/2-z
1/2-x,1/2-y,-z
1/2+x,1/2-y,1/2+z
loop_
_atom_site_type_symbol
_atom_site_label
_atom_site_fract_x
_atom_site_fract_y
_atom_site_fract_z
Si Si1 0.369544 0.837303 0.190286
Si Si2 0.183036 0.862555 0.920881
Si Si3 0.981661 0.417140 0.543266
Si Si4 0.093749 0.975971 0.379960
Si Si5 0.852313 0.343409 0.733757
Si Si6 0.309796 0.528331 0.268327
Si Si7 0.677074 0.365656 0.349575
Si Si8 0.623226 0.054605 0.009677
O O1 0.359563 0.734997 0.131691
O O2 0.430478 0.844995 0.388898
O O3 0.281884 0.867089 0.097773
O O4 0.402313 0.896935 0.142808
O O5 0.141174 0.930566 0.933779
O O6 0.168167 0.894786 0.779251
O O7 0.932446 0.462838 0.562000
O O8 0.000000 0.500000 0.500000
O O9 0.070321 0.370475 0.717836
O O10 0.104510 0.897998 0.310166
O O11 0.000000 0.000343 0.250000
O O12 0.133320 0.934980 0.547529
O O13 0.766955 0.386136 0.550088
O O14 0.838198 0.235971 0.711799
O O15 0.877121 0.376203 0.891281
O O16 0.332936 0.427066 0.269202
O O17 0.215765 0.521213 0.149777
#
# Coordination Sequence:
#
# PCOD8142835 Si02
#       8
#     8   8   8   8   8   8   8   8
#     4  10  21  41  65  94 129 160 210 260 304 383
#     4   9  22  40  65  92 125 166 204 265 309 366
#     4  10  23  38  62  91 131 162 199 264 316 361
#     4  11  23  40  63  91 121 160 215 258 315 371
#     4  10  22  42  61  91 126 165 210 254 309 372
#     4  10  21  39  67  88 125 166 203 256 320 372
#     4  10  23  43  64  87 127 165 209 260 304 376
#     4  10  21  39  66  92 125 165 208 249 320 380
#
# _framework density 21.205987
#
# number of rings (size 3 to 8) (size 9 to 14) (size 15 to 20)
#    0.000    2.000    1.250    0.750   10.500    6.000 
#    4.500    2.500    0.000    0.000    0.000    0.000 
#    0.000    0.000    0.000    0.000    0.000    0.000 
#
# Total GULP energy -396553.470733 kJ/mol
# GULP energy per Si atom -12392.295960 kJ/mol
# Density = 2.115772 g / cm^3
# Si number density = 21.205987 Si / 1000 Ang^3
#
#
#
# Elastic Constant Matrix: (Units=GPa)
#
#
# Indices 1 2 3 4 5 6 
#
# 1 91.4187 35.2894 47.7124 0.0000 6.8651 0.0000
# 2 35.2894 50.1191 22.2716 0.0000 4.0230 0.0000
# 3 47.7124 22.2716 41.1276 0.0000 0.3162 0.0000
# 4 0.0000 0.0000 0.0000 26.5957 0.0000 -10.4070
# 5 6.8651 4.0230 0.3162 0.0000 17.2424 0.0000
# 6 0.0000 0.0000 0.0000 -10.4070 0.0000 47.4656
#
#
#
# Elastic Compliance Matrix: (Units=1/GPa)
#
#
# Indices 1 2 3 4 5 6 
#
# 1 0.031351 -0.006742 -0.032640 0.000000 -0.010311 0.000000
# 2 -0.006742 0.028333 -0.007492 0.000000 -0.003789 0.000000
# 3 -0.032640 -0.007492 0.066133 0.000000 0.013531 0.000000
# 4 0.000000 0.000000 0.000000 0.041129 0.000000 0.009018
# 5 -0.010311 -0.003789 0.013531 0.000000 0.062738 0.000000
# 6 0.000000 0.000000 0.000000 0.009018 0.000000 0.023045
#
#
# Mechanical properties :
#
#
# Convention : Reuss Voigt Hill
#
# Bulk Modulus (GPa) = 31.18296 43.69025 37.43661
# Shear Modulus (GPa) = 13.99904 23.42019 18.70962
#
# Velocity S-wave (km/s) = 2.57212 3.32688 2.97354
# Velocity P-wave (km/s) = 4.85363 5.95021 5.42968
#
# Compressibility (1/GPa) = 0.03206879
#
# Stress axis : x y z
#
# Youngs Moduli (GPa) = 31.89717 35.29408 15.12096
#
# Poissons Ratio (x) = 0.23797 0.49354
# Poissons Ratio (y) = 0.21507 0.11329
# Poissons Ratio (z) = 1.04112 0.26443
#
# Static dielectric constant tensor:
#      x y z
#    x 4.135580 0.000000 -0.326490 
#    y 0.000000 4.057650 0.000000 
#    z -0.326490 0.000000 2.676510 
# 
# 
# High freq. dielectric constant tensor:
#      x y z
#    x 1.839760 0.000000 0.005560 
#    y 0.000000 1.825890 0.000000 
#    z 0.005560 0.000000 1.827240 
# 
# From -- ./inp_files/123555.got.cif
#   From: 2010.06.25/outbox.cif.g09.slc.cpg/sg15_62_cif.got.tgz:123555.got - 2010.06.28 07:06:18.
