data_PCOD8142517
_publ_section_title
;
Structure prediction by ZEFSAII (Michael W. Deem and Ramdas Pophale) SiO2 
 PCOD8142517
Probable space group: C 2/C
;
_chemical_formula_sum "Si O2"
_cell_formula_units_Z 48
_cell_length_a 7.911739
_cell_length_b 18.147530
_cell_length_c 20.718784
_cell_angle_alpha 90.000000
_cell_angle_beta 53.269998
_cell_angle_gamma 90.000000
_cell_volume 2384.168784
_symmetry_space_group_name_H-M "C 2/C"
_symmetry_group_IT_number 15
_symmetry_cell_setting 'monoclinic'
loop_
_space_group_symop_operation_xyz
x,y,z
-x,y,1/2-z
-x,-y,-z
x,-y,1/2+z
1/2+x,1/2+y,z
1/2-x,1/2+y,1/2-z
1/2-x,1/2-y,-z
1/2+x,1/2-y,1/2+z
loop_
_atom_site_type_symbol
_atom_site_label
_atom_site_fract_x
_atom_site_fract_y
_atom_site_fract_z
Si Si1 0.673433 0.609152 0.345451
Si Si2 0.941173 0.665412 0.169727
Si Si3 0.719623 0.180717 0.432225
Si Si4 0.400169 0.834754 0.402929
Si Si5 0.339143 0.672581 0.734595
Si Si6 0.781506 0.449240 0.333576
O O1 0.783796 0.618697 0.250654
O O2 0.448185 0.647323 0.395527
O O3 0.641652 0.522800 0.369193
O O4 0.817479 0.644333 0.369305
O O5 0.883837 0.647146 0.108681
O O6 0.919192 0.751411 0.187331
O O7 0.568771 0.159731 0.526935
O O8 0.736470 0.269284 0.422986
O O9 0.613811 0.813316 0.318017
O O10 0.318218 0.913886 0.395949
O O11 0.500000 0.641214 0.750000
O O12 0.338028 0.612683 0.679267
O O13 0.000000 0.471729 0.250000
#
# Coordination Sequence:
#
# PCOD8142517 Si02
#       6
#     8   8   8   8   8   8
#     4  11  22  39  64  90 120 157 205 251 303 354
#     4  11  20  38  64  92 113 158 205 255 283 360
#     4  11  22  39  63  90 125 162 202 244 310 364
#     4  10  22  39  59  91 124 161 199 249 306 363
#     4  11  20  38  64  89 117 156 212 248 293 358
#     4  10  21  39  61  86 123 156 198 258 300 347
#
# _framework density 20.132802000000002
#
# number of rings (size 3 to 8) (size 9 to 14) (size 15 to 20)
#    0.000    1.333    6.667    0.500    0.000    2.000 
#    3.000    3.333    0.000    0.000    0.000    0.000 
#    0.000    0.000    0.000    0.000    0.000    0.000 
#
# Total GULP energy -297613.882231 kJ/mol
# GULP energy per Si atom -12400.578426 kJ/mol
# Density = 2.008698 g / cm^3
# Si number density = 20.132802 Si / 1000 Ang^3
#
#
#
# Elastic Constant Matrix: (Units=GPa)
#
#
# Indices 1 2 3 4 5 6 
#
# 1 98.3575 33.3084 41.7312 0.0026 26.6639 0.0007
# 2 33.3084 128.2193 32.0979 0.0004 8.5018 0.0001
# 3 41.7312 32.0979 74.0864 0.0004 29.8371 0.0002
# 4 0.0026 0.0004 0.0004 -149.0896 -0.0014 -9.1329
# 5 26.6639 8.5018 29.8371 -0.0014 29.9165 -0.0004
# 6 0.0007 0.0001 0.0002 -9.1329 -0.0004 24.6282
#
#
#
# Elastic Compliance Matrix: (Units=1/GPa)
#
#
# Indices 1 2 3 4 5 6 
#
# 1 0.015000 -0.002340 -0.003875 0.000000 -0.008839 0.000000
# 2 -0.002340 0.009198 -0.004101 0.000000 0.003563 0.000000
# 3 -0.003875 -0.004101 0.026068 0.000000 -0.021379 0.000000
# 4 0.000000 0.000000 0.000000 -0.006558 -0.000001 -0.002432
# 5 -0.008839 0.003563 -0.021379 -0.000001 0.061614 0.000001
# 6 0.000000 0.000000 0.000000 -0.002432 0.000001 0.039702
#
#
# Mechanical properties :
#
#
# Convention : Reuss Voigt Hill
#
# Bulk Modulus (GPa) = 33.74878 57.21536 45.48207
# Shear Modulus (GPa) = 28.48458 -6.00724 11.23867
#
# Velocity S-wave (km/s) = 3.76551 -1.72924 2.36525
# Velocity P-wave (km/s) = 5.97536 4.94910 5.48628
#
# Compressibility (1/GPa) = 0.02963070
#
# Stress axis : x y z
#
# Youngs Moduli (GPa) = 66.66677 108.72394 38.36189
#
# Poissons Ratio (x) = 0.25446 0.14867
# Poissons Ratio (y) = 0.15603 0.15733
# Poissons Ratio (z) = 0.25837 0.44591
#
# Static dielectric constant tensor:
#      x y z
#    x 3.743790 0.000000 0.235250 
#    y 0.000000 3.688140 0.000000 
#    z 0.235250 0.000000 3.585820 
# 
# 
# High freq. dielectric constant tensor:
#      x y z
#    x 1.780240 0.000000 0.015130 
#    y 0.000000 1.787220 0.000000 
#    z 0.015130 0.000000 1.772260 
# 
# From -- ./inp_files/232006.got.cif
#   From: 2010.06.25/outbox.cif.g09.slc.cpg/sg15_117_cif.got.tgz:232006.got - 2010.06.28 07:06:18.
