data_PCOD8142505
_publ_section_title
;
Structure prediction by ZEFSAII (Michael W. Deem and Ramdas Pophale) SiO2 
 PCOD8142505
Probable space group: C 2/C
;
_chemical_formula_sum "Si O2"
_cell_formula_units_Z 60
_cell_length_a 6.402742
_cell_length_b 18.374036
_cell_length_c 28.113093
_cell_angle_alpha 90.000000
_cell_angle_beta 83.702701
_cell_angle_gamma 90.000000
_cell_volume 3287.386589
_symmetry_space_group_name_H-M "C 2/C"
_symmetry_group_IT_number 15
_symmetry_cell_setting 'monoclinic'
loop_
_space_group_symop_operation_xyz
x,y,z
-x,y,1/2-z
-x,-y,-z
x,-y,1/2+z
1/2+x,1/2+y,z
1/2-x,1/2+y,1/2-z
1/2-x,1/2-y,-z
1/2+x,1/2-y,1/2+z
loop_
_atom_site_type_symbol
_atom_site_label
_atom_site_fract_x
_atom_site_fract_y
_atom_site_fract_z
Si Si1 0.722280 0.828176 0.428663
Si Si2 0.380381 0.709964 0.457833
Si Si3 0.527458 0.418446 0.480630
Si Si4 0.897691 0.646290 0.205210
Si Si5 0.000000 0.067722 0.250000
Si Si6 0.645926 0.896602 0.113898
Si Si7 0.369685 0.256610 0.122880
Si Si8 0.140283 0.496598 0.702221
O O1 0.590030 0.758581 0.449371
O O2 0.812165 0.880527 0.467989
O O3 0.588825 0.883502 0.399380
O O4 0.910580 0.791457 0.396146
O O5 0.250000 0.750000 0.500000
O O6 0.412451 0.627333 0.473900
O O7 0.240640 0.706101 0.413904
O O8 0.500000 0.500000 0.500000
O O9 0.702576 0.416531 0.434432
O O10 0.659375 0.619636 0.217757
O O11 0.908196 0.709633 0.167699
O O12 0.000000 0.680073 0.250000
O O13 0.041383 0.578539 0.186118
O O14 0.876364 0.016558 0.215577
O O15 0.714147 0.822640 0.138059
O O16 0.646583 0.955379 0.155230
O O17 0.000000 0.527939 0.750000
#
# Coordination Sequence:
#
# PCOD8142505 Si02
#       8
#     8   8   8   8   4   8   8   8
#     4  10  21  39  61  75 122 161 188 247 293 342
#     4  11  20  40  60  82 115 159 203 230 291 364
#     4  11  24  37  57  91 117 154 201 248 293 342
#     4   9  20  38  58  89 113 146 196 240 292 356
#     4   8  18  38  64  74 118 150 178 244 302 342
#     4  10  22  39  53  86 122 149 201 241 289 361
#     4  10  22  36  59  87 113 155 201 237 294 352
#     4   9  20  38  59  84 113 156 194 234 302 360
#
# _framework density 18.251580000000001
#
# number of rings (size 3 to 8) (size 9 to 14) (size 15 to 20)
#    0.000    2.400    4.000    0.400    0.000   12.267 
#    4.800    0.000    0.000    0.000    0.000    0.000 
#    0.000    0.000    0.000    0.000    0.000    0.000 
#
# Total GULP energy -371744.796526 kJ/mol
# GULP energy per Si atom -12391.493218 kJ/mol
# Density = 1.821004 g / cm^3
# Si number density = 18.251580 Si / 1000 Ang^3
#
#
#
# Elastic Constant Matrix: (Units=GPa)
#
#
# Indices 1 2 3 4 5 6 
#
# 1 121.8239 44.6759 52.0855 0.0000 18.6350 0.0000
# 2 44.6759 128.2476 82.0888 0.0000 18.7719 0.0000
# 3 52.0855 82.0888 121.5894 0.0000 19.1667 0.0000
# 4 0.0000 0.0000 0.0000 55.5178 0.0000 8.1990
# 5 18.6350 18.7719 19.1667 0.0000 17.8978 0.0000
# 6 0.0000 0.0000 0.0000 8.1990 0.0000 10.0101
#
#
#
# Elastic Compliance Matrix: (Units=1/GPa)
#
#
# Indices 1 2 3 4 5 6 
#
# 1 0.010894 -0.000838 -0.002950 0.000000 -0.007306 0.000000
# 2 -0.000838 0.014241 -0.008468 0.000000 -0.004996 0.000000
# 3 -0.002950 -0.008468 0.016026 0.000000 -0.005210 0.000000
# 4 0.000000 0.000000 0.000000 0.020491 0.000000 -0.016784
# 5 -0.007306 -0.004996 -0.005210 0.000000 0.074298 0.000000
# 6 0.000000 0.000000 0.000000 -0.016784 0.000000 0.113646
#
#
# Mechanical properties :
#
#
# Convention : Reuss Voigt Hill
#
# Bulk Modulus (GPa) = 60.05818 81.04014 70.54916
# Shear Modulus (GPa) = 17.87902 29.53919 23.70911
#
# Velocity S-wave (km/s) = 3.13323 4.02736 3.60810
# Velocity P-wave (km/s) = 6.78725 8.13168 7.48969
#
# Compressibility (1/GPa) = 0.01665052
#
# Stress axis : x y z
#
# Youngs Moduli (GPa) = 91.78990 70.22159 62.39810
#
# Poissons Ratio (x) = 0.05883 0.18405
# Poissons Ratio (y) = 0.07690 0.52838
# Poissons Ratio (z) = 0.27074 0.59463
#
# Static dielectric constant tensor:
#      x y z
#    x 3.566440 0.000000 0.126730 
#    y 0.000000 3.187790 0.000000 
#    z 0.126730 0.000000 3.214590 
# 
# 
# High freq. dielectric constant tensor:
#      x y z
#    x 1.725300 0.000000 0.009500 
#    y 0.000000 1.701420 0.000000 
#    z 0.009500 0.000000 1.701810 
# 
# From -- ./inp_files/305671.got.cif
#   From: 2010.06.25/outbox.cif.g09.slc.cpg/sg15_153_cif.got.tgz:305671.got - 2010.06.28 07:06:18.
