data_PCOD8142043
_publ_section_title
;
Structure prediction by ZEFSAII (Michael W. Deem and Ramdas Pophale) SiO2 
 PCOD8142043
Probable space group: C 2/C
;
_chemical_formula_sum "Si O2"
_cell_formula_units_Z 56
_cell_length_a 8.202910
_cell_length_b 14.164372
_cell_length_c 24.105796
_cell_angle_alpha 90.000000
_cell_angle_beta 108.234193
_cell_angle_gamma 90.000000
_cell_volume 2660.187674
_symmetry_space_group_name_H-M "C 2/C"
_symmetry_group_IT_number 15
_symmetry_cell_setting 'monoclinic'
loop_
_space_group_symop_operation_xyz
x,y,z
-x,y,1/2-z
-x,-y,-z
x,-y,1/2+z
1/2+x,1/2+y,z
1/2-x,1/2+y,1/2-z
1/2-x,1/2-y,-z
1/2+x,1/2-y,1/2+z
loop_
_atom_site_type_symbol
_atom_site_label
_atom_site_fract_x
_atom_site_fract_y
_atom_site_fract_z
Si Si1 0.726480 0.397728 0.882891
Si Si2 0.250928 0.304781 0.123845
Si Si3 0.857646 0.528442 0.689321
Si Si4 0.619339 0.110862 0.406450
Si Si5 0.522162 0.769265 0.315395
Si Si6 0.320427 0.952076 0.472466
Si Si7 0.987603 0.047610 0.687909
O O1 0.610733 0.304010 0.867462
O O2 0.695635 0.464997 0.934451
O O3 0.661006 0.466908 0.826943
O O4 0.922850 0.364701 0.900418
O O5 0.286184 0.198085 0.111140
O O6 0.152808 0.303027 0.172856
O O7 0.149187 0.362723 0.065452
O O8 0.431229 0.360594 0.146962
O O9 0.894155 0.476706 0.636028
O O10 0.665797 0.501245 0.687283
O O11 0.000000 0.498033 0.750000
O O12 0.857696 0.640077 0.679112
O O13 0.735487 0.084612 0.472698
O O14 0.500000 0.727393 0.250000
O O15 0.500000 0.000000 0.500000
O O16 0.000000 0.088693 0.750000
#
# Coordination Sequence:
#
# PCOD8142043 Si02
#       7
#     8   8   8   8   8   8   8
#     4  10  21  38  61  88 117 157 199 246 299 353
#     4  11  23  39  62  90 121 160 202 249 303 358
#     4  11  23  39  61  90 122 160 200 248 304 364
#     4  11  22  40  61  88 122 160 202 249 301 361
#     4  11  22  39  59  88 123 158 200 250 302 362
#     4   9  20  41  63  86 120 160 202 252 301 355
#     4  11  21  38  59  86 120 157 198 248 304 365
#
# _framework density 21.051147
#
# number of rings (size 3 to 8) (size 9 to 14) (size 15 to 20)
#    0.000    1.429    0.000    7.714    0.000    1.714 
#    0.000   14.286    0.000    0.000    0.000    0.000 
#    0.000    0.000    0.000    0.000    0.000    0.000 
#
# Total GULP energy -346953.978978 kJ/mol
# GULP energy per Si atom -12391.213535 kJ/mol
# Density = 2.100323 g / cm^3
# Si number density = 21.051147 Si / 1000 Ang^3
#
#
#
# Elastic Constant Matrix: (Units=GPa)
#
#
# Indices 1 2 3 4 5 6 
#
# 1 74.0233 7.0542 36.6927 0.0000 2.0567 0.0000
# 2 7.0542 83.2135 44.2037 0.0000 7.6422 0.0000
# 3 36.6927 44.2037 131.2808 0.0000 -2.7902 0.0000
# 4 0.0000 0.0000 0.0000 33.5687 0.0000 -2.0638
# 5 2.0567 7.6422 -2.7902 0.0000 28.0780 0.0000
# 6 0.0000 0.0000 0.0000 -2.0638 0.0000 23.1521
#
#
#
# Elastic Compliance Matrix: (Units=1/GPa)
#
#
# Indices 1 2 3 4 5 6 
#
# 1 0.015898 0.001493 -0.004990 0.000000 -0.002067 0.000000
# 2 0.001493 0.015361 -0.005693 0.000000 -0.004856 0.000000
# 3 -0.004990 -0.005693 0.010993 0.000000 0.003007 0.000000
# 4 0.000000 0.000000 0.000000 0.029954 0.000000 0.002670
# 5 -0.002067 -0.004856 0.003007 0.000000 0.037387 0.000000
# 6 0.000000 0.000000 0.000000 0.002670 0.000000 0.043431
#
#
# Mechanical properties :
#
#
# Convention : Reuss Voigt Hill
#
# Bulk Modulus (GPa) = 41.89059 51.60210 46.74634
# Shear Modulus (GPa) = 27.87701 30.33089 29.10395
#
# Velocity S-wave (km/s) = 3.64297 3.79993 3.72228
# Velocity P-wave (km/s) = 6.13495 6.61956 6.38186
#
# Compressibility (1/GPa) = 0.02387171
#
# Stress axis : x y z
#
# Youngs Moduli (GPa) = 62.90127 65.10158 90.97006
#
# Poissons Ratio (x) = -0.09719 0.45394
# Poissons Ratio (y) = -0.09390 0.51785
# Poissons Ratio (z) = 0.31388 0.37059
#
# Static dielectric constant tensor:
#      x y z
#    x 3.749350 0.000000 -0.225460 
#    y 0.000000 3.840270 0.000000 
#    z -0.225460 0.000000 7.443120 
# 
# 
# High freq. dielectric constant tensor:
#      x y z
#    x 1.804080 0.000000 0.009290 
#    y 0.000000 1.832290 0.000000 
#    z 0.009290 0.000000 1.833760 
# 
# From -- ./inp_files/264404.got.cif
#   From: 2010.06.25/outbox.cif.g09.slc.cpg/sg15_133_cif.got.tgz:264404.got - 2010.06.28 07:06:18.
