data_PCOD8142443
_publ_section_title
;
Structure prediction by ZEFSAII (Michael W. Deem and Ramdas Pophale) SiO2 
 PCOD8142443
Probable space group: C 2/C
;
_chemical_formula_sum "Si O2"
_cell_formula_units_Z 40
_cell_length_a 15.453050
_cell_length_b 21.219787
_cell_length_c 8.955060
_cell_angle_alpha 90.000000
_cell_angle_beta 143.196922
_cell_angle_gamma 90.000000
_cell_volume 1759.133694
_symmetry_space_group_name_H-M "C 2/C"
_symmetry_group_IT_number 15
_symmetry_cell_setting 'monoclinic'
loop_
_space_group_symop_operation_xyz
x,y,z
-x,y,1/2-z
-x,-y,-z
x,-y,1/2+z
1/2+x,1/2+y,z
1/2-x,1/2+y,1/2-z
1/2-x,1/2-y,-z
1/2+x,1/2-y,1/2+z
loop_
_atom_site_type_symbol
_atom_site_label
_atom_site_fract_x
_atom_site_fract_y
_atom_site_fract_z
Si Si1 0.202274 0.705275 0.214152
Si Si2 0.170566 0.913918 0.464205
Si Si3 0.071813 0.686550 0.502111
Si Si4 0.849662 0.386200 0.113600
Si Si5 0.170150 0.991768 0.737162
O O1 0.254259 0.651938 0.402687
O O2 0.300799 0.765976 0.362633
O O3 0.043656 0.724290 0.053934
O O4 0.197680 0.677487 0.040415
O O5 0.226476 0.969484 0.653933
O O6 0.000000 0.904226 0.250000
O O7 0.221179 0.939650 0.370902
O O8 0.131904 0.628763 0.685054
O O9 0.000000 0.661029 0.250000
O O10 0.000000 0.411861 0.250000
O O11 0.723026 0.437654 0.926021
O O12 0.000000 0.000000 0.500000
#
# Coordination Sequence:
#
# PCOD8142443 Si02
#       5
#     8   8   8   8   8
#     4  10  21  39  59  83 119 160 201 248 303 360
#     4   9  18  34  56  81 113 150 191 244 300 357
#     4  11  22  37  58  87 120 160 207 254 303 358
#     4   9  20  39  60  85 120 160 201 250 307 363
#     4   9  18  35  58  84 113 150 194 242 301 364
#
# _framework density 22.738465999999999
#
# number of rings (size 3 to 8) (size 9 to 14) (size 15 to 20)
#    0.000    2.400    0.000    1.800    0.000    1.600 
#    0.000   22.000    0.000    0.000    0.000    0.000 
#    0.000    0.000    0.000    0.000    0.000    0.000 
#
# Total GULP energy -247793.734708 kJ/mol
# GULP energy per Si atom -12389.686735 kJ/mol
# Density = 2.268671 g / cm^3
# Si number density = 22.738466 Si / 1000 Ang^3
#
#
#
# Elastic Constant Matrix: (Units=GPa)
#
#
# Indices 1 2 3 4 5 6 
#
# 1 53.8348 24.9527 26.9100 0.0000 -0.1823 0.0000
# 2 24.9527 47.3251 41.0660 0.0000 6.3064 0.0000
# 3 26.9100 41.0660 136.8236 0.0000 -9.9527 0.0000
# 4 0.0000 0.0000 0.0000 45.7730 0.0000 0.0633
# 5 -0.1823 6.3064 -9.9527 0.0000 31.7027 0.0000
# 6 0.0000 0.0000 0.0000 0.0633 0.0000 28.1184
#
#
#
# Elastic Compliance Matrix: (Units=1/GPa)
#
#
# Indices 1 2 3 4 5 6 
#
# 1 0.024908 -0.012638 -0.000934 0.000000 0.002364 0.000000
# 2 -0.012638 0.037457 -0.009521 0.000000 -0.010513 0.000000
# 3 -0.000934 -0.009521 0.010733 0.000000 0.005258 0.000000
# 4 0.000000 0.000000 0.000000 0.021847 0.000000 -0.000049
# 5 0.002364 -0.010513 0.005258 0.000000 0.035299 0.000000
# 6 0.000000 0.000000 0.000000 -0.000049 0.000000 0.035564
#
#
# Mechanical properties :
#
#
# Convention : Reuss Voigt Hill
#
# Bulk Modulus (GPa) = 37.15893 47.09345 42.12619
# Shear Modulus (GPa) = 22.62826 30.78915 26.70870
#
# Velocity S-wave (km/s) = 3.15803 3.68374 3.43097
# Velocity P-wave (km/s) = 5.44746 6.23291 5.85338
#
# Compressibility (1/GPa) = 0.02691143
#
# Stress axis : x y z
#
# Youngs Moduli (GPa) = 40.14822 26.69745 93.17452
#
# Poissons Ratio (x) = 0.33739 0.08700
# Poissons Ratio (y) = 0.50738 0.88715
# Poissons Ratio (z) = 0.03749 0.25420
#
# Static dielectric constant tensor:
#      x y z
#    x 5.782160 0.000000 -0.145780 
#    y 0.000000 3.835030 0.000000 
#    z -0.145780 0.000000 4.644510 
# 
# 
# High freq. dielectric constant tensor:
#      x y z
#    x 1.881010 0.000000 -0.012440 
#    y 0.000000 1.871310 0.000000 
#    z -0.012440 0.000000 1.921200 
# 
# From -- ./inp_files/42430.got.cif
#   From: 2010.06.25/outbox.cif.g09.slc.cpg/sg15_22_cif.got.tgz:42430.got - 2010.06.28 07:06:18.
