data_PCOD8142117
_publ_section_title
;
Structure prediction by ZEFSAII (Michael W. Deem and Ramdas Pophale) SiO2 
 PCOD8142117
Probable space group: C 2/C
;
_chemical_formula_sum "Si O2"
_cell_formula_units_Z 56
_cell_length_a 10.771725
_cell_length_b 15.238162
_cell_length_c 16.366315
_cell_angle_alpha 90.000000
_cell_angle_beta 94.039731
_cell_angle_gamma 90.000000
_cell_volume 2679.713570
_symmetry_space_group_name_H-M "C 2/C"
_symmetry_group_IT_number 15
_symmetry_cell_setting 'monoclinic'
loop_
_space_group_symop_operation_xyz
x,y,z
-x,y,1/2-z
-x,-y,-z
x,-y,1/2+z
1/2+x,1/2+y,z
1/2-x,1/2+y,1/2-z
1/2-x,1/2-y,-z
1/2+x,1/2-y,1/2+z
loop_
_atom_site_type_symbol
_atom_site_label
_atom_site_fract_x
_atom_site_fract_y
_atom_site_fract_z
Si Si1 0.361541 0.003391 0.269252
Si Si2 0.802361 0.156087 0.980269
Si Si3 0.348271 0.177776 0.023917
Si Si4 0.753627 0.329442 0.687301
Si Si5 0.360435 0.997795 0.961623
Si Si6 0.001133 0.774578 0.908540
Si Si7 0.791304 0.681895 0.690074
O O1 0.500000 0.030170 0.250000
O O2 0.264227 0.074783 0.229109
O O3 0.351811 0.008353 0.365120
O O4 0.330974 0.904918 0.240125
O O5 0.812607 0.154271 0.882036
O O6 0.750000 0.250000 0.000000
O O7 0.706403 0.083006 0.001086
O O8 0.930189 0.146739 0.037923
O O9 0.362671 0.176243 0.123223
O O10 0.250000 0.250000 0.000000
O O11 0.470924 0.201422 0.977157
O O12 0.293417 0.085394 0.990597
O O13 0.617081 0.318291 0.640700
O O14 0.773971 0.251472 0.752855
O O15 0.500000 0.000000 0.000000
O O16 0.086547 0.726491 0.845070
#
# Coordination Sequence:
#
# PCOD8142117 Si02
#       7
#     8   8   8   8   8   8   8
#     4  12  23  37  61  92 120 154 203 257 302 353
#     4  10  21  38  62  90 118 157 205 249 295 361
#     4  10  21  39  60  85 120 162 198 239 302 369
#     4  11  23  38  62  95 125 156 201 260 312 356
#     4  12  23  39  62  89 120 159 203 249 303 366
#     4  10  21  41  65  86 123 169 204 244 305 375
#     4  11  22  40  64  91 119 157 206 254 298 356
#
# _framework density 20.897756000000001
#
# number of rings (size 3 to 8) (size 9 to 14) (size 15 to 20)
#    0.000    1.143    0.000    9.857    0.000    1.143 
#    0.000    6.429    0.000    8.571    0.000    0.000 
#    0.000    0.000    0.000    0.000    0.000    0.000 
#
# Total GULP energy -347040.610444 kJ/mol
# GULP energy per Si atom -12394.307516 kJ/mol
# Density = 2.085019 g / cm^3
# Si number density = 20.897756 Si / 1000 Ang^3
#
#
#
# Elastic Constant Matrix: (Units=GPa)
#
#
# Indices 1 2 3 4 5 6 
#
# 1 48.4336 41.5251 24.6955 0.0000 9.1256 0.0000
# 2 41.5251 139.7946 35.0270 0.0000 -7.3693 0.0000
# 3 24.6955 35.0270 140.1839 0.0000 -10.9486 0.0000
# 4 0.0000 0.0000 0.0000 32.9411 0.0000 9.8797
# 5 9.1256 -7.3693 -10.9486 0.0000 39.5571 0.0000
# 6 0.0000 0.0000 0.0000 9.8797 0.0000 19.0314
#
#
#
# Elastic Compliance Matrix: (Units=1/GPa)
#
#
# Indices 1 2 3 4 5 6 
#
# 1 0.032663 -0.009181 -0.004274 0.000000 -0.010429 0.000000
# 2 -0.009181 0.010244 -0.000642 0.000000 0.003849 0.000000
# 3 -0.004274 -0.000642 0.008294 0.000000 0.003162 0.000000
# 4 0.000000 0.000000 0.000000 0.035955 0.000000 -0.018665
# 5 -0.010429 0.003849 0.003162 0.000000 0.029278 0.000000
# 6 0.000000 0.000000 0.000000 -0.018665 0.000000 0.062234
#
#
# Mechanical properties :
#
#
# Convention : Reuss Voigt Hill
#
# Bulk Modulus (GPa) = 43.46636 58.98970 51.22803
# Shear Modulus (GPa) = 23.30665 33.45024 28.37845
#
# Velocity S-wave (km/s) = 3.34319 4.00517 3.68906
# Velocity P-wave (km/s) = 5.97890 7.04823 6.53547
#
# Compressibility (1/GPa) = 0.02300630
#
# Stress axis : x y z
#
# Youngs Moduli (GPa) = 30.61607 97.61651 120.57189
#
# Poissons Ratio (x) = 0.89621 0.51538
# Poissons Ratio (y) = 0.28108 0.07737
# Poissons Ratio (z) = 0.13087 0.06264
#
# Static dielectric constant tensor:
#      x y z
#    x -6.455700 0.000000 7.920840 
#    y 0.000000 3.698990 0.000000 
#    z 7.920840 0.000000 -1.291640 
# 
# 
# High freq. dielectric constant tensor:
#      x y z
#    x 1.792000 0.000000 0.002980 
#    y 0.000000 1.827990 0.000000 
#    z 0.002980 0.000000 1.848300 
# 
# From -- ./inp_files/144274.got.cif
#   From: 2010.06.25/outbox.cif.g09.slc.cpg/sg15_73_cif.got.tgz:144274.got - 2010.06.28 07:06:18.
