data_PCOD8142228
_publ_section_title
;
Structure prediction by ZEFSAII (Michael W. Deem and Ramdas Pophale) SiO2 
 PCOD8142228
Probable space group: C 2/C
;
_chemical_formula_sum "Si O2"
_cell_formula_units_Z 36
_cell_length_a 10.716247
_cell_length_b 21.024789
_cell_length_c 7.774871
_cell_angle_alpha 90.000000
_cell_angle_beta 113.999965
_cell_angle_gamma 90.000000
_cell_volume 1600.286840
_symmetry_space_group_name_H-M "C 2/C"
_symmetry_group_IT_number 15
_symmetry_cell_setting 'monoclinic'
loop_
_space_group_symop_operation_xyz
x,y,z
-x,y,1/2-z
-x,-y,-z
x,-y,1/2+z
1/2+x,1/2+y,z
1/2-x,1/2+y,1/2-z
1/2-x,1/2-y,-z
1/2+x,1/2-y,1/2+z
loop_
_atom_site_type_symbol
_atom_site_label
_atom_site_fract_x
_atom_site_fract_y
_atom_site_fract_z
Si Si1 0.413406 0.298276 0.948302
Si Si2 0.750666 0.567673 0.569183
Si Si3 0.292713 0.691562 0.746947
Si Si4 0.403866 0.956356 0.836577
Si Si5 0.000000 0.900502 0.750000
O O1 0.335131 0.239416 0.816091
O O2 0.401705 0.356262 0.810178
O O3 0.573968 0.282191 0.075174
O O4 0.334712 0.320671 0.074230
O O5 0.763036 0.625369 0.709233
O O6 0.796558 0.501437 0.676964
O O7 0.831118 0.587745 0.437653
O O8 0.593436 0.556317 0.425546
O O9 0.500000 0.918887 0.750000
O O10 0.500000 0.000000 0.000000
#
# Coordination Sequence:
#
# PCOD8142228 Si02
#       5
#     8   8   8   8   4
#     4   9  19  37  60  89 134 150 211 243 301 373
#     4  10  21  38  64  87 122 161 202 251 315 350
#     4   9  19  39  62  91 123 168 192 257 305 367
#     4   9  20  41  59  85 121 155 208 258 289 367
#     4  10  22  38  60  94 118 160 200 256 300 380
#
# _framework density 22.495968000000001
#
# number of rings (size 3 to 8) (size 9 to 14) (size 15 to 20)
#    0.000    2.667    0.000    0.000    0.000    8.000 
#   18.000    2.222    4.889    0.000    0.000    0.000 
#    0.000    0.000    0.000    0.000    0.000    0.000 
#
# Total GULP energy -223023.563520 kJ/mol
# GULP energy per Si atom -12390.197973 kJ/mol
# Density = 2.244477 g / cm^3
# Si number density = 22.495968 Si / 1000 Ang^3
#
#
#
# Elastic Constant Matrix: (Units=GPa)
#
#
# Indices 1 2 3 4 5 6 
#
# 1 94.8097 40.6591 31.7242 0.0000 -11.3415 0.0000
# 2 40.6591 58.2524 35.6037 0.0000 4.0093 0.0000
# 3 31.7242 35.6037 102.6888 0.0000 5.0298 0.0000
# 4 0.0000 0.0000 0.0000 28.8451 0.0000 -4.6536
# 5 -11.3415 4.0093 5.0298 0.0000 40.0245 0.0000
# 6 0.0000 0.0000 0.0000 -4.6536 0.0000 32.3883
#
#
#
# Elastic Compliance Matrix: (Units=1/GPa)
#
#
# Indices 1 2 3 4 5 6 
#
# 1 0.016488 -0.010947 -0.001591 0.000000 0.005969 0.000000
# 2 -0.010947 0.029112 -0.006457 0.000000 -0.005207 0.000000
# 3 -0.001591 -0.006457 0.012536 0.000000 -0.001379 0.000000
# 4 0.000000 0.000000 0.000000 0.035491 0.000000 0.005099
# 5 0.005969 -0.005207 -0.001379 0.000000 0.027371 0.000000
# 6 0.000000 0.000000 0.000000 0.005099 0.000000 0.031608
#
#
# Mechanical properties :
#
#
# Convention : Reuss Voigt Hill
#
# Bulk Modulus (GPa) = 49.63411 52.41388 51.02400
# Shear Modulus (GPa) = 25.34074 30.10251 27.72162
#
# Velocity S-wave (km/s) = 3.35991 3.66201 3.51421
# Velocity P-wave (km/s) = 6.09619 6.42108 6.26074
#
# Compressibility (1/GPa) = 0.02014743
#
# Stress axis : x y z
#
# Youngs Moduli (GPa) = 60.64865 34.34979 79.77197
#
# Poissons Ratio (x) = 0.37603 0.12689
# Poissons Ratio (y) = 0.66393 0.51506
# Poissons Ratio (z) = 0.09647 0.22178
#
# Static dielectric constant tensor:
#      x y z
#    x 3.166240 0.000000 0.788280 
#    y 0.000000 3.238730 0.000000 
#    z 0.788280 0.000000 3.866790 
# 
# 
# High freq. dielectric constant tensor:
#      x y z
#    x 1.902040 0.000000 -0.002380 
#    y 0.000000 1.833730 0.000000 
#    z -0.002380 0.000000 1.915700 
# 
# From -- ./inp_files/30583.got.cif
#   From: 2010.06.25/outbox.cif.g09.slc.cpg/sg15_16_cif.got.tgz:30583.got - 2010.06.28 07:06:18.
