data_PCOD8142685
_publ_section_title
;
Structure prediction by ZEFSAII (Michael W. Deem and Ramdas Pophale) SiO2 
 PCOD8142685
Probable space group: C 2/C
;
_chemical_formula_sum "Si O2"
_cell_formula_units_Z 36
_cell_length_a 12.120828
_cell_length_b 16.088134
_cell_length_c 12.096707
_cell_angle_alpha 90.000000
_cell_angle_beta 47.601540
_cell_angle_gamma 90.000000
_cell_volume 1741.967384
_symmetry_space_group_name_H-M "C 2/C"
_symmetry_group_IT_number 15
_symmetry_cell_setting 'monoclinic'
loop_
_space_group_symop_operation_xyz
x,y,z
-x,y,1/2-z
-x,-y,-z
x,-y,1/2+z
1/2+x,1/2+y,z
1/2-x,1/2+y,1/2-z
1/2-x,1/2-y,-z
1/2+x,1/2-y,1/2+z
loop_
_atom_site_type_symbol
_atom_site_label
_atom_site_fract_x
_atom_site_fract_y
_atom_site_fract_z
Si Si1 0.023980 0.097373 0.858766
Si Si2 0.235059 0.972699 0.817102
Si Si3 0.046424 0.404360 0.982051
Si Si4 0.920755 0.723764 0.409307
Si Si5 0.500000 0.059544 0.750000
O O1 0.026036 0.197002 0.865172
O O2 0.000000 0.066759 0.750000
O O3 0.891669 0.068728 0.026269
O O4 0.178471 0.056938 0.795143
O O5 0.292090 0.903272 0.688709
O O6 0.364492 0.998938 0.812822
O O7 0.928740 0.341343 0.004600
O O8 0.049217 0.383362 0.111387
O O9 0.000000 0.500000 0.000000
O O10 0.750000 0.750000 0.500000
O O11 0.000000 0.680530 0.250000
#
# Coordination Sequence:
#
# PCOD8142685 Si02
#       5
#     8   8   8   8   4
#     4  10  22  38  64  93 132 163 222 271 332 373
#     4  10  21  39  63  94 128 175 215 265 326 405
#     4  10  23  38  65  93 128 171 216 261 329 391
#     4  11  25  39  68  99 132 164 225 281 327 381
#     4  10  22  36  66  86 130 168 224 250 322 400
#
# _framework density 20.666288999999999
#
# number of rings (size 3 to 8) (size 9 to 14) (size 15 to 20)
#    0.000    1.778    0.000    2.667   24.889    0.000 
#    0.000    1.111    9.778    0.000    0.000    0.000 
#    0.000    0.000    0.000    0.000    0.000    0.000 
#
# Total GULP energy -223088.942593 kJ/mol
# GULP energy per Si atom -12393.830144 kJ/mol
# Density = 2.061925 g / cm^3
# Si number density = 20.666289 Si / 1000 Ang^3
#
#
#
# Elastic Constant Matrix: (Units=GPa)
#
#
# Indices 1 2 3 4 5 6 
#
# 1 122.8385 51.4458 52.2630 0.0001 13.4951 -0.0003
# 2 51.4458 82.5804 26.3047 0.0001 13.0528 -0.0002
# 3 52.2630 26.3047 141.7322 0.0001 28.7839 -0.0003
# 4 0.0001 0.0001 0.0001 31.6272 -0.0001 17.5246
# 5 13.4951 13.0528 28.7839 -0.0001 40.5399 0.0003
# 6 -0.0003 -0.0002 -0.0003 17.5246 0.0003 102.8069
#
#
#
# Elastic Compliance Matrix: (Units=1/GPa)
#
#
# Indices 1 2 3 4 5 6 
#
# 1 0.012332 -0.006671 -0.003402 0.000000 0.000459 0.000000
# 2 -0.006671 0.016770 -0.000008 0.000000 -0.003173 0.000000
# 3 -0.003402 -0.000008 0.009443 0.000000 -0.005569 0.000000
# 4 0.000000 0.000000 0.000000 0.034916 0.000000 -0.005952
# 5 0.000459 -0.003173 -0.005569 0.000000 0.029490 0.000000
# 6 0.000000 0.000000 0.000000 -0.005952 0.000000 0.010742
#
#
# Mechanical properties :
#
#
# Convention : Reuss Voigt Hill
#
# Bulk Modulus (GPa) = 54.40380 67.46426 60.93403
# Shear Modulus (GPa) = 35.71880 49.47064 42.59472
#
# Velocity S-wave (km/s) = 4.16187 4.89794 4.54483
# Velocity P-wave (km/s) = 7.03398 8.04375 7.55575
#
# Compressibility (1/GPa) = 0.01838107
#
# Stress axis : x y z
#
# Youngs Moduli (GPa) = 81.09033 59.63196 105.90227
#
# Poissons Ratio (x) = 0.39782 0.36031
# Poissons Ratio (y) = 0.54097 0.00084
# Poissons Ratio (z) = 0.27589 0.00047
#
# Static dielectric constant tensor:
#      x y z
#    x 3.837540 0.000000 0.134390 
#    y 0.000000 3.669950 0.000000 
#    z 0.134390 0.000000 4.896070 
# 
# 
# High freq. dielectric constant tensor:
#      x y z
#    x 1.793650 0.000000 0.001760 
#    y 0.000000 1.785300 0.000000 
#    z 0.001760 0.000000 1.844210 
# 
# From -- ./inp_files/86490.got.cif
#   From: 2010.06.25/outbox.cif.g09.slc.cpg/sg15_44_cif.got.tgz:86490.got - 2010.06.28 07:06:18.
