data_PCOD8142943
_publ_section_title
;
Structure prediction by ZEFSAII (Michael W. Deem and Ramdas Pophale) SiO2 
 PCOD8142943
Probable space group: C 2/C
;
_chemical_formula_sum "Si O2"
_cell_formula_units_Z 44
_cell_length_a 8.195114
_cell_length_b 27.195061
_cell_length_c 9.484670
_cell_angle_alpha 90.000000
_cell_angle_beta 70.708411
_cell_angle_gamma 90.000000
_cell_volume 1995.124463
_symmetry_space_group_name_H-M "C 2/C"
_symmetry_group_IT_number 15
_symmetry_cell_setting 'monoclinic'
loop_
_space_group_symop_operation_xyz
x,y,z
-x,y,1/2-z
-x,-y,-z
x,-y,1/2+z
1/2+x,1/2+y,z
1/2-x,1/2+y,1/2-z
1/2-x,1/2-y,-z
1/2+x,1/2-y,1/2+z
loop_
_atom_site_type_symbol
_atom_site_label
_atom_site_fract_x
_atom_site_fract_y
_atom_site_fract_z
Si Si1 0.202770 0.533693 0.167587
Si Si2 0.500000 0.278320 0.250000
Si Si3 0.204381 0.359378 0.701116
Si Si4 0.369624 0.214011 0.055537
Si Si5 0.688671 0.157834 0.891531
Si Si6 0.694045 0.445555 0.174524
O O1 0.274331 0.585407 0.212889
O O2 0.290677 0.487354 0.213392
O O3 0.000000 0.528847 0.250000
O O4 0.254906 0.530915 0.989239
O O5 0.508651 0.243660 0.110279
O O6 0.673362 0.309130 0.229964
O O7 0.254625 0.320479 0.810007
O O8 0.265403 0.342035 0.529665
O O9 0.000000 0.363758 0.750000
O O10 0.250000 0.250000 0.000000
O O11 0.494486 0.179338 0.925218
O O12 0.684228 0.102097 0.833366
O O13 0.500000 0.425719 0.250000
#
# Coordination Sequence:
#
# PCOD8142943 Si02
#       6
#     8   4   8   8   8   8
#     4  10  21  39  68  96 132 178 223 275 334 403
#     4  12  22  42  64  86 130 170 212 268 330 394
#     4   8  17  39  63  85 124 175 212 257 332 396
#     4  11  23  40  66  95 124 168 226 273 331 394
#     4  10  21  42  64  88 127 175 214 265 338 398
#     4  11  22  42  66  98 136 177 222 274 344 406
#
# _framework density 22.053763
#
# number of rings (size 3 to 8) (size 9 to 14) (size 15 to 20)
#    0.000    1.818    3.636    2.727    0.000    0.727 
#    6.545    0.000    0.000    0.000    0.000    0.000 
#    0.000    0.000    0.000    0.000    0.000    0.000 
#
# Total GULP energy -272664.670811 kJ/mol
# GULP energy per Si atom -12393.848673 kJ/mol
# Density = 2.200357 g / cm^3
# Si number density = 22.053763 Si / 1000 Ang^3
#
#
#
# Elastic Constant Matrix: (Units=GPa)
#
#
# Indices 1 2 3 4 5 6 
#
# 1 64.7500 40.2527 16.5149 0.0000 -4.4028 0.0000
# 2 40.2527 158.1010 20.5574 0.0000 9.4374 0.0000
# 3 16.5149 20.5574 56.3016 0.0000 -16.8102 0.0000
# 4 0.0000 0.0000 0.0000 34.2450 0.0000 -6.9069
# 5 -4.4028 9.4374 -16.8102 0.0000 30.2009 0.0000
# 6 0.0000 0.0000 0.0000 -6.9069 0.0000 59.1006
#
#
#
# Elastic Compliance Matrix: (Units=1/GPa)
#
#
# Indices 1 2 3 4 5 6 
#
# 1 0.019326 -0.004647 -0.003235 0.000000 0.002469 0.000000
# 2 -0.004647 0.008212 -0.003123 0.000000 -0.004982 0.000000
# 3 -0.003235 -0.003123 0.023988 0.000000 0.013856 0.000000
# 4 0.000000 0.000000 0.000000 0.029906 0.000000 0.003495
# 5 0.002469 -0.004982 0.013856 0.000000 0.042741 0.000000
# 6 0.000000 0.000000 0.000000 0.003495 0.000000 0.017329
#
#
# Mechanical properties :
#
#
# Convention : Reuss Voigt Hill
#
# Bulk Modulus (GPa) = 33.87993 48.20030 41.04011
# Shear Modulus (GPa) = 28.84362 38.16447 33.50404
#
# Velocity S-wave (km/s) = 3.62038 4.16446 3.90192
# Velocity P-wave (km/s) = 5.73341 6.71021 6.24095
#
# Compressibility (1/GPa) = 0.02951600
#
# Stress axis : x y z
#
# Youngs Moduli (GPa) = 51.74388 121.77871 41.68831
#
# Poissons Ratio (x) = 0.56593 0.13486
# Poissons Ratio (y) = 0.24046 0.13017
# Poissons Ratio (z) = 0.16738 0.38026
#
# Static dielectric constant tensor:
#      x y z
#    x 3.253150 0.000000 -0.234280 
#    y 0.000000 4.438740 0.000000 
#    z -0.234280 0.000000 4.329950 
# 
# 
# High freq. dielectric constant tensor:
#      x y z
#    x 1.817500 0.000000 -0.023550 
#    y 0.000000 1.895900 0.000000 
#    z -0.023550 0.000000 1.868170 
# 
# From -- ./inp_files/25467.got.cif
#   From: 2010.06.25/outbox.cif.g09.slc.cpg/sg15_13_cif.got.tgz:25467.got - 2010.06.28 07:06:18.
