data_PCOD8142944
_publ_section_title
;
Structure prediction by ZEFSAII (Michael W. Deem and Ramdas Pophale) SiO2 
 PCOD8142944
Probable space group: C 2/C
;
_chemical_formula_sum "Si O2"
_cell_formula_units_Z 52
_cell_length_a 19.335545
_cell_length_b 5.784928
_cell_length_c 24.138729
_cell_angle_alpha 90.000000
_cell_angle_beta 117.262435
_cell_angle_gamma 90.000000
_cell_volume 2400.105609
_symmetry_space_group_name_H-M "C 2/C"
_symmetry_group_IT_number 15
_symmetry_cell_setting 'monoclinic'
loop_
_space_group_symop_operation_xyz
x,y,z
-x,y,1/2-z
-x,-y,-z
x,-y,1/2+z
1/2+x,1/2+y,z
1/2-x,1/2+y,1/2-z
1/2-x,1/2-y,-z
1/2+x,1/2-y,1/2+z
loop_
_atom_site_type_symbol
_atom_site_label
_atom_site_fract_x
_atom_site_fract_y
_atom_site_fract_z
Si Si1 0.864036 0.503033 0.674237
Si Si2 0.165222 0.250235 0.944709
Si Si3 0.237134 0.946861 0.215005
Si Si4 0.455254 0.808006 0.515678
Si Si5 0.928268 0.045574 0.398694
Si Si6 0.447520 0.386140 0.635253
Si Si7 0.000000 0.792077 0.250000
O O1 0.824954 0.348528 0.612798
O O2 0.796680 0.607648 0.687351
O O3 0.914743 0.696032 0.663499
O O4 0.922904 0.357676 0.733658
O O5 0.110811 0.403606 0.966229
O O6 0.124327 0.997595 0.926123
O O7 0.250000 0.250000 0.000000
O O8 0.259636 0.201901 0.249494
O O9 0.151252 0.978748 0.159987
O O10 0.412279 0.651070 0.453435
O O11 0.519898 0.682495 0.576081
O O12 0.500000 0.000000 0.500000
O O13 0.983947 0.210371 0.380454
O O14 0.490055 0.571171 0.689682
#
# Coordination Sequence:
#
# PCOD8142944 Si02
#       7
#     8   8   8   8   8   8   4
#     4  11  24  41  67  97 127 182 226 284 343 416
#     4  10  22  39  62  95 132 167 222 283 342 411
#     4  12  30  46  70 102 146 187 233 289 364 419
#     4  10  21  39  68  96 132 179 231 289 354 410
#     4  10  23  42  63  98 136 181 232 290 349 426
#     4  10  22  39  65  90 130 170 227 276 342 404
#     4  10  22  38  64  92 128 168 232 280 334 408
#
# _framework density 21.665713
#
# number of rings (size 3 to 8) (size 9 to 14) (size 15 to 20)
#    0.000    1.538    0.000    3.231   10.769    1.846 
#    0.000    0.000    0.000    0.000    0.000    0.000 
#    0.000    0.000    0.000    0.000    0.000    0.000 
#
# Total GULP energy -322157.091720 kJ/mol
# GULP energy per Si atom -12390.657374 kJ/mol
# Density = 2.161640 g / cm^3
# Si number density = 21.665713 Si / 1000 Ang^3
#
#
#
# Elastic Constant Matrix: (Units=GPa)
#
#
# Indices 1 2 3 4 5 6 
#
# 1 102.0941 -0.7949 37.1372 -0.0005 3.7511 -0.0014
# 2 -0.7949 58.4042 21.0473 -0.0012 12.6900 -0.0005
# 3 37.1372 21.0473 132.2315 -0.0001 33.7823 -0.0006
# 4 -0.0005 -0.0012 -0.0001 0.4619 0.0001 -4.0577
# 5 3.7511 12.6900 33.7823 0.0001 43.8715 -0.0002
# 6 -0.0014 -0.0005 -0.0006 -4.0577 -0.0002 31.7230
#
#
#
# Elastic Compliance Matrix: (Units=1/GPa)
#
#
# Indices 1 2 3 4 5 6 
#
# 1 0.011091 0.001143 -0.003697 -0.000139 0.001568 -0.000017
# 2 0.001143 0.018797 -0.002364 -0.000429 -0.003714 -0.000055
# 3 -0.003697 -0.002364 0.010858 0.000057 -0.007361 0.000007
# 4 -0.000139 -0.000429 0.000057-17.511128 0.000125 -2.239878
# 5 0.001568 -0.003714 -0.007361 0.000125 0.029402 0.000016
# 6 -0.000017 -0.000055 0.000007 -2.239878 0.000016 -0.254984
#
#
# Mechanical properties :
#
#
# Convention : Reuss Voigt Hill
#
# Bulk Modulus (GPa) = 32.35393 45.27875 38.81634
# Shear Modulus (GPa) = -0.28287 30.90064 15.30888
#
# Velocity S-wave (km/s) = -0.36173 3.78066 2.66107
# Velocity P-wave (km/s) = 3.84593 6.32472 5.23418
#
# Compressibility (1/GPa) = 0.03090814
#
# Stress axis : x y z
#
# Youngs Moduli (GPa) = 90.16205 53.20129 92.10028
#
# Poissons Ratio (x) = -0.06079 0.34054
# Poissons Ratio (y) = -0.10303 0.21771
# Poissons Ratio (z) = 0.33337 0.12576
#
# Static dielectric constant tensor:
#      x y z
#    x 4.973340 0.000000 -1.000720 
#    y 0.000000 4.017590 0.000000 
#    z -1.000720 0.000000 4.901550 
# 
# 
# High freq. dielectric constant tensor:
#      x y z
#    x 1.866490 0.000000 -0.007340 
#    y 0.000000 1.835030 0.000000 
#    z -0.007340 0.000000 1.866930 
# 
# From -- ./inp_files/297667.got.cif
#   From: 2010.06.25/outbox.cif.g09.slc.cpg/sg15_149_cif.got.tgz:297667.got - 2010.06.28 07:06:18.
