data_PCOD8142660
_publ_section_title
;
Structure prediction by ZEFSAII (Michael W. Deem and Ramdas Pophale) SiO2 
 PCOD8142660
Probable space group: C 2/C
;
_chemical_formula_sum "Si O2"
_cell_formula_units_Z 40
_cell_length_a 28.436494
_cell_length_b 10.010261
_cell_length_c 22.274637
_cell_angle_alpha 90.000000
_cell_angle_beta 18.528547
_cell_angle_gamma 90.000000
_cell_volume 2014.905564
_symmetry_space_group_name_H-M "C 2/C"
_symmetry_group_IT_number 15
_symmetry_cell_setting 'monoclinic'
loop_
_space_group_symop_operation_xyz
x,y,z
-x,y,1/2-z
-x,-y,-z
x,-y,1/2+z
1/2+x,1/2+y,z
1/2-x,1/2+y,1/2-z
1/2-x,1/2-y,-z
1/2+x,1/2-y,1/2+z
loop_
_atom_site_type_symbol
_atom_site_label
_atom_site_fract_x
_atom_site_fract_y
_atom_site_fract_z
Si Si1 0.340628 0.281831 0.950728
Si Si2 0.087956 0.496083 0.585936
Si Si3 0.116748 0.526442 0.777280
Si Si4 0.149106 0.651478 0.343106
Si Si5 0.331295 0.547924 0.704211
O O1 0.500000 0.351008 0.750000
O O2 0.373910 0.149038 0.947720
O O3 0.250000 0.250000 0.000000
O O4 0.258742 0.388810 0.089529
O O5 0.247504 0.435901 0.370959
O O6 0.000000 0.431786 0.750000
O O7 0.971625 0.477222 0.673534
O O8 0.171457 0.395715 0.747292
O O9 0.021290 0.625092 0.934493
O O10 0.249907 0.565416 0.265125
O O11 0.182893 0.807935 0.310132
O O12 0.500000 0.500000 0.500000
#
# Coordination Sequence:
#
# PCOD8142660 Si02
#       5
#     8   8   8   8   8
#     4  11  20  35  62  97 125 167 219 263 324 395
#     4  10  21  39  63  90 130 172 209 266 336 379
#     4  10  21  40  63  87 133 165 218 268 323 382
#     4  10  25  41  66  94 128 174 217 273 331 384
#     4  11  25  42  69  97 131 169 227 269 329 399
#
# _framework density 19.852046000000001
#
# number of rings (size 3 to 8) (size 9 to 14) (size 15 to 20)
#    0.000    1.600    4.000    1.200   14.000    1.600 
#    0.000    2.000    0.000    0.000    0.000    0.000 
#    0.000    0.000    0.000    0.000    0.000    0.000 
#
# Total GULP energy -247789.625502 kJ/mol
# GULP energy per Si atom -12389.481275 kJ/mol
# Density = 1.980686 g / cm^3
# Si number density = 19.852046 Si / 1000 Ang^3
#
#
#
# Elastic Constant Matrix: (Units=GPa)
#
#
# Indices 1 2 3 4 5 6 
#
# 1 98.8429 26.0735 46.5735 -0.0001 5.9482 0.0000
# 2 26.0735 113.2510 47.9721 -0.0001 1.7962 -0.0002
# 3 46.5735 47.9721 173.5901 0.0000 6.3771 -0.0001
# 4 -0.0001 -0.0001 0.0000 29.4214 -0.0002 4.4187
# 5 5.9482 1.7962 6.3771 -0.0002 35.0718 -0.0002
# 6 0.0000 -0.0002 -0.0001 4.4187 -0.0002 30.4086
#
#
#
# Elastic Compliance Matrix: (Units=1/GPa)
#
#
# Indices 1 2 3 4 5 6 
#
# 1 0.011892 -0.001570 -0.002704 0.000000 -0.001445 0.000000
# 2 -0.001570 0.010208 -0.002406 0.000000 0.000181 0.000000
# 3 -0.002704 -0.002406 0.007178 0.000000 -0.000723 0.000000
# 4 0.000000 0.000000 0.000000 0.034747 0.000000 -0.005049
# 5 -0.001445 0.000181 -0.000723 0.000000 0.028880 0.000000
# 6 0.000000 0.000000 0.000000 -0.005049 0.000000 0.033619
#
#
# Mechanical properties :
#
#
# Convention : Reuss Voigt Hill
#
# Bulk Modulus (GPa) = 62.82271 69.65801 66.24036
# Shear Modulus (GPa) = 34.43768 36.65135 35.54452
#
# Velocity S-wave (km/s) = 4.16951 4.30143 4.23599
# Velocity P-wave (km/s) = 7.40904 7.73528 7.57392
#
# Compressibility (1/GPa) = 0.01591781
#
# Stress axis : x y z
#
# Youngs Moduli (GPa) = 84.08992 97.96415 139.32040
#
# Poissons Ratio (x) = 0.15377 0.37668
# Poissons Ratio (y) = 0.13199 0.33527
# Poissons Ratio (z) = 0.22736 0.23575
#
# Static dielectric constant tensor:
#      x y z
#    x 3.587670 0.000040 0.920590 
#    y 0.000040 3.600990 -0.000290 
#    z 0.920590 -0.000290 -0.052750 
# 
# 
# High freq. dielectric constant tensor:
#      x y z
#    x 1.775480 0.000000 0.004550 
#    y 0.000000 1.748430 0.000000 
#    z 0.004550 0.000000 1.795140 
# 
# From -- ./inp_files/109679.got.cif
#   From: 2010.06.25/outbox.cif.g09.slc.cpg/sg15_55_cif.got.tgz:109679.got - 2010.06.28 07:06:18.
