data_PCOD8142375
_publ_section_title
;
Structure prediction by ZEFSAII (Michael W. Deem and Ramdas Pophale) SiO2 
 PCOD8142375
Probable space group: C 2/C
;
_chemical_formula_sum "Si O2"
_cell_formula_units_Z 32
_cell_length_a 11.766433
_cell_length_b 7.813757
_cell_length_c 28.578873
_cell_angle_alpha 90.000000
_cell_angle_beta 33.680788
_cell_angle_gamma 90.000000
_cell_volume 1457.144496
_symmetry_space_group_name_H-M "C 2/C"
_symmetry_group_IT_number 15
_symmetry_cell_setting 'monoclinic'
loop_
_space_group_symop_operation_xyz
x,y,z
-x,y,1/2-z
-x,-y,-z
x,-y,1/2+z
1/2+x,1/2+y,z
1/2-x,1/2+y,1/2-z
1/2-x,1/2-y,-z
1/2+x,1/2-y,1/2+z
loop_
_atom_site_type_symbol
_atom_site_label
_atom_site_fract_x
_atom_site_fract_y
_atom_site_fract_z
Si Si1 0.445641 0.789563 0.642658
Si Si2 0.613090 0.258661 0.992476
Si Si3 0.684004 0.028305 0.223452
Si Si4 0.063501 0.850078 0.541288
O O1 0.499437 0.855580 0.571441
O O2 0.651022 0.695500 0.592487
O O3 0.385347 0.935304 0.699777
O O4 0.253215 0.666364 0.702425
O O5 0.621533 0.457604 0.006494
O O6 0.496017 0.239545 0.984086
O O7 0.500000 0.049494 0.250000
O O8 0.870608 0.148994 0.142784
O O9 0.250000 0.750000 0.500000
#
# Coordination Sequence:
#
# PCOD8142375 Si02
#       4
#     8   8   8   8
#     4  10  22  40  66  89 125 166 206 261 316 367
#     4   9  20  42  60  90 127 161 207 259 311 375
#     4  11  23  41  62  93 128 166 208 262 316 368
#     4  10  21  38  68  91 122 170 208 253 317 374
#
# _framework density 21.960758999999999
#
# number of rings (size 3 to 8) (size 9 to 14) (size 15 to 20)
#    0.000    2.000    2.500    0.000    3.500    0.000 
#    0.000   20.000    0.000    0.000    0.000    0.000 
#    0.000    0.000    0.000    0.000    0.000    0.000 
#
# Total GULP energy -198270.823011 kJ/mol
# GULP energy per Si atom -12391.926438 kJ/mol
# Density = 2.191078 g / cm^3
# Si number density = 21.960759 Si / 1000 Ang^3
#
#
#
# Elastic Constant Matrix: (Units=GPa)
#
#
# Indices 1 2 3 4 5 6 
#
# 1 123.6248 12.1790 22.5823 0.0047 -8.3857 0.0061
# 2 12.1790 13.1059 13.0730 0.0017 -6.6562 0.0024
# 3 22.5823 13.0730 109.4580 -0.0008 -7.1579 -0.0026
# 4 0.0047 0.0017 -0.0008 25.7839 0.0004 -8.4480
# 5 -8.3857 -6.6562 -7.1579 0.0004 43.3124 0.0006
# 6 0.0061 0.0024 -0.0026 -8.4480 0.0006 30.8494
#
#
#
# Elastic Compliance Matrix: (Units=1/GPa)
#
#
# Indices 1 2 3 4 5 6 
#
# 1 0.009004 -0.007152 -0.000972 -0.000002 0.000484 -0.000002
# 2 -0.007152 0.098627 -0.009506 -0.000009 0.012201 -0.000010
# 3 -0.000972 -0.009506 0.010477 0.000002 0.000082 0.000002
# 4 -0.000002 -0.000009 0.000002 0.042607 -0.000002 0.011668
# 5 0.000484 0.012201 0.000082 -0.000002 0.025070 -0.000002
# 6 -0.000002 -0.000010 0.000002 0.011668 -0.000002 0.035611
#
#
# Mechanical properties :
#
#
# Convention : Reuss Voigt Hill
#
# Bulk Modulus (GPa) = 12.07028 37.98414 25.02721
# Shear Modulus (GPa) = 17.58879 33.21277 25.40078
#
# Velocity S-wave (km/s) = 2.83312 3.89314 3.40464
# Velocity P-wave (km/s) = 4.02621 6.12720 5.18425
#
# Compressibility (1/GPa) = 0.08284812
#
# Stress axis : x y z
#
# Youngs Moduli (GPa) = 111.06288 10.13921 95.44603
#
# Poissons Ratio (x) = 0.07252 0.09275
# Poissons Ratio (y) = 0.79435 0.90730
# Poissons Ratio (z) = 0.10793 0.09638
#
# Static dielectric constant tensor:
#      x y z
#    x 4.188320 0.000000 0.141720 
#    y 0.000000 3.506380 0.000000 
#    z 0.141720 0.000000 4.339450 
# 
# 
# High freq. dielectric constant tensor:
#      x y z
#    x 1.879500 0.000000 0.002240 
#    y 0.000000 1.816760 0.000000 
#    z 0.002240 0.000000 1.883030 
# 
# From -- ./inp_files/140558.got.cif
#   From: 2010.06.25/outbox.cif.g09.slc.cpg/sg15_71_cif.got.tgz:140558.got - 2010.06.28 07:06:18.
