data_PCOD8142996
_publ_section_title
;
Structure prediction by ZEFSAII (Michael W. Deem and Ramdas Pophale) SiO2 
 PCOD8142996
Probable space group: C 2/C
;
_chemical_formula_sum "Si O2"
_cell_formula_units_Z 56
_cell_length_a 23.188555
_cell_length_b 14.379975
_cell_length_c 8.783328
_cell_angle_alpha 90.000000
_cell_angle_beta 69.199211
_cell_angle_gamma 90.000000
_cell_volume 2737.910700
_symmetry_space_group_name_H-M "C 2/C"
_symmetry_group_IT_number 15
_symmetry_cell_setting 'monoclinic'
loop_
_space_group_symop_operation_xyz
x,y,z
-x,y,1/2-z
-x,-y,-z
x,-y,1/2+z
1/2+x,1/2+y,z
1/2-x,1/2+y,1/2-z
1/2-x,1/2-y,-z
1/2+x,1/2-y,1/2+z
loop_
_atom_site_type_symbol
_atom_site_label
_atom_site_fract_x
_atom_site_fract_y
_atom_site_fract_z
Si Si1 0.500000 0.479134 0.250000
Si Si2 0.743869 0.878947 0.923216
Si Si3 0.352758 0.274639 0.940986
Si Si4 0.391262 0.922895 0.953382
Si Si5 0.000000 0.554536 0.750000
Si Si6 0.453964 0.372598 0.021212
Si Si7 0.689980 0.011154 0.217626
Si Si8 0.448964 0.790331 0.105403
O O1 0.454791 0.414092 0.190926
O O2 0.458557 0.543052 0.397349
O O3 0.814647 0.848517 0.875747
O O4 0.741599 0.942164 0.775411
O O5 0.696397 0.794756 0.938003
O O6 0.723536 0.929454 0.096227
O O7 0.399976 0.223171 0.785781
O O8 0.389651 0.321260 0.046868
O O9 0.338338 0.913504 0.874543
O O10 0.442039 0.990361 0.836292
O O11 0.416959 0.820325 0.975048
O O12 0.364978 0.969505 0.130453
O O13 0.990641 0.620891 0.611848
O O14 0.511718 0.302764 0.949588
#
# Coordination Sequence:
#
# PCOD8142996 Si02
#       8
#     4   8   8   8   4   8   8   8
#     4  10  23  43  60  92 112 156 206 253 315 348
#     4  10  23  39  65  84 119 157 215 240 313 351
#     4  11  21  41  63  87 116 167 197 258 303 367
#     4  11  22  35  62  90 135 160 199 238 302 381
#     4  12  21  35  58 100 128 170 188 237 307 392
#     4  11  23  41  66  85 123 156 200 262 305 374
#     4  10  21  40  57  90 118 165 195 260 282 372
#     4  12  21  38  61  94 124 160 201 246 316 365
#
# _framework density 20.453551999999998
#
# number of rings (size 3 to 8) (size 9 to 14) (size 15 to 20)
#    0.000    1.143    5.714    1.286    0.000    2.857 
#    0.000    0.714    0.000    0.000    0.000    0.000 
#    0.000    0.000    0.000    0.000    0.000    0.000 
#
# Total GULP energy -347197.186407 kJ/mol
# GULP energy per Si atom -12399.899515 kJ/mol
# Density = 2.040700 g / cm^3
# Si number density = 20.453552 Si / 1000 Ang^3
#
#
#
# Elastic Constant Matrix: (Units=GPa)
#
#
# Indices 1 2 3 4 5 6 
#
# 1 105.8559 45.7511 28.4504 0.0000 18.1509 0.0000
# 2 45.7511 83.2141 24.2659 0.0000 17.4897 0.0000
# 3 28.4504 24.2659 61.8975 0.0000 25.7607 0.0000
# 4 0.0000 0.0000 0.0000 219.3206 0.0000 -21.8339
# 5 18.1509 17.4897 25.7607 0.0000 28.8470 0.0000
# 6 0.0000 0.0000 0.0000 -21.8339 0.0000 43.8341
#
#
#
# Elastic Compliance Matrix: (Units=1/GPa)
#
#
# Indices 1 2 3 4 5 6 
#
# 1 0.013145 -0.005955 -0.002813 0.000000 -0.002148 0.000000
# 2 -0.005955 0.016845 -0.001871 0.000000 -0.004795 0.000000
# 3 -0.002813 -0.001871 0.027013 0.000000 -0.021219 0.000000
# 4 0.000000 0.000000 0.000000 0.004797 0.000000 0.002390
# 5 -0.002148 -0.004795 -0.021219 0.000000 0.057873 0.000000
# 6 0.000000 0.000000 0.000000 0.002390 0.000000 0.024004
#
#
# Mechanical properties :
#
#
# Convention : Reuss Voigt Hill
#
# Bulk Modulus (GPa) = 27.99229 49.76693 38.87961
# Shear Modulus (GPa) = 28.27031 68.56700 48.41866
#
# Velocity S-wave (km/s) = 3.72179 5.79621 4.87072
# Velocity P-wave (km/s) = 5.67313 8.31741 7.11912
#
# Compressibility (1/GPa) = 0.03572412
#
# Stress axis : x y z
#
# Youngs Moduli (GPa) = 76.07365 59.36557 37.01906
#
# Poissons Ratio (x) = 0.35354 0.10415
# Poissons Ratio (y) = 0.45304 0.06926
# Poissons Ratio (z) = 0.21402 0.11106
#
# Static dielectric constant tensor:
#      x y z
#    x 3.928030 0.000000 0.237780 
#    y 0.000000 3.859610 0.000000 
#    z 0.237780 0.000000 3.543240 
# 
# 
# High freq. dielectric constant tensor:
#      x y z
#    x 1.804650 0.000000 0.017310 
#    y 0.000000 1.798270 0.000000 
#    z 0.017310 0.000000 1.782610 
# 
# From -- ./inp_files/61648.got.cif
#   From: 2010.06.25/outbox.cif.g09.slc.cpg/sg15_31_cif.got.tgz:61648.got - 2010.06.28 07:06:18.
