data_PCOD8142282
_publ_section_title
;
Structure prediction by ZEFSAII (Michael W. Deem and Ramdas Pophale) SiO2 
 PCOD8142282
Probable space group: C 2/C
;
_chemical_formula_sum "Si O2"
_cell_formula_units_Z 48
_cell_length_a 7.827054
_cell_length_b 19.413719
_cell_length_c 27.434295
_cell_angle_alpha 90.000000
_cell_angle_beta 145.266512
_cell_angle_gamma 90.000000
_cell_volume 2375.159566
_symmetry_space_group_name_H-M "C 2/C"
_symmetry_group_IT_number 15
_symmetry_cell_setting 'monoclinic'
loop_
_space_group_symop_operation_xyz
x,y,z
-x,y,1/2-z
-x,-y,-z
x,-y,1/2+z
1/2+x,1/2+y,z
1/2-x,1/2+y,1/2-z
1/2-x,1/2-y,-z
1/2+x,1/2-y,1/2+z
loop_
_atom_site_type_symbol
_atom_site_label
_atom_site_fract_x
_atom_site_fract_y
_atom_site_fract_z
Si Si1 0.000000 0.935841 0.250000
Si Si2 0.014818 0.732153 0.196489
Si Si3 0.686977 0.482431 0.449477
Si Si4 0.437816 0.047232 0.375677
Si Si5 0.209164 0.591708 0.345692
Si Si6 0.330204 0.630584 0.805598
Si Si7 0.000000 0.161658 0.250000
O O1 0.195334 0.892989 0.256842
O O2 0.226021 0.981535 0.335885
O O3 0.968758 0.799170 0.151043
O O4 0.343139 0.704596 0.256654
O O5 0.000000 0.753292 0.250000
O O6 0.768244 0.671069 0.129020
O O7 0.526537 0.556901 0.409934
O O8 0.495881 0.424422 0.377939
O O9 0.000000 0.500000 0.500000
O O10 0.763463 0.453994 0.521231
O O11 0.545280 0.041840 0.345263
O O12 0.242605 0.116297 0.336757
O O13 0.000000 0.595143 0.250000
O O14 0.000000 0.644367 0.750000
#
# Coordination Sequence:
#
# PCOD8142282 Si02
#       7
#     4   8   8   8   8   8   4
#     4  11  20  38  62  94 119 166 210 262 315 382
#     4  10  21  39  67  90 124 168 224 253 317 387
#     4  12  24  38  61  98 134 162 209 271 325 377
#     4  10  21  38  65  90 127 161 211 259 326 376
#     4  10  22  41  66  92 122 172 217 262 312 389
#     4  12  24  41  65  96 129 166 214 268 321 382
#     4   9  20  40  66  92 117 170 212 264 311 392
#
# _framework density 20.209167000000001
#
# number of rings (size 3 to 8) (size 9 to 14) (size 15 to 20)
#    0.000    1.333    3.333    3.000    7.000    0.000 
#    0.000    4.167    3.667    0.000    0.000    0.000 
#    0.000    0.000    0.000    0.000    0.000    0.000 
#
# Total GULP energy -297355.606272 kJ/mol
# GULP energy per Si atom -12389.816928 kJ/mol
# Density = 2.016317 g / cm^3
# Si number density = 20.209167 Si / 1000 Ang^3
#
#
#
# Elastic Constant Matrix: (Units=GPa)
#
#
# Indices 1 2 3 4 5 6 
#
# 1 125.2680 52.5190 25.7909 0.0168 5.4047 0.0125
# 2 52.5190 136.5938 45.1195 0.0115 8.9652 0.0108
# 3 25.7909 45.1195 83.6203 0.0139 -0.0429 0.0197
# 4 0.0168 0.0115 0.0139 -1.4266 0.0099 4.6051
# 5 5.4047 8.9652 -0.0429 0.0099 30.4261 0.0100
# 6 0.0125 0.0108 0.0197 4.6051 0.0100 41.9132
#
#
#
# Elastic Compliance Matrix: (Units=1/GPa)
#
#
# Indices 1 2 3 4 5 6 
#
# 1 0.009629 -0.003251 -0.001216 0.000048 -0.000754 -0.000007
# 2 -0.003251 0.010222 -0.004514 -0.000010 -0.002441 0.000002
# 3 -0.001216 -0.004514 0.014770 0.000063 0.001567 -0.000013
# 4 0.000048 -0.000010 0.000063 -0.517455 0.000144 0.056854
# 5 -0.000754 -0.002441 0.001567 0.000144 0.033722 -0.000024
# 6 -0.000007 0.000002 -0.000013 0.056854 -0.000024 0.017612
#
#
# Mechanical properties :
#
#
# Convention : Reuss Voigt Hill
#
# Bulk Modulus (GPa) = 60.02770 65.81565 62.92168
# Shear Modulus (GPa) = -12.25539 28.98607 8.36534
#
# Velocity S-wave (km/s) = -2.46525 3.79133 2.03675
# Velocity P-wave (km/s) = 4.65451 7.19746 6.06085
#
# Compressibility (1/GPa) = 0.01665897
#
# Stress axis : x y z
#
# Youngs Moduli (GPa) = 103.85547 97.82531 67.70276
#
# Poissons Ratio (x) = 0.31803 0.08233
# Poissons Ratio (y) = 0.33763 0.30563
# Poissons Ratio (z) = 0.12629 0.44161
#
# Static dielectric constant tensor:
#      x y z
#    x 4.002910 -0.000020 0.142470 
#    y -0.000020 4.146150 -0.000010 
#    z 0.142470 -0.000010 1.760510 
# 
# 
# High freq. dielectric constant tensor:
#      x y z
#    x 1.818630 0.000000 -0.001200 
#    y 0.000000 1.797370 0.000000 
#    z -0.001200 0.000000 1.742370 
# 
# From -- ./inp_files/308959.got.cif
#   From: 2010.06.25/outbox.cif.g09.slc.cpg/sg15_155_cif.got.tgz:308959.got - 2010.06.28 07:06:18.
