data_PCOD8142469
_publ_section_title
;
Structure prediction by ZEFSAII (Michael W. Deem and Ramdas Pophale) SiO2 
 PCOD8142469
Probable space group: C 2/C
;
_chemical_formula_sum "Si O2"
_cell_formula_units_Z 64
_cell_length_a 16.198649
_cell_length_b 15.685444
_cell_length_c 16.560285
_cell_angle_alpha 90.000000
_cell_angle_beta 130.850614
_cell_angle_gamma 90.000000
_cell_volume 3182.768196
_symmetry_space_group_name_H-M "C 2/C"
_symmetry_group_IT_number 15
_symmetry_cell_setting 'monoclinic'
loop_
_space_group_symop_operation_xyz
x,y,z
-x,y,1/2-z
-x,-y,-z
x,-y,1/2+z
1/2+x,1/2+y,z
1/2-x,1/2+y,1/2-z
1/2-x,1/2-y,-z
1/2+x,1/2-y,1/2+z
loop_
_atom_site_type_symbol
_atom_site_label
_atom_site_fract_x
_atom_site_fract_y
_atom_site_fract_z
Si Si1 0.887057 0.523242 0.888859
Si Si2 0.398894 0.113900 0.735499
Si Si3 0.716320 0.483011 0.041566
Si Si4 0.764856 0.376168 0.447021
Si Si5 0.627385 0.785184 0.840055
Si Si6 0.742358 0.599467 0.199692
Si Si7 0.856237 0.813163 0.576426
Si Si8 0.398606 0.708306 0.277869
O O1 0.929885 0.563271 0.834202
O O2 0.823240 0.589284 0.904559
O O3 0.808261 0.444011 0.815809
O O4 0.000000 0.500000 0.000000
O O5 0.500000 0.148584 0.750000
O O6 0.337864 0.051579 0.634534
O O7 0.337359 0.200378 0.724824
O O8 0.681058 0.530224 0.102579
O O9 0.711528 0.546034 0.962508
O O10 0.646958 0.398558 0.979632
O O11 0.671423 0.310898 0.359457
O O12 0.849142 0.324486 0.556881
O O13 0.500000 0.780385 0.750000
O O14 0.675862 0.845237 0.801850
O O15 0.648934 0.659876 0.175497
O O16 0.750000 0.750000 0.500000
O O17 0.870478 0.844136 0.678388
O O18 0.972132 0.771602 0.624000
#
# Coordination Sequence:
#
# PCOD8142469 Si02
#       8
#     8   8   8   8   8   8   8   8
#     4  11  22  36  60  92 124 160 207 263 306 365
#     4  11  20  37  60  88 121 157 203 256 312 358
#     4  10  21  39  60  85 125 159 204 255 308 368
#     4  10  21  39  62  90 122 158 211 254 301 374
#     4  10  21  42  65  87 123 166 205 253 313 364
#     4  10  23  39  61  92 126 162 206 261 311 367
#     4  11  21  40  64  89 123 170 204 250 320 378
#     4  11  22  38  61  92 123 161 207 256 306 383
#
# _framework density 20.108281999999999
#
# number of rings (size 3 to 8) (size 9 to 14) (size 15 to 20)
#    0.000    1.500    2.500    3.000    0.000    5.000 
#    4.500    3.750    0.000    0.000    0.000    0.000 
#    0.000    0.000    0.000    0.000    0.000    0.000 
#
# Total GULP energy -396516.318914 kJ/mol
# GULP energy per Si atom -12391.134966 kJ/mol
# Density = 2.006251 g / cm^3
# Si number density = 20.108282 Si / 1000 Ang^3
#
#
#
# Elastic Constant Matrix: (Units=GPa)
#
#
# Indices 1 2 3 4 5 6 
#
# 1 93.4173 42.3766 41.3087 0.0000 13.8457 0.0000
# 2 42.3766 124.8499 36.5405 0.0000 3.7545 0.0000
# 3 41.3087 36.5405 90.4833 0.0000 8.7378 0.0000
# 4 0.0000 0.0000 0.0000 33.3476 0.0000 -9.7009
# 5 13.8457 3.7545 8.7378 0.0000 16.6437 0.0000
# 6 0.0000 0.0000 0.0000 -9.7009 0.0000 36.6084
#
#
#
# Elastic Compliance Matrix: (Units=1/GPa)
#
#
# Indices 1 2 3 4 5 6 
#
# 1 0.016006 -0.003715 -0.004848 0.000000 -0.009932 0.000000
# 2 -0.003715 0.009946 -0.002530 0.000000 0.002176 0.000000
# 3 -0.004848 -0.002530 0.014581 0.000000 -0.003052 0.000000
# 4 0.000000 0.000000 0.000000 0.032492 0.000000 0.008610
# 5 -0.009932 0.002176 -0.003052 0.000000 0.069456 0.000000
# 6 0.000000 0.000000 0.000000 0.008610 0.000000 0.029598
#
#
# Mechanical properties :
#
#
# Convention : Reuss Voigt Hill
#
# Bulk Modulus (GPa) = 54.50703 61.02246 57.76475
# Shear Modulus (GPa) = 24.95248 29.88825 27.42037
#
# Velocity S-wave (km/s) = 3.52647 3.85952 3.69675
# Velocity P-wave (km/s) = 6.61415 7.09042 6.85642
#
# Compressibility (1/GPa) = 0.01834626
#
# Stress axis : x y z
#
# Youngs Moduli (GPa) = 62.47811 100.54498 68.58016
#
# Poissons Ratio (x) = 0.37354 0.33246
# Poissons Ratio (y) = 0.23212 0.17354
# Poissons Ratio (z) = 0.30287 0.25443
#
# Static dielectric constant tensor:
#      x y z
#    x 3.695880 0.000000 -0.346780 
#    y 0.000000 6.428770 0.000000 
#    z -0.346780 0.000000 3.914340 
# 
# 
# High freq. dielectric constant tensor:
#      x y z
#    x 1.768780 0.000000 -0.016800 
#    y 0.000000 1.801410 0.000000 
#    z -0.016800 0.000000 1.787430 
# 
# From -- ./inp_files/205728.got.cif
#   From: 2010.06.25/outbox.cif.g09.slc.cpg/sg15_103_cif.got.tgz:205728.got - 2010.06.28 07:06:18.
