data_PCOD8142895
_publ_section_title
;
Structure prediction by ZEFSAII (Michael W. Deem and Ramdas Pophale) SiO2 
 PCOD8142895
Probable space group: C 2/C
;
_chemical_formula_sum "Si O2"
_cell_formula_units_Z 64
_cell_length_a 27.792418
_cell_length_b 5.319957
_cell_length_c 21.291899
_cell_angle_alpha 90.000000
_cell_angle_beta 82.399378
_cell_angle_gamma 90.000000
_cell_volume 3120.443515
_symmetry_space_group_name_H-M "C 2/C"
_symmetry_group_IT_number 15
_symmetry_cell_setting 'monoclinic'
loop_
_space_group_symop_operation_xyz
x,y,z
-x,y,1/2-z
-x,-y,-z
x,-y,1/2+z
1/2+x,1/2+y,z
1/2-x,1/2+y,1/2-z
1/2-x,1/2-y,-z
1/2+x,1/2-y,1/2+z
loop_
_atom_site_type_symbol
_atom_site_label
_atom_site_fract_x
_atom_site_fract_y
_atom_site_fract_z
Si Si1 0.381591 0.669633 0.873712
Si Si2 0.418335 0.839891 0.420882
Si Si3 0.959595 0.168237 0.538530
Si Si4 0.403141 0.640156 0.139440
Si Si5 0.513796 0.995361 0.857924
Si Si6 0.049901 0.875778 0.254599
Si Si7 0.199244 0.807415 0.209379
Si Si8 0.808587 0.304326 0.210502
O O1 0.386887 0.409372 0.910978
O O2 0.423309 0.693397 0.813960
O O3 0.328590 0.692780 0.851740
O O4 0.386129 0.909155 0.918608
O O5 0.437209 0.847824 0.489216
O O6 0.463913 0.844970 0.364275
O O7 0.992925 0.284520 0.587528
O O8 0.911566 0.045020 0.579373
O O9 0.000000 0.000000 0.500000
O O10 0.413002 0.514212 0.205820
O O11 0.349599 0.763851 0.150054
O O12 0.442134 0.851844 0.120935
O O13 0.529085 0.881578 0.788651
O O14 0.000000 0.037170 0.250000
O O15 0.182892 0.569420 0.255138
O O16 0.256604 0.795475 0.185282
O O17 0.186746 0.071445 0.243315
#
# Coordination Sequence:
#
# PCOD8142895 Si02
#       8
#     8   8   8   8   8   8   8   8
#     4  12  24  39  61  88 127 160 198 248 313 383
#     4  12  25  40  59  85 121 172 204 244 304 361
#     4  11  24  42  58  84 124 167 226 258 291 352
#     4  11  23  37  62  87 120 162 205 263 301 361
#     4  11  23  37  60  85 120 165 205 258 296 362
#     4  11  22  35  54  90 127 158 190 245 313 386
#     4  10  21  41  62  94 126 158 197 257 313 392
#     4  10  21  39  67  91 124 159 203 253 320 370
#
# _framework density 20.509903999999999
#
# number of rings (size 3 to 8) (size 9 to 14) (size 15 to 20)
#    0.000    1.000    3.750    3.375    5.250    0.500 
#    0.000    0.000    0.000    1.500    0.000    0.000 
#    0.000    0.000    0.000    0.000    0.000    0.000 
#
# Total GULP energy -396627.524967 kJ/mol
# GULP energy per Si atom -12394.610155 kJ/mol
# Density = 2.046322 g / cm^3
# Si number density = 20.509904 Si / 1000 Ang^3
#
#
#
# Elastic Constant Matrix: (Units=GPa)
#
#
# Indices 1 2 3 4 5 6 
#
# 1 93.5395 10.2746 -7.6584 0.0000 13.8752 0.0000
# 2 10.2746 102.7584 11.0946 0.0000 8.8467 0.0000
# 3 -7.6584 11.0946 46.7279 0.0000 17.7903 0.0000
# 4 0.0000 0.0000 0.0000 -107.8829 0.0000 45.2103
# 5 13.8752 8.8467 17.7903 0.0000 24.7526 0.0000
# 6 0.0000 0.0000 0.0000 45.2103 0.0000 11.0415
#
#
#
# Elastic Compliance Matrix: (Units=1/GPa)
#
#
# Indices 1 2 3 4 5 6 
#
# 1 0.013159 -0.001034 0.006980 0.000000 -0.012023 0.000000
# 2 -0.001034 0.010189 -0.001959 0.000000 -0.001654 0.000000
# 3 0.006980 -0.001959 0.033361 0.000000 -0.027190 0.000000
# 4 0.000000 0.000000 0.000000 -0.003413 0.000000 0.013975
# 5 -0.012023 -0.001654 -0.027190 0.000000 0.067273 0.000000
# 6 0.000000 0.000000 0.000000 0.013975 0.000000 0.033347
#
#
# Mechanical properties :
#
#
# Convention : Reuss Voigt Hill
#
# Bulk Modulus (GPa) = 15.46009 30.04973 22.75491
# Shear Modulus (GPa) = 29.85001 0.86990 15.35996
#
# Velocity S-wave (km/s) = 3.81910 0.65196 2.73958
# Velocity P-wave (km/s) = 5.19631 3.90511 4.59628
#
# Compressibility (1/GPa) = 0.06468267
#
# Stress axis : x y z
#
# Youngs Moduli (GPa) = 75.99229 98.14632 29.97475
#
# Poissons Ratio (x) = 0.10151 -0.20922
# Poissons Ratio (y) = 0.07859 0.05872
# Poissons Ratio (z) = -0.53041 0.19227
#
# Static dielectric constant tensor:
#      x y z
#    x 3.878930 0.000000 0.196190 
#    y 0.000000 4.012240 0.000000 
#    z 0.196190 0.000000 3.675850 
# 
# 
# High freq. dielectric constant tensor:
#      x y z
#    x 1.790060 0.000000 0.012410 
#    y 0.000000 1.816220 0.000000 
#    z 0.012410 0.000000 1.782640 
# 
# From -- ./inp_files/256555.got.cif
#   From: 2010.06.25/outbox.cif.g09.slc.cpg/sg15_129_cif.got.tgz:256555.got - 2010.06.28 07:06:18.
