data_PCOD8142520
_publ_section_title
;
Structure prediction by ZEFSAII (Michael W. Deem and Ramdas Pophale) SiO2 
 PCOD8142520
Probable space group: C 2/C
;
_chemical_formula_sum "Si O2"
_cell_formula_units_Z 48
_cell_length_a 26.145494
_cell_length_b 6.614813
_cell_length_c 13.167844
_cell_angle_alpha 90.000000
_cell_angle_beta 86.888307
_cell_angle_gamma 90.000000
_cell_volume 2273.988716
_symmetry_space_group_name_H-M "C 2/C"
_symmetry_group_IT_number 15
_symmetry_cell_setting 'monoclinic'
loop_
_space_group_symop_operation_xyz
x,y,z
-x,y,1/2-z
-x,-y,-z
x,-y,1/2+z
1/2+x,1/2+y,z
1/2-x,1/2+y,1/2-z
1/2-x,1/2-y,-z
1/2+x,1/2-y,1/2+z
loop_
_atom_site_type_symbol
_atom_site_label
_atom_site_fract_x
_atom_site_fract_y
_atom_site_fract_z
Si Si1 0.811979 0.926664 0.467161
Si Si2 0.035096 0.814173 0.464589
Si Si3 0.677874 0.708959 0.208396
Si Si4 0.738682 0.078173 0.148533
Si Si5 0.397130 0.343168 0.603840
Si Si6 0.506791 0.924871 0.365969
O O1 0.774430 0.021420 0.557054
O O2 0.781441 0.788503 0.392059
O O3 0.856542 0.797868 0.518557
O O4 0.835474 0.106212 0.397685
O O5 0.010966 0.667265 0.380330
O O6 0.041032 0.670247 0.564517
O O7 0.085966 0.920275 0.413812
O O8 0.000000 0.000000 0.500000
O O9 0.728276 0.613057 0.253958
O O10 0.628334 0.684499 0.283747
O O11 0.690037 0.942447 0.183338
O O12 0.442735 0.181858 0.592556
O O13 0.500000 0.869173 0.250000
#
# Coordination Sequence:
#
# PCOD8142520 Si02
#       6
#     8   8   8   8   8   8
#     4  10  22  39  61  88 127 167 205 261 303 361
#     4   9  21  44  64  90 128 158 203 257 321 382
#     4  11  21  39  62  92 123 168 209 251 305 373
#     4  10  21  39  61  86 126 167 211 248 309 363
#     4  10  24  40  62  99 125 157 213 258 316 373
#     4  10  22  43  69  92 123 167 207 257 320 382
#
# _framework density 21.108284999999999
#
# number of rings (size 3 to 8) (size 9 to 14) (size 15 to 20)
#    0.000    2.000    1.667    0.500    2.333    5.333 
#   12.000    0.000    0.000    0.000    0.000    0.000 
#    0.000    0.000    0.000    0.000    0.000    0.000 
#
# Total GULP energy -297441.352475 kJ/mol
# GULP energy per Si atom -12393.389686 kJ/mol
# Density = 2.106024 g / cm^3
# Si number density = 21.108285 Si / 1000 Ang^3
#
#
#
# Elastic Constant Matrix: (Units=GPa)
#
#
# Indices 1 2 3 4 5 6 
#
# 1 64.7287 26.8994 21.6664 0.0000 -13.0635 0.0000
# 2 26.8994 89.8845 32.2735 0.0000 -14.9791 0.0000
# 3 21.6664 32.2735 101.3705 0.0000 -8.3799 0.0000
# 4 0.0000 0.0000 0.0000 32.3101 0.0000 -5.0073
# 5 -13.0635 -14.9791 -8.3799 0.0000 32.3211 0.0000
# 6 0.0000 0.0000 0.0000 -5.0073 0.0000 30.0950
#
#
#
# Elastic Compliance Matrix: (Units=1/GPa)
#
#
# Indices 1 2 3 4 5 6 
#
# 1 0.018932 -0.003951 -0.002358 0.000000 0.005209 0.000000
# 2 -0.003951 0.014190 -0.003333 0.000000 0.004115 0.000000
# 3 -0.002358 -0.003333 0.011469 0.000000 0.000476 0.000000
# 4 0.000000 0.000000 0.000000 0.031769 0.000000 0.005286
# 5 0.005209 0.004115 0.000476 0.000000 0.035076 0.000000
# 6 0.000000 0.000000 0.000000 0.005286 0.000000 0.034108
#
#
# Mechanical properties :
#
#
# Convention : Reuss Voigt Hill
#
# Bulk Modulus (GPa) = 39.51402 46.40694 42.96048
# Shear Modulus (GPa) = 28.85781 30.62154 29.73967
#
# Velocity S-wave (km/s) = 3.70149 3.81292 3.75762
# Velocity P-wave (km/s) = 6.08509 6.43564 6.26282
#
# Compressibility (1/GPa) = 0.02530747
#
# Stress axis : x y z
#
# Youngs Moduli (GPa) = 52.82186 70.47033 87.18938
#
# Poissons Ratio (x) = 0.27842 0.20558
# Poissons Ratio (y) = 0.20869 0.29062
# Poissons Ratio (z) = 0.12455 0.23489
#
# Static dielectric constant tensor:
#      x y z
#    x 3.762720 0.000000 -0.264710 
#    y 0.000000 3.810560 0.000000 
#    z -0.264710 0.000000 3.950950 
# 
# 
# High freq. dielectric constant tensor:
#      x y z
#    x 1.808040 0.000000 -0.012240 
#    y 0.000000 1.820550 0.000000 
#    z -0.012240 0.000000 1.840330 
# 
# From -- ./inp_files/175683.got.cif
#   From: 2010.06.25/outbox.cif.g09.slc.cpg/sg15_88_cif.got.tgz:175683.got - 2010.06.28 07:06:18.
