data_PCOD8142328
_publ_section_title
;
Structure prediction by ZEFSAII (Michael W. Deem and Ramdas Pophale) SiO2 
 PCOD8142328
Probable space group: C 2/C
;
_chemical_formula_sum "Si O2"
_cell_formula_units_Z 48
_cell_length_a 25.919693
_cell_length_b 14.678276
_cell_length_c 12.151545
_cell_angle_alpha 90.000000
_cell_angle_beta 26.774789
_cell_angle_gamma 90.000000
_cell_volume 2082.650966
_symmetry_space_group_name_H-M "C 2/C"
_symmetry_group_IT_number 15
_symmetry_cell_setting 'monoclinic'
loop_
_space_group_symop_operation_xyz
x,y,z
-x,y,1/2-z
-x,-y,-z
x,-y,1/2+z
1/2+x,1/2+y,z
1/2-x,1/2+y,1/2-z
1/2-x,1/2-y,-z
1/2+x,1/2-y,1/2+z
loop_
_atom_site_type_symbol
_atom_site_label
_atom_site_fract_x
_atom_site_fract_y
_atom_site_fract_z
Si Si1 0.066884 0.378433 0.348137
Si Si2 0.182306 0.839605 0.174397
Si Si3 0.869546 0.197292 0.486886
Si Si4 0.419408 0.329466 0.655686
Si Si5 0.235788 0.384603 0.846500
Si Si6 0.832460 0.546917 0.247850
O O1 0.111119 0.278266 0.294780
O O2 0.105766 0.448295 0.369930
O O3 0.932278 0.377176 0.575985
O O4 0.130428 0.418535 0.120383
O O5 0.174470 0.855609 0.321244
O O6 0.052907 0.839952 0.376571
O O7 0.250000 0.750000 0.000000
O O8 0.241981 0.931782 0.016994
O O9 0.873068 0.138338 0.365835
O O10 0.781635 0.279609 0.650211
O O11 0.000000 0.235000 0.250000
O O12 0.355216 0.389469 0.686096
O O13 0.236585 0.444032 0.734593
#
# Coordination Sequence:
#
# PCOD8142328 Si02
#       6
#     8   8   8   8   8   8
#     4  10  21  40  62  93 126 176 214 256 326 396
#     4  11  19  37  61  98 128 162 214 273 315 377
#     4   9  17  33  60  86 123 165 216 261 302 373
#     4  10  21  38  66  93 121 173 226 258 315 396
#     4  11  20  38  62  89 125 170 214 264 312 396
#     4  11  22  38  63  95 137 163 205 277 337 367
#
# _framework density 23.047549
#
# number of rings (size 3 to 8) (size 9 to 14) (size 15 to 20)
#    0.000    1.667    3.333    4.500    0.000    0.667 
#    6.000    0.833    3.667    0.000    4.333    0.000 
#    0.000    0.000    0.000    0.000    0.000    0.000 
#
# Total GULP energy -297400.151652 kJ/mol
# GULP energy per Si atom -12391.672986 kJ/mol
# Density = 2.299509 g / cm^3
# Si number density = 23.047549 Si / 1000 Ang^3
#
#
#
# Elastic Constant Matrix: (Units=GPa)
#
#
# Indices 1 2 3 4 5 6 
#
# 1 177.2893 31.6797 69.7605 0.0000 0.9834 0.0000
# 2 31.6797 34.8637 20.6433 0.0000 4.8184 0.0000
# 3 69.7605 20.6433 140.6315 0.0000 1.7799 0.0000
# 4 0.0000 0.0000 0.0000 23.7174 0.0000 -0.6666
# 5 0.9834 4.8184 1.7799 0.0000 26.3594 0.0000
# 6 0.0000 0.0000 0.0000 -0.6666 0.0000 28.6535
#
#
#
# Elastic Compliance Matrix: (Units=1/GPa)
#
#
# Indices 1 2 3 4 5 6 
#
# 1 0.007818 -0.005395 -0.003098 0.000000 0.000904 0.000000
# 2 -0.005395 0.035934 -0.002520 0.000000 -0.006197 0.000000
# 3 -0.003098 -0.002520 0.009018 0.000000 -0.000033 0.000000
# 4 0.000000 0.000000 0.000000 0.042191 0.000000 0.000981
# 5 0.000904 -0.006197 -0.000033 0.000000 0.039038 0.000000
# 6 0.000000 0.000000 0.000000 0.000981 0.000000 0.034923
#
#
# Mechanical properties :
#
#
# Convention : Reuss Voigt Hill
#
# Bulk Modulus (GPa) = 32.52620 66.32794 49.42707
# Shear Modulus (GPa) = 24.85131 31.12611 27.98871
#
# Velocity S-wave (km/s) = 3.28725 3.67893 3.48859
# Velocity P-wave (km/s) = 5.34334 6.84742 6.14160
#
# Compressibility (1/GPa) = 0.03074444
#
# Stress axis : x y z
#
# Youngs Moduli (GPa) = 127.90197 27.82862 110.89137
#
# Poissons Ratio (x) = 0.15014 0.34353
# Poissons Ratio (y) = 0.69004 0.27946
# Poissons Ratio (z) = 0.39622 0.07013
#
# Static dielectric constant tensor:
#      x y z
#    x 4.332800 0.000000 0.079950 
#    y 0.000000 3.716400 0.000000 
#    z 0.079950 0.000000 4.214450 
# 
# 
# High freq. dielectric constant tensor:
#      x y z
#    x 1.911940 0.000000 -0.005180 
#    y 0.000000 1.877230 0.000000 
#    z -0.005180 0.000000 1.914710 
# 
# From -- ./inp_files/123745.got.cif
#   From: 2010.06.25/outbox.cif.g09.slc.cpg/sg15_62_cif.got.tgz:123745.got - 2010.06.28 07:06:18.
