data_PCOD8142346
_publ_section_title
;
Structure prediction by ZEFSAII (Michael W. Deem and Ramdas Pophale) SiO2 
 PCOD8142346
Probable space group: C 2/C
;
_chemical_formula_sum "Si O2"
_cell_formula_units_Z 56
_cell_length_a 34.818664
_cell_length_b 5.168180
_cell_length_c 13.940047
_cell_angle_alpha 90.000000
_cell_angle_beta 90.821673
_cell_angle_gamma 90.000000
_cell_volume 2508.241285
_symmetry_space_group_name_H-M "C 2/C"
_symmetry_group_IT_number 15
_symmetry_cell_setting 'monoclinic'
loop_
_space_group_symop_operation_xyz
x,y,z
-x,y,1/2-z
-x,-y,-z
x,-y,1/2+z
1/2+x,1/2+y,z
1/2-x,1/2+y,1/2-z
1/2-x,1/2-y,-z
1/2+x,1/2-y,1/2+z
loop_
_atom_site_type_symbol
_atom_site_label
_atom_site_fract_x
_atom_site_fract_y
_atom_site_fract_z
Si Si1 0.167449 0.934804 0.687402
Si Si2 0.484475 0.419041 0.357042
Si Si3 0.750431 0.032362 0.809321
Si Si4 0.517521 0.081192 0.856092
Si Si5 0.668417 0.934614 0.813843
Si Si6 0.595487 0.964687 0.938261
Si Si7 0.405696 0.468401 0.439104
O O1 0.209153 0.970294 0.635882
O O2 0.163604 0.647785 0.730304
O O3 0.135151 0.969612 0.607562
O O4 0.163257 0.148016 0.770901
O O5 0.500000 0.366088 0.250000
O O6 0.508610 0.648024 0.410065
O O7 0.439080 0.480120 0.359482
O O8 0.494422 0.147722 0.410032
O O9 0.749913 0.835752 0.717892
O O10 0.710855 0.967628 0.864786
O O11 0.500000 0.135754 0.750000
O O12 0.563061 0.024473 0.856634
O O13 0.637269 0.977230 0.893989
O O14 0.594108 0.179522 0.020305
O O15 0.586585 0.681147 0.979194
#
# Coordination Sequence:
#
# PCOD8142346 Si02
#       7
#     8   8   8   8   8   8   8
#     4  10  21  38  67  89 123 164 207 245 292 356
#     4  10  23  40  63  85 114 156 210 241 295 361
#     4   8  16  34  58  94 116 154 210 250 276 340
#     4  10  23  40  63  85 114 156 210 241 295 361
#     4  10  21  38  67  89 123 164 207 245 292 356
#     4  12  26  41  61  94 128 154 197 255 313 358
#     4  12  26  41  61  94 128 154 197 255 313 358
#
# _framework density 22.326402999999999
#
# number of rings (size 3 to 8) (size 9 to 14) (size 15 to 20)
#    0.000    1.714    0.000    3.429    8.000    3.429 
#    0.000    1.429    0.000    0.000    0.000    0.000 
#    0.000    0.000    0.000    0.000    0.000    0.000 
#
# Total GULP energy -346991.227525 kJ/mol
# GULP energy per Si atom -12392.543840 kJ/mol
# Density = 2.227559 g / cm^3
# Si number density = 22.326403 Si / 1000 Ang^3
#
#
#
# Elastic Constant Matrix: (Units=GPa)
#
#
# Indices 1 2 3 4 5 6 
#
# 1 187.9256 21.9508 36.8883 0.0000 -11.8707 0.0000
# 2 21.9508 142.2429 1.8496 0.0000 -2.6546 0.0000
# 3 36.8883 1.8496 34.1328 0.0000 -5.8681 0.0000
# 4 0.0000 0.0000 0.0000 172.7192 0.0000 -29.6962
# 5 -11.8707 -2.6546 -5.8681 0.0000 23.9800 0.0000
# 6 0.0000 0.0000 0.0000 -29.6962 0.0000 39.2265
#
#
#
# Elastic Compliance Matrix: (Units=1/GPa)
#
#
# Indices 1 2 3 4 5 6 
#
# 1 0.006941 -0.000948 -0.007179 0.000000 0.001574 0.000000
# 2 -0.000948 0.007177 0.000722 0.000000 0.000502 0.000000
# 3 -0.007179 0.000722 0.038019 0.000000 0.005830 0.000000
# 4 0.000000 0.000000 0.000000 0.006656 0.000000 0.005039
# 5 0.001574 0.000502 0.005830 0.000000 0.043963 0.000000
# 6 0.000000 0.000000 0.000000 0.005039 0.000000 0.029308
#
#
# Mechanical properties :
#
#
# Convention : Reuss Voigt Hill
#
# Bulk Modulus (GPa) = 26.79094 53.96428 40.37761
# Shear Modulus (GPa) = 31.38446 67.42599 49.40522
#
# Velocity S-wave (km/s) = 3.75335 5.50142 4.70921
# Velocity P-wave (km/s) = 5.55060 8.03600 6.90603
#
# Compressibility (1/GPa) = 0.03732605
#
# Stress axis : x y z
#
# Youngs Moduli (GPa) = 144.07942 139.34277 26.30275
#
# Poissons Ratio (x) = 0.13215 0.18882
# Poissons Ratio (y) = 0.13664 -0.01900
# Poissons Ratio (z) = 1.03433 -0.10064
#
# Static dielectric constant tensor:
#      x y z
#    x 4.493560 0.000000 -0.017290 
#    y 0.000000 4.894970 0.000000 
#    z -0.017290 0.000000 3.487000 
# 
# 
# High freq. dielectric constant tensor:
#      x y z
#    x 1.904330 0.000000 -0.000710 
#    y 0.000000 1.920390 0.000000 
#    z -0.000710 0.000000 1.817610 
# 
# From -- ./inp_files/180118.got.cif
#   From: 2010.06.25/outbox.cif.g09.slc.cpg/sg15_91_cif.got.tgz:180118.got - 2010.06.28 07:06:18.
