data_PCOD8142888
_publ_section_title
;
Structure prediction by ZEFSAII (Michael W. Deem and Ramdas Pophale) SiO2 
 PCOD8142888
Probable space group: C 2/C
;
_chemical_formula_sum "Si O2"
_cell_formula_units_Z 40
_cell_length_a 7.590546
_cell_length_b 31.529367
_cell_length_c 13.024958
_cell_angle_alpha 90.000000
_cell_angle_beta 38.993024
_cell_angle_gamma 90.000000
_cell_volume 1961.422250
_symmetry_space_group_name_H-M "C 2/C"
_symmetry_group_IT_number 15
_symmetry_cell_setting 'monoclinic'
loop_
_space_group_symop_operation_xyz
x,y,z
-x,y,1/2-z
-x,-y,-z
x,-y,1/2+z
1/2+x,1/2+y,z
1/2-x,1/2+y,1/2-z
1/2-x,1/2-y,-z
1/2+x,1/2-y,1/2+z
loop_
_atom_site_type_symbol
_atom_site_label
_atom_site_fract_x
_atom_site_fract_y
_atom_site_fract_z
Si Si1 0.392115 0.130083 0.955625
Si Si2 0.000000 0.260208 0.750000
Si Si3 0.446553 0.623979 0.586781
Si Si4 0.500000 0.568399 0.250000
Si Si5 0.618160 0.190551 0.011020
Si Si6 0.820828 0.961009 0.618316
O O1 0.695637 0.113308 0.779721
O O2 0.192336 0.144204 0.952282
O O3 0.256735 0.094158 0.086224
O O4 0.419519 0.169957 0.017363
O O5 0.075140 0.291602 0.810093
O O6 0.257398 0.230822 0.604070
O O7 0.651602 0.657774 0.547619
O O8 0.606389 0.581313 0.479949
O O9 0.628912 0.541191 0.282981
O O10 0.500000 0.972376 0.750000
O O11 0.000000 0.000000 0.500000
#
# Coordination Sequence:
#
# PCOD8142888 Si02
#       6
#     8   4   8   4   8   8
#     4  10  21  39  67  90 119 164 219 265 309 387
#     4  10  24  36  63  90 130 162 218 271 320 386
#     4  10  22  41  67  90 126 170 218 258 323 396
#     4  10  24  42  67  96 124 168 226 257 320 396
#     4  11  21  43  60  91 124 171 210 270 325 378
#     4  11  26  44  67 100 135 170 212 273 328 386
#
# _framework density 20.393363999999998
#
# number of rings (size 3 to 8) (size 9 to 14) (size 15 to 20)
#    0.000    1.600    2.000    1.200   12.600    0.800 
#    3.600    6.000    0.000    0.000    0.000    0.000 
#    0.000    0.000    0.000    0.000    0.000    0.000 
#
# Total GULP energy -247913.638788 kJ/mol
# GULP energy per Si atom -12395.681939 kJ/mol
# Density = 2.034695 g / cm^3
# Si number density = 20.393364 Si / 1000 Ang^3
#
#
#
# Elastic Constant Matrix: (Units=GPa)
#
#
# Indices 1 2 3 4 5 6 
#
# 1 122.0705 70.9988 78.0641 0.0000 9.7870 0.0000
# 2 70.9988 102.9825 67.1539 0.0000 2.5936 0.0000
# 3 78.0641 67.1539 128.6793 0.0000 15.0237 0.0000
# 4 0.0000 0.0000 0.0000 30.6722 0.0000 10.8389
# 5 9.7870 2.5936 15.0237 0.0000 37.0483 0.0000
# 6 0.0000 0.0000 0.0000 10.8389 0.0000 47.0233
#
#
#
# Elastic Compliance Matrix: (Units=1/GPa)
#
#
# Indices 1 2 3 4 5 6 
#
# 1 0.016400 -0.007414 -0.005915 0.000000 -0.001415 0.000000
# 2 -0.007414 0.018242 -0.005355 0.000000 0.002853 0.000000
# 3 -0.005915 -0.005355 0.014620 0.000000 -0.003991 0.000000
# 4 0.000000 0.000000 0.000000 0.035494 0.000000 -0.008181
# 5 -0.001415 0.002853 -0.003991 0.000000 0.028784 0.000000
# 6 0.000000 0.000000 0.000000 -0.008181 0.000000 0.023152
#
#
# Mechanical properties :
#
#
# Convention : Reuss Voigt Hill
#
# Bulk Modulus (GPa) = 84.07564 87.35179 85.71372
# Shear Modulus (GPa) = 28.08575 32.11647 30.10111
#
# Velocity S-wave (km/s) = 3.71509 3.97274 3.84607
# Velocity P-wave (km/s) = 7.72781 7.99812 7.86413
#
# Compressibility (1/GPa) = 0.01189405
#
# Stress axis : x y z
#
# Youngs Moduli (GPa) = 60.97501 54.81816 68.39751
#
# Poissons Ratio (x) = 0.40642 0.40457
# Poissons Ratio (y) = 0.45207 0.36630
# Poissons Ratio (z) = 0.36066 0.29357
#
# Static dielectric constant tensor:
#      x y z
#    x 4.028730 0.000000 0.421540 
#    y 0.000000 3.714820 0.000000 
#    z 0.421540 0.000000 4.063260 
# 
# 
# High freq. dielectric constant tensor:
#      x y z
#    x 1.804290 0.000000 0.019030 
#    y 0.000000 1.787320 0.000000 
#    z 0.019030 0.000000 1.815790 
# 
# From -- ./inp_files/139712.got.cif
#   From: 2010.06.25/outbox.cif.g09.slc.cpg/sg15_70_cif.got.tgz:139712.got - 2010.06.28 07:06:18.
