data_PCOD8142111
_publ_section_title
;
Structure prediction by ZEFSAII (Michael W. Deem and Ramdas Pophale) SiO2 
 PCOD8142111
Probable space group: C 2/C
;
_chemical_formula_sum "Si O2"
_cell_formula_units_Z 56
_cell_length_a 23.679986
_cell_length_b 8.606412
_cell_length_c 12.548783
_cell_angle_alpha 90.000000
_cell_angle_beta 104.948254
_cell_angle_gamma 90.000000
_cell_volume 2470.892599
_symmetry_space_group_name_H-M "C 2/C"
_symmetry_group_IT_number 15
_symmetry_cell_setting 'monoclinic'
loop_
_space_group_symop_operation_xyz
x,y,z
-x,y,1/2-z
-x,-y,-z
x,-y,1/2+z
1/2+x,1/2+y,z
1/2-x,1/2+y,1/2-z
1/2-x,1/2-y,-z
1/2+x,1/2-y,1/2+z
loop_
_atom_site_type_symbol
_atom_site_label
_atom_site_fract_x
_atom_site_fract_y
_atom_site_fract_z
Si Si1 0.063472 0.864612 0.326930
Si Si2 0.048261 0.284514 0.029525
Si Si3 0.758380 0.003550 0.999355
Si Si4 0.802792 0.265137 0.878104
Si Si5 0.819123 0.729716 0.147355
Si Si6 0.080274 0.621769 0.978982
Si Si7 0.431843 0.710294 0.230637
O O1 0.059277 0.857386 0.453635
O O2 0.110499 0.739102 0.306674
O O3 0.000000 0.820899 0.250000
O O4 0.086164 0.033938 0.303242
O O5 0.084764 0.253731 0.155886
O O6 0.979367 0.292641 0.017542
O O7 0.072605 0.437674 0.983613
O O8 0.740741 0.112121 0.089075
O O9 0.800708 0.869672 0.061060
O O10 0.794192 0.097839 0.927809
O O11 0.699830 0.931656 0.917381
O O12 0.787291 0.254890 0.745828
O O13 0.869635 0.320208 0.917957
O O14 0.098893 0.671383 0.867198
O O15 0.500000 0.732158 0.250000
#
# Coordination Sequence:
#
# PCOD8142111 Si02
#       7
#     8   8   8   8   8   8   8
#     4  11  23  38  62  94 127 165 209 253 311 379
#     4  10  22  39  59  89 131 169 205 255 312 373
#     4  10  24  42  63  91 120 158 211 255 306 371
#     4  11  22  41  65  90 120 158 205 261 313 360
#     4  11  23  42  64  90 124 161 203 255 310 369
#     4  10  21  38  62  89 123 166 210 257 314 373
#     4   9  21  38  56  85 126 167 210 252 299 368
#
# _framework density 22.663875000000001
#
# number of rings (size 3 to 8) (size 9 to 14) (size 15 to 20)
#    0.000    1.714    0.000    3.429    0.000   12.571 
#    0.000    7.143    0.000    0.000    0.000    0.000 
#    0.000    0.000    0.000    0.000    0.000    0.000 
#
# Total GULP energy -347274.094402 kJ/mol
# GULP energy per Si atom -12402.646229 kJ/mol
# Density = 2.261229 g / cm^3
# Si number density = 22.663875 Si / 1000 Ang^3
#
#
#
# Elastic Constant Matrix: (Units=GPa)
#
#
# Indices 1 2 3 4 5 6 
#
# 1 66.4473 24.7218 16.8485 0.0000 1.1547 0.0000
# 2 24.7218 77.7085 34.2201 0.0000 -5.0776 0.0000
# 3 16.8485 34.2201 124.7927 0.0000 -28.3002 0.0000
# 4 0.0000 0.0000 0.0000 34.3647 0.0000 1.8361
# 5 1.1547 -5.0776 -28.3002 0.0000 36.8436 0.0000
# 6 0.0000 0.0000 0.0000 1.8361 0.0000 19.5956
#
#
#
# Elastic Compliance Matrix: (Units=1/GPa)
#
#
# Indices 1 2 3 4 5 6 
#
# 1 0.017337 -0.005007 -0.001511 0.000000 -0.002394 0.000000
# 2 -0.005007 0.016133 -0.003885 0.000000 -0.000604 0.000000
# 3 -0.001511 -0.003885 0.011107 0.000000 0.008043 0.000000
# 4 0.000000 0.000000 0.000000 0.029246 0.000000 -0.002740
# 5 -0.002394 -0.000604 0.008043 0.000000 0.033312 0.000000
# 6 0.000000 0.000000 0.000000 -0.002740 0.000000 0.051289
#
#
# Mechanical properties :
#
#
# Convention : Reuss Voigt Hill
#
# Bulk Modulus (GPa) = 42.06639 46.72547 44.39593
# Shear Modulus (GPa) = 26.71646 31.03797 28.87721
#
# Velocity S-wave (km/s) = 3.43711 3.70468 3.57340
# Velocity P-wave (km/s) = 5.86114 6.24187 6.05450
#
# Compressibility (1/GPa) = 0.02377195
#
# Stress axis : x y z
#
# Youngs Moduli (GPa) = 57.68051 61.98602 90.03734
#
# Poissons Ratio (x) = 0.31034 0.13601
# Poissons Ratio (y) = 0.28879 0.34978
# Poissons Ratio (z) = 0.08713 0.24080
#
# Static dielectric constant tensor:
#      x y z
#    x 3.846120 0.000000 -0.040280 
#    y 0.000000 4.041100 0.000000 
#    z -0.040280 0.000000 4.361680 
# 
# 
# High freq. dielectric constant tensor:
#      x y z
#    x 1.883300 0.000000 -0.003670 
#    y 0.000000 1.892030 0.000000 
#    z -0.003670 0.000000 1.902910 
# 
# From -- ./inp_files/122000.got.cif
#   From: 2010.06.25/outbox.cif.g09.slc.cpg/sg15_61_cif.got.tgz:122000.got - 2010.06.28 07:06:18.
