data_PCOD8142578
_publ_section_title
;
Structure prediction by ZEFSAII (Michael W. Deem and Ramdas Pophale) SiO2 
 PCOD8142578
Probable space group: C 2/C
;
_chemical_formula_sum "Si O2"
_cell_formula_units_Z 44
_cell_length_a 17.161839
_cell_length_b 8.671167
_cell_length_c 14.277868
_cell_angle_alpha 90.000000
_cell_angle_beta 62.222494
_cell_angle_gamma 90.000000
_cell_volume 1879.888901
_symmetry_space_group_name_H-M "C 2/C"
_symmetry_group_IT_number 15
_symmetry_cell_setting 'monoclinic'
loop_
_space_group_symop_operation_xyz
x,y,z
-x,y,1/2-z
-x,-y,-z
x,-y,1/2+z
1/2+x,1/2+y,z
1/2-x,1/2+y,1/2-z
1/2-x,1/2-y,-z
1/2+x,1/2-y,1/2+z
loop_
_atom_site_type_symbol
_atom_site_label
_atom_site_fract_x
_atom_site_fract_y
_atom_site_fract_z
Si Si1 0.259541 0.888136 0.854449
Si Si2 0.541825 0.236504 0.870985
Si Si3 0.924804 0.161191 0.957637
Si Si4 0.783970 0.434523 0.162138
Si Si5 0.885113 0.500666 0.932842
Si Si6 0.000000 0.039561 0.250000
O O1 0.282794 0.705752 0.827142
O O2 0.337681 0.985365 0.858450
O O3 0.238003 0.957850 0.764413
O O4 0.174538 0.893598 0.967793
O O5 0.625713 0.133547 0.846178
O O6 0.566123 0.348490 0.770449
O O7 0.456379 0.135996 0.891474
O O8 0.519624 0.344004 0.975521
O O9 0.933127 0.339270 0.923553
O O10 0.953447 0.060198 0.854616
O O11 0.811364 0.532097 0.054678
#
# Coordination Sequence:
#
# PCOD8142578 Si02
#       6
#     8   8   8   8   8   4
#     4  10  22  39  61  90 122 160 206 252 309 370
#     4  10  22  41  61  91 122 160 209 251 303 373
#     4  10  23  40  60  90 124 158 203 258 310 364
#     4  10  21  39  62  89 125 161 199 258 312 360
#     4  10  21  41  64  88 119 163 211 250 299 376
#     4  12  24  38  62  88 122 162 200 254 312 364
#
# _framework density 23.405638
#
# number of rings (size 3 to 8) (size 9 to 14) (size 15 to 20)
#    0.000    2.182    0.000    6.000    0.000   10.909 
#    0.000    2.727    0.000    0.000    0.000    0.000 
#    0.000    0.000    0.000    0.000    0.000    0.000 
#
# Total GULP energy -272580.544270 kJ/mol
# GULP energy per Si atom -12390.024740 kJ/mol
# Density = 2.335237 g / cm^3
# Si number density = 23.405638 Si / 1000 Ang^3
#
#
#
# Elastic Constant Matrix: (Units=GPa)
#
#
# Indices 1 2 3 4 5 6 
#
# 1 84.5702 21.2350 1.9215 0.0000 24.0575 0.0000
# 2 21.2350 71.0214 43.7682 0.0000 8.9855 0.0000
# 3 1.9215 43.7682 95.8684 0.0000 32.7220 0.0000
# 4 0.0000 0.0000 0.0000 42.5918 0.0000 25.6147
# 5 24.0575 8.9855 32.7220 0.0000 30.2680 0.0000
# 6 0.0000 0.0000 0.0000 25.6147 0.0000 25.7228
#
#
#
# Elastic Compliance Matrix: (Units=1/GPa)
#
#
# Indices 1 2 3 4 5 6 
#
# 1 0.024807 -0.013947 0.017729 0.000000 -0.034743 0.000000
# 2 -0.013947 0.028174 -0.021413 0.000000 0.025871 0.000000
# 3 0.017729 -0.021413 0.035644 0.000000 -0.046268 0.000000
# 4 0.000000 0.000000 0.000000 0.058532 0.000000 -0.058286
# 5 -0.034743 0.025871 -0.046268 0.000000 0.102991 0.000000
# 6 0.000000 0.000000 0.000000 -0.058286 0.000000 0.096917
#
#
# Mechanical properties :
#
#
# Convention : Reuss Voigt Hill
#
# Bulk Modulus (GPa) = 18.74030 42.81214 30.77622
# Shear Modulus (GPa) = 12.49640 32.01889 22.25765
#
# Velocity S-wave (km/s) = 2.31315 3.70266 3.08710
# Velocity P-wave (km/s) = 3.89337 6.05068 5.08768
#
# Compressibility (1/GPa) = 0.05336093
#
# Stress axis : x y z
#
# Youngs Moduli (GPa) = 40.31140 35.49420 28.05509
#
# Poissons Ratio (x) = 0.49504 -0.49738
# Poissons Ratio (y) = 0.56223 0.60075
# Poissons Ratio (z) = -0.71467 0.76005
#
# Static dielectric constant tensor:
#      x y z
#    x 4.130460 0.000000 0.580170 
#    y 0.000000 4.279340 0.000000 
#    z 0.580170 0.000000 4.441570 
# 
# 
# High freq. dielectric constant tensor:
#      x y z
#    x 1.915660 0.000000 0.034590 
#    y 0.000000 1.920490 0.000000 
#    z 0.034590 0.000000 1.934620 
# 
# From -- ./inp_files/159673.got.cif
#   From: 2010.06.25/outbox.cif.g09.slc.cpg/sg15_80_cif.got.tgz:159673.got - 2010.06.28 07:06:18.
