data_PCOD8142564
_publ_section_title
;
Structure prediction by ZEFSAII (Michael W. Deem and Ramdas Pophale) SiO2 
 PCOD8142564
Probable space group: C 2/C
;
_chemical_formula_sum "Si O2"
_cell_formula_units_Z 56
_cell_length_a 12.263207
_cell_length_b 26.926241
_cell_length_c 8.636308
_cell_angle_alpha 90.000000
_cell_angle_beta 85.494848
_cell_angle_gamma 90.000000
_cell_volume 2842.915702
_symmetry_space_group_name_H-M "C 2/C"
_symmetry_group_IT_number 15
_symmetry_cell_setting 'monoclinic'
loop_
_space_group_symop_operation_xyz
x,y,z
-x,y,1/2-z
-x,-y,-z
x,-y,1/2+z
1/2+x,1/2+y,z
1/2-x,1/2+y,1/2-z
1/2-x,1/2-y,-z
1/2+x,1/2-y,1/2+z
loop_
_atom_site_type_symbol
_atom_site_label
_atom_site_fract_x
_atom_site_fract_y
_atom_site_fract_z
Si Si1 0.228282 0.403174 0.916920
Si Si2 0.959393 0.949976 0.922757
Si Si3 0.985770 0.446659 0.432680
Si Si4 0.514423 0.650561 0.573183
Si Si5 0.211697 0.197907 0.930821
Si Si6 0.393830 0.124711 0.363151
Si Si7 0.745415 0.304050 0.065229
O O1 0.329491 0.439962 0.936739
O O2 0.196636 0.400164 0.739112
O O3 0.240593 0.346864 0.974080
O O4 0.134765 0.427371 0.027554
O O5 0.000000 0.959268 0.750000
O O6 0.014360 0.900071 0.978452
O O7 0.000000 0.000000 0.000000
O O8 0.076116 0.414227 0.508580
O O9 0.000000 0.446798 0.250000
O O10 0.000000 0.500000 0.500000
O O11 0.500000 0.633434 0.750000
O O12 0.420208 0.691333 0.545026
O O13 0.630490 0.674061 0.523059
O O14 0.256545 0.194194 0.750194
O O15 0.250000 0.250000 0.000000
O O16 0.500000 0.141600 0.250000
O O17 0.345434 0.169915 0.466219
O O18 0.750000 0.250000 0.000000
#
# Coordination Sequence:
#
# PCOD8142564 Si02
#       7
#     8   8   8   8   8   8   8
#     4  10  22  40  60  87 119 154 197 246 294 349
#     4  11  23  38  60  87 116 153 194 238 291 349
#     4  11  23  40  62  89 118 155 198 243 297 354
#     4   9  21  40  59  83 116 150 194 243 289 345
#     4  10  21  39  62  87 118 154 195 247 299 353
#     4  10  22  40  60  85 121 158 199 247 292 351
#     4  11  22  37  60  88 117 158 198 242 300 353
#
# _framework density 19.698087000000001
#
# number of rings (size 3 to 8) (size 9 to 14) (size 15 to 20)
#    0.000    1.714    0.000    4.286    0.000    8.571 
#    0.000    2.857    0.000    0.000    0.000    0.000 
#    0.000    0.000    0.000    0.000    0.000    0.000 
#
# Total GULP energy -347079.168468 kJ/mol
# GULP energy per Si atom -12395.684588 kJ/mol
# Density = 1.965325 g / cm^3
# Si number density = 19.698087 Si / 1000 Ang^3
#
#
#
# Elastic Constant Matrix: (Units=GPa)
#
#
# Indices 1 2 3 4 5 6 
#
# 1 123.3204 82.1090 66.2282 0.0000 14.5252 0.0000
# 2 82.1090 156.3787 83.1851 0.0000 2.4476 0.0000
# 3 66.2282 83.1851 160.2853 0.0000 11.4956 0.0000
# 4 0.0000 0.0000 0.0000 49.4123 0.0000 -10.2039
# 5 14.5252 2.4476 11.4956 0.0000 28.0234 0.0000
# 6 0.0000 0.0000 0.0000 -10.2039 0.0000 48.3300
#
#
#
# Elastic Compliance Matrix: (Units=1/GPa)
#
#
# Indices 1 2 3 4 5 6 
#
# 1 0.014056 -0.006109 -0.002218 0.000000 -0.005842 0.000000
# 2 -0.006109 0.011524 -0.003721 0.000000 0.003686 0.000000
# 3 -0.002218 -0.003721 0.009253 0.000000 -0.002321 0.000000
# 4 0.000000 0.000000 0.000000 0.021160 0.000000 0.004468
# 5 -0.005842 0.003686 -0.002321 0.000000 0.039343 0.000000
# 6 0.000000 0.000000 0.000000 0.004468 0.000000 0.021634
#
#
# Mechanical properties :
#
#
# Convention : Reuss Voigt Hill
#
# Bulk Modulus (GPa) = 93.14032 100.33656 96.73844
# Shear Modulus (GPa) = 34.56742 39.05060 36.80901
#
# Velocity S-wave (km/s) = 4.19365 4.45731 4.32749
# Velocity P-wave (km/s) = 8.41639 8.80556 8.61317
#
# Compressibility (1/GPa) = 0.01073649
#
# Stress axis : x y z
#
# Youngs Moduli (GPa) = 71.14576 86.77667 108.07201
#
# Poissons Ratio (x) = 0.53009 0.23975
# Poissons Ratio (y) = 0.43460 0.40214
# Poissons Ratio (z) = 0.15783 0.32290
#
# Static dielectric constant tensor:
#      x y z
#    x 3.719230 0.000000 0.050450 
#    y 0.000000 3.601670 0.000000 
#    z 0.050450 0.000000 3.783630 
# 
# 
# High freq. dielectric constant tensor:
#      x y z
#    x 1.779680 0.000000 0.004840 
#    y 0.000000 1.773970 0.000000 
#    z 0.004840 0.000000 1.784300 
# 
# From -- ./inp_files/34171.got.cif
#   From: 2010.06.25/outbox.cif.g09.slc.cpg/sg15_18_cif.got.tgz:34171.got - 2010.06.28 07:06:18.
