data_PCOD8142716
_publ_section_title
;
Structure prediction by ZEFSAII (Michael W. Deem and Ramdas Pophale) SiO2 
 PCOD8142716
Probable space group: C 2/C
;
_chemical_formula_sum "Si O2"
_cell_formula_units_Z 60
_cell_length_a 11.731216
_cell_length_b 12.315316
_cell_length_c 23.413111
_cell_angle_alpha 90.000000
_cell_angle_beta 117.878549
_cell_angle_gamma 90.000000
_cell_volume 2989.997836
_symmetry_space_group_name_H-M "C 2/C"
_symmetry_group_IT_number 15
_symmetry_cell_setting 'monoclinic'
loop_
_space_group_symop_operation_xyz
x,y,z
-x,y,1/2-z
-x,-y,-z
x,-y,1/2+z
1/2+x,1/2+y,z
1/2-x,1/2+y,1/2-z
1/2-x,1/2-y,-z
1/2+x,1/2-y,1/2+z
loop_
_atom_site_type_symbol
_atom_site_label
_atom_site_fract_x
_atom_site_fract_y
_atom_site_fract_z
Si Si1 0.224658 0.601337 0.660762
Si Si2 0.305840 0.705512 0.422327
Si Si3 0.500000 0.358050 0.250000
Si Si4 0.254254 0.469703 0.436102
Si Si5 0.852041 0.468290 0.966592
Si Si6 0.977152 0.279534 0.633591
Si Si7 0.922992 0.764429 0.459998
Si Si8 0.500278 0.020057 0.818239
O O1 0.205808 0.729301 0.640607
O O2 0.368352 0.572583 0.716939
O O3 0.212611 0.525639 0.602407
O O4 0.124533 0.582547 0.688315
O O5 0.312943 0.574506 0.416448
O O6 0.171069 0.734706 0.422616
O O7 0.431483 0.749494 0.483336
O O8 0.488342 0.285893 0.302803
O O9 0.215458 0.507694 0.490919
O O10 0.361390 0.376626 0.466234
O O11 0.131315 0.423034 0.372182
O O12 0.838380 0.337411 0.961503
O O13 0.000000 0.500000 0.000000
O O14 0.004693 0.403751 0.653607
O O15 0.072842 0.237496 0.607368
O O16 0.500000 0.016274 0.750000
#
# Coordination Sequence:
#
# PCOD8142716 Si02
#       8
#     8   8   4   8   8   8   8   8
#     4  11  23  42  68  92 124 166 215 262 314 374
#     4  10  22  39  63  92 124 162 209 256 313 376
#     4  10  24  40  62  92 122 166 210 270 306 366
#     4  11  25  38  60 100 125 167 209 264 323 368
#     4  12  21  41  67  90 126 166 212 255 320 390
#     4  10  21  39  64  89 118 166 219 251 307 376
#     4  12  22  38  62  95 130 160 201 268 322 373
#     4  11  22  42  66  90 125 173 215 251 312 394
#
# _framework density 20.066904999999998
#
# number of rings (size 3 to 8) (size 9 to 14) (size 15 to 20)
#    0.000    1.067    4.667    2.000    5.600    0.000 
#    0.000    0.000    4.400    0.000    0.000    0.000 
#    0.000    0.000    0.000    0.000    0.000    0.000 
#
# Total GULP energy -371901.126082 kJ/mol
# GULP energy per Si atom -12396.704203 kJ/mol
# Density = 2.002123 g / cm^3
# Si number density = 20.066905 Si / 1000 Ang^3
#
#
#
# Elastic Constant Matrix: (Units=GPa)
#
#
# Indices 1 2 3 4 5 6 
#
# 1 104.3293 44.2689 54.3170 0.0000 -0.7345 0.0000
# 2 44.2689 99.4219 23.3338 0.0000 3.9586 0.0000
# 3 54.3170 23.3338 106.3300 0.0000 7.8746 0.0000
# 4 0.0000 0.0000 0.0000 28.0842 0.0000 -1.3599
# 5 -0.7345 3.9586 7.8746 0.0000 39.8293 0.0000
# 6 0.0000 0.0000 0.0000 -1.3599 0.0000 36.0916
#
#
#
# Elastic Compliance Matrix: (Units=1/GPa)
#
#
# Indices 1 2 3 4 5 6 
#
# 1 0.015454 -0.005353 -0.006881 0.000000 0.002177 0.000000
# 2 -0.005353 0.012473 0.000098 0.000000 -0.001358 0.000000
# 3 -0.006881 0.000098 0.013100 0.000000 -0.002727 0.000000
# 4 0.000000 0.000000 0.000000 0.035672 0.000000 0.001344
# 5 0.002177 -0.001358 -0.002727 0.000000 0.025821 0.000000
# 6 0.000000 0.000000 0.000000 0.001344 0.000000 0.027758
#
#
# Mechanical properties :
#
#
# Convention : Reuss Voigt Hill
#
# Bulk Modulus (GPa) = 59.68407 61.54672 60.61540
# Shear Modulus (GPa) = 31.22346 33.34512 32.28429
#
# Velocity S-wave (km/s) = 3.94886 4.08081 4.01538
# Velocity P-wave (km/s) = 7.11325 7.27608 7.19513
#
# Compressibility (1/GPa) = 0.01675489
#
# Stress axis : x y z
#
# Youngs Moduli (GPa) = 64.70717 80.17514 76.33448
#
# Poissons Ratio (x) = 0.42917 0.52527
# Poissons Ratio (y) = 0.34637 -0.00748
# Poissons Ratio (z) = 0.44526 -0.00785
#
# Static dielectric constant tensor:
#      x y z
#    x 3.729540 0.000000 0.078220 
#    y 0.000000 3.747900 0.000000 
#    z 0.078220 0.000000 3.630350 
# 
# 
# High freq. dielectric constant tensor:
#      x y z
#    x 1.782690 0.000000 0.003630 
#    y 0.000000 1.777400 0.000000 
#    z 0.003630 0.000000 1.782750 
# 
# From -- ./inp_files/268941.got.cif
#   From: 2010.06.25/outbox.cif.g09.slc.cpg/sg15_135_cif.got.tgz:268941.got - 2010.06.28 07:06:18.
