data_PCOD8142216
_publ_section_title
;
Structure prediction by ZEFSAII (Michael W. Deem and Ramdas Pophale) SiO2 
 PCOD8142216
Probable space group: C 2/C
;
_chemical_formula_sum "Si O2"
_cell_formula_units_Z 40
_cell_length_a 16.107509
_cell_length_b 14.498739
_cell_length_c 13.090864
_cell_angle_alpha 90.000000
_cell_angle_beta 36.971413
_cell_angle_gamma 90.000000
_cell_volume 1838.663478
_symmetry_space_group_name_H-M "C 2/C"
_symmetry_group_IT_number 15
_symmetry_cell_setting 'monoclinic'
loop_
_space_group_symop_operation_xyz
x,y,z
-x,y,1/2-z
-x,-y,-z
x,-y,1/2+z
1/2+x,1/2+y,z
1/2-x,1/2+y,1/2-z
1/2-x,1/2-y,-z
1/2+x,1/2-y,1/2+z
loop_
_atom_site_type_symbol
_atom_site_label
_atom_site_fract_x
_atom_site_fract_y
_atom_site_fract_z
Si Si1 0.839605 0.584865 0.721040
Si Si2 0.333650 0.566427 0.416659
Si Si3 0.753643 0.248343 0.822159
Si Si4 0.651158 0.098995 0.410525
Si Si5 0.647864 0.367130 0.090994
O O1 0.829803 0.666613 0.648349
O O2 0.802645 0.487589 0.704535
O O3 0.997458 0.582564 0.606674
O O4 0.728906 0.609208 0.917850
O O5 0.500000 0.581254 0.250000
O O6 0.264491 0.615709 0.387398
O O7 0.266626 0.462023 0.481345
O O8 0.852497 0.305628 0.649792
O O9 0.837340 0.208922 0.835958
O O10 0.652321 0.323038 0.973860
O O11 0.500000 0.412512 0.250000
#
# Coordination Sequence:
#
# PCOD8142216 Si02
#       5
#     8   8   8   8   8
#     4  11  24  43  67  98 134 173 216 269 327 389
#     4  11  24  43  67  95 132 172 215 272 326 388
#     4  11  22  41  66  96 130 173 216 271 320 392
#     4  11  24  43  67  98 134 173 216 269 327 389
#     4  10  21  38  63  97 126 164 219 273 325 382
#
# _framework density 21.754933999999999
#
# number of rings (size 3 to 8) (size 9 to 14) (size 15 to 20)
#    0.000    1.200    4.000    1.800    0.000    4.800 
#    0.000    0.000    0.000    0.000    0.000    0.000 
#    0.000    0.000    0.000    0.000    0.000    0.000 
#
# Total GULP energy -247821.516766 kJ/mol
# GULP energy per Si atom -12391.075838 kJ/mol
# Density = 2.170542 g / cm^3
# Si number density = 21.754934 Si / 1000 Ang^3
#
#
#
# Elastic Constant Matrix: (Units=GPa)
#
#
# Indices 1 2 3 4 5 6 
#
# 1 112.7525 22.7129 54.8044 0.0000 5.0364 0.0000
# 2 22.7129 88.2550 11.1414 0.0000 8.0042 0.0000
# 3 54.8044 11.1414 122.0741 0.0001 0.0381 0.0000
# 4 0.0000 0.0000 0.0001 23.6183 0.0000 3.8366
# 5 5.0364 8.0042 0.0381 0.0000 30.3205 0.0000
# 6 0.0000 0.0000 0.0000 3.8366 0.0000 27.5288
#
#
#
# Elastic Compliance Matrix: (Units=1/GPa)
#
#
# Indices 1 2 3 4 5 6 
#
# 1 0.011882 -0.002287 -0.005125 0.000000 -0.001363 0.000000
# 2 -0.002287 0.012187 -0.000085 0.000000 -0.002837 0.000000
# 3 -0.005125 -0.000085 0.010500 0.000000 0.000860 0.000000
# 4 0.000000 0.000000 0.000000 0.043321 0.000000 -0.006038
# 5 -0.001363 -0.002837 0.000860 0.000000 0.033955 0.000000
# 6 0.000000 0.000000 0.000000 -0.006038 0.000000 0.037167
#
#
# Mechanical properties :
#
#
# Convention : Reuss Voigt Hill
#
# Bulk Modulus (GPa) = 51.08426 55.59989 53.34208
# Shear Modulus (GPa) = 29.32015 31.92172 30.62094
#
# Velocity S-wave (km/s) = 3.67515 3.83473 3.75579
# Velocity P-wave (km/s) = 6.44528 6.72456 6.58640
#
# Compressibility (1/GPa) = 0.01957550
#
# Stress axis : x y z
#
# Youngs Moduli (GPa) = 84.16316 82.05186 95.23760
#
# Poissons Ratio (x) = 0.18767 0.48810
# Poissons Ratio (y) = 0.19250 0.00806
# Poissons Ratio (z) = 0.43134 0.00694
#
# Static dielectric constant tensor:
#      x y z
#    x 3.655730 0.000000 0.143510 
#    y 0.000000 3.916080 0.000000 
#    z 0.143510 0.000000 3.850480 
# 
# 
# High freq. dielectric constant tensor:
#      x y z
#    x 1.842630 0.000000 0.009930 
#    y 0.000000 1.863760 0.000000 
#    z 0.009930 0.000000 1.850400 
# 
# From -- ./inp_files/96677.got.cif
#   From: 2010.06.25/outbox.cif.g09.slc.cpg/sg15_49_cif.got.tgz:96677.got - 2010.06.28 07:06:18.
