data_PCOD8142123
_publ_section_title
;
Structure prediction by ZEFSAII (Michael W. Deem and Ramdas Pophale) SiO2 
 PCOD8142123
Probable space group: C 2/C
;
_chemical_formula_sum "Si O2"
_cell_formula_units_Z 40
_cell_length_a 20.421258
_cell_length_b 8.117109
_cell_length_c 10.946212
_cell_angle_alpha 90.000000
_cell_angle_beta 96.854314
_cell_angle_gamma 90.000000
_cell_volume 1801.493082
_symmetry_space_group_name_H-M "C 2/C"
_symmetry_group_IT_number 15
_symmetry_cell_setting 'monoclinic'
loop_
_space_group_symop_operation_xyz
x,y,z
-x,y,1/2-z
-x,-y,-z
x,-y,1/2+z
1/2+x,1/2+y,z
1/2-x,1/2+y,1/2-z
1/2-x,1/2-y,-z
1/2+x,1/2-y,1/2+z
loop_
_atom_site_type_symbol
_atom_site_label
_atom_site_fract_x
_atom_site_fract_y
_atom_site_fract_z
Si Si1 0.877378 0.833955 0.508093
Si Si2 0.185845 0.064945 0.829586
Si Si3 0.682213 0.114398 0.209412
Si Si4 0.429763 0.136503 0.751582
Si Si5 0.054924 0.978922 0.663598
O O1 0.831039 0.724218 0.412695
O O2 0.902040 0.721579 0.623795
O O3 0.944788 0.915108 0.463249
O O4 0.831580 0.986754 0.543163
O O5 0.191285 0.265357 0.829874
O O6 0.127951 0.021578 0.724377
O O7 0.253288 0.992992 0.792173
O O8 0.620423 0.995300 0.209658
O O9 0.500000 0.043854 0.750000
O O10 0.446350 0.281359 0.853878
O O11 0.000000 0.038625 0.750000
#
# Coordination Sequence:
#
# PCOD8142123 Si02
#       5
#     8   8   8   8   8
#     4  10  22  41  66  91 123 165 206 254 318 370
#     4  10  21  38  62  90 123 162 205 253 305 367
#     4  11  23  41  63  92 130 162 207 260 305 368
#     4  10  23  41  63  94 126 163 210 257 306 368
#     4   9  20  39  63  91 124 160 204 254 305 367
#
# _framework density 22.203806
#
# number of rings (size 3 to 8) (size 9 to 14) (size 15 to 20)
#    0.000    2.000    0.000    3.000    0.000   14.400 
#    0.000    6.000    0.000    0.000    0.000    0.000 
#    0.000    0.000    0.000    0.000    0.000    0.000 
#
# Total GULP energy -247822.149313 kJ/mol
# GULP energy per Si atom -12391.107466 kJ/mol
# Density = 2.215327 g / cm^3
# Si number density = 22.203806 Si / 1000 Ang^3
#
#
#
# Elastic Constant Matrix: (Units=GPa)
#
#
# Indices 1 2 3 4 5 6 
#
# 1 129.8747 24.7337 -5.2840 0.0000 -24.3422 0.0000
# 2 24.7337 69.4307 21.7985 0.0000 -9.6039 0.0000
# 3 -5.2840 21.7985 58.9789 0.0000 -15.4967 0.0000
# 4 0.0000 0.0000 0.0000 9.6715 0.0000 6.6490
# 5 -24.3422 -9.6039 -15.4967 0.0000 28.9349 0.0000
# 6 0.0000 0.0000 0.0000 6.6490 0.0000 33.9518
#
#
#
# Elastic Compliance Matrix: (Units=1/GPa)
#
#
# Indices 1 2 3 4 5 6 
#
# 1 0.010603 -0.003956 0.005133 0.000000 0.010356 0.000000
# 2 -0.003956 0.017932 -0.007323 0.000000 -0.001299 0.000000
# 3 0.005133 -0.007323 0.023994 0.000000 0.014739 0.000000
# 4 0.000000 0.000000 0.000000 0.119483 0.000000 -0.023399
# 5 0.010356 -0.001299 0.014739 0.000000 0.050735 0.000000
# 6 0.000000 0.000000 0.000000 -0.023399 0.000000 0.034036
#
#
# Mechanical properties :
#
#
# Convention : Reuss Voigt Hill
#
# Bulk Modulus (GPa) = 24.85298 37.86452 31.35875
# Shear Modulus (GPa) = 17.69985 28.98070 23.34027
#
# Velocity S-wave (km/s) = 2.82645 3.61669 3.24571
# Velocity P-wave (km/s) = 4.67645 5.87629 5.31037
#
# Compressibility (1/GPa) = 0.04023662
#
# Stress axis : x y z
#
# Youngs Moduli (GPa) = 94.31221 55.76673 41.67647
#
# Poissons Ratio (x) = 0.22063 -0.21394
# Poissons Ratio (y) = 0.37313 0.30521
# Poissons Ratio (z) = -0.48413 0.40840
#
# Static dielectric constant tensor:
#      x y z
#    x 4.207350 0.000000 -0.155800 
#    y 0.000000 4.365240 0.000000 
#    z -0.155800 0.000000 4.303070 
# 
# 
# High freq. dielectric constant tensor:
#      x y z
#    x 1.897090 0.000000 -0.000450 
#    y 0.000000 1.875530 0.000000 
#    z -0.000450 0.000000 1.858090 
# 
# From -- ./inp_files/109584.got.cif
#   From: 2010.06.25/outbox.cif.g09.slc.cpg/sg15_55_cif.got.tgz:109584.got - 2010.06.28 07:06:18.
