data_PCOD8142776
_publ_section_title
;
Structure prediction by ZEFSAII (Michael W. Deem and Ramdas Pophale) SiO2 
 PCOD8142776
Probable space group: C 2/C
;
_chemical_formula_sum "Si O2"
_cell_formula_units_Z 32
_cell_length_a 9.442095
_cell_length_b 16.422062
_cell_length_c 10.641861
_cell_angle_alpha 90.000000
_cell_angle_beta 66.605258
_cell_angle_gamma 90.000000
_cell_volume 1514.458796
_symmetry_space_group_name_H-M "C 2/C"
_symmetry_group_IT_number 15
_symmetry_cell_setting 'monoclinic'
loop_
_space_group_symop_operation_xyz
x,y,z
-x,y,1/2-z
-x,-y,-z
x,-y,1/2+z
1/2+x,1/2+y,z
1/2-x,1/2+y,1/2-z
1/2-x,1/2-y,-z
1/2+x,1/2-y,1/2+z
loop_
_atom_site_type_symbol
_atom_site_label
_atom_site_fract_x
_atom_site_fract_y
_atom_site_fract_z
Si Si1 0.000000 0.493626 0.250000
Si Si2 0.587522 0.392570 0.027243
Si Si3 0.203566 0.630778 0.282089
Si Si4 0.500000 0.732640 0.750000
Si Si5 0.216806 0.064570 0.991505
O O1 0.903547 0.551036 0.190248
O O2 0.886218 0.436242 0.369699
O O3 0.609629 0.323021 0.123996
O O4 0.405112 0.404440 0.068786
O O5 0.666316 0.367114 0.869792
O O6 0.665849 0.474253 0.054279
O O7 0.282680 0.625991 0.390644
O O8 0.103163 0.712350 0.305967
#
# Coordination Sequence:
#
# PCOD8142776 Si02
#       5
#     4   8   8   4   8
#     4   9  20  36  60  96 119 158 202 251 296 358
#     4  10  23  38  64  92 120 160 206 253 296 362
#     4  10  21  41  61  89 128 160 196 252 310 359
#     4  11  24  40  60  92 127 160 196 251 318 358
#     4  10  21  39  65  92 120 159 210 250 295 359
#
# _framework density 21.129660999999999
#
# number of rings (size 3 to 8) (size 9 to 14) (size 15 to 20)
#    0.000    2.000    0.000    2.250   10.500    1.000 
#    4.500    0.000    0.000    0.000    0.000    0.000 
#    0.000    0.000    0.000    0.000    0.000    0.000 
#
# Total GULP energy -198468.426484 kJ/mol
# GULP energy per Si atom -12404.276655 kJ/mol
# Density = 2.108157 g / cm^3
# Si number density = 21.129661 Si / 1000 Ang^3
#
#
#
# Elastic Constant Matrix: (Units=GPa)
#
#
# Indices 1 2 3 4 5 6 
#
# 1 85.8225 27.4364 50.6310 0.0000 -10.1133 0.0000
# 2 27.4364 92.2431 49.6102 0.0000 5.7720 0.0000
# 3 50.6310 49.6102 125.6039 0.0000 -8.7729 0.0000
# 4 0.0000 0.0000 0.0000 33.0710 0.0000 4.1144
# 5 -10.1133 5.7720 -8.7729 0.0000 37.7586 0.0000
# 6 0.0000 0.0000 0.0000 4.1144 0.0000 16.4364
#
#
#
# Elastic Compliance Matrix: (Units=1/GPa)
#
#
# Indices 1 2 3 4 5 6 
#
# 1 0.015853 -0.002045 -0.005351 0.000000 0.003315 0.000000
# 2 -0.002045 0.014478 -0.005171 0.000000 -0.003962 0.000000
# 3 -0.005351 -0.005171 0.012316 0.000000 0.002219 0.000000
# 4 0.000000 0.000000 0.000000 0.031210 0.000000 -0.007813
# 5 0.003315 -0.003962 0.002219 0.000000 0.028493 0.000000
# 6 0.000000 0.000000 0.000000 -0.007813 0.000000 0.062796
#
#
# Mechanical properties :
#
#
# Convention : Reuss Voigt Hill
#
# Bulk Modulus (GPa) = 57.09921 62.11385 59.60653
# Shear Modulus (GPa) = 25.49477 29.18599 27.34038
#
# Velocity S-wave (km/s) = 3.47736 3.72059 3.60103
# Velocity P-wave (km/s) = 6.57303 6.92224 6.74989
#
# Compressibility (1/GPa) = 0.01751338
#
# Stress axis : x y z
#
# Youngs Moduli (GPa) = 63.07832 69.06984 81.19518
#
# Poissons Ratio (x) = 0.14123 0.43450
# Poissons Ratio (y) = 0.12898 0.41986
# Poissons Ratio (z) = 0.33755 0.35716
#
# Static dielectric constant tensor:
#      x y z
#    x 3.809840 0.000000 -0.136010 
#    y 0.000000 3.716260 0.000000 
#    z -0.136010 0.000000 3.601240 
# 
# 
# High freq. dielectric constant tensor:
#      x y z
#    x 1.828610 0.000000 -0.008170 
#    y 0.000000 1.811000 0.000000 
#    z -0.008170 0.000000 1.826910 
# 
# From -- ./inp_files/75550.got.cif
#   From: 2010.06.25/outbox.cif.g09.slc.cpg/sg15_38_cif.got.tgz:75550.got - 2010.06.28 07:06:18.
