data_PCOD8142823
_publ_section_title
;
Structure prediction by ZEFSAII (Michael W. Deem and Ramdas Pophale) SiO2 
 PCOD8142823
Probable space group: C 2/C
;
_chemical_formula_sum "Si O2"
_cell_formula_units_Z 32
_cell_length_a 18.486388
_cell_length_b 7.100481
_cell_length_c 18.104497
_cell_angle_alpha 90.000000
_cell_angle_beta 36.972432
_cell_angle_gamma 90.000000
_cell_volume 1429.262112
_symmetry_space_group_name_H-M "C 2/C"
_symmetry_group_IT_number 15
_symmetry_cell_setting 'monoclinic'
loop_
_space_group_symop_operation_xyz
x,y,z
-x,y,1/2-z
-x,-y,-z
x,-y,1/2+z
1/2+x,1/2+y,z
1/2-x,1/2+y,1/2-z
1/2-x,1/2-y,-z
1/2+x,1/2-y,1/2+z
loop_
_atom_site_type_symbol
_atom_site_label
_atom_site_fract_x
_atom_site_fract_y
_atom_site_fract_z
Si Si1 0.910847 0.123525 0.885593
Si Si2 0.388344 0.514198 0.673022
Si Si3 0.211524 0.514789 0.947899
Si Si4 0.466022 0.197741 0.992725
O O1 0.813575 0.979587 0.927323
O O2 0.000000 0.207796 0.750000
O O3 0.849763 0.291335 0.979614
O O4 0.986868 0.012468 0.883130
O O5 0.271978 0.538180 0.817960
O O6 0.406210 0.304249 0.624874
O O7 0.384316 0.677799 0.615011
O O8 0.113364 0.348160 0.017028
O O9 0.500000 0.000000 0.000000
#
# Coordination Sequence:
#
# PCOD8142823 Si02
#       4
#     8   8   8   8
#     4   9  19  41  64  92 122 161 206 256 303 369
#     4  10  23  40  62  90 128 154 212 254 296 380
#     4  10  21  39  66  88 123 168 197 252 318 352
#     4  11  23  39  59  93 123 161 201 255 305 365
#
# _framework density 22.389177
#
# number of rings (size 3 to 8) (size 9 to 14) (size 15 to 20)
#    0.000    2.000    2.500    0.000    3.500    1.000 
#    0.000    3.750    0.000    0.000    0.000    0.000 
#    0.000    0.000    0.000    0.000    0.000    0.000 
#
# Total GULP energy -198209.965237 kJ/mol
# GULP energy per Si atom -12388.122827 kJ/mol
# Density = 2.233822 g / cm^3
# Si number density = 22.389177 Si / 1000 Ang^3
#
#
#
# Elastic Constant Matrix: (Units=GPa)
#
#
# Indices 1 2 3 4 5 6 
#
# 1 92.3114 40.7332 2.3418 0.0011 -4.7702 -0.0006
# 2 40.7332 115.3739 29.5981 0.0037 4.7022 -0.0019
# 3 2.3418 29.5981 93.8568 0.0015 7.8994 -0.0007
# 4 0.0011 0.0037 0.0015 13.4596 -0.0008 -2.9510
# 5 -4.7702 4.7022 7.8994 -0.0008 29.6940 0.0005
# 6 -0.0006 -0.0019 -0.0007 -2.9510 0.0005 42.1978
#
#
#
# Elastic Compliance Matrix: (Units=1/GPa)
#
#
# Indices 1 2 3 4 5 6 
#
# 1 0.013157 -0.005017 0.001032 0.000000 0.002633 0.000000
# 2 -0.005017 0.011359 -0.003312 -0.000002 -0.001724 0.000000
# 3 0.001032 -0.003312 0.011881 -0.000001 -0.002470 0.000000
# 4 0.000000 -0.000002 -0.000001 0.075453 0.000003 0.005277
# 5 0.002633 -0.001724 -0.002470 0.000003 0.035030 0.000000
# 6 0.000000 0.000000 0.000000 0.005277 0.000000 0.024067
#
#
# Mechanical properties :
#
#
# Convention : Reuss Voigt Hill
#
# Bulk Modulus (GPa) = 45.86500 49.65426 47.75963
# Shear Modulus (GPa) = 25.93255 32.32820 29.13038
#
# Velocity S-wave (km/s) = 3.40702 3.80402 3.61098
# Velocity P-wave (km/s) = 6.00057 6.44360 6.22603
#
# Compressibility (1/GPa) = 0.02180312
#
# Stress axis : x y z
#
# Youngs Moduli (GPa) = 76.00706 88.03859 84.16753
#
# Poissons Ratio (x) = 0.44170 -0.08688
# Poissons Ratio (y) = 0.38134 0.27874
# Poissons Ratio (z) = -0.07846 0.29156
#
# Static dielectric constant tensor:
#      x y z
#    x 4.728210 0.000000 -0.063050 
#    y 0.000000 3.735350 0.000000 
#    z -0.063050 0.000000 4.082540 
# 
# 
# High freq. dielectric constant tensor:
#      x y z
#    x 1.899350 0.000000 -0.002300 
#    y 0.000000 1.863540 0.000000 
#    z -0.002300 0.000000 1.879010 
# 
# From -- ./inp_files/120618.got.cif
#   From: 2010.06.25/outbox.cif.g09.slc.cpg/sg15_61_cif.got.tgz:120618.got - 2010.06.28 07:06:18.
