data_PCOD8142896
_publ_section_title
;
Structure prediction by ZEFSAII (Michael W. Deem and Ramdas Pophale) SiO2 
 PCOD8142896
Probable space group: C 2/C
;
_chemical_formula_sum "Si O2"
_cell_formula_units_Z 52
_cell_length_a 12.013337
_cell_length_b 24.766738
_cell_length_c 14.293901
_cell_angle_alpha 90.000000
_cell_angle_beta 35.040032
_cell_angle_gamma 90.000000
_cell_volume 2441.785850
_symmetry_space_group_name_H-M "C 2/C"
_symmetry_group_IT_number 15
_symmetry_cell_setting 'monoclinic'
loop_
_space_group_symop_operation_xyz
x,y,z
-x,y,1/2-z
-x,-y,-z
x,-y,1/2+z
1/2+x,1/2+y,z
1/2-x,1/2+y,1/2-z
1/2-x,1/2-y,-z
1/2+x,1/2-y,1/2+z
loop_
_atom_site_type_symbol
_atom_site_label
_atom_site_fract_x
_atom_site_fract_y
_atom_site_fract_z
Si Si1 0.266855 0.520934 0.737663
Si Si2 0.182631 0.984383 0.998769
Si Si3 0.356550 0.060912 0.039025
Si Si4 0.167633 0.683085 0.458437
Si Si5 0.000000 0.397147 0.750000
Si Si6 0.000000 0.779416 0.250000
Si Si7 0.575721 0.189730 0.052198
Si Si8 0.000000 0.739793 0.750000
O O1 0.312897 0.521915 0.596210
O O2 0.459780 0.535816 0.665247
O O3 0.091738 0.563447 0.873118
O O4 0.197826 0.461522 0.820610
O O5 0.309240 0.932083 0.893652
O O6 0.265457 0.019347 0.026907
O O7 0.269393 0.120174 0.082574
O O8 0.347333 0.720498 0.304189
O O9 0.996587 0.692002 0.503437
O O10 0.099313 0.700313 0.607898
O O11 0.980182 0.360817 0.670960
O O12 0.808445 0.816297 0.385303
O O13 0.995257 0.743458 0.346731
#
# Coordination Sequence:
#
# PCOD8142896 Si02
#       8
#     8   8   8   8   4   4   8   4
#     4  10  23  39  63  92 121 172 206 254 316 384
#     4  11  22  41  58  89 134 160 207 260 306 382
#     4  11  23  41  66  92 126 169 212 256 320 377
#     4  11  24  43  65  91 125 168 209 268 304 375
#     4  11  22  39  58  96 128 159 206 267 308 388
#     4   9  20  40  66  96 120 162 204 257 336 384
#     4  10  21  39  67  91 127 160 206 263 324 377
#     4  10  26  45  62  94 126 161 224 256 312 360
#
# _framework density 21.29589
#
# number of rings (size 3 to 8) (size 9 to 14) (size 15 to 20)
#    0.000    1.538    1.538    2.308    6.462    1.231 
#    0.000    1.538    0.000    0.000    0.000    0.000 
#    0.000    0.000    0.000    0.000    0.000    0.000 
#
# Total GULP energy -322389.645648 kJ/mol
# GULP energy per Si atom -12399.601756 kJ/mol
# Density = 2.124742 g / cm^3
# Si number density = 21.295890 Si / 1000 Ang^3
#
#
#
# Elastic Constant Matrix: (Units=GPa)
#
#
# Indices 1 2 3 4 5 6 
#
# 1 99.0403 24.2450 18.7533 -0.0013 -11.5317 -0.0001
# 2 24.2450 85.2084 9.8352 -0.0005 -3.6915 -0.0001
# 3 18.7533 9.8352 66.5020 0.0030 -11.6327 -0.0006
# 4 -0.0013 -0.0005 0.0030 21.6104 -0.0005 -1.2716
# 5 -11.5317 -3.6915 -11.6327 -0.0005 36.3407 0.0004
# 6 -0.0001 -0.0001 -0.0006 -1.2716 0.0004 19.1585
#
#
#
# Elastic Compliance Matrix: (Units=1/GPa)
#
#
# Indices 1 2 3 4 5 6 
#
# 1 0.011561 -0.002902 -0.002374 0.000001 0.002614 0.000000
# 2 -0.002902 0.012685 -0.001052 0.000000 0.000031 0.000000
# 3 -0.002374 -0.001052 0.016644 -0.000002 0.004468 0.000000
# 4 0.000001 0.000000 -0.000002 0.046455 0.000000 0.003083
# 5 0.002614 0.000031 0.004468 0.000000 0.029780 0.000000
# 6 0.000000 0.000000 0.000000 0.003083 0.000000 0.052401
#
#
# Mechanical properties :
#
#
# Convention : Reuss Voigt Hill
#
# Bulk Modulus (GPa) = 35.41968 39.60197 37.51082
# Shear Modulus (GPa) = 26.09698 28.61640 27.35669
#
# Velocity S-wave (km/s) = 3.50444 3.66970 3.58802
# Velocity P-wave (km/s) = 5.74831 6.04913 5.90064
#
# Compressibility (1/GPa) = 0.02823289
#
# Stress axis : x y z
#
# Youngs Moduli (GPa) = 86.49609 78.83615 60.08313
#
# Poissons Ratio (x) = 0.22881 0.14262
# Poissons Ratio (y) = 0.25104 0.06321
# Poissons Ratio (z) = 0.20532 0.08294
#
# Static dielectric constant tensor:
#      x y z
#    x 3.900980 0.000000 -0.075470 
#    y 0.000000 3.643550 0.000000 
#    z -0.075470 0.000000 4.072800 
# 
# 
# High freq. dielectric constant tensor:
#      x y z
#    x 1.843690 0.000000 -0.000720 
#    y 0.000000 1.815840 0.000000 
#    z -0.000720 0.000000 1.847920 
# 
# From -- ./inp_files/148067.got.cif
#   From: 2010.06.25/outbox.cif.g09.slc.cpg/sg15_75_cif.got.tgz:148067.got - 2010.06.28 07:06:18.
