data_PCOD8142945
_publ_section_title
;
Structure prediction by ZEFSAII (Michael W. Deem and Ramdas Pophale) SiO2 
 PCOD8142945
Probable space group: C 2/C
;
_chemical_formula_sum "Si O2"
_cell_formula_units_Z 56
_cell_length_a 17.500571
_cell_length_b 20.849539
_cell_length_c 9.051064
_cell_angle_alpha 90.000000
_cell_angle_beta 128.775861
_cell_angle_gamma 90.000000
_cell_volume 2574.667750
_symmetry_space_group_name_H-M "C 2/C"
_symmetry_group_IT_number 15
_symmetry_cell_setting 'monoclinic'
loop_
_space_group_symop_operation_xyz
x,y,z
-x,y,1/2-z
-x,-y,-z
x,-y,1/2+z
1/2+x,1/2+y,z
1/2-x,1/2+y,1/2-z
1/2-x,1/2-y,-z
1/2+x,1/2-y,1/2+z
loop_
_atom_site_type_symbol
_atom_site_label
_atom_site_fract_x
_atom_site_fract_y
_atom_site_fract_z
Si Si1 0.344108 0.218486 0.431124
Si Si2 0.556823 0.550656 0.666337
Si Si3 0.143706 0.731159 0.715476
Si Si4 0.633066 0.076935 0.127024
Si Si5 0.557501 0.889615 0.971753
Si Si6 0.786180 0.525733 0.972503
Si Si7 0.006476 0.828142 0.923121
O O1 0.250809 0.261695 0.274815
O O2 0.347885 0.202802 0.609484
O O3 0.340556 0.152199 0.337142
O O4 0.436599 0.260854 0.499548
O O5 0.500000 0.555482 0.750000
O O6 0.500000 0.500000 0.500000
O O7 0.669047 0.528865 0.817261
O O8 0.553412 0.620198 0.587382
O O9 0.078849 0.682793 0.542748
O O10 0.101337 0.804211 0.659754
O O11 0.513884 0.073579 0.997394
O O12 0.686644 0.041031 0.326696
O O13 0.672583 0.044738 0.023367
O O14 0.500000 0.887708 0.750000
O O15 0.660671 0.926302 0.078774
O O16 0.000000 0.857388 0.750000
#
# Coordination Sequence:
#
# PCOD8142945 Si02
#       7
#     8   8   8   8   8   8   8
#     4  10  22  41  68 100 132 178 227 278 336 415
#     4  12  27  47  70  99 136 183 230 285 339 404
#     4  10  21  39  68  96 133 177 220 275 343 405
#     4  11  24  45  68 100 138 179 230 281 348 409
#     4  10  22  43  65 101 136 173 223 283 346 410
#     4  11  26  44  66  97 135 182 229 278 345 405
#     4  10  22  43  67 100 133 171 223 276 338 404
#
# _framework density 21.750378999999999
#
# number of rings (size 3 to 8) (size 9 to 14) (size 15 to 20)
#    0.000    1.429    1.429    2.571    6.000    0.571 
#    2.571    2.143    0.000    0.000    0.000    0.000 
#    0.000    0.000    0.000    0.000    0.000    0.000 
#
# Total GULP energy -347169.147629 kJ/mol
# GULP energy per Si atom -12398.898130 kJ/mol
# Density = 2.170087 g / cm^3
# Si number density = 21.750379 Si / 1000 Ang^3
#
#
#
# Elastic Constant Matrix: (Units=GPa)
#
#
# Indices 1 2 3 4 5 6 
#
# 1 130.6879 38.7967 39.9584 0.0000 10.7139 0.0000
# 2 38.7967 110.9629 45.7435 0.0000 -9.7484 0.0000
# 3 39.9584 45.7435 67.6577 0.0000 4.7862 0.0000
# 4 0.0000 0.0000 0.0000 39.0784 0.0000 5.2034
# 5 10.7139 -9.7484 4.7862 0.0000 33.2261 0.0000
# 6 0.0000 0.0000 0.0000 5.2034 0.0000 20.1288
#
#
#
# Elastic Compliance Matrix: (Units=1/GPa)
#
#
# Indices 1 2 3 4 5 6 
#
# 1 0.009781 -0.001945 -0.004242 0.000000 -0.003114 0.000000
# 2 -0.001945 0.013736 -0.008555 0.000000 0.005890 0.000000
# 3 -0.004242 -0.008555 0.023389 0.000000 -0.004511 0.000000
# 4 0.000000 0.000000 0.000000 0.026502 0.000000 -0.006851
# 5 -0.003114 0.005890 -0.004511 0.000000 0.033479 0.000000
# 6 0.000000 0.000000 0.000000 -0.006851 0.000000 0.051451
#
#
# Mechanical properties :
#
#
# Convention : Reuss Voigt Hill
#
# Bulk Modulus (GPa) = 57.39539 62.03399 59.71469
# Shear Modulus (GPa) = 25.82263 30.80733 28.31498
#
# Velocity S-wave (km/s) = 3.44935 3.76760 3.61198
# Velocity P-wave (km/s) = 6.50458 6.89269 6.70145
#
# Compressibility (1/GPa) = 0.01742300
#
# Stress axis : x y z
#
# Youngs Moduli (GPa) = 102.23548 72.80028 42.75577
#
# Poissons Ratio (x) = 0.14159 0.18135
# Poissons Ratio (y) = 0.19884 0.36578
# Poissons Ratio (z) = 0.43364 0.62281
#
# Static dielectric constant tensor:
#      x y z
#    x 4.208430 0.000000 0.103750 
#    y 0.000000 3.781270 0.000000 
#    z 0.103750 0.000000 3.828620 
# 
# 
# High freq. dielectric constant tensor:
#      x y z
#    x 1.871330 0.000000 0.010580 
#    y 0.000000 1.855910 0.000000 
#    z 0.010580 0.000000 1.844090 
# 
# From -- ./inp_files/50316.got.cif
#   From: 2010.06.25/outbox.cif.g09.slc.cpg/sg15_26_cif.got.tgz:50316.got - 2010.06.28 07:06:18.
