data_PCOD8142288
_publ_section_title
;
Structure prediction by ZEFSAII (Michael W. Deem and Ramdas Pophale) SiO2 
 PCOD8142288
Probable space group: C 2/C
;
_chemical_formula_sum "Si O2"
_cell_formula_units_Z 56
_cell_length_a 13.361506
_cell_length_b 13.840510
_cell_length_c 21.176209
_cell_angle_alpha 90.000000
_cell_angle_beta 135.949802
_cell_angle_gamma 90.000000
_cell_volume 2722.830837
_symmetry_space_group_name_H-M "C 2/C"
_symmetry_group_IT_number 15
_symmetry_cell_setting 'monoclinic'
loop_
_space_group_symop_operation_xyz
x,y,z
-x,y,1/2-z
-x,-y,-z
x,-y,1/2+z
1/2+x,1/2+y,z
1/2-x,1/2+y,1/2-z
1/2-x,1/2-y,-z
1/2+x,1/2-y,1/2+z
loop_
_atom_site_type_symbol
_atom_site_label
_atom_site_fract_x
_atom_site_fract_y
_atom_site_fract_z
Si Si1 0.000000 0.316802 0.250000
Si Si2 0.724331 0.800177 0.605710
Si Si3 0.715219 0.131501 0.242449
Si Si4 0.000000 0.289483 0.750000
Si Si5 0.255823 0.298286 0.068559
Si Si6 0.413010 0.932848 0.326980
Si Si7 0.864313 0.506117 0.485142
Si Si8 0.437200 0.255135 0.914988
O O1 0.122370 0.250437 0.337471
O O2 0.082231 0.385366 0.239066
O O3 0.684774 0.809227 0.663042
O O4 0.606924 0.741612 0.509377
O O5 0.738552 0.907028 0.583269
O O6 0.596659 0.148823 0.244079
O O7 0.876308 0.161351 0.340166
O O8 0.709892 0.016232 0.225964
O O9 0.910635 0.215662 0.668154
O O10 0.229526 0.411523 0.054612
O O11 0.138557 0.235753 0.052564
O O12 0.250000 0.250000 0.000000
O O13 0.381926 0.848432 0.363397
O O14 0.569169 0.978311 0.414703
O O15 0.000000 0.500000 0.500000
#
# Coordination Sequence:
#
# PCOD8142288 Si02
#       8
#     4   8   8   4   8   8   8   8
#     4  12  27  41  66  96 132 174 213 278 321 380
#     4  11  22  42  67  90 131 173 221 260 327 381
#     4  11  20  40  65  94 127 173 210 269 322 388
#     4  10  23  31  60  96 132 156 215 268 327 374
#     4  11  20  36  60  98 128 162 210 271 318 375
#     4  11  21  40  64  92 124 168 221 254 323 386
#     4  11  20  38  67  89 121 177 217 255 319 400
#     4  10  21  38  65  91 127 173 211 260 321 390
#
# _framework density 20.56683
#
# number of rings (size 3 to 8) (size 9 to 14) (size 15 to 20)
#    0.000    1.143    5.714    2.143    0.000    4.000 
#    0.000    0.714    0.000    0.000    0.000    0.000 
#    0.000    0.000    0.000    0.000    0.000    0.000 
#
# Total GULP energy -346937.743059 kJ/mol
# GULP energy per Si atom -12390.633681 kJ/mol
# Density = 2.052002 g / cm^3
# Si number density = 20.566830 Si / 1000 Ang^3
#
#
#
# Elastic Constant Matrix: (Units=GPa)
#
#
# Indices 1 2 3 4 5 6 
#
# 1 42.8312 23.9272 27.3285 0.0000 1.6097 0.0000
# 2 23.9272 103.9071 69.6895 0.0000 10.6686 0.0000
# 3 27.3285 69.6895 153.1047 0.0000 10.1422 0.0000
# 4 0.0000 0.0000 0.0000 36.7519 0.0000 0.2328
# 5 1.6097 10.6686 10.1422 0.0000 34.8214 0.0000
# 6 0.0000 0.0000 0.0000 0.2328 0.0000 28.8377
#
#
#
# Elastic Compliance Matrix: (Units=1/GPa)
#
#
# Indices 1 2 3 4 5 6 
#
# 1 0.027713 -0.004491 -0.002966 0.000000 0.000959 0.000000
# 2 -0.004491 0.014790 -0.005755 0.000000 -0.002647 0.000000
# 3 -0.002966 -0.005755 0.009743 0.000000 -0.000937 0.000000
# 4 0.000000 0.000000 0.000000 0.027211 0.000000 -0.000220
# 5 0.000959 -0.002647 -0.000937 0.000000 0.029758 0.000000
# 6 0.000000 0.000000 0.000000 -0.000220 0.000000 0.034679
#
#
# Mechanical properties :
#
#
# Convention : Reuss Voigt Hill
#
# Bulk Modulus (GPa) = 38.72747 60.19260 49.46003
# Shear Modulus (GPa) = 27.94506 32.00873 29.97689
#
# Velocity S-wave (km/s) = 3.69011 3.94931 3.82191
# Velocity P-wave (km/s) = 6.08497 7.08000 6.60126
#
# Compressibility (1/GPa) = 0.02582146
#
# Stress axis : x y z
#
# Youngs Moduli (GPa) = 36.08469 67.61462 102.64295
#
# Poissons Ratio (x) = 0.30363 0.30444
# Poissons Ratio (y) = 0.16204 0.59071
# Poissons Ratio (z) = 0.10703 0.38912
#
# Static dielectric constant tensor:
#      x y z
#    x 3.566140 0.000000 -0.278030 
#    y 0.000000 3.890290 0.000000 
#    z -0.278030 0.000000 4.065900 
# 
# 
# High freq. dielectric constant tensor:
#      x y z
#    x 1.783980 0.000000 -0.021120 
#    y 0.000000 1.795360 0.000000 
#    z -0.021120 0.000000 1.822590 
# 
# From -- ./inp_files/244585.got.cif
#   From: 2010.06.25/outbox.cif.g09.slc.cpg/sg15_123_cif.got.tgz:244585.got - 2010.06.28 07:06:18.
