data_PCOD8142205
_publ_section_title
;
Structure prediction by ZEFSAII (Michael W. Deem and Ramdas Pophale) SiO2 
 PCOD8142205
Probable space group: C 2/C
;
_chemical_formula_sum "Si O2"
_cell_formula_units_Z 44
_cell_length_a 15.694963
_cell_length_b 12.065886
_cell_length_c 11.276763
_cell_angle_alpha 90.000000
_cell_angle_beta 113.844081
_cell_angle_gamma 90.000000
_cell_volume 1953.252531
_symmetry_space_group_name_H-M "C 2/C"
_symmetry_group_IT_number 15
_symmetry_cell_setting 'monoclinic'
loop_
_space_group_symop_operation_xyz
x,y,z
-x,y,1/2-z
-x,-y,-z
x,-y,1/2+z
1/2+x,1/2+y,z
1/2-x,1/2+y,1/2-z
1/2-x,1/2-y,-z
1/2+x,1/2-y,1/2+z
loop_
_atom_site_type_symbol
_atom_site_label
_atom_site_fract_x
_atom_site_fract_y
_atom_site_fract_z
Si Si1 0.000000 0.399796 0.750000
Si Si2 0.866440 0.152850 0.002749
Si Si3 0.848750 0.455839 0.497068
Si Si4 0.748703 0.841729 0.659004
Si Si5 0.674444 0.408432 0.547152
Si Si6 0.028436 0.267248 0.978668
O O1 0.085485 0.474182 0.848493
O O2 0.035481 0.318301 0.663176
O O3 0.838866 0.144430 0.125082
O O4 0.965912 0.215467 0.047994
O O5 0.789667 0.218430 0.882720
O O6 0.867833 0.029712 0.949086
O O7 0.833923 0.571536 0.421940
O O8 0.749806 0.408786 0.484365
O O9 0.901142 0.367210 0.439230
O O10 0.780277 0.858242 0.809685
O O11 0.591294 0.329856 0.457625
#
# Coordination Sequence:
#
# PCOD8142205 Si02
#       6
#     4   8   8   8   8   8
#     4   8  20  36  64  92 120 158 224 266 298 374
#     4  10  23  41  57  93 127 168 209 261 323 377
#     4   9  21  41  61  97 116 171 210 265 309 375
#     4  10  23  41  63  88 136 164 210 265 321 390
#     4  11  22  38  66  88 131 167 214 257 327 377
#     4  10  21  38  63  94 122 159 222 261 308 374
#
# _framework density 22.526529
#
# number of rings (size 3 to 8) (size 9 to 14) (size 15 to 20)
#    1.091    1.091    0.000    2.182    2.545    4.364 
#    0.000    0.000    0.000    0.000    0.000    0.000 
#    0.000    0.000    0.000    0.000    0.000    0.000 
#
# Total GULP energy -272608.746963 kJ/mol
# GULP energy per Si atom -12391.306680 kJ/mol
# Density = 2.247526 g / cm^3
# Si number density = 22.526529 Si / 1000 Ang^3
#
#
#
# Elastic Constant Matrix: (Units=GPa)
#
#
# Indices 1 2 3 4 5 6 
#
# 1 90.2373 19.0408 -1.2301 0.0000 7.7973 0.0000
# 2 19.0408 93.7713 13.2265 0.0000 1.2640 0.0000
# 3 -1.2301 13.2265 49.9130 0.0000 4.9249 0.0000
# 4 0.0000 0.0000 0.0000 19.1702 0.0000 4.5350
# 5 7.7973 1.2640 4.9249 0.0000 17.2628 0.0000
# 6 0.0000 0.0000 0.0000 4.5350 0.0000 44.4466
#
#
#
# Elastic Compliance Matrix: (Units=1/GPa)
#
#
# Indices 1 2 3 4 5 6 
#
# 1 0.012150 -0.002609 0.001557 0.000000 -0.005741 0.000000
# 2 -0.002609 0.011639 -0.003273 0.000000 0.001260 0.000000
# 3 0.001557 -0.003273 0.021594 0.000000 -0.006624 0.000000
# 4 0.000000 0.000000 0.000000 0.053455 0.000000 -0.005454
# 5 -0.005741 0.001260 -0.006624 0.000000 0.062319 0.000000
# 6 0.000000 0.000000 0.000000 -0.005454 0.000000 0.023055
#
#
# Mechanical properties :
#
#
# Convention : Reuss Voigt Hill
#
# Bulk Modulus (GPa) = 27.22348 32.88846 30.05597
# Shear Modulus (GPa) = 24.37771 29.70153 27.03962
#
# Velocity S-wave (km/s) = 3.29322 3.63507 3.46836
# Velocity P-wave (km/s) = 5.15477 5.67890 5.42317
#
# Compressibility (1/GPa) = 0.03673299
#
# Stress axis : x y z
#
# Youngs Moduli (GPa) = 82.30598 85.92001 46.30892
#
# Poissons Ratio (x) = 0.22420 -0.07212
# Poissons Ratio (y) = 0.21477 0.15156
# Poissons Ratio (z) = -0.12818 0.28120
#
# Static dielectric constant tensor:
#      x y z
#    x 4.088000 0.000000 0.005810 
#    y 0.000000 4.175340 0.000000 
#    z 0.005810 0.000000 3.543630 
# 
# 
# High freq. dielectric constant tensor:
#      x y z
#    x 1.893300 0.000000 -0.001270 
#    y 0.000000 1.896520 0.000000 
#    z -0.001270 0.000000 1.846940 
# 
# From -- ./inp_files/103878.got.cif
#   From: 2010.06.25/outbox.cif.g09.slc.cpg/sg15_52_cif.got.tgz:103878.got - 2010.06.28 07:06:18.
