data_PCOD8142076
_publ_section_title
;
Structure prediction by ZEFSAII (Michael W. Deem and Ramdas Pophale) SiO2 
 PCOD8142076
Probable space group: C 2/C
;
_chemical_formula_sum "Si O2"
_cell_formula_units_Z 64
_cell_length_a 21.570693
_cell_length_b 20.946349
_cell_length_c 10.825262
_cell_angle_alpha 90.000000
_cell_angle_beta 42.153355
_cell_angle_gamma 90.000000
_cell_volume 3282.534240
_symmetry_space_group_name_H-M "C 2/C"
_symmetry_group_IT_number 15
_symmetry_cell_setting 'monoclinic'
loop_
_space_group_symop_operation_xyz
x,y,z
-x,y,1/2-z
-x,-y,-z
x,-y,1/2+z
1/2+x,1/2+y,z
1/2-x,1/2+y,1/2-z
1/2-x,1/2-y,-z
1/2+x,1/2-y,1/2+z
loop_
_atom_site_type_symbol
_atom_site_label
_atom_site_fract_x
_atom_site_fract_y
_atom_site_fract_z
Si Si1 0.628277 0.113928 0.319083
Si Si2 0.256853 0.466160 0.781359
Si Si3 0.445670 0.520380 0.455966
Si Si4 0.156512 0.852052 0.422421
Si Si5 0.784101 0.374635 0.454380
Si Si6 0.559444 0.935285 0.429608
Si Si7 0.186681 0.404308 0.461150
Si Si8 0.396246 0.212107 0.942833
O O1 0.675207 0.047321 0.300693
O O2 0.517957 0.116728 0.484217
O O3 0.650273 0.172511 0.376262
O O4 0.662563 0.124277 0.129351
O O5 0.354874 0.476757 0.571100
O O6 0.238370 0.528005 0.892888
O O7 0.262791 0.404361 0.856514
O O8 0.500000 0.507118 0.250000
O O9 0.500000 0.500000 0.500000
O O10 0.419342 0.595392 0.504518
O O11 0.197128 0.866434 0.496143
O O12 0.244445 0.851975 0.200285
O O13 0.106800 0.784408 0.505950
O O14 0.857867 0.425848 0.290399
O O15 0.833080 0.307115 0.417020
O O16 0.595891 0.919606 0.513416
O O17 0.500000 0.000000 0.500000
O O18 0.500000 0.194081 0.750000
#
# Coordination Sequence:
#
# PCOD8142076 Si02
#       8
#     8   8   8   8   8   8   8   8
#     4  11  22  36  58  88 124 162 195 246 301 369
#     4  10  22  35  60  88 122 155 192 250 309 376
#     4  11  24  41  66  92 122 156 210 270 329 379
#     4  10  23  40  64  88 116 167 207 265 306 364
#     4  10  21  38  61  94 124 161 209 248 305 374
#     4  11  19  34  58  91 129 161 191 241 298 372
#     4  10  22  35  57  88 126 159 201 235 310 365
#     4  11  22  40  61  86 122 163 218 256 298 365
#
# _framework density 19.497129999999999
#
# number of rings (size 3 to 8) (size 9 to 14) (size 15 to 20)
#    0.000    1.500    2.500    2.625    7.000    0.500 
#    0.000    0.000    0.000    0.000    0.000    0.000 
#    0.000    0.000    0.000    0.000    0.000    0.000 
#
# Total GULP energy -396494.135091 kJ/mol
# GULP energy per Si atom -12390.441722 kJ/mol
# Density = 1.945275 g / cm^3
# Si number density = 19.497130 Si / 1000 Ang^3
#
#
#
# Elastic Constant Matrix: (Units=GPa)
#
#
# Indices 1 2 3 4 5 6 
#
# 1 105.0752 33.4747 44.6755 0.0000 5.1859 0.0000
# 2 33.4747 93.3111 38.8109 0.0000 3.3178 0.0000
# 3 44.6755 38.8109 106.8865 0.0000 7.8414 0.0000
# 4 0.0000 0.0000 0.0000 29.6893 0.0000 -2.5666
# 5 5.1859 3.3178 7.8414 0.0000 33.8621 0.0000
# 6 0.0000 0.0000 0.0000 -2.5666 0.0000 22.3343
#
#
#
# Elastic Compliance Matrix: (Units=1/GPa)
#
#
# Indices 1 2 3 4 5 6 
#
# 1 0.012114 -0.002634 -0.004059 0.000000 -0.000657 0.000000
# 2 -0.002634 0.013197 -0.003688 0.000000 -0.000036 0.000000
# 3 -0.004059 -0.003688 0.012532 0.000000 -0.001919 0.000000
# 4 0.000000 0.000000 0.000000 0.034020 0.000000 0.003910
# 5 -0.000657 -0.000036 -0.001919 0.000000 0.030080 0.000000
# 6 0.000000 0.000000 0.000000 0.003910 0.000000 0.045224
#
#
# Mechanical properties :
#
#
# Convention : Reuss Voigt Hill
#
# Bulk Modulus (GPa) = 58.54447 59.91056 59.22751
# Shear Modulus (GPa) = 28.79790 29.73127 29.26459
#
# Velocity S-wave (km/s) = 3.84739 3.90924 3.87844
# Velocity P-wave (km/s) = 7.05896 7.15338 7.10633
#
# Compressibility (1/GPa) = 0.01708103
#
# Stress axis : x y z
#
# Youngs Moduli (GPa) = 82.54672 75.77339 79.79496
#
# Poissons Ratio (x) = 0.19962 0.32386
# Poissons Ratio (y) = 0.21747 0.29430
# Poissons Ratio (z) = 0.33503 0.27947
#
# Static dielectric constant tensor:
#      x y z
#    x 3.726980 0.000000 -0.149440 
#    y 0.000000 3.366040 0.000000 
#    z -0.149440 0.000000 3.608370 
# 
# 
# High freq. dielectric constant tensor:
#      x y z
#    x 1.766770 0.000000 -0.004260 
#    y 0.000000 1.737000 0.000000 
#    z -0.004260 0.000000 1.762780 
# 
# From -- ./inp_files/114260.got.cif
#   From: 2010.06.25/outbox.cif.g09.slc.cpg/sg15_58_cif.got.tgz:114260.got - 2010.06.28 07:06:18.
