data_PCOD8142537
_publ_section_title
;
Structure prediction by ZEFSAII (Michael W. Deem and Ramdas Pophale) SiO2 
 PCOD8142537
Probable space group: C 2/C
;
_chemical_formula_sum "Si O2"
_cell_formula_units_Z 48
_cell_length_a 12.491060
_cell_length_b 15.057013
_cell_length_c 14.494604
_cell_angle_alpha 90.000000
_cell_angle_beta 63.913420
_cell_angle_gamma 90.000000
_cell_volume 2448.408990
_symmetry_space_group_name_H-M "C 2/C"
_symmetry_group_IT_number 15
_symmetry_cell_setting 'monoclinic'
loop_
_space_group_symop_operation_xyz
x,y,z
-x,y,1/2-z
-x,-y,-z
x,-y,1/2+z
1/2+x,1/2+y,z
1/2-x,1/2+y,1/2-z
1/2-x,1/2-y,-z
1/2+x,1/2-y,1/2+z
loop_
_atom_site_type_symbol
_atom_site_label
_atom_site_fract_x
_atom_site_fract_y
_atom_site_fract_z
Si Si1 0.845159 0.653233 0.054271
Si Si2 0.554197 0.645091 0.632715
Si Si3 0.418440 0.584056 0.520424
Si Si4 0.232441 0.517559 0.001735
Si Si5 0.089976 0.776081 0.630454
Si Si6 0.959506 0.342042 0.865658
O O1 0.819278 0.547946 0.056447
O O2 0.723811 0.708893 0.118346
O O3 0.927619 0.664360 0.111014
O O4 0.909974 0.690030 0.936759
O O5 0.500000 0.617749 0.750000
O O6 0.445147 0.643664 0.599735
O O7 0.658211 0.575452 0.576306
O O8 0.604898 0.745660 0.613728
O O9 0.500000 0.500000 0.500000
O O10 0.282073 0.547712 0.564922
O O11 0.449926 0.638670 0.415311
O O12 0.130703 0.582886 0.070583
O O13 0.000000 0.761719 0.750000
O O14 0.000000 0.371111 0.750000
#
# Coordination Sequence:
#
# PCOD8142537 Si02
#       6
#     8   8   8   8   8   8
#     4  10  22  41  61  91 125 154 208 255 295 370
#     4  10  21  39  61  89 123 164 207 248 299 364
#     4   9  19  36  61  88 117 150 208 251 285 356
#     4  10  22  38  62  88 124 162 202 255 307 353
#     4  10  21  40  65  89 119 163 205 252 306 356
#     4  11  23  40  60  88 129 161 198 250 315 369
#
# _framework density 19.604566999999999
#
# number of rings (size 3 to 8) (size 9 to 14) (size 15 to 20)
#    0.000    2.000    1.667    1.000    0.000   10.667 
#    6.000    0.000    0.000    0.000    0.000    0.000 
#    0.000    0.000    0.000    0.000    0.000    0.000 
#
# Total GULP energy -297424.343904 kJ/mol
# GULP energy per Si atom -12392.680996 kJ/mol
# Density = 1.955995 g / cm^3
# Si number density = 19.604567 Si / 1000 Ang^3
#
#
#
# Elastic Constant Matrix: (Units=GPa)
#
#
# Indices 1 2 3 4 5 6 
#
# 1 103.8313 43.4160 74.9998 0.0000 6.2228 0.0000
# 2 43.4160 87.1514 27.2688 0.0000 -2.3889 0.0000
# 3 74.9998 27.2688 123.3127 0.0000 9.2078 0.0000
# 4 0.0000 0.0000 0.0000 46.2729 0.0000 -10.5401
# 5 6.2228 -2.3889 9.2078 0.0000 23.6792 0.0000
# 6 0.0000 0.0000 0.0000 -10.5401 0.0000 43.0974
#
#
#
# Elastic Compliance Matrix: (Units=1/GPa)
#
#
# Indices 1 2 3 4 5 6 
#
# 1 0.020346 -0.006831 -0.010725 0.000000 -0.001866 0.000000
# 2 -0.006831 0.014752 0.000667 0.000000 0.003024 0.000000
# 3 -0.010725 0.000667 0.014696 0.000000 -0.002829 0.000000
# 4 0.000000 0.000000 0.000000 0.022886 0.000000 0.005597
# 5 -0.001866 0.003024 -0.002829 0.000000 0.044127 0.000000
# 6 0.000000 0.000000 0.000000 0.005597 0.000000 0.024572
#
#
# Mechanical properties :
#
#
# Convention : Reuss Voigt Hill
#
# Bulk Modulus (GPa) = 62.43886 67.29607 64.86746
# Shear Modulus (GPa) = 27.70172 33.85063 30.77617
#
# Velocity S-wave (km/s) = 3.76310 4.15983 3.96643
# Velocity P-wave (km/s) = 7.12738 7.58113 7.35775
#
# Compressibility (1/GPa) = 0.01601567
#
# Stress axis : x y z
#
# Youngs Moduli (GPa) = 49.15014 67.78929 68.04564
#
# Poissons Ratio (x) = 0.46308 0.72976
# Poissons Ratio (y) = 0.33575 -0.04538
# Poissons Ratio (z) = 0.52711 -0.04521
#
# Static dielectric constant tensor:
#      x y z
#    x 3.836490 0.000000 0.444800 
#    y 0.000000 3.942450 0.000000 
#    z 0.444800 0.000000 3.291600 
# 
# 
# High freq. dielectric constant tensor:
#      x y z
#    x 1.771300 0.000000 0.016850 
#    y 0.000000 1.789310 0.000000 
#    z 0.016850 0.000000 1.733320 
# 
# From -- ./inp_files/143426.got.cif
#   From: 2010.06.25/outbox.cif.g09.slc.cpg/sg15_72_cif.got.tgz:143426.got - 2010.06.28 07:06:18.
