data_PCOD8142185
_publ_section_title
;
Structure prediction by ZEFSAII (Michael W. Deem and Ramdas Pophale) SiO2 
 PCOD8142185
Probable space group: C 2/C
;
_chemical_formula_sum "Si O2"
_cell_formula_units_Z 40
_cell_length_a 25.719323
_cell_length_b 10.618157
_cell_length_c 23.672534
_cell_angle_alpha 90.000000
_cell_angle_beta 163.375532
_cell_angle_gamma 90.000000
_cell_volume 1849.556591
_symmetry_space_group_name_H-M "C 2/C"
_symmetry_group_IT_number 15
_symmetry_cell_setting 'monoclinic'
loop_
_space_group_symop_operation_xyz
x,y,z
-x,y,1/2-z
-x,-y,-z
x,-y,1/2+z
1/2+x,1/2+y,z
1/2-x,1/2+y,1/2-z
1/2-x,1/2-y,-z
1/2+x,1/2-y,1/2+z
loop_
_atom_site_type_symbol
_atom_site_label
_atom_site_fract_x
_atom_site_fract_y
_atom_site_fract_z
Si Si1 0.882443 0.801182 0.571843
Si Si2 0.482505 0.045954 0.792725
Si Si3 0.074313 0.403424 0.657242
Si Si4 0.323987 0.359718 0.279687
Si Si5 0.583536 0.566043 0.506842
O O1 0.688874 0.860978 0.382148
O O2 0.000000 0.830715 0.750000
O O3 0.856569 0.650320 0.533468
O O4 0.965269 0.859636 0.600531
O O5 0.500000 0.979012 0.750000
O O6 0.477481 0.931682 0.831424
O O7 0.174520 0.270216 0.753400
O O8 0.212854 0.509475 0.780978
O O9 0.883314 0.404481 0.425421
O O10 0.430271 0.460066 0.352494
O O11 0.420966 0.344728 0.442023
#
# Coordination Sequence:
#
# PCOD8142185 Si02
#       5
#     8   8   8   8   8
#     4  10  21  38  63  91 127 153 209 257 310 362
#     4  10  22  39  62  94 122 163 206 253 313 363
#     4  11  23  43  64  91 126 163 207 254 304 373
#     4  11  23  41  64  86 134 159 211 251 306 365
#     4  10  24  41  62  95 118 173 203 253 311 364
#
# _framework density 21.626805999999998
#
# number of rings (size 3 to 8) (size 9 to 14) (size 15 to 20)
#    0.000    1.600    2.000    3.000    5.600    4.800 
#    0.000    2.000    0.000    0.000    0.000    0.000 
#    0.000    0.000    0.000    0.000    0.000    0.000 
#
# Total GULP energy -247860.887421 kJ/mol
# GULP energy per Si atom -12393.044371 kJ/mol
# Density = 2.157758 g / cm^3
# Si number density = 21.626806 Si / 1000 Ang^3
#
#
#
# Elastic Constant Matrix: (Units=GPa)
#
#
# Indices 1 2 3 4 5 6 
#
# 1 102.4148 54.5581 15.9877 0.0050 -14.9287 0.0017
# 2 54.5581 86.4453 17.2081 -0.0552 -26.8463 -0.0295
# 3 15.9877 17.2081 64.0979 -0.0218 -1.9937 -0.0120
# 4 0.0050 -0.0552 -0.0218 20.3118 -0.0233 -0.5160
# 5 -14.9287 -26.8463 -1.9937 -0.0233 32.7365 -0.0167
# 6 0.0017 -0.0295 -0.0120 -0.5160 -0.0167 32.3794
#
#
#
# Elastic Compliance Matrix: (Units=1/GPa)
#
#
# Indices 1 2 3 4 5 6 
#
# 1 0.014831 -0.009452 -0.001195 -0.000032 -0.001061 -0.000011
# 2 -0.009452 0.022515 -0.003253 0.000077 0.013956 0.000028
# 3 -0.001195 -0.003253 0.016704 0.000007 -0.002195 0.000002
# 4 -0.000032 0.000077 0.000007 0.049253 0.000084 0.000785
# 5 -0.001061 0.013956 -0.002195 0.000084 0.041374 0.000035
# 6 -0.000011 0.000028 0.000002 0.000785 0.000035 0.030896
#
#
# Mechanical properties :
#
#
# Convention : Reuss Voigt Hill
#
# Bulk Modulus (GPa) = 38.09345 47.60730 42.85038
# Shear Modulus (GPa) = 23.57113 28.09915 25.83514
#
# Velocity S-wave (km/s) = 3.30495 3.60846 3.46003
# Velocity P-wave (km/s) = 5.67590 6.27871 5.98490
#
# Compressibility (1/GPa) = 0.02625123
#
# Stress axis : x y z
#
# Youngs Moduli (GPa) = 67.42442 44.41457 59.86538
#
# Poissons Ratio (x) = 0.41981 0.07153
# Poissons Ratio (y) = 0.63730 0.19473
# Poissons Ratio (z) = 0.08056 0.14447
#
# Static dielectric constant tensor:
#      x y z
#    x 4.301680 -0.000030 0.171670 
#    y -0.000030 3.704320 -0.000060 
#    z 0.171670 -0.000060 3.869240 
# 
# 
# High freq. dielectric constant tensor:
#      x y z
#    x 1.873480 -0.000010 0.013350 
#    y -0.000010 1.822670 -0.000010 
#    z 0.013350 -0.000010 1.850360 
# 
# From -- ./inp_files/54153.got.cif
#   From: 2010.06.25/outbox.cif.g09.slc.cpg/sg15_28_cif.got.tgz:54153.got - 2010.06.28 07:06:18.
