data_PCOD8142983
_publ_section_title
;
Structure prediction by ZEFSAII (Michael W. Deem and Ramdas Pophale) SiO2 
 PCOD8142983
Probable space group: C 2/C
;
_chemical_formula_sum "Si O2"
_cell_formula_units_Z 56
_cell_length_a 13.672174
_cell_length_b 9.548828
_cell_length_c 21.315557
_cell_angle_alpha 90.000000
_cell_angle_beta 65.366975
_cell_angle_gamma 90.000000
_cell_volume 2529.567734
_symmetry_space_group_name_H-M "C 2/C"
_symmetry_group_IT_number 15
_symmetry_cell_setting 'monoclinic'
loop_
_space_group_symop_operation_xyz
x,y,z
-x,y,1/2-z
-x,-y,-z
x,-y,1/2+z
1/2+x,1/2+y,z
1/2-x,1/2+y,1/2-z
1/2-x,1/2-y,-z
1/2+x,1/2-y,1/2+z
loop_
_atom_site_type_symbol
_atom_site_label
_atom_site_fract_x
_atom_site_fract_y
_atom_site_fract_z
Si Si1 0.548823 0.544797 0.153722
Si Si2 0.300039 0.631614 0.064531
Si Si3 0.664603 0.693618 0.306891
Si Si4 0.157639 0.155998 0.000850
Si Si5 0.567234 0.891040 0.942855
Si Si6 0.915882 0.764558 0.410838
Si Si7 0.251359 0.499420 0.812864
O O1 0.450483 0.652388 0.195625
O O2 0.603950 0.603549 0.077714
O O3 0.516947 0.386860 0.141513
O O4 0.626715 0.513596 0.192643
O O5 0.354598 0.640744 0.117541
O O6 0.185949 0.711749 0.102006
O O7 0.287101 0.468255 0.053138
O O8 0.374730 0.700348 0.992071
O O9 0.755311 0.607525 0.244064
O O10 0.705767 0.853925 0.297470
O O11 0.250000 0.250000 0.000000
O O12 0.079027 0.246118 0.977895
O O13 0.500845 0.860510 0.896967
O O14 0.680375 0.956042 0.891897
O O15 0.500000 0.000000 0.000000
#
# Coordination Sequence:
#
# PCOD8142983 Si02
#       7
#     8   8   8   8   8   8   8
#     4  11  23  46  73 101 136 185 238 292 363 426
#     4  10  21  40  67 103 141 178 236 289 353 432
#     4  12  27  47  72  99 144 193 239 292 363 439
#     4  11  21  36  68 102 139 177 229 301 357 414
#     4  12  24  41  68 104 142 178 239 303 364 420
#     4  10  21  39  72 103 134 183 232 292 359 420
#     4  12  28  48  71 103 143 191 236 298 361 440
#
# _framework density 22.138169999999999
#
# number of rings (size 3 to 8) (size 9 to 14) (size 15 to 20)
#    0.000    0.857    2.857    4.714    6.000    2.286 
#    0.000    2.143    0.000    0.000    0.000    0.000 
#    0.000    0.000    0.000    0.000    0.000    0.000 
#
# Total GULP energy -346890.419369 kJ/mol
# GULP energy per Si atom -12388.943549 kJ/mol
# Density = 2.208778 g / cm^3
# Si number density = 22.138170 Si / 1000 Ang^3
#
#
#
# Elastic Constant Matrix: (Units=GPa)
#
#
# Indices 1 2 3 4 5 6 
#
# 1 117.4245 44.4805 9.3052 0.0000 -3.1455 0.0000
# 2 44.4805 147.4181 33.6745 0.0000 2.7458 0.0000
# 3 9.3052 33.6745 72.8378 0.0000 15.0095 0.0000
# 4 0.0000 0.0000 0.0000 20.3835 0.0000 3.6341
# 5 -3.1455 2.7458 15.0095 0.0000 13.1571 0.0000
# 6 0.0000 0.0000 0.0000 3.6341 0.0000 45.8993
#
#
#
# Elastic Compliance Matrix: (Units=1/GPa)
#
#
# Indices 1 2 3 4 5 6 
#
# 1 0.009751 -0.002853 -0.000693 0.000000 0.003717 0.000000
# 2 -0.002853 0.008521 -0.004011 0.000000 0.002115 0.000000
# 3 -0.000693 -0.004011 0.020307 0.000000 -0.022495 0.000000
# 4 0.000000 0.000000 0.000000 0.049762 0.000000 -0.003940
# 5 0.003717 0.002115 -0.022495 0.000000 0.102114 0.000000
# 6 0.000000 0.000000 0.000000 -0.003940 0.000000 0.022099
#
#
# Mechanical properties :
#
#
# Convention : Reuss Voigt Hill
#
# Bulk Modulus (GPa) = 42.61380 56.95565 49.78472
# Shear Modulus (GPa) = 21.23234 32.56932 26.90083
#
# Velocity S-wave (km/s) = 3.10027 3.83976 3.48966
# Velocity P-wave (km/s) = 5.66625 6.74104 6.22687
#
# Compressibility (1/GPa) = 0.02346658
#
# Stress axis : x y z
#
# Youngs Moduli (GPa) = 102.54947 117.35489 49.24315
#
# Poissons Ratio (x) = 0.33485 0.03410
# Poissons Ratio (y) = 0.29261 0.19751
# Poissons Ratio (z) = 0.07102 0.47069
#
# Static dielectric constant tensor:
#      x y z
#    x 4.041740 0.000000 0.058390 
#    y 0.000000 4.040620 0.000000 
#    z 0.058390 0.000000 4.020660 
# 
# 
# High freq. dielectric constant tensor:
#      x y z
#    x 1.877730 0.000000 0.005030 
#    y 0.000000 1.877330 0.000000 
#    z 0.005030 0.000000 1.868700 
# 
# From -- ./inp_files/273081.got.cif
#   From: 2010.06.25/outbox.cif.g09.slc.cpg/sg15_137_cif.got.tgz:273081.got - 2010.06.28 07:06:18.
