data_PCOD8142571
_publ_section_title
;
Structure prediction by ZEFSAII (Michael W. Deem and Ramdas Pophale) SiO2 
 PCOD8142571
Probable space group: C 2/C
;
_chemical_formula_sum "Si O2"
_cell_formula_units_Z 36
_cell_length_a 12.135373
_cell_length_b 28.462930
_cell_length_c 14.003354
_cell_angle_alpha 90.000000
_cell_angle_beta 159.392185
_cell_angle_gamma 90.000000
_cell_volume 1702.431368
_symmetry_space_group_name_H-M "C 2/C"
_symmetry_group_IT_number 15
_symmetry_cell_setting 'monoclinic'
loop_
_space_group_symop_operation_xyz
x,y,z
-x,y,1/2-z
-x,-y,-z
x,-y,1/2+z
1/2+x,1/2+y,z
1/2-x,1/2+y,1/2-z
1/2-x,1/2-y,-z
1/2+x,1/2-y,1/2+z
loop_
_atom_site_type_symbol
_atom_site_label
_atom_site_fract_x
_atom_site_fract_y
_atom_site_fract_z
Si Si1 0.224788 0.873693 0.101606
Si Si2 0.595263 0.716506 0.086700
Si Si3 0.882782 0.427432 0.936841
Si Si4 0.643450 0.977278 0.970673
Si Si5 0.500000 0.217252 0.250000
O O1 0.500000 0.868237 0.250000
O O2 0.374839 0.888827 0.325006
O O3 0.048464 0.824189 0.965710
O O4 0.976149 0.910873 0.858552
O O5 0.803206 0.689678 0.172098
O O6 0.817770 0.750620 0.325904
O O7 0.979512 0.439937 0.907480
O O8 0.902863 0.471077 0.024655
O O9 0.500000 0.974704 0.750000
O O10 0.000000 0.962583 0.250000
O O11 0.750000 0.250000 0.500000
#
# Coordination Sequence:
#
# PCOD8142571 Si02
#       5
#     8   8   8   8   4
#     4  12  24  40  62  92 129 167 212 258 310 372
#     4  10  21  39  62  88 120 163 209 254 311 368
#     4  11  24  41  62  93 127 166 209 254 315 375
#     4  11  22  41  67  91 124 165 209 258 312 374
#     4   8  16  34  58  80 108 150 198 242 300 364
#
# _framework density 21.146227
#
# number of rings (size 3 to 8) (size 9 to 14) (size 15 to 20)
#    0.000    1.333    0.000    6.667    0.000    4.444 
#    6.000    0.000    0.000    0.000    0.000    0.000 
#    0.000    0.000    0.000    0.000    0.000    0.000 
#
# Total GULP energy -223139.341673 kJ/mol
# GULP energy per Si atom -12396.630093 kJ/mol
# Density = 2.109810 g / cm^3
# Si number density = 21.146227 Si / 1000 Ang^3
#
#
#
# Elastic Constant Matrix: (Units=GPa)
#
#
# Indices 1 2 3 4 5 6 
#
# 1 148.1281 60.3045 68.7031 -0.0003 -0.5139 0.0009
# 2 60.3045 81.6952 43.4444 -0.0006 12.2500 -0.0013
# 3 68.7031 43.4444 167.3812 -0.0033 -3.2330 0.0002
# 4 -0.0003 -0.0006 -0.0033 34.0984 0.0007 5.8449
# 5 -0.5139 12.2500 -3.2330 0.0007 46.4873 0.0018
# 6 0.0009 -0.0013 0.0002 5.8449 0.0018 27.2448
#
#
#
# Elastic Compliance Matrix: (Units=1/GPa)
#
#
# Indices 1 2 3 4 5 6 
#
# 1 0.010733 -0.006795 -0.002608 0.000000 0.001728 -0.000001
# 2 -0.006795 0.019287 -0.002320 0.000000 -0.005319 0.000002
# 3 -0.002608 -0.002320 0.007669 0.000001 0.001116 0.000000
# 4 0.000000 0.000000 0.000001 0.030446 0.000000 -0.006532
# 5 0.001728 -0.005319 0.001116 0.000000 0.023010 -0.000002
# 6 -0.000001 0.000002 0.000000 -0.006532 -0.000002 0.038106
#
#
# Mechanical properties :
#
#
# Convention : Reuss Voigt Hill
#
# Bulk Modulus (GPa) = 70.20962 82.45650 76.33306
# Shear Modulus (GPa) = 31.75725 36.54959 34.15342
#
# Velocity S-wave (km/s) = 3.87950 4.16194 4.02320
# Velocity P-wave (km/s) = 7.30352 7.88504 7.59984
#
# Compressibility (1/GPa) = 0.01424306
#
# Stress axis : x y z
#
# Youngs Moduli (GPa) = 93.17180 51.84730 130.39891
#
# Poissons Ratio (x) = 0.35228 0.34014
# Poissons Ratio (y) = 0.63306 0.30252
# Poissons Ratio (z) = 0.24304 0.12028
#
# Static dielectric constant tensor:
#      x y z
#    x 4.156580 0.000000 0.175860 
#    y 0.000000 3.559420 0.000000 
#    z 0.175860 0.000000 4.075080 
# 
# 
# High freq. dielectric constant tensor:
#      x y z
#    x 1.842060 0.000000 0.002820 
#    y 0.000000 1.802860 0.000000 
#    z 0.002820 0.000000 1.859750 
# 
# From -- ./inp_files/4401.got.cif
#   From: 2010.06.25/outbox.cif.g09.slc.cpg/sg15_3_cif.got.tgz:4401.got - 2010.06.28 07:06:18.
