data_PCOD8142488
_publ_section_title
;
Structure prediction by ZEFSAII (Michael W. Deem and Ramdas Pophale) SiO2 
 PCOD8142488
Probable space group: C 2/C
;
_chemical_formula_sum "Si O2"
_cell_formula_units_Z 48
_cell_length_a 12.670006
_cell_length_b 19.569145
_cell_length_c 13.662154
_cell_angle_alpha 90.000000
_cell_angle_beta 137.051077
_cell_angle_gamma 90.000000
_cell_volume 2307.999085
_symmetry_space_group_name_H-M "C 2/C"
_symmetry_group_IT_number 15
_symmetry_cell_setting 'monoclinic'
loop_
_space_group_symop_operation_xyz
x,y,z
-x,y,1/2-z
-x,-y,-z
x,-y,1/2+z
1/2+x,1/2+y,z
1/2-x,1/2+y,1/2-z
1/2-x,1/2-y,-z
1/2+x,1/2-y,1/2+z
loop_
_atom_site_type_symbol
_atom_site_label
_atom_site_fract_x
_atom_site_fract_y
_atom_site_fract_z
Si Si1 0.581609 0.954734 0.702634
Si Si2 0.908157 0.056556 0.494995
Si Si3 0.472103 0.913708 0.041089
Si Si4 0.422955 0.225712 0.802113
Si Si5 0.349835 0.558965 0.090442
Si Si6 0.098707 0.165749 0.538884
O O1 0.500000 0.939735 0.750000
O O2 0.754655 0.926073 0.829074
O O3 0.494644 0.917577 0.552977
O O4 0.583505 0.036078 0.679298
O O5 0.014597 0.125161 0.571928
O O6 0.864656 0.021316 0.569050
O O7 0.000000 0.000000 0.500000
O O8 0.495936 0.837994 0.092632
O O9 0.295739 0.937190 0.937229
O O10 0.500000 0.238477 0.750000
O O11 0.237212 0.214774 0.670416
O O12 0.462839 0.290906 0.895296
O O13 0.500000 0.583451 0.250000
O O14 0.326118 0.610279 0.983496
#
# Coordination Sequence:
#
# PCOD8142488 Si02
#       6
#     8   8   8   8   8   8
#     4  11  22  39  63  95 125 164 219 268 337 382
#     4  10  21  39  60  88 132 167 211 268 316 388
#     4  11  22  37  64  95 129 170 207 275 333 387
#     4  12  24  40  64  96 138 171 219 265 326 395
#     4  11  21  37  63  96 133 166 220 268 331 386
#     4  11  25  39  63  95 138 173 211 267 328 392
#
# _framework density 20.797236000000002
#
# number of rings (size 3 to 8) (size 9 to 14) (size 15 to 20)
#    0.000    1.000    3.333    5.500    4.667    1.333 
#    0.000    0.000    0.000    2.000    0.000    0.000 
#    0.000    0.000    0.000    0.000    0.000    0.000 
#
# Total GULP energy -297524.366205 kJ/mol
# GULP energy per Si atom -12396.848592 kJ/mol
# Density = 2.074990 g / cm^3
# Si number density = 20.797236 Si / 1000 Ang^3
#
#
#
# Elastic Constant Matrix: (Units=GPa)
#
#
# Indices 1 2 3 4 5 6 
#
# 1 88.9960 33.2549 48.4590 0.0000 2.5813 0.0000
# 2 33.2549 88.2789 25.5954 0.0000 1.1484 0.0000
# 3 48.4590 25.5954 91.2257 0.0000 14.3625 0.0000
# 4 0.0000 0.0000 0.0000 27.9011 0.0000 -1.3888
# 5 2.5813 1.1484 14.3625 0.0000 35.7500 0.0000
# 6 0.0000 0.0000 0.0000 -1.3888 0.0000 23.4007
#
#
#
# Elastic Compliance Matrix: (Units=1/GPa)
#
#
# Indices 1 2 3 4 5 6 
#
# 1 0.017264 -0.004105 -0.008373 0.000000 0.002249 0.000000
# 2 -0.004105 0.013345 -0.001647 0.000000 0.000529 0.000000
# 3 -0.008373 -0.001647 0.016833 0.000000 -0.006105 0.000000
# 4 0.000000 0.000000 0.000000 0.035947 0.000000 0.002133
# 5 0.002249 0.000529 -0.006105 0.000000 0.030245 0.000000
# 6 0.000000 0.000000 0.000000 0.002133 0.000000 0.042860
#
#
# Mechanical properties :
#
#
# Convention : Reuss Voigt Hill
#
# Bulk Modulus (GPa) = 52.10579 53.67994 52.89286
# Shear Modulus (GPa) = 26.15850 28.15645 27.15747
#
# Velocity S-wave (km/s) = 3.55038 3.68347 3.61754
# Velocity P-wave (km/s) = 6.47422 6.63006 6.55260
#
# Compressibility (1/GPa) = 0.01919173
#
# Stress axis : x y z
#
# Youngs Moduli (GPa) = 57.92255 74.93584 59.40739
#
# Poissons Ratio (x) = 0.30762 0.49743
# Poissons Ratio (y) = 0.23778 0.09784
# Poissons Ratio (z) = 0.48500 0.12341
#
# Static dielectric constant tensor:
#      x y z
#    x 3.918370 0.000000 0.091280 
#    y 0.000000 2.702270 0.000000 
#    z 0.091280 0.000000 3.732030 
# 
# 
# High freq. dielectric constant tensor:
#      x y z
#    x 1.803730 0.000000 0.014960 
#    y 0.000000 1.798000 0.000000 
#    z 0.014960 0.000000 1.818700 
# 
# From -- ./inp_files/89767.got.cif
#   From: 2010.06.25/outbox.cif.g09.slc.cpg/sg15_45_cif.got.tgz:89767.got - 2010.06.28 07:06:18.
