data_PCOD8142206
_publ_section_title
;
Structure prediction by ZEFSAII (Michael W. Deem and Ramdas Pophale) SiO2 
 PCOD8142206
Probable space group: C 2/C
;
_chemical_formula_sum "Si O2"
_cell_formula_units_Z 64
_cell_length_a 15.971417
_cell_length_b 10.568472
_cell_length_c 25.951084
_cell_angle_alpha 90.000000
_cell_angle_beta 136.692645
_cell_angle_gamma 90.000000
_cell_volume 3004.549816
_symmetry_space_group_name_H-M "C 2/C"
_symmetry_group_IT_number 15
_symmetry_cell_setting 'monoclinic'
loop_
_space_group_symop_operation_xyz
x,y,z
-x,y,1/2-z
-x,-y,-z
x,-y,1/2+z
1/2+x,1/2+y,z
1/2-x,1/2+y,1/2-z
1/2-x,1/2-y,-z
1/2+x,1/2-y,1/2+z
loop_
_atom_site_type_symbol
_atom_site_label
_atom_site_fract_x
_atom_site_fract_y
_atom_site_fract_z
Si Si1 0.811594 0.545788 0.532243
Si Si2 0.054785 0.709764 0.222591
Si Si3 0.276509 0.873612 0.360915
Si Si4 0.563770 0.966249 0.639152
Si Si5 0.794012 0.239301 0.942569
Si Si6 0.896981 0.112517 0.583504
Si Si7 0.521296 0.241603 0.476001
Si Si8 0.889470 0.926533 0.662340
O O1 0.831258 0.641427 0.493951
O O2 0.724509 0.608592 0.535828
O O3 0.750529 0.408437 0.489356
O O4 0.945929 0.525545 0.614736
O O5 0.161620 0.802016 0.286549
O O6 0.120309 0.615961 0.211117
O O7 0.000000 0.645179 0.250000
O O8 0.939543 0.781640 0.143729
O O9 0.367655 0.783880 0.434527
O O10 0.343185 0.930300 0.340237
O O11 0.224838 0.984508 0.373395
O O12 0.512907 0.887686 0.567913
O O13 0.663056 0.283297 0.859608
O O14 0.900196 0.210144 0.950078
O O15 0.950649 0.144922 0.551553
O O16 0.934855 0.974324 0.625528
O O17 0.000000 0.939322 0.750000
#
# Coordination Sequence:
#
# PCOD8142206 Si02
#       8
#     8   8   8   8   8   8   8   8
#     4  10  22  40  64  90 126 165 208 260 316 371
#     4  11  24  42  62  92 127 167 213 258 318 385
#     4  12  21  41  64  94 125 170 207 265 309 377
#     4  11  24  41  65  95 127 163 212 264 315 374
#     4  10  21  41  62  95 125 162 214 256 310 388
#     4  10  21  38  63  94 123 161 209 264 312 373
#     4  11  22  36  69  98 121 161 215 266 314 369
#     4  11  20  39  66  89 124 172 213 257 317 376
#
# _framework density 21.301029
#
# number of rings (size 3 to 8) (size 9 to 14) (size 15 to 20)
#    0.000    1.250    5.000    1.875    1.750    2.000 
#    4.500    3.125    0.000    0.000    0.000    0.000 
#    0.000    0.000    0.000    0.000    0.000    0.000 
#
# Total GULP energy -396433.828139 kJ/mol
# GULP energy per Si atom -12388.557129 kJ/mol
# Density = 2.125255 g / cm^3
# Si number density = 21.301029 Si / 1000 Ang^3
#
#
#
# Elastic Constant Matrix: (Units=GPa)
#
#
# Indices 1 2 3 4 5 6 
#
# 1 127.8320 37.7805 48.9423 0.0000 -9.9046 0.0000
# 2 37.7805 38.6126 28.2337 0.0000 -9.1129 0.0000
# 3 48.9423 28.2337 85.0769 0.0000 -4.6732 0.0000
# 4 0.0000 0.0000 0.0000 18.2996 0.0000 -3.5742
# 5 -9.9046 -9.1129 -4.6732 0.0000 25.4257 0.0000
# 6 0.0000 0.0000 0.0000 -3.5742 0.0000 26.0659
#
#
#
# Elastic Compliance Matrix: (Units=1/GPa)
#
#
# Indices 1 2 3 4 5 6 
#
# 1 0.011948 -0.008581 -0.003979 0.000000 0.000847 0.000000
# 2 -0.008581 0.043240 -0.008835 0.000000 0.010531 0.000000
# 3 -0.003979 -0.008835 0.016886 0.000000 -0.001613 0.000000
# 4 0.000000 0.000000 0.000000 0.056150 0.000000 0.007699
# 5 0.000847 0.010531 -0.001613 0.000000 0.043139 0.000000
# 6 0.000000 0.000000 0.000000 0.007699 0.000000 0.039420
#
#
# Mechanical properties :
#
#
# Convention : Reuss Voigt Hill
#
# Bulk Modulus (GPa) = 34.14765 53.49273 43.82019
# Shear Modulus (GPa) = 18.98731 23.06257 21.02494
#
# Velocity S-wave (km/s) = 2.98884 3.29401 3.14513
# Velocity P-wave (km/s) = 5.28930 6.29560 5.81426
#
# Compressibility (1/GPa) = 0.02928459
#
# Stress axis : x y z
#
# Youngs Moduli (GPa) = 83.69629 23.12685 59.21912
#
# Poissons Ratio (x) = 0.19845 0.23564
# Poissons Ratio (y) = 0.71819 0.52319
# Poissons Ratio (z) = 0.33303 0.20432
#
# Static dielectric constant tensor:
#      x y z
#    x 4.094560 0.000000 -0.063800 
#    y 0.000000 3.682120 0.000000 
#    z -0.063800 0.000000 3.920690 
# 
# 
# High freq. dielectric constant tensor:
#      x y z
#    x 1.839340 0.000000 -0.002770 
#    y 0.000000 1.809630 0.000000 
#    z -0.002770 0.000000 1.837680 
# 
# From -- ./inp_files/296175.got.cif
#   From: 2010.06.25/outbox.cif.g09.slc.cpg/sg15_149_cif.got.tgz:296175.got - 2010.06.28 07:06:18.
