data_PCOD8142942
_publ_section_title
;
Structure prediction by ZEFSAII (Michael W. Deem and Ramdas Pophale) SiO2 
 PCOD8142942
Probable space group: C 2/C
;
_chemical_formula_sum "Si O2"
_cell_formula_units_Z 28
_cell_length_a 7.603338
_cell_length_b 16.825301
_cell_length_c 13.211218
_cell_angle_alpha 90.000000
_cell_angle_beta 133.620377
_cell_angle_gamma 90.000000
_cell_volume 1223.501501
_symmetry_space_group_name_H-M "C 2/C"
_symmetry_group_IT_number 15
_symmetry_cell_setting 'monoclinic'
loop_
_space_group_symop_operation_xyz
x,y,z
-x,y,1/2-z
-x,-y,-z
x,-y,1/2+z
1/2+x,1/2+y,z
1/2-x,1/2+y,1/2-z
1/2-x,1/2-y,-z
1/2+x,1/2-y,1/2+z
loop_
_atom_site_type_symbol
_atom_site_label
_atom_site_fract_x
_atom_site_fract_y
_atom_site_fract_z
Si Si1 0.554607 0.987248 0.637668
Si Si2 0.000000 0.751591 0.250000
Si Si3 0.327317 0.607754 0.389897
Si Si4 0.243500 0.645093 0.812469
O O1 0.307874 0.955980 0.591611
O O2 0.771109 0.923326 0.752388
O O3 0.500000 0.000000 0.500000
O O4 0.633346 0.072522 0.707417
O O5 0.773495 0.696351 0.130716
O O6 0.927603 0.805319 0.316825
O O7 0.610624 0.612156 0.531060
O O8 0.000000 0.694466 0.750000
#
# Coordination Sequence:
#
# PCOD8142942 Si02
#       4
#     8   4   8   8
#     4  10  21  39  68  96 129 181 219 271 338 391
#     4  10  24  44  70  94 138 182 216 280 350 386
#     4  10  23  46  64  96 143 174 219 285 336 397
#     4  12  23  41  71  99 133 176 229 275 329 407
#
# _framework density 22.885137
#
# number of rings (size 3 to 8) (size 9 to 14) (size 15 to 20)
#    0.000    1.714    2.857    3.429    0.000    3.429 
#    0.000    0.000    3.143    0.000    0.000    0.000 
#    0.000    0.000    0.000    0.000    0.000    0.000 
#
# Total GULP energy -173432.989158 kJ/mol
# GULP energy per Si atom -12388.070654 kJ/mol
# Density = 2.283305 g / cm^3
# Si number density = 22.885137 Si / 1000 Ang^3
#
#
#
# Elastic Constant Matrix: (Units=GPa)
#
#
# Indices 1 2 3 4 5 6 
#
# 1 69.7080 32.3393 70.4802 0.0000 -6.9081 0.0001
# 2 32.3393 101.9326 40.0073 0.0000 -4.4106 0.0000
# 3 70.4802 40.0073 213.6561 0.0001 -7.7701 0.0002
# 4 0.0000 0.0000 0.0001 19.1328 0.0001 -4.8931
# 5 -6.9081 -4.4106 -7.7701 0.0001 36.5824 0.0001
# 6 0.0001 0.0000 0.0002 -4.8931 0.0001 20.3132
#
#
#
# Elastic Compliance Matrix: (Units=1/GPa)
#
#
# Indices 1 2 3 4 5 6 
#
# 1 0.023702 -0.004727 -0.006844 0.000000 0.002452 0.000000
# 2 -0.004727 0.011558 -0.000591 0.000000 0.000375 0.000000
# 3 -0.006844 -0.000591 0.007054 0.000000 0.000134 0.000000
# 4 0.000000 0.000000 0.000000 0.055698 0.000000 0.013417
# 5 0.002452 0.000375 0.000134 0.000000 0.027872 0.000000
# 6 0.000000 0.000000 0.000000 0.013417 0.000000 0.052461
#
#
# Mechanical properties :
#
#
# Convention : Reuss Voigt Hill
#
# Bulk Modulus (GPa) = 55.59137 74.55002 65.07069
# Shear Modulus (GPa) = 23.96163 31.37033 27.66598
#
# Velocity S-wave (km/s) = 3.23931 3.70641 3.48070
# Velocity P-wave (km/s) = 6.19153 7.13884 6.68200
#
# Compressibility (1/GPa) = 0.01798840
#
# Stress axis : x y z
#
# Youngs Moduli (GPa) = 42.19094 86.51647 141.76746
#
# Poissons Ratio (x) = 0.40898 0.97030
# Poissons Ratio (y) = 0.19945 0.08382
# Poissons Ratio (z) = 0.28877 0.05116
#
# Static dielectric constant tensor:
#      x y z
#    x 4.746600 0.000000 0.356220 
#    y 0.000000 4.274010 0.000000 
#    z 0.356220 0.000000 4.534250 
# 
# 
# High freq. dielectric constant tensor:
#      x y z
#    x 1.871570 0.000000 0.011370 
#    y 0.000000 1.908310 0.000000 
#    z 0.011370 0.000000 1.923920 
# 
# From -- ./inp_files/133336.got.cif
#   From: 2010.06.25/outbox.cif.g09.slc.cpg/sg15_67_cif.got.tgz:133336.got - 2010.06.28 07:06:18.
