data_PCOD8142897
_publ_section_title
;
Structure prediction by ZEFSAII (Michael W. Deem and Ramdas Pophale) SiO2 
 PCOD8142897
Probable space group: C 2/C
;
_chemical_formula_sum "Si O2"
_cell_formula_units_Z 40
_cell_length_a 25.217556
_cell_length_b 16.865519
_cell_length_c 5.099751
_cell_angle_alpha 90.000000
_cell_angle_beta 117.317399
_cell_angle_gamma 90.000000
_cell_volume 1927.073646
_symmetry_space_group_name_H-M "C 2/C"
_symmetry_group_IT_number 15
_symmetry_cell_setting 'monoclinic'
loop_
_space_group_symop_operation_xyz
x,y,z
-x,y,1/2-z
-x,-y,-z
x,-y,1/2+z
1/2+x,1/2+y,z
1/2-x,1/2+y,1/2-z
1/2-x,1/2-y,-z
1/2+x,1/2-y,1/2+z
loop_
_atom_site_type_symbol
_atom_site_label
_atom_site_fract_x
_atom_site_fract_y
_atom_site_fract_z
Si Si1 0.900885 0.054121 0.644069
Si Si2 0.500000 0.054845 0.250000
Si Si3 0.197124 0.825069 0.661853
Si Si4 0.000000 0.823590 0.250000
Si Si5 0.051003 0.319300 0.165502
Si Si6 0.675938 0.774403 0.614015
O O1 0.834749 0.092139 0.479253
O O2 0.950194 0.122954 0.776900
O O3 0.910424 0.999314 0.416966
O O4 0.554072 0.118089 0.428103
O O5 0.500000 0.000000 0.500000
O O6 0.268829 0.834832 0.807200
O O7 0.176773 0.758118 0.410529
O O8 0.178804 0.797726 0.912070
O O9 0.034626 0.769663 0.539125
O O10 0.114887 0.322345 0.448527
O O11 0.000000 0.349864 0.250000
#
# Coordination Sequence:
#
# PCOD8142897 Si02
#       6
#     8   4   8   4   8   8
#     4  12  25  40  60  88 136 176 207 260 320 370
#     4  11  24  44  60  91 132 160 196 257 344 390
#     4  10  21  41  62  89 123 161 217 266 310 372
#     4  11  24  38  60  97 130 170 226 253 304 386
#     4  11  23  39  71  97 126 166 215 269 311 384
#     4  10  21  39  67  92 117 159 214 274 312 357
#
# _framework density 20.756861000000001
#
# number of rings (size 3 to 8) (size 9 to 14) (size 15 to 20)
#    0.000    1.200    3.000    3.000    5.600    0.000 
#    0.000    2.000    0.000    0.000    0.000    0.000 
#    0.000    0.000    0.000    0.000    0.000    0.000 
#
# Total GULP energy -247917.766089 kJ/mol
# GULP energy per Si atom -12395.888304 kJ/mol
# Density = 2.070962 g / cm^3
# Si number density = 20.756861 Si / 1000 Ang^3
#
#
#
# Elastic Constant Matrix: (Units=GPa)
#
#
# Indices 1 2 3 4 5 6 
#
# 1 102.6249 46.2612 54.1782 0.0000 23.9830 0.0000
# 2 46.2612 116.2986 46.5742 0.0000 8.8660 0.0000
# 3 54.1782 46.5742 124.4860 0.0000 13.7744 0.0000
# 4 0.0000 0.0000 0.0000 21.2400 0.0000 -6.0589
# 5 23.9830 8.8660 13.7744 0.0000 47.3856 0.0000
# 6 0.0000 0.0000 0.0000 -6.0589 0.0000 30.3583
#
#
#
# Elastic Compliance Matrix: (Units=1/GPa)
#
#
# Indices 1 2 3 4 5 6 
#
# 1 0.015178 -0.003778 -0.004567 0.000000 -0.005648 0.000000
# 2 -0.003778 0.011085 -0.002568 0.000000 0.000584 0.000000
# 3 -0.004567 -0.002568 0.011027 0.000000 -0.000413 0.000000
# 4 0.000000 0.000000 0.000000 0.049923 0.000000 0.009964
# 5 -0.005648 0.000584 -0.000413 0.000000 0.023973 0.000000
# 6 0.000000 0.000000 0.000000 0.009964 0.000000 0.034928
#
#
# Mechanical properties :
#
#
# Convention : Reuss Voigt Hill
#
# Bulk Modulus (GPa) = 64.66481 70.82632 67.74557
# Shear Modulus (GPa) = 28.88567 32.88983 30.88775
#
# Velocity S-wave (km/s) = 3.73449 3.98493 3.86174
# Velocity P-wave (km/s) = 7.05807 7.44103 7.25208
#
# Compressibility (1/GPa) = 0.01546436
#
# Stress axis : x y z
#
# Youngs Moduli (GPa) = 65.88329 90.21120 90.68414
#
# Poissons Ratio (x) = 0.34081 0.41420
# Poissons Ratio (y) = 0.24890 0.23285
# Poissons Ratio (z) = 0.30092 0.23164
#
# Static dielectric constant tensor:
#      x y z
#    x 3.671670 0.000000 0.153770 
#    y 0.000000 3.817630 0.000000 
#    z 0.153770 0.000000 4.039310 
# 
# 
# High freq. dielectric constant tensor:
#      x y z
#    x 1.801320 0.000000 -0.000420 
#    y 0.000000 1.796580 0.000000 
#    z -0.000420 0.000000 1.839460 
# 
# From -- ./inp_files/12824.got.cif
#   From: 2010.06.25/outbox.cif.g09.slc.cpg/sg15_7_cif.got.tgz:12824.got - 2010.06.28 07:06:18.
