data_PCOD8142045
_publ_section_title
;
Structure prediction by ZEFSAII (Michael W. Deem and Ramdas Pophale) SiO2 
 PCOD8142045
Probable space group: C 2/C
;
_chemical_formula_sum "Si O2"
_cell_formula_units_Z 40
_cell_length_a 27.252591
_cell_length_b 13.511511
_cell_length_c 15.137084
_cell_angle_alpha 90.000000
_cell_angle_beta 18.805206
_cell_angle_gamma 90.000000
_cell_volume 1796.734531
_symmetry_space_group_name_H-M "C 2/C"
_symmetry_group_IT_number 15
_symmetry_cell_setting 'monoclinic'
loop_
_space_group_symop_operation_xyz
x,y,z
-x,y,1/2-z
-x,-y,-z
x,-y,1/2+z
1/2+x,1/2+y,z
1/2-x,1/2+y,1/2-z
1/2-x,1/2-y,-z
1/2+x,1/2-y,1/2+z
loop_
_atom_site_type_symbol
_atom_site_label
_atom_site_fract_x
_atom_site_fract_y
_atom_site_fract_z
Si Si1 0.325509 0.415043 0.683472
Si Si2 0.500000 0.972502 0.250000
Si Si3 0.913767 0.234931 0.179092
Si Si4 0.549870 0.145963 0.040321
Si Si5 0.389264 0.629946 0.520105
Si Si6 0.500000 0.696007 0.750000
O O1 0.411834 0.356415 0.613347
O O2 0.369181 0.530455 0.612200
O O3 0.366933 0.373181 0.515639
O O4 0.144988 0.401572 0.005461
O O5 0.499204 0.038248 0.341722
O O6 0.750000 0.250000 0.500000
O O7 0.963257 0.336416 0.042830
O O8 0.038026 0.214184 0.042020
O O9 0.726330 0.169172 0.764720
O O10 0.442851 0.228741 0.270136
O O11 0.500000 0.607198 0.250000
#
# Coordination Sequence:
#
# PCOD8142045 Si02
#       6
#     8   4   8   8   8   4
#     4  10  21  38  61  88 119 154 201 240 295 353
#     4   9  20  40  64  85 120 162 190 247 296 344
#     4  11  22  36  59  92 119 154 201 243 290 355
#     4   9  20  39  59  84 123 157 196 241 293 352
#     4  11  20  37  60  85 119 159 192 241 296 344
#     4   9  18  36  60  85 116 156 194 243 292 342
#
# _framework density 22.262609000000001
#
# number of rings (size 3 to 8) (size 9 to 14) (size 15 to 20)
#    0.000    2.000    3.000    0.600    0.000    3.200 
#    0.000   19.000    0.000    0.000    0.000    0.000 
#    0.000    0.000    0.000    0.000    0.000    0.000 
#
# Total GULP energy -247882.159778 kJ/mol
# GULP energy per Si atom -12394.107989 kJ/mol
# Density = 2.221194 g / cm^3
# Si number density = 22.262609 Si / 1000 Ang^3
#
#
#
# Elastic Constant Matrix: (Units=GPa)
#
#
# Indices 1 2 3 4 5 6 
#
# 1 70.9433 7.3612 26.9515 0.0002 5.8543 -0.0001
# 2 7.3612 34.8064 3.5892 0.0004 -1.7840 -0.0004
# 3 26.9515 3.5892 111.0852 0.0003 7.8828 -0.0004
# 4 0.0002 0.0004 0.0003 34.0383 -0.0003 5.3767
# 5 5.8543 -1.7840 7.8828 -0.0003 34.6132 0.0002
# 6 -0.0001 -0.0004 -0.0004 5.3767 0.0002 25.7706
#
#
#
# Elastic Compliance Matrix: (Units=1/GPa)
#
#
# Indices 1 2 3 4 5 6 
#
# 1 0.015964 -0.003106 -0.003629 0.000000 -0.002034 0.000000
# 2 -0.003106 0.029533 -0.000352 0.000000 0.002128 0.000000
# 3 -0.003629 -0.000352 0.010013 0.000000 -0.001685 0.000000
# 4 0.000000 0.000000 0.000000 0.030380 0.000000 -0.006338
# 5 -0.002034 0.002128 -0.001685 0.000000 0.029728 0.000000
# 6 0.000000 0.000000 0.000000 -0.006338 0.000000 0.040126
#
#
# Mechanical properties :
#
#
# Convention : Reuss Voigt Hill
#
# Bulk Modulus (GPa) = 24.19113 32.51542 28.35327
# Shear Modulus (GPa) = 27.21875 30.81329 29.01602
#
# Velocity S-wave (km/s) = 3.50039 3.72436 3.61411
# Velocity P-wave (km/s) = 5.21794 5.75601 5.49356
#
# Compressibility (1/GPa) = 0.04133747
#
# Stress axis : x y z
#
# Youngs Moduli (GPa) = 62.63920 33.86082 99.86633
#
# Poissons Ratio (x) = 0.10518 0.36238
# Poissons Ratio (y) = 0.19458 0.03511
# Poissons Ratio (z) = 0.22729 0.01190
#
# Static dielectric constant tensor:
#      x y z
#    x 3.882740 0.000000 0.432760 
#    y 0.000000 3.950970 0.000000 
#    z 0.432760 0.000000 4.218100 
# 
# 
# High freq. dielectric constant tensor:
#      x y z
#    x 1.847170 0.000000 0.034680 
#    y 0.000000 1.877350 0.000000 
#    z 0.034680 0.000000 1.885280 
# 
# From -- ./inp_files/86014.got.cif
#   From: 2010.06.25/outbox.cif.g09.slc.cpg/sg15_44_cif.got.tgz:86014.got - 2010.06.28 07:06:18.
