data_PCOD8142209
_publ_section_title
;
Structure prediction by ZEFSAII (Michael W. Deem and Ramdas Pophale) SiO2 
 PCOD8142209
Probable space group: C 2/C
;
_chemical_formula_sum "Si O2"
_cell_formula_units_Z 48
_cell_length_a 18.344810
_cell_length_b 16.313215
_cell_length_c 14.367637
_cell_angle_alpha 90.000000
_cell_angle_beta 32.726651
_cell_angle_gamma 90.000000
_cell_volume 2324.553913
_symmetry_space_group_name_H-M "C 2/C"
_symmetry_group_IT_number 15
_symmetry_cell_setting 'monoclinic'
loop_
_space_group_symop_operation_xyz
x,y,z
-x,y,1/2-z
-x,-y,-z
x,-y,1/2+z
1/2+x,1/2+y,z
1/2-x,1/2+y,1/2-z
1/2-x,1/2-y,-z
1/2+x,1/2-y,1/2+z
loop_
_atom_site_type_symbol
_atom_site_label
_atom_site_fract_x
_atom_site_fract_y
_atom_site_fract_z
Si Si1 0.679400 0.203644 0.700766
Si Si2 0.349191 0.468388 0.684047
Si Si3 0.130336 0.136303 0.159080
Si Si4 0.987838 0.294914 0.655417
Si Si5 0.402964 0.071793 0.575993
Si Si6 0.273150 0.697740 0.180812
O O1 0.756068 0.150944 0.540427
O O2 0.592327 0.275981 0.746420
O O3 0.583985 0.139132 0.855814
O O4 0.773404 0.251966 0.675848
O O5 0.500000 0.500000 0.500000
O O6 0.329797 0.432712 0.808813
O O7 0.251255 0.545926 0.775566
O O8 0.294823 0.399023 0.672333
O O9 0.000000 0.099647 0.250000
O O10 0.834595 0.285727 0.784452
O O11 0.000000 0.276218 0.750000
O O12 0.041693 0.386712 0.577508
O O13 0.079670 0.229053 0.504841
O O14 0.500000 0.000000 0.500000
#
# Coordination Sequence:
#
# PCOD8142209 Si02
#       6
#     8   8   8   8   8   8
#     4   9  22  37  64  90 121 163 212 260 315 368
#     4  11  24  42  63  94 133 173 205 259 330 387
#     4  10  21  38  63  95 121 158 221 263 305 373
#     4  11  24  43  66  94 124 166 225 262 316 388
#     4  11  23  41  64  88 131 170 201 258 328 382
#     4  10  23  42  69  90 126 169 214 267 320 382
#
# _framework density 20.649122999999999
#
# number of rings (size 3 to 8) (size 9 to 14) (size 15 to 20)
#    0.000    1.667    1.667    1.500   11.667    2.667 
#    3.000    0.000    0.000    0.000    0.000    0.000 
#    0.000    0.000    0.000    0.000    0.000    0.000 
#
# Total GULP energy -297492.953046 kJ/mol
# GULP energy per Si atom -12395.539710 kJ/mol
# Density = 2.060212 g / cm^3
# Si number density = 20.649123 Si / 1000 Ang^3
#
#
#
# Elastic Constant Matrix: (Units=GPa)
#
#
# Indices 1 2 3 4 5 6 
#
# 1 111.2499 16.5451 27.5895 0.0000 -0.4128 0.0001
# 2 16.5451 77.5221 20.1099 0.0000 4.7709 0.0001
# 3 27.5895 20.1099 69.5491 0.0001 -1.3855 0.0002
# 4 0.0000 0.0000 0.0001 13.7087 -0.0001 -19.5327
# 5 -0.4128 4.7709 -1.3855 -0.0001 42.5416 0.0000
# 6 0.0001 0.0001 0.0002 -19.5327 0.0000 14.1580
#
#
#
# Elastic Compliance Matrix: (Units=1/GPa)
#
#
# Indices 1 2 3 4 5 6 
#
# 1 0.010073 -0.001212 -0.003643 0.000000 0.000115 0.000000
# 2 -0.001212 0.014215 -0.003664 0.000000 -0.001725 0.000000
# 3 -0.003643 -0.003664 0.016901 0.000000 0.000926 0.000000
# 4 0.000000 0.000000 0.000000 -0.075534 0.000000 -0.104209
# 5 0.000115 -0.001725 0.000926 0.000000 0.023731 0.000000
# 6 0.000000 0.000000 0.000000 -0.104209 0.000000 -0.073137
#
#
# Mechanical properties :
#
#
# Convention : Reuss Voigt Hill
#
# Bulk Modulus (GPa) = 41.40528 42.97888 42.19208
# Shear Modulus (GPa) = -85.23245 27.02011 -29.10617
#
# Velocity S-wave (km/s) = -6.43165 3.62129 -3.75848
# Velocity P-wave (km/s) = 5.92111 6.19226 1.28152
#
# Compressibility (1/GPa) = 0.02415151
#
# Stress axis : x y z
#
# Youngs Moduli (GPa) = 99.27623 70.34935 59.16682
#
# Poissons Ratio (x) = 0.08525 0.21555
# Poissons Ratio (y) = 0.12030 0.21678
# Poissons Ratio (z) = 0.36168 0.25775
#
# Static dielectric constant tensor:
#      x y z
#    x 3.930640 0.000000 0.210250 
#    y 0.000000 3.877400 0.000000 
#    z 0.210250 0.000000 3.773720 
# 
# 
# High freq. dielectric constant tensor:
#      x y z
#    x 1.811000 0.000000 0.003300 
#    y 0.000000 1.812140 0.000000 
#    z 0.003300 0.000000 1.800710 
# 
# From -- ./inp_files/163169.got.cif
#   From: 2010.06.25/outbox.cif.g09.slc.cpg/sg15_82_cif.got.tgz:163169.got - 2010.06.28 07:06:18.
