data_PCOD8142372
_publ_section_title
;
Structure prediction by ZEFSAII (Michael W. Deem and Ramdas Pophale) SiO2 
 PCOD8142372
Probable space group: C 2/C
;
_chemical_formula_sum "Si O2"
_cell_formula_units_Z 24
_cell_length_a 9.035725
_cell_length_b 24.405640
_cell_length_c 5.059692
_cell_angle_alpha 90.000000
_cell_angle_beta 59.617455
_cell_angle_gamma 90.000000
_cell_volume 962.544617
_symmetry_space_group_name_H-M "C 2/C"
_symmetry_group_IT_number 15
_symmetry_cell_setting 'monoclinic'
loop_
_space_group_symop_operation_xyz
x,y,z
-x,y,1/2-z
-x,-y,-z
x,-y,1/2+z
1/2+x,1/2+y,z
1/2-x,1/2+y,1/2-z
1/2-x,1/2-y,-z
1/2+x,1/2-y,1/2+z
loop_
_atom_site_type_symbol
_atom_site_label
_atom_site_fract_x
_atom_site_fract_y
_atom_site_fract_z
Si Si1 0.000000 0.804628 0.250000
Si Si2 0.500000 0.768917 0.250000
Si Si3 0.306416 0.973694 0.357640
Si Si4 0.668366 0.143608 0.914715
O O1 0.050533 0.767503 0.453827
O O2 0.832300 0.842378 0.451761
O O3 0.347067 0.808865 0.292774
O O4 0.500000 0.993399 0.250000
O O5 0.296000 0.911010 0.282055
O O6 0.215911 0.986407 0.721216
O O7 0.500000 0.138136 0.250000
#
# Coordination Sequence:
#
# PCOD8142372 Si02
#       4
#     4   4   8   8
#     4  12  30  44  66 102 140 170 230 278 322 396
#     4  12  26  46  68 100 134 182 224 272 330 398
#     4  10  21  38  67  99 128 169 222 270 327 397
#     4  12  26  45  72  99 134 181 221 273 338 394
#
# _framework density 24.933907999999999
#
# number of rings (size 3 to 8) (size 9 to 14) (size 15 to 20)
#    0.000    0.667    3.333    5.000    4.667    0.000 
#    0.000    1.667    0.000    0.000    0.000    2.333 
#    0.000    0.000    0.000    0.000    0.000    0.000 
#
# Total GULP energy -148682.363458 kJ/mol
# GULP energy per Si atom -12390.196955 kJ/mol
# Density = 2.487716 g / cm^3
# Si number density = 24.933908 Si / 1000 Ang^3
#
#
#
# Elastic Constant Matrix: (Units=GPa)
#
#
# Indices 1 2 3 4 5 6 
#
# 1 123.4530 74.8053 52.1774 0.0000 7.0043 0.0000
# 2 74.8053 156.5202 66.4287 0.0000 18.6883 0.0000
# 3 52.1774 66.4287 110.8889 0.0000 40.0828 0.0000
# 4 0.0000 0.0000 0.0000 11.0507 0.0000 35.9589
# 5 7.0043 18.6883 40.0828 0.0000 46.1141 0.0000
# 6 0.0000 0.0000 0.0000 35.9589 0.0000 36.9884
#
#
#
# Elastic Compliance Matrix: (Units=1/GPa)
#
#
# Indices 1 2 3 4 5 6 
#
# 1 0.012571 -0.004510 -0.004643 0.000000 0.003954 0.000000
# 2 -0.004510 0.010251 -0.004032 0.000000 0.000035 0.000000
# 3 -0.004643 -0.004032 0.018624 0.000000 -0.013849 0.000000
# 4 0.000000 0.000000 0.000000 -0.041828 0.000000 0.040664
# 5 0.003954 0.000035 -0.013849 0.000000 0.033108 0.000000
# 6 0.000000 0.000000 0.000000 0.040664 0.000000 -0.012497
#
#
# Mechanical properties :
#
#
# Convention : Reuss Voigt Hill
#
# Bulk Modulus (GPa) = 66.32298 86.40945 76.36621
# Shear Modulus (GPa) = 96.85717 31.99402 64.42559
#
# Velocity S-wave (km/s) = 6.23938 3.58600 5.08868
# Velocity P-wave (km/s) = 8.86362 7.20253 8.07590
#
# Compressibility (1/GPa) = 0.01507773
#
# Stress axis : x y z
#
# Youngs Moduli (GPa) = 79.55043 97.55024 53.69511
#
# Poissons Ratio (x) = 0.43991 0.24928
# Poissons Ratio (y) = 0.35874 0.21648
# Poissons Ratio (z) = 0.36932 0.39330
#
# Static dielectric constant tensor:
#      x y z
#    x 4.411160 0.000000 0.520340 
#    y 0.000000 4.471100 0.000000 
#    z 0.520340 0.000000 4.453810 
# 
# 
# High freq. dielectric constant tensor:
#      x y z
#    x 1.986830 0.000000 0.040540 
#    y 0.000000 2.000540 0.000000 
#    z 0.040540 0.000000 1.980070 
# 
# From -- ./inp_files/1608.got.cif
#   From: 2010.06.25/outbox.cif.g09.slc.cpg/sg15_1_cif.got.tgz:1608.got - 2010.06.28 07:06:18.
