data_PCOD8142195
_publ_section_title
;
Structure prediction by ZEFSAII (Michael W. Deem and Ramdas Pophale) SiO2 
 PCOD8142195
Probable space group: C 2/C
;
_chemical_formula_sum "Si O2"
_cell_formula_units_Z 56
_cell_length_a 19.240582
_cell_length_b 20.653866
_cell_length_c 9.682773
_cell_angle_alpha 90.000000
_cell_angle_beta 136.265163
_cell_angle_gamma 90.000000
_cell_volume 2660.110034
_symmetry_space_group_name_H-M "C 2/C"
_symmetry_group_IT_number 15
_symmetry_cell_setting 'monoclinic'
loop_
_space_group_symop_operation_xyz
x,y,z
-x,y,1/2-z
-x,-y,-z
x,-y,1/2+z
1/2+x,1/2+y,z
1/2-x,1/2+y,1/2-z
1/2-x,1/2-y,-z
1/2+x,1/2-y,1/2+z
loop_
_atom_site_type_symbol
_atom_site_label
_atom_site_fract_x
_atom_site_fract_y
_atom_site_fract_z
Si Si1 0.304162 0.373543 0.404870
Si Si2 0.391171 0.841983 0.909827
Si Si3 0.818586 0.124201 0.431438
Si Si4 0.070597 0.007296 0.468006
Si Si5 0.596104 0.688510 0.198644
Si Si6 0.390532 0.162730 0.734564
Si Si7 0.879867 0.201055 0.784230
O O1 0.338399 0.441970 0.386957
O O2 0.385772 0.341813 0.624983
O O3 0.197476 0.381418 0.328185
O O4 0.291570 0.326081 0.255909
O O5 0.302343 0.889157 0.725735
O O6 0.380744 0.778226 0.798626
O O7 0.504800 0.869834 0.060804
O O8 0.379453 0.828881 0.055400
O O9 0.882307 0.058943 0.522544
O O10 0.824606 0.157044 0.291055
O O11 0.861736 0.175704 0.603567
O O12 0.000000 0.036541 0.250000
O O13 0.000000 0.000000 0.500000
O O14 0.615671 0.764581 0.218983
O O15 0.484011 0.670298 0.989143
#
# Coordination Sequence:
#
# PCOD8142195 Si02
#       7
#     8   8   8   8   8   8   8
#     4  12  21  38  63  87 117 164 206 245 294 351
#     4  10  21  39  61  90 120 152 201 256 304 355
#     4  12  23  39  57  87 127 163 195 243 309 361
#     4  12  26  42  60  89 125 162 205 248 294 364
#     4  11  20  36  63  90 121 156 202 245 301 363
#     4  10  21  38  63  93 113 151 211 256 291 357
#     4  11  22  35  58  92 126 155 189 252 315 368
#
# _framework density 21.051760999999999
#
# number of rings (size 3 to 8) (size 9 to 14) (size 15 to 20)
#    0.000    0.857    2.857    6.857    0.000    0.000 
#    0.000    2.857    0.000    0.000    0.000    0.000 
#    0.000    0.000    0.000    0.000    0.000    0.000 
#
# Total GULP energy -347006.710242 kJ/mol
# GULP energy per Si atom -12393.096794 kJ/mol
# Density = 2.100385 g / cm^3
# Si number density = 21.051761 Si / 1000 Ang^3
#
#
#
# Elastic Constant Matrix: (Units=GPa)
#
#
# Indices 1 2 3 4 5 6 
#
# 1 103.1197 42.3634 21.6569 0.0000 16.6543 0.0000
# 2 42.3634 56.8734 18.5488 0.0000 5.7544 0.0000
# 3 21.6569 18.5488 60.6724 0.0000 16.2796 0.0000
# 4 0.0000 0.0000 0.0000 15.2124 0.0000 2.4673
# 5 16.6543 5.7544 16.2796 0.0000 45.5117 0.0000
# 6 0.0000 0.0000 0.0000 2.4673 0.0000 35.0064
#
#
#
# Elastic Compliance Matrix: (Units=1/GPa)
#
#
# Indices 1 2 3 4 5 6 
#
# 1 0.014736 -0.010231 -0.001142 0.000000 -0.003690 0.000000
# 2 -0.010231 0.026639 -0.005081 0.000000 0.002193 0.000000
# 3 -0.001142 -0.005081 0.020086 0.000000 -0.006125 0.000000
# 4 0.000000 0.000000 0.000000 0.066496 0.000000 -0.004687
# 5 -0.003690 0.002193 -0.006125 0.000000 0.025236 0.000000
# 6 0.000000 0.000000 0.000000 -0.004687 0.000000 0.028897
#
#
# Mechanical properties :
#
#
# Convention : Reuss Voigt Hill
#
# Bulk Modulus (GPa) = 35.02106 42.86706 38.94406
# Shear Modulus (GPa) = 22.27024 28.35253 25.31138
#
# Velocity S-wave (km/s) = 3.25604 3.67386 3.47124
# Velocity P-wave (km/s) = 5.55045 6.19703 5.88263
#
# Compressibility (1/GPa) = 0.02855425
#
# Stress axis : x y z
#
# Youngs Moduli (GPa) = 67.85941 37.53953 49.78545
#
# Poissons Ratio (x) = 0.38406 0.05686
# Poissons Ratio (y) = 0.69426 0.25294
# Poissons Ratio (z) = 0.07751 0.19072
#
# Static dielectric constant tensor:
#      x y z
#    x 4.129090 0.000000 0.242510 
#    y 0.000000 3.434060 0.000000 
#    z 0.242510 0.000000 3.920310 
# 
# 
# High freq. dielectric constant tensor:
#      x y z
#    x 1.837320 0.000000 0.004540 
#    y 0.000000 1.785680 0.000000 
#    z 0.004540 0.000000 1.829450 
# 
# From -- ./inp_files/51575.got.cif
#   From: 2010.06.25/outbox.cif.g09.slc.cpg/sg15_26_cif.got.tgz:51575.got - 2010.06.28 07:06:18.
