data_PCOD8142837
_publ_section_title
;
Structure prediction by ZEFSAII (Michael W. Deem and Ramdas Pophale) SiO2 
 PCOD8142837
Probable space group: C 2/C
;
_chemical_formula_sum "Si O2"
_cell_formula_units_Z 48
_cell_length_a 8.368856
_cell_length_b 29.837465
_cell_length_c 10.210354
_cell_angle_alpha 90.000000
_cell_angle_beta 64.264414
_cell_angle_gamma 90.000000
_cell_volume 2296.681717
_symmetry_space_group_name_H-M "C 2/C"
_symmetry_group_IT_number 15
_symmetry_cell_setting 'monoclinic'
loop_
_space_group_symop_operation_xyz
x,y,z
-x,y,1/2-z
-x,-y,-z
x,-y,1/2+z
1/2+x,1/2+y,z
1/2-x,1/2+y,1/2-z
1/2-x,1/2-y,-z
1/2+x,1/2-y,1/2+z
loop_
_atom_site_type_symbol
_atom_site_label
_atom_site_fract_x
_atom_site_fract_y
_atom_site_fract_z
Si Si1 0.815827 0.474285 0.540597
Si Si2 0.318101 0.629213 0.145392
Si Si3 0.126084 0.289976 0.583850
Si Si4 0.204958 0.534130 0.170236
Si Si5 0.891021 0.711199 0.916827
Si Si6 0.224967 0.123991 0.039722
O O1 0.704986 0.501999 0.470969
O O2 0.707516 0.473144 0.716895
O O3 0.834101 0.422646 0.484540
O O4 0.000000 0.500000 0.500000
O O5 0.255611 0.669260 0.075110
O O6 0.217935 0.585772 0.124702
O O7 0.524594 0.617618 0.063109
O O8 0.263735 0.640485 0.313697
O O9 0.250000 0.250000 0.500000
O O10 0.000000 0.276972 0.750000
O O11 0.014164 0.300449 0.495397
O O12 0.000000 0.520106 0.250000
O O13 0.000000 0.726927 0.750000
O O14 0.750000 0.750000 0.000000
O O15 0.798564 0.663458 0.920271
#
# Coordination Sequence:
#
# PCOD8142837 Si02
#       6
#     8   8   8   8   8   8
#     4   9  19  34  60  88 123 167 214 266 319 388
#     4  10  21  39  66  92 127 173 221 270 326 400
#     4  12  24  42  69  96 126 169 224 272 328 400
#     4   9  18  34  59  87 122 163 218 256 325 383
#     4  12  27  44  68  97 134 170 216 274 341 392
#     4  10  22  41  63  94 131 173 218 270 335 392
#
# _framework density 20.899719999999999
#
# number of rings (size 3 to 8) (size 9 to 14) (size 15 to 20)
#    0.000    1.667    1.667    2.500    7.000    2.667 
#    0.000    0.000    0.000    0.000    0.000    0.000 
#    0.000    0.000    0.000    0.000    0.000    0.000 
#
# Total GULP energy -297443.731507 kJ/mol
# GULP energy per Si atom -12393.488813 kJ/mol
# Density = 2.085215 g / cm^3
# Si number density = 20.899720 Si / 1000 Ang^3
#
#
#
# Elastic Constant Matrix: (Units=GPa)
#
#
# Indices 1 2 3 4 5 6 
#
# 1 82.2386 45.7763 34.4577 0.0000 9.5658 0.0000
# 2 45.7763 178.2506 68.3709 0.0000 6.9132 0.0000
# 3 34.4577 68.3709 111.5375 0.0000 10.4420 0.0000
# 4 0.0000 0.0000 0.0000 38.9711 0.0000 4.5847
# 5 9.5658 6.9132 10.4420 0.0000 31.6229 0.0000
# 6 0.0000 0.0000 0.0000 4.5847 0.0000 26.3356
#
#
#
# Elastic Compliance Matrix: (Units=1/GPa)
#
#
# Indices 1 2 3 4 5 6 
#
# 1 0.015183 -0.002734 -0.002725 0.000000 -0.003095 0.000000
# 2 -0.002734 0.007827 -0.003994 0.000000 0.000435 0.000000
# 3 -0.002725 -0.003994 0.012483 0.000000 -0.002424 0.000000
# 4 0.000000 0.000000 0.000000 0.026197 0.000000 -0.004561
# 5 -0.003095 0.000435 -0.002424 0.000000 0.033265 0.000000
# 6 0.000000 0.000000 0.000000 -0.004561 0.000000 0.038765
#
#
# Mechanical properties :
#
#
# Convention : Reuss Voigt Hill
#
# Bulk Modulus (GPa) = 60.28713 74.35961 67.32337
# Shear Modulus (GPa) = 31.61452 34.28069 32.94761
#
# Velocity S-wave (km/s) = 3.89353 4.05439 3.97478
# Velocity P-wave (km/s) = 7.00866 7.58775 7.30395
#
# Compressibility (1/GPa) = 0.01658729
#
# Stress axis : x y z
#
# Youngs Moduli (GPa) = 65.86160 127.75743 80.11055
#
# Poissons Ratio (x) = 0.34928 0.21830
# Poissons Ratio (y) = 0.18006 0.31997
# Poissons Ratio (z) = 0.17947 0.51028
#
# Static dielectric constant tensor:
#      x y z
#    x 4.357230 0.000000 1.162500 
#    y 0.000000 3.881490 0.000000 
#    z 1.162500 0.000000 4.870350 
# 
# 
# High freq. dielectric constant tensor:
#      x y z
#    x 1.819560 0.000000 0.011250 
#    y 0.000000 1.831320 0.000000 
#    z 0.011250 0.000000 1.800820 
# 
# From -- ./inp_files/80527.got.cif
#   From: 2010.06.25/outbox.cif.g09.slc.cpg/sg15_41_cif.got.tgz:80527.got - 2010.06.28 07:06:18.
