data_PCOD8142186
_publ_section_title
;
Structure prediction by ZEFSAII (Michael W. Deem and Ramdas Pophale) SiO2 
 PCOD8142186
Probable space group: C 2/C
;
_chemical_formula_sum "Si O2"
_cell_formula_units_Z 48
_cell_length_a 17.356862
_cell_length_b 30.342795
_cell_length_c 9.299659
_cell_angle_alpha 90.000000
_cell_angle_beta 27.469096
_cell_angle_gamma 90.000000
_cell_volume 2259.171154
_symmetry_space_group_name_H-M "C 2/C"
_symmetry_group_IT_number 15
_symmetry_cell_setting 'monoclinic'
loop_
_space_group_symop_operation_xyz
x,y,z
-x,y,1/2-z
-x,-y,-z
x,-y,1/2+z
1/2+x,1/2+y,z
1/2-x,1/2+y,1/2-z
1/2-x,1/2-y,-z
1/2+x,1/2-y,1/2+z
loop_
_atom_site_type_symbol
_atom_site_label
_atom_site_fract_x
_atom_site_fract_y
_atom_site_fract_z
Si Si1 0.879192 0.713531 0.832577
Si Si2 0.197900 0.041373 0.760309
Si Si3 0.695041 0.626998 0.595864
Si Si4 0.117628 0.712533 0.181759
Si Si5 0.197154 0.871492 0.757689
Si Si6 0.800075 0.957310 0.916658
O O1 0.000000 0.735707 0.750000
O O2 0.995321 0.698491 0.511081
O O3 0.750000 0.750000 0.000000
O O4 0.787622 0.671522 0.049795
O O5 0.261062 0.084400 0.571301
O O6 0.269395 0.998962 0.557692
O O7 0.268352 0.041641 0.806554
O O8 0.998993 0.040628 0.090187
O O9 0.782500 0.668671 0.526182
O O10 0.740814 0.621719 0.352538
O O11 0.498927 0.634360 0.940769
O O12 0.000000 0.730596 0.250000
O O13 0.250000 0.750000 0.000000
O O14 0.263163 0.913376 0.558685
#
# Coordination Sequence:
#
# PCOD8142186 Si02
#       6
#     8   8   8   8   8   8
#     4  12  25  45  66  94 125 167 214 263 319 383
#     4   9  17  31  55  89 127 164 211 259 307 367
#     4  10  21  39  61  92 127 167 211 261 318 370
#     4  12  27  44  67  93 128 167 212 265 322 385
#     4  10  21  38  63  91 127 167 211 263 314 374
#     4   9  17  31  55  90 125 166 209 259 309 364
#
# _framework density 21.246731
#
# number of rings (size 3 to 8) (size 9 to 14) (size 15 to 20)
#    0.000    1.667    1.667    3.000    4.667    4.000 
#    3.000    0.000    0.000    2.000    0.000    0.000 
#    0.000    0.000    0.000    0.000    0.000    0.000 
#
# Total GULP energy -297632.775352 kJ/mol
# GULP energy per Si atom -12401.365640 kJ/mol
# Density = 2.119837 g / cm^3
# Si number density = 21.246731 Si / 1000 Ang^3
#
#
#
# Elastic Constant Matrix: (Units=GPa)
#
#
# Indices 1 2 3 4 5 6 
#
# 1 146.7132 85.2268 51.6607 0.0000 19.5370 0.0000
# 2 85.2268 194.2014 65.1119 -0.0001 12.0778 0.0000
# 3 51.6607 65.1119 83.9254 -0.0004 26.3535 0.0000
# 4 0.0000 -0.0001 -0.0004 54.9698 0.0001 10.6693
# 5 19.5370 12.0778 26.3535 0.0001 35.1259 0.0000
# 6 0.0000 0.0000 0.0000 10.6693 0.0000 34.4401
#
#
#
# Elastic Compliance Matrix: (Units=1/GPa)
#
#
# Indices 1 2 3 4 5 6 
#
# 1 0.010062 -0.003294 -0.002926 0.000000 -0.002269 0.000000
# 2 -0.003294 0.008166 -0.005235 0.000000 0.002952 0.000000
# 3 -0.002926 -0.005235 0.021849 0.000000 -0.012965 0.000000
# 4 0.000000 0.000000 0.000000 0.019356 0.000000 -0.005996
# 5 -0.002269 0.002952 -0.012965 0.000000 0.038443 0.000000
# 6 0.000000 0.000000 0.000000 -0.005996 0.000000 0.030893
#
#
# Mechanical properties :
#
#
# Convention : Reuss Voigt Hill
#
# Bulk Modulus (GPa) = 58.24821 92.09320 75.17070
# Shear Modulus (GPa) = 31.76593 39.76321 35.76457
#
# Velocity S-wave (km/s) = 3.87084 4.33077 4.10725
# Velocity P-wave (km/s) = 6.88858 8.27322 7.61245
#
# Compressibility (1/GPa) = 0.01716791
#
# Stress axis : x y z
#
# Youngs Moduli (GPa) = 99.38750 122.45323 45.76825
#
# Poissons Ratio (x) = 0.40330 0.13391
# Poissons Ratio (y) = 0.32734 0.23961
# Poissons Ratio (z) = 0.29080 0.64107
#
# Static dielectric constant tensor:
#      x y z
#    x 3.983860 0.000000 0.237070 
#    y 0.000000 4.006480 -0.000010 
#    z 0.237070 -0.000010 3.749790 
# 
# 
# High freq. dielectric constant tensor:
#      x y z
#    x 1.835780 0.000000 0.015960 
#    y 0.000000 1.842160 0.000000 
#    z 0.015960 0.000000 1.822710 
# 
# From -- ./inp_files/52741.got.cif
#   From: 2010.06.25/outbox.cif.g09.slc.cpg/sg15_27_cif.got.tgz:52741.got - 2010.06.28 07:06:18.
