data_PCOD8142168
_publ_section_title
;
Structure prediction by ZEFSAII (Michael W. Deem and Ramdas Pophale) SiO2 
 PCOD8142168
Probable space group: C 2/C
;
_chemical_formula_sum "Si O2"
_cell_formula_units_Z 52
_cell_length_a 30.404157
_cell_length_b 17.948038
_cell_length_c 14.554545
_cell_angle_alpha 90.000000
_cell_angle_beta 160.314054
_cell_angle_gamma 90.000000
_cell_volume 2675.491583
_symmetry_space_group_name_H-M "C 2/C"
_symmetry_group_IT_number 15
_symmetry_cell_setting 'monoclinic'
loop_
_space_group_symop_operation_xyz
x,y,z
-x,y,1/2-z
-x,-y,-z
x,-y,1/2+z
1/2+x,1/2+y,z
1/2-x,1/2+y,1/2-z
1/2-x,1/2-y,-z
1/2+x,1/2-y,1/2+z
loop_
_atom_site_type_symbol
_atom_site_label
_atom_site_fract_x
_atom_site_fract_y
_atom_site_fract_z
Si Si1 0.908900 0.066016 0.789061
Si Si2 0.153579 0.343178 0.293172
Si Si3 0.559718 0.695081 0.182443
Si Si4 0.278588 0.981474 0.957127
Si Si5 0.189525 0.998074 0.585943
Si Si6 0.500000 0.630063 0.250000
Si Si7 0.962301 0.441166 0.579022
O O1 0.883574 0.057792 0.629065
O O2 0.779271 0.049503 0.594753
O O3 0.982138 0.144071 0.954625
O O4 0.000000 0.000000 0.000000
O O5 0.284200 0.316419 0.498324
O O6 0.058794 0.281506 0.152305
O O7 0.216485 0.401850 0.486329
O O8 0.050940 0.376605 0.020289
O O9 0.482266 0.682957 0.126171
O O10 0.194886 0.966127 0.699776
O O11 0.426735 0.001108 0.228839
O O12 0.121678 0.078458 0.461723
O O13 0.331831 0.010103 0.824702
O O14 0.000000 0.403270 0.750000
#
# Coordination Sequence:
#
# PCOD8142168 Si02
#       7
#     8   8   8   8   8   4   8
#     4  12  19  37  62  94 119 157 207 267 297 362
#     4  11  22  43  58  90 124 170 193 255 315 387
#     4  11  24  38  64  86 128 161 205 247 330 363
#     4  11  21  37  67  88 120 162 209 256 310 364
#     4  11  21  34  64  94 118 148 220 257 302 358
#     4  12  18  38  62  90 114 160 200 264 294 374
#     4  10  21  38  63  88 118 163 204 253 308 380
#
# _framework density 19.435680999999999
#
# number of rings (size 3 to 8) (size 9 to 14) (size 15 to 20)
#    0.000    0.923    7.692    0.462    0.000    0.000 
#    4.154    3.846    0.000    0.000    0.000    0.000 
#    0.000    0.000    0.000    0.000    0.000    0.000 
#
# Total GULP energy -322121.083721 kJ/mol
# GULP energy per Si atom -12389.272451 kJ/mol
# Density = 1.939144 g / cm^3
# Si number density = 19.435681 Si / 1000 Ang^3
#
#
#
# Elastic Constant Matrix: (Units=GPa)
#
#
# Indices 1 2 3 4 5 6 
#
# 1 101.4263 27.3736 31.5623 0.0000 -19.7366 0.0000
# 2 27.3736 78.3361 19.1842 0.0000 -12.6937 0.0000
# 3 31.5623 19.1842 80.7269 0.0000 -9.1073 0.0000
# 4 0.0000 0.0000 0.0000 28.4232 0.0000 1.3136
# 5 -19.7366 -12.6937 -9.1073 0.0000 47.3187 0.0000
# 6 0.0000 0.0000 0.0000 1.3136 0.0000 17.9907
#
#
#
# Elastic Compliance Matrix: (Units=1/GPa)
#
#
# Indices 1 2 3 4 5 6 
#
# 1 0.012538 -0.002844 -0.003805 0.000000 0.003734 0.000000
# 2 -0.002844 0.014654 -0.002107 0.000000 0.002339 0.000000
# 3 -0.003805 -0.002107 0.014446 0.000000 0.000628 0.000000
# 4 0.000000 0.000000 0.000000 0.035302 0.000000 -0.002578
# 5 0.003734 0.002339 0.000628 0.000000 0.023439 0.000000
# 6 0.000000 0.000000 0.000000 -0.002578 0.000000 0.055773
#
#
# Mechanical properties :
#
#
# Convention : Reuss Voigt Hill
#
# Bulk Modulus (GPa) = 41.44661 46.30326 43.87493
# Shear Modulus (GPa) = 27.51705 30.90447 29.21076
#
# Velocity S-wave (km/s) = 3.76679 3.99192 3.88099
# Velocity P-wave (km/s) = 6.34741 6.71735 6.53500
#
# Compressibility (1/GPa) = 0.02412743
#
# Stress axis : x y z
#
# Youngs Moduli (GPa) = 79.76010 68.23912 69.22095
#
# Poissons Ratio (x) = 0.19409 0.26337
# Poissons Ratio (y) = 0.22686 0.14582
# Poissons Ratio (z) = 0.30346 0.14375
#
# Static dielectric constant tensor:
#      x y z
#    x 4.680960 0.000000 0.613260 
#    y 0.000000 4.301730 0.000000 
#    z 0.613260 0.000000 4.596740 
# 
# 
# High freq. dielectric constant tensor:
#      x y z
#    x 1.773040 0.000000 0.000840 
#    y 0.000000 1.717520 0.000000 
#    z 0.000840 0.000000 1.767310 
# 
# From -- ./inp_files/182903.got.cif
#   From: 2010.06.25/outbox.cif.g09.slc.cpg/sg15_92_cif.got.tgz:182903.got - 2010.06.28 07:06:18.
