data_PCOD8142568
_publ_section_title
;
Structure prediction by ZEFSAII (Michael W. Deem and Ramdas Pophale) SiO2 
 PCOD8142568
Probable space group: C 2/C
;
_chemical_formula_sum "Si O2"
_cell_formula_units_Z 52
_cell_length_a 15.672119
_cell_length_b 16.672480
_cell_length_c 14.531566
_cell_angle_alpha 90.000000
_cell_angle_beta 142.544127
_cell_angle_gamma 90.000000
_cell_volume 2309.145112
_symmetry_space_group_name_H-M "C 2/C"
_symmetry_group_IT_number 15
_symmetry_cell_setting 'monoclinic'
loop_
_space_group_symop_operation_xyz
x,y,z
-x,y,1/2-z
-x,-y,-z
x,-y,1/2+z
1/2+x,1/2+y,z
1/2-x,1/2+y,1/2-z
1/2-x,1/2-y,-z
1/2+x,1/2-y,1/2+z
loop_
_atom_site_type_symbol
_atom_site_label
_atom_site_fract_x
_atom_site_fract_y
_atom_site_fract_z
Si Si1 0.079327 0.184825 0.170909
Si Si2 0.885616 0.127965 0.493224
Si Si3 0.900074 0.498379 0.004303
Si Si4 0.084251 0.633919 0.197673
Si Si5 0.885536 0.324527 0.985758
Si Si6 0.500000 0.271797 0.250000
Si Si7 0.431245 0.494383 0.788695
O O1 0.223714 0.202415 0.347636
O O2 0.025950 0.096542 0.151964
O O3 0.091448 0.190530 0.070664
O O4 0.971625 0.254096 0.109641
O O5 0.731388 0.089842 0.345655
O O6 0.897335 0.173470 0.600802
O O7 0.995780 0.055348 0.577581
O O8 0.910209 0.409752 0.059742
O O9 0.734803 0.511905 0.843894
O O10 0.000000 0.500000 0.000000
O O11 0.959003 0.571311 0.118277
O O12 0.066551 0.659421 0.077331
O O13 0.090266 0.715367 0.261128
O O14 0.500000 0.516439 0.750000
#
# Coordination Sequence:
#
# PCOD8142568 Si02
#       7
#     8   8   8   8   8   4   8
#     4  10  21  39  62  88 119 164 209 255 311 377
#     4  11  23  39  60  92 127 169 205 252 319 386
#     4   9  21  42  63  89 125 170 208 256 310 378
#     4  10  22  36  60  92 129 164 205 250 314 379
#     4   9  19  38  61  89 118 161 215 253 302 370
#     4  12  22  36  60  96 134 158 202 256 324 376
#     4  11  24  41  64  92 128 163 212 267 314 368
#
# _framework density 22.519157
#
# number of rings (size 3 to 8) (size 9 to 14) (size 15 to 20)
#    0.000    1.846    2.308    1.846    2.154    4.923 
#    0.000    3.077    1.692    0.000    0.000    0.000 
#    0.000    0.000    0.000    0.000    0.000    0.000 
#
# Total GULP energy -322183.813725 kJ/mol
# GULP energy per Si atom -12391.685143 kJ/mol
# Density = 2.246790 g / cm^3
# Si number density = 22.519157 Si / 1000 Ang^3
#
#
#
# Elastic Constant Matrix: (Units=GPa)
#
#
# Indices 1 2 3 4 5 6 
#
# 1 49.9766 4.1899 19.2263 0.0003 17.2578 0.0001
# 2 4.1899 160.1852 80.6871 0.0002 32.1284 0.0001
# 3 19.2263 80.6871 107.2738 0.0003 33.9791 0.0001
# 4 0.0003 0.0002 0.0003 44.7492 0.0003 5.3026
# 5 17.2578 32.1284 33.9791 0.0003 36.9295 0.0001
# 6 0.0001 0.0001 0.0001 5.3026 0.0001 29.2564
#
#
#
# Elastic Compliance Matrix: (Units=1/GPa)
#
#
# Indices 1 2 3 4 5 6 
#
# 1 0.024989 0.003339 -0.003347 0.000000 -0.011504 0.000000
# 2 0.003339 0.010666 -0.007322 0.000000 -0.004104 0.000000
# 3 -0.003347 -0.007322 0.018228 0.000000 -0.008838 0.000000
# 4 0.000000 0.000000 0.000000 0.022837 0.000000 -0.004139
# 5 -0.011504 -0.004104 -0.008838 0.000000 0.044157 0.000000
# 6 0.000000 0.000000 0.000000 -0.004139 0.000000 0.034931
#
#
# Mechanical properties :
#
#
# Convention : Reuss Voigt Hill
#
# Bulk Modulus (GPa) = 25.49287 58.40469 41.94878
# Shear Modulus (GPa) = 27.24169 36.40917 31.82543
#
# Velocity S-wave (km/s) = 3.48186 4.02532 3.76341
# Velocity P-wave (km/s) = 5.24496 6.89899 6.12804
#
# Compressibility (1/GPa) = 0.03922665
#
# Stress axis : x y z
#
# Youngs Moduli (GPa) = 40.01698 93.75190 54.85982
#
# Poissons Ratio (x) = -0.31308 0.18360
# Poissons Ratio (y) = -0.13364 0.40166
# Poissons Ratio (z) = 0.13392 0.68641
#
# Static dielectric constant tensor:
#      x y z
#    x 3.798450 0.000000 0.047700 
#    y 0.000000 4.353840 0.000000 
#    z 0.047700 0.000000 4.099540 
# 
# 
# High freq. dielectric constant tensor:
#      x y z
#    x 1.864940 0.000000 0.009180 
#    y 0.000000 1.898470 0.000000 
#    z 0.009180 0.000000 1.882740 
# 
# From -- ./inp_files/155554.got.cif
#   From: 2010.06.25/outbox.cif.g09.slc.cpg/sg15_78_cif.got.tgz:155554.got - 2010.06.28 07:06:18.
