data_PCOD8142430
_publ_section_title
;
Structure prediction by ZEFSAII (Michael W. Deem and Ramdas Pophale) SiO2 
 PCOD8142430
Probable space group: C 2/C
;
_chemical_formula_sum "Si O2"
_cell_formula_units_Z 40
_cell_length_a 30.589718
_cell_length_b 7.716921
_cell_length_c 13.320888
_cell_angle_alpha 90.000000
_cell_angle_beta 138.255738
_cell_angle_gamma 90.000000
_cell_volume 2093.635275
_symmetry_space_group_name_H-M "C 2/C"
_symmetry_group_IT_number 15
_symmetry_cell_setting 'monoclinic'
loop_
_space_group_symop_operation_xyz
x,y,z
-x,y,1/2-z
-x,-y,-z
x,-y,1/2+z
1/2+x,1/2+y,z
1/2-x,1/2+y,1/2-z
1/2-x,1/2-y,-z
1/2+x,1/2-y,1/2+z
loop_
_atom_site_type_symbol
_atom_site_label
_atom_site_fract_x
_atom_site_fract_y
_atom_site_fract_z
Si Si1 0.686438 0.770807 0.600974
Si Si2 0.872673 0.856223 0.688595
Si Si3 0.172941 0.077509 0.168880
Si Si4 0.429750 0.665360 0.673323
Si Si5 0.568253 0.057109 0.815308
O O1 0.686360 0.666068 0.493950
O O2 0.754723 0.862699 0.738992
O O3 0.671610 0.631448 0.663034
O O4 0.627298 0.911615 0.497341
O O5 0.843076 0.859429 0.747546
O O6 0.921386 0.689400 0.760634
O O7 0.911783 0.033397 0.731640
O O8 0.121350 0.161619 0.005224
O O9 0.500000 0.611232 0.750000
O O10 0.430843 0.859027 0.721112
O O11 0.500000 0.104285 0.750000
#
# Coordination Sequence:
#
# PCOD8142430 Si02
#       5
#     8   8   8   8   8
#     4   9  21  36  58  83 117 147 190 236 281 332
#     4   9  21  37  60  86 114 150 192 232 280 342
#     4  11  20  39  59  85 115 155 188 234 291 334
#     4  10  21  39  58  86 119 148 190 237 281 337
#     4   9  19  40  58  80 120 150 181 240 281 327
#
# _framework density 19.105525
#
# number of rings (size 3 to 8) (size 9 to 14) (size 15 to 20)
#    1.200    1.200    0.000    2.400    0.000    0.800 
#    7.200    5.000    0.000    0.000    0.000    0.000 
#    0.000    0.000    0.000    0.000    0.000    0.000 
#
# Total GULP energy -247865.300280 kJ/mol
# GULP energy per Si atom -12393.265014 kJ/mol
# Density = 1.906204 g / cm^3
# Si number density = 19.105525 Si / 1000 Ang^3
#
#
#
# Elastic Constant Matrix: (Units=GPa)
#
#
# Indices 1 2 3 4 5 6 
#
# 1 47.2154 17.0525 34.6514 0.0000 11.7656 0.0000
# 2 17.0525 98.1306 9.7038 0.0000 10.3541 0.0000
# 3 34.6514 9.7038 87.3867 0.0000 27.4323 0.0000
# 4 0.0000 0.0000 0.0000 10.9311 0.0000 2.7878
# 5 11.7656 10.3541 27.4323 0.0000 30.0497 0.0000
# 6 0.0000 0.0000 0.0000 2.7878 0.0000 18.4804
#
#
#
# Elastic Compliance Matrix: (Units=1/GPa)
#
#
# Indices 1 2 3 4 5 6 
#
# 1 0.031568 -0.004307 -0.012090 0.000000 0.000161 0.000000
# 2 -0.004307 0.011163 0.001607 0.000000 -0.003627 0.000000
# 3 -0.012090 0.001607 0.020670 0.000000 -0.014690 0.000000
# 4 0.000000 0.000000 0.000000 0.095142 0.000000 -0.014352
# 5 0.000161 -0.003627 -0.014690 0.000000 0.047875 0.000000
# 6 0.000000 0.000000 0.000000 -0.014352 0.000000 0.056276
#
#
# Mechanical properties :
#
#
# Convention : Reuss Voigt Hill
#
# Bulk Modulus (GPa) = 29.56754 39.50534 34.53644
# Shear Modulus (GPa) = 16.47186 23.31392 19.89289
#
# Velocity S-wave (km/s) = 2.93943 3.49703 3.23028
# Velocity P-wave (km/s) = 5.19902 6.08506 5.65941
#
# Compressibility (1/GPa) = 0.03382087
#
# Stress axis : x y z
#
# Youngs Moduli (GPa) = 31.67794 89.58373 48.37848
#
# Poissons Ratio (x) = 0.38585 0.58488
# Poissons Ratio (y) = 0.13644 -0.07774
# Poissons Ratio (z) = 0.38298 -0.14395
#
# Static dielectric constant tensor:
#      x y z
#    x 3.095430 0.000000 0.170410 
#    y 0.000000 3.568010 0.000000 
#    z 0.170410 0.000000 3.400160 
# 
# 
# High freq. dielectric constant tensor:
#      x y z
#    x 1.716620 0.000000 0.019810 
#    y 0.000000 1.756270 0.000000 
#    z 0.019810 0.000000 1.737440 
# 
# From -- ./inp_files/121341.got.cif
#   From: 2010.06.25/outbox.cif.g09.slc.cpg/sg15_61_cif.got.tgz:121341.got - 2010.06.28 07:06:18.
