data_PCOD8142592
_publ_section_title
;
Structure prediction by ZEFSAII (Michael W. Deem and Ramdas Pophale) SiO2 
 PCOD8142592
Probable space group: C 2/C
;
_chemical_formula_sum "Si O2"
_cell_formula_units_Z 56
_cell_length_a 5.775595
_cell_length_b 21.197771
_cell_length_c 20.177002
_cell_angle_alpha 90.000000
_cell_angle_beta 106.642640
_cell_angle_gamma 90.000000
_cell_volume 2366.784960
_symmetry_space_group_name_H-M "C 2/C"
_symmetry_group_IT_number 15
_symmetry_cell_setting 'monoclinic'
loop_
_space_group_symop_operation_xyz
x,y,z
-x,y,1/2-z
-x,-y,-z
x,-y,1/2+z
1/2+x,1/2+y,z
1/2-x,1/2+y,1/2-z
1/2-x,1/2-y,-z
1/2+x,1/2-y,1/2+z
loop_
_atom_site_type_symbol
_atom_site_label
_atom_site_fract_x
_atom_site_fract_y
_atom_site_fract_z
Si Si1 0.650234 0.697718 0.076356
Si Si2 0.952143 0.122062 0.172286
Si Si3 0.308358 0.078157 0.925117
Si Si4 0.002844 0.198003 0.576325
Si Si5 0.631720 0.500092 0.631543
Si Si6 0.107372 0.377784 0.327702
Si Si7 0.041890 0.577952 0.425190
O O1 0.491130 0.683793 0.128728
O O2 0.858337 0.749700 0.107456
O O3 0.760335 0.631179 0.067453
O O4 0.484879 0.720535 0.000083
O O5 0.000000 0.146576 0.250000
O O6 0.685090 0.095988 0.138192
O O7 0.136719 0.063226 0.176451
O O8 0.126541 0.131688 0.932436
O O9 0.408480 0.095977 0.861670
O O10 0.150195 0.012835 0.912098
O O11 0.512236 0.071989 0.999958
O O12 0.266776 0.183891 0.628578
O O13 0.716180 0.563432 0.676462
O O14 0.826710 0.487432 0.587996
O O15 0.000000 0.353191 0.250000
#
# Coordination Sequence:
#
# PCOD8142592 Si02
#       7
#     8   8   8   8   8   8   8
#     4   9  20  41  66  91 122 163 215 271 322 379
#     4  11  24  38  60  91 127 168 212 259 330 398
#     4  10  21  39  62  91 122 161 215 268 320 380
#     4   9  20  41  66  91 122 163 215 271 322 379
#     4  10  23  36  60  88 125 164 208 264 325 392
#     4  11  24  38  60  91 127 168 212 259 330 398
#     4  10  21  39  62  91 122 161 215 268 320 380
#
# _framework density 23.660789999999999
#
# number of rings (size 3 to 8) (size 9 to 14) (size 15 to 20)
#    0.000    2.000    0.000    2.143    4.000    9.143 
#    0.000    8.571    0.000    0.000    0.000    0.000 
#    0.000    0.000    0.000    0.000    0.000    0.000 
#
# Total GULP energy -346976.599516 kJ/mol
# GULP energy per Si atom -12392.021411 kJ/mol
# Density = 2.360694 g / cm^3
# Si number density = 23.660790 Si / 1000 Ang^3
#
#
#
# Elastic Constant Matrix: (Units=GPa)
#
#
# Indices 1 2 3 4 5 6 
#
# 1 102.7098 19.3208 72.0205 0.0000 -0.7743 0.0000
# 2 19.3208 82.9829 27.9620 0.0000 -0.2310 0.0000
# 3 72.0205 27.9620 185.5209 0.0000 -2.2565 0.0000
# 4 0.0000 0.0000 0.0000 2.2460 0.0000 0.7320
# 5 -0.7743 -0.2310 -2.2565 0.0000 22.6308 0.0000
# 6 0.0000 0.0000 0.0000 0.7320 0.0000 45.7400
#
#
#
# Elastic Compliance Matrix: (Units=1/GPa)
#
#
# Indices 1 2 3 4 5 6 
#
# 1 0.013543 -0.001455 -0.005039 0.000000 -0.000054 0.000000
# 2 -0.001455 0.012852 -0.001373 0.000000 -0.000055 0.000000
# 3 -0.005039 -0.001373 0.007560 0.000000 0.000567 0.000000
# 4 0.000000 0.000000 0.000000 0.447574 0.000000 -0.007162
# 5 -0.000054 -0.000055 0.000567 0.000000 0.044242 0.000000
# 6 0.000000 0.000000 0.000000 -0.007162 0.000000 0.021977
#
#
# Mechanical properties :
#
#
# Convention : Reuss Voigt Hill
#
# Bulk Modulus (GPa) = 54.88160 67.75779 61.31970
# Shear Modulus (GPa) = 8.77878 30.91737 19.84807
#
# Velocity S-wave (km/s) = 1.92829 3.61874 2.89945
# Velocity P-wave (km/s) = 5.31068 6.79409 6.09766
#
# Compressibility (1/GPa) = 0.01822104
#
# Stress axis : x y z
#
# Youngs Moduli (GPa) = 73.84077 77.80920 132.27405
#
# Poissons Ratio (x) = 0.11325 0.66648
# Poissons Ratio (y) = 0.10747 0.18158
# Poissons Ratio (z) = 0.37206 0.10681
#
# Static dielectric constant tensor:
#      x y z
#    x 4.145560 0.000000 -0.004060 
#    y 0.000000 4.375510 0.000000 
#    z -0.004060 0.000000 4.298410 
# 
# 
# High freq. dielectric constant tensor:
#      x y z
#    x 1.927970 0.000000 0.000280 
#    y 0.000000 1.947680 0.000000 
#    z 0.000280 0.000000 1.916230 
# 
# From -- ./inp_files/228159.got.cif
#   From: 2010.06.25/outbox.cif.g09.slc.cpg/sg15_115_cif.got.tgz:228159.got - 2010.06.28 07:06:18.
