data_PCOD8142485
_publ_section_title
;
Structure prediction by ZEFSAII (Michael W. Deem and Ramdas Pophale) SiO2 
 PCOD8142485
Probable space group: C 2/C
;
_chemical_formula_sum "Si O2"
_cell_formula_units_Z 48
_cell_length_a 8.930693
_cell_length_b 8.758188
_cell_length_c 28.939162
_cell_angle_alpha 90.000000
_cell_angle_beta 105.990027
_cell_angle_gamma 90.000000
_cell_volume 2175.948843
_symmetry_space_group_name_H-M "C 2/C"
_symmetry_group_IT_number 15
_symmetry_cell_setting 'monoclinic'
loop_
_space_group_symop_operation_xyz
x,y,z
-x,y,1/2-z
-x,-y,-z
x,-y,1/2+z
1/2+x,1/2+y,z
1/2-x,1/2+y,1/2-z
1/2-x,1/2-y,-z
1/2+x,1/2-y,1/2+z
loop_
_atom_site_type_symbol
_atom_site_label
_atom_site_fract_x
_atom_site_fract_y
_atom_site_fract_z
Si Si1 0.141253 0.943051 0.357441
Si Si2 0.178983 0.886389 0.773425
Si Si3 0.741276 0.883302 0.898178
Si Si4 0.594448 0.621325 0.441441
Si Si5 0.778546 0.056218 0.810842
Si Si6 0.134060 0.536320 0.974730
O O1 0.227249 0.792423 0.382826
O O2 0.960789 0.910069 0.332297
O O3 0.231824 0.001142 0.319515
O O4 0.156879 0.078608 0.395966
O O5 0.201524 0.713069 0.789476
O O6 0.000000 0.916594 0.750000
O O7 0.263585 0.932995 0.732898
O O8 0.914251 0.923439 0.930713
O O9 0.701371 0.990956 0.851063
O O10 0.626610 0.916368 0.931622
O O11 0.697002 0.525873 0.486731
O O12 0.613958 0.799880 0.450240
O O13 0.000000 0.500000 0.000000
#
# Coordination Sequence:
#
# PCOD8142485 Si02
#       6
#     8   8   8   8   8   8
#     4  10  22  38  60  89 121 155 197 245 297 357
#     4  10  21  39  60  88 121 155 196 242 294 354
#     4  11  23  40  62  89 121 160 201 247 301 355
#     4  10  23  41  60  87 122 158 200 249 300 354
#     4  10  22  38  61  88 120 157 197 245 295 354
#     4  11  24  40  62  89 119 160 205 249 301 358
#
# _framework density 22.059342999999998
#
# number of rings (size 3 to 8) (size 9 to 14) (size 15 to 20)
#    0.000    1.667    0.000    3.500    0.000   12.000 
#    0.000    0.000    0.000    0.000    0.000    0.000 
#    0.000    0.000    0.000    0.000    0.000    0.000 
#
# Total GULP energy -297594.989367 kJ/mol
# GULP energy per Si atom -12399.791224 kJ/mol
# Density = 2.200914 g / cm^3
# Si number density = 22.059343 Si / 1000 Ang^3
#
#
#
# Elastic Constant Matrix: (Units=GPa)
#
#
# Indices 1 2 3 4 5 6 
#
# 1 49.7474 36.3026 61.0727 0.0000 -18.0091 0.0000
# 2 36.3026 121.6548 77.3313 0.0000 -4.8462 0.0000
# 3 61.0727 77.3313 180.2784 0.0000 -22.6578 0.0000
# 4 0.0000 0.0000 0.0000 51.8900 0.0000 1.3553
# 5 -18.0091 -4.8462 -22.6578 0.0000 26.3302 0.0000
# 6 0.0000 0.0000 0.0000 1.3553 0.0000 28.9966
#
#
#
# Elastic Compliance Matrix: (Units=1/GPa)
#
#
# Indices 1 2 3 4 5 6 
#
# 1 0.043869 -0.006143 -0.009640 0.000000 0.020579 0.000000
# 2 -0.006143 0.012293 -0.003852 0.000000 -0.005254 0.000000
# 3 -0.009640 -0.003852 0.010705 0.000000 0.001910 0.000000
# 4 0.000000 0.000000 0.000000 0.019295 0.000000 -0.000902
# 5 0.020579 -0.005254 0.001910 0.000000 0.052731 0.000000
# 6 0.000000 0.000000 0.000000 -0.000902 0.000000 0.034529
#
#
# Mechanical properties :
#
#
# Convention : Reuss Voigt Hill
#
# Bulk Modulus (GPa) = 36.23730 77.89932 57.06831
# Shear Modulus (GPa) = 22.53366 33.24162 27.88764
#
# Velocity S-wave (km/s) = 3.19956 3.88612 3.55943
# Velocity P-wave (km/s) = 5.48748 7.45158 6.54364
#
# Compressibility (1/GPa) = 0.02759588
#
# Stress axis : x y z
#
# Youngs Moduli (GPa) = 22.79528 81.35001 93.41407
#
# Poissons Ratio (x) = 0.49976 0.90049
# Poissons Ratio (y) = 0.14004 0.35984
# Poissons Ratio (z) = 0.21974 0.31337
#
# Static dielectric constant tensor:
#      x y z
#    x 3.860660 0.000000 0.064800 
#    y 0.000000 3.744670 0.000000 
#    z 0.064800 0.000000 4.561840 
# 
# 
# High freq. dielectric constant tensor:
#      x y z
#    x 1.848490 0.000000 0.004600 
#    y 0.000000 1.866420 0.000000 
#    z 0.004600 0.000000 1.895940 
# 
# From -- ./inp_files/306687.got.cif
#   From: 2010.06.25/outbox.cif.g09.slc.cpg/sg15_154_cif.got.tgz:306687.got - 2010.06.28 07:06:18.
