data_PCOD8142670
_publ_section_title
;
Structure prediction by ZEFSAII (Michael W. Deem and Ramdas Pophale) SiO2 
 PCOD8142670
Probable space group: C 2/C
;
_chemical_formula_sum "Si O2"
_cell_formula_units_Z 40
_cell_length_a 8.267756
_cell_length_b 23.915401
_cell_length_c 8.296022
_cell_angle_alpha 90.000000
_cell_angle_beta 90.749835
_cell_angle_gamma 90.000000
_cell_volume 1640.204584
_symmetry_space_group_name_H-M "C 2/C"
_symmetry_group_IT_number 15
_symmetry_cell_setting 'monoclinic'
loop_
_space_group_symop_operation_xyz
x,y,z
-x,y,1/2-z
-x,-y,-z
x,-y,1/2+z
1/2+x,1/2+y,z
1/2-x,1/2+y,1/2-z
1/2-x,1/2-y,-z
1/2+x,1/2-y,1/2+z
loop_
_atom_site_type_symbol
_atom_site_label
_atom_site_fract_x
_atom_site_fract_y
_atom_site_fract_z
Si Si1 0.991144 0.225370 0.938558
Si Si2 0.657726 0.051097 0.852127
Si Si3 0.841428 0.142555 0.350640
Si Si4 0.668511 0.164308 0.041634
Si Si5 0.336787 0.468452 0.048442
O O1 0.834387 0.193680 0.998466
O O2 0.000000 0.213702 0.750000
O O3 0.979001 0.291583 0.978208
O O4 0.141513 0.199126 0.040765
O O5 0.500000 0.035690 0.750000
O O6 0.636414 0.112756 0.924303
O O7 0.817258 0.044067 0.739051
O O8 0.685195 0.007658 0.997254
O O9 0.813894 0.090709 0.465162
O O10 0.000000 0.129350 0.250000
O O11 0.686396 0.147604 0.230896
O O12 0.500000 0.500000 0.000000
#
# Coordination Sequence:
#
# PCOD8142670 Si02
#       5
#     8   8   8   8   8
#     4  10  21  39  63  92 128 174 232 285 332 398
#     4  12  26  43  66 100 142 180 223 284 354 418
#     4  10  21  39  64  95 130 170 228 291 339 398
#     4  10  23  40  61  93 134 178 222 276 348 415
#     4  12  24  43  71  99 133 181 238 287 339 410
#
# _framework density 24.387204000000001
#
# number of rings (size 3 to 8) (size 9 to 14) (size 15 to 20)
#    0.000    1.200    0.000    7.200    0.000    6.400 
#    0.000    1.000    0.000    0.000    0.000    0.000 
#    0.000    0.000    0.000    0.000    0.000    0.000 
#
# Total GULP energy -247998.014651 kJ/mol
# GULP energy per Si atom -12399.900733 kJ/mol
# Density = 2.433170 g / cm^3
# Si number density = 24.387204 Si / 1000 Ang^3
#
#
#
# Elastic Constant Matrix: (Units=GPa)
#
#
# Indices 1 2 3 4 5 6 
#
# 1 47.4847 23.2007 15.7063 0.0000 18.1470 0.0000
# 2 23.2007 170.7784 56.1298 0.0000 10.5737 0.0000
# 3 15.7063 56.1298 133.3209 0.0000 -0.3453 0.0000
# 4 0.0000 0.0000 0.0000 8.8399 0.0000 48.1836
# 5 18.1470 10.5737 -0.3453 0.0000 33.8934 0.0000
# 6 0.0000 0.0000 0.0000 48.1836 0.0000 -50.9752
#
#
#
# Elastic Compliance Matrix: (Units=1/GPa)
#
#
# Indices 1 2 3 4 5 6 
#
# 1 0.028525 -0.002150 -0.002493 0.000000 -0.014627 0.000000
# 2 -0.002150 0.007118 -0.002746 0.000000 -0.001097 0.000000
# 3 -0.002493 -0.002746 0.008957 0.000000 0.002283 0.000000
# 4 0.000000 0.000000 0.000000 0.018388 0.000000 0.017381
# 5 -0.014627 -0.001097 0.002283 0.000000 0.037701 0.000000
# 6 0.000000 0.000000 0.000000 0.017381 0.000000 -0.003189
#
#
# Mechanical properties :
#
#
# Convention : Reuss Voigt Hill
#
# Bulk Modulus (GPa) = 33.53438 60.18420 46.85929
# Shear Modulus (GPa) = 40.91021 15.45477 28.18249
#
# Velocity S-wave (km/s) = 4.10021 2.52012 3.40314
# Velocity P-wave (km/s) = 6.01633 5.76196 5.89052
#
# Compressibility (1/GPa) = 0.02982014
#
# Stress axis : x y z
#
# Youngs Moduli (GPa) = 35.05757 140.48392 111.64961
#
# Poissons Ratio (x) = 0.30206 0.27835
# Poissons Ratio (y) = 0.07538 0.30664
# Poissons Ratio (z) = 0.08740 0.38583
#
# Static dielectric constant tensor:
#      x y z
#    x 4.318430 0.000000 0.049230 
#    y 0.000000 4.586840 0.000000 
#    z 0.049230 0.000000 4.826490 
# 
# 
# High freq. dielectric constant tensor:
#      x y z
#    x 1.958450 0.000000 -0.004630 
#    y 0.000000 1.978540 0.000000 
#    z -0.004630 0.000000 1.985920 
# 
# From -- ./inp_files/23761.got.cif
#   From: 2010.06.25/outbox.cif.g09.slc.cpg/sg15_12_cif.got.tgz:23761.got - 2010.06.28 07:06:18.
