data_PCOD8142742
_publ_section_title
;
Structure prediction by ZEFSAII (Michael W. Deem and Ramdas Pophale) SiO2 
 PCOD8142742
Probable space group: C 2/C
;
_chemical_formula_sum "Si O2"
_cell_formula_units_Z 56
_cell_length_a 20.702927
_cell_length_b 9.650914
_cell_length_c 16.186227
_cell_angle_alpha 90.000000
_cell_angle_beta 125.239076
_cell_angle_gamma 90.000000
_cell_volume 2641.409927
_symmetry_space_group_name_H-M "C 2/C"
_symmetry_group_IT_number 15
_symmetry_cell_setting 'monoclinic'
loop_
_space_group_symop_operation_xyz
x,y,z
-x,y,1/2-z
-x,-y,-z
x,-y,1/2+z
1/2+x,1/2+y,z
1/2-x,1/2+y,1/2-z
1/2-x,1/2-y,-z
1/2+x,1/2-y,1/2+z
loop_
_atom_site_type_symbol
_atom_site_label
_atom_site_fract_x
_atom_site_fract_y
_atom_site_fract_z
Si Si1 0.760317 0.525783 0.534320
Si Si2 0.913867 0.620552 0.192655
Si Si3 0.531123 0.341386 0.865584
Si Si4 0.311473 0.770163 0.946091
Si Si5 0.940022 0.702303 0.939598
Si Si6 0.108160 0.134117 0.941396
Si Si7 0.897868 0.403379 0.867651
O O1 0.849767 0.473567 0.600213
O O2 0.735974 0.624165 0.594230
O O3 0.753723 0.618636 0.446862
O O4 0.698711 0.400224 0.484730
O O5 0.923936 0.765503 0.153284
O O6 0.884254 0.640910 0.263681
O O7 0.000000 0.545393 0.250000
O O8 0.500000 0.319990 0.750000
O O9 0.461252 0.294462 0.875625
O O10 0.551343 0.500999 0.899628
O O11 0.608766 0.248536 0.940009
O O12 0.330596 0.822828 0.868792
O O13 0.889227 0.568847 0.873674
O O14 0.890619 0.795009 0.967471
O O15 0.016522 0.648623 0.043622
#
# Coordination Sequence:
#
# PCOD8142742 Si02
#       7
#     8   8   8   8   8   8   8
#     4  10  23  42  65  89 126 176 204 259 334 381
#     4  12  24  39  68  94 125 159 230 268 305 387
#     4  10  22  36  66 100 127 168 214 266 314 381
#     4   9  21  44  62  87 135 166 210 261 324 380
#     4  10  21  39  64  94 131 165 212 258 326 377
#     4  11  22  44  61  95 134 175 202 262 335 391
#     4  10  22  39  63  97 123 168 208 270 310 372
#
# _framework density 21.200800000000001
#
# number of rings (size 3 to 8) (size 9 to 14) (size 15 to 20)
#    0.000    1.714    1.429    2.143    6.000    0.000 
#    5.143    0.000    0.000    0.000    0.000    0.000 
#    0.000    0.000    0.000    0.000    0.000    0.000 
#
# Total GULP energy -347220.139096 kJ/mol
# GULP energy per Si atom -12400.719253 kJ/mol
# Density = 2.115255 g / cm^3
# Si number density = 21.200800 Si / 1000 Ang^3
#
#
#
# Elastic Constant Matrix: (Units=GPa)
#
#
# Indices 1 2 3 4 5 6 
#
# 1 100.6141 38.8253 20.5070 0.0000 -9.9260 0.0000
# 2 38.8253 91.0570 24.1942 0.0000 -8.8784 0.0000
# 3 20.5070 24.1942 62.4634 0.0000 -17.5742 0.0000
# 4 0.0000 0.0000 0.0000 14.4009 0.0000 -6.7110
# 5 -9.9260 -8.8784 -17.5742 0.0000 45.0489 0.0000
# 6 0.0000 0.0000 0.0000 -6.7110 0.0000 44.5721
#
#
#
# Elastic Compliance Matrix: (Units=1/GPa)
#
#
# Indices 1 2 3 4 5 6 
#
# 1 0.012207 -0.004589 -0.001941 0.000000 0.001028 0.000000
# 2 -0.004589 0.013983 -0.003840 0.000000 0.000247 0.000000
# 3 -0.001941 -0.003840 0.019995 0.000000 0.006616 0.000000
# 4 0.000000 0.000000 0.000000 0.074680 0.000000 0.011244
# 5 0.001028 0.000247 0.006616 0.000000 0.025054 0.000000
# 6 0.000000 0.000000 0.000000 0.011244 0.000000 0.024129
#
#
# Mechanical properties :
#
#
# Convention : Reuss Voigt Hill
#
# Bulk Modulus (GPa) = 39.29968 46.79859 43.04914
# Shear Modulus (GPa) = 25.09163 32.17824 28.63494
#
# Velocity S-wave (km/s) = 3.44397 3.90010 3.67911
# Velocity P-wave (km/s) = 5.86444 6.51175 6.19656
#
# Compressibility (1/GPa) = 0.02544550
#
# Stress axis : x y z
#
# Youngs Moduli (GPa) = 81.92208 71.51471 50.01138
#
# Poissons Ratio (x) = 0.32817 0.09707
# Poissons Ratio (y) = 0.37593 0.19206
# Poissons Ratio (z) = 0.15900 0.27463
#
# Static dielectric constant tensor:
#      x y z
#    x 4.014700 0.000000 -0.057430 
#    y 0.000000 3.973660 0.000000 
#    z -0.057430 0.000000 3.535970 
# 
# 
# High freq. dielectric constant tensor:
#      x y z
#    x 1.842310 0.000000 -0.009370 
#    y 0.000000 1.840970 0.000000 
#    z -0.009370 0.000000 1.800690 
# 
# From -- ./inp_files/218650.got.cif
#   From: 2010.06.25/outbox.cif.g09.slc.cpg/sg15_110_cif.got.tgz:218650.got - 2010.06.28 07:06:18.
