data_PCOD8142189
_publ_section_title
;
Structure prediction by ZEFSAII (Michael W. Deem and Ramdas Pophale) SiO2 
 PCOD8142189
Probable space group: C 2/C
;
_chemical_formula_sum "Si O2"
_cell_formula_units_Z 64
_cell_length_a 20.682903
_cell_length_b 19.928763
_cell_length_c 11.544532
_cell_angle_alpha 90.000000
_cell_angle_beta 45.744039
_cell_angle_gamma 90.000000
_cell_volume 3408.162381
_symmetry_space_group_name_H-M "C 2/C"
_symmetry_group_IT_number 15
_symmetry_cell_setting 'monoclinic'
loop_
_space_group_symop_operation_xyz
x,y,z
-x,y,1/2-z
-x,-y,-z
x,-y,1/2+z
1/2+x,1/2+y,z
1/2-x,1/2+y,1/2-z
1/2-x,1/2-y,-z
1/2+x,1/2-y,1/2+z
loop_
_atom_site_type_symbol
_atom_site_label
_atom_site_fract_x
_atom_site_fract_y
_atom_site_fract_z
Si Si1 0.290134 0.788016 0.621302
Si Si2 0.836757 0.083683 0.807906
Si Si3 0.506030 0.246257 0.612705
Si Si4 0.471780 0.371158 0.522039
Si Si5 0.795319 0.898250 0.609754
Si Si6 0.587829 0.545081 0.191221
Si Si7 0.170479 0.670987 0.680711
Si Si8 0.237408 0.946569 0.332491
O O1 0.390204 0.771119 0.540209
O O2 0.257345 0.841545 0.756249
O O3 0.225484 0.722342 0.696664
O O4 0.287209 0.823256 0.500186
O O5 0.765818 0.084400 0.792334
O O6 0.931546 0.112825 0.649990
O O7 0.847881 0.005540 0.822680
O O8 0.796598 0.120869 0.971356
O O9 0.500000 0.278066 0.750000
O O10 0.469978 0.292549 0.553188
O O11 0.437160 0.183459 0.691342
O O12 0.398887 0.397880 0.522021
O O13 0.450762 0.400220 0.674334
O O14 0.751296 0.972480 0.681803
O O15 0.500000 0.506916 0.250000
O O16 0.645844 0.576513 0.013477
O O17 0.180592 0.593686 0.709519
#
# Coordination Sequence:
#
# PCOD8142189 Si02
#       8
#     8   8   8   8   8   8   8   8
#     4  10  21  40  63  90 118 153 198 258 297 347
#     4  11  22  33  50  82 122 160 194 230 291 365
#     4  10  22  37  63  92 115 147 200 255 304 343
#     4  12  19  35  55  86 122 155 190 246 299 364
#     4  11  23  37  57  84 123 157 204 239 298 358
#     4  11  20  30  51  83 120 155 193 237 296 354
#     4  10  21  38  63  92 117 150 201 252 306 343
#     4  11  22  36  55  86 119 162 198 246 292 356
#
# _framework density 18.778448000000001
#
# number of rings (size 3 to 8) (size 9 to 14) (size 15 to 20)
#    0.000    1.250    3.750    4.125    5.250    0.000 
#    0.000    3.125    0.000    0.000    0.000    0.000 
#    0.000    0.000    0.000    0.000    0.000    0.000 
#
# Total GULP energy -396553.382073 kJ/mol
# GULP energy per Si atom -12392.293190 kJ/mol
# Density = 1.873571 g / cm^3
# Si number density = 18.778448 Si / 1000 Ang^3
#
#
#
# Elastic Constant Matrix: (Units=GPa)
#
#
# Indices 1 2 3 4 5 6 
#
# 1 71.1253 31.2059 24.2734 0.0000 0.9264 0.0000
# 2 31.2059 82.2549 38.8443 0.0000 8.9186 0.0000
# 3 24.2734 38.8443 97.2244 0.0000 12.2030 0.0000
# 4 0.0000 0.0000 0.0000 32.8943 0.0000 -0.1075
# 5 0.9264 8.9186 12.2030 0.0000 31.1229 0.0000
# 6 0.0000 0.0000 0.0000 -0.1075 0.0000 36.0826
#
#
#
# Elastic Compliance Matrix: (Units=1/GPa)
#
#
# Indices 1 2 3 4 5 6 
#
# 1 0.017321 -0.005705 -0.002299 0.000000 0.002020 0.000000
# 2 -0.005705 0.016988 -0.005021 0.000000 -0.002730 0.000000
# 3 -0.002299 -0.005021 0.013332 0.000000 -0.003720 0.000000
# 4 0.000000 0.000000 0.000000 0.030401 0.000000 0.000091
# 5 0.002020 -0.002730 -0.003720 0.000000 0.034312 0.000000
# 6 0.000000 0.000000 0.000000 0.000091 0.000000 0.027714
#
#
# Mechanical properties :
#
#
# Convention : Reuss Voigt Hill
#
# Bulk Modulus (GPa) = 46.31018 48.80574 47.55796
# Shear Modulus (GPa) = 28.84936 30.43869 29.64402
#
# Velocity S-wave (km/s) = 3.92382 4.03045 3.97749
# Velocity P-wave (km/s) = 6.72632 6.90696 6.81724
#
# Compressibility (1/GPa) = 0.02159353
#
# Stress axis : x y z
#
# Youngs Moduli (GPa) = 57.73414 58.86335 75.00622
#
# Poissons Ratio (x) = 0.33580 0.17242
# Poissons Ratio (y) = 0.32935 0.37657
# Poissons Ratio (z) = 0.13272 0.29553
#
# Static dielectric constant tensor:
#      x y z
#    x 3.533150 0.000000 0.244260 
#    y 0.000000 3.244080 0.000000 
#    z 0.244260 0.000000 3.599450 
# 
# 
# High freq. dielectric constant tensor:
#      x y z
#    x 1.723720 0.000000 0.015910 
#    y 0.000000 1.711210 0.000000 
#    z 0.015910 0.000000 1.719610 
# 
# From -- ./inp_files/113675.got.cif
#   From: 2010.06.25/outbox.cif.g09.slc.cpg/sg15_57_cif.got.tgz:113675.got - 2010.06.28 07:06:18.
