data_PCOD8142124
_publ_section_title
;
Structure prediction by ZEFSAII (Michael W. Deem and Ramdas Pophale) SiO2 
 PCOD8142124
Probable space group: C 2/C
;
_chemical_formula_sum "Si O2"
_cell_formula_units_Z 56
_cell_length_a 11.696459
_cell_length_b 26.747072
_cell_length_c 9.290690
_cell_angle_alpha 90.000000
_cell_angle_beta 113.620384
_cell_angle_gamma 90.000000
_cell_volume 2663.044971
_symmetry_space_group_name_H-M "C 2/C"
_symmetry_group_IT_number 15
_symmetry_cell_setting 'monoclinic'
loop_
_space_group_symop_operation_xyz
x,y,z
-x,y,1/2-z
-x,-y,-z
x,-y,1/2+z
1/2+x,1/2+y,z
1/2-x,1/2+y,1/2-z
1/2-x,1/2-y,-z
1/2+x,1/2-y,1/2+z
loop_
_atom_site_type_symbol
_atom_site_label
_atom_site_fract_x
_atom_site_fract_y
_atom_site_fract_z
Si Si1 0.378820 0.942977 0.768738
Si Si2 0.938963 0.214084 0.079303
Si Si3 0.500000 0.847327 0.750000
Si Si4 0.133338 0.272996 0.025972
Si Si5 0.000000 0.006332 0.750000
Si Si6 0.827894 0.977530 0.407717
Si Si7 0.111381 0.418598 0.399822
Si Si8 0.683516 0.812781 0.360631
O O1 0.500000 0.967787 0.750000
O O2 0.382447 0.883173 0.735749
O O3 0.251062 0.970072 0.650723
O O4 0.392342 0.945874 0.947943
O O5 0.876873 0.266674 0.088404
O O6 0.000000 0.187969 0.250000
O O7 0.047160 0.224894 0.018105
O O8 0.830527 0.178622 0.965552
O O9 0.449806 0.812265 0.600843
O O10 0.175344 0.304064 0.186487
O O11 0.250000 0.250000 0.000000
O O12 0.096575 0.036860 0.699517
O O13 0.919024 0.975572 0.592203
O O14 0.736430 0.931722 0.378199
O O15 0.106519 0.358593 0.390952
O O16 0.000000 0.441377 0.250000
#
# Coordination Sequence:
#
# PCOD8142124 Si02
#       8
#     8   8   4   8   4   8   8   8
#     4  10  24  41  65  99 128 165 221 277 335 379
#     4   9  19  38  60  85 121 168 210 253 317 391
#     4  10  22  38  60  93 130 160 207 268 320 380
#     4  11  21  37  62  94 130 171 206 264 326 385
#     4  10  24  44  64  89 124 178 213 264 328 410
#     4  11  23  44  68  92 130 172 221 266 336 398
#     4  12  24  40  68  97 128 166 220 282 333 389
#     4  10  21  38  62  90 126 164 218 261 322 389
#
# _framework density 21.028561
#
# number of rings (size 3 to 8) (size 9 to 14) (size 15 to 20)
#    0.429    1.143    1.429    4.286    2.000    3.429 
#    1.286    4.286    0.000    0.857    0.000    0.000 
#    0.000    0.000    0.000    0.000    0.000    0.000 
#
# Total GULP energy -346868.470508 kJ/mol
# GULP energy per Si atom -12388.159661 kJ/mol
# Density = 2.098070 g / cm^3
# Si number density = 21.028561 Si / 1000 Ang^3
#
#
#
# Elastic Constant Matrix: (Units=GPa)
#
#
# Indices 1 2 3 4 5 6 
#
# 1 135.9981 9.6832 58.1806 0.0000 -10.1569 0.0000
# 2 9.6832 47.8130 25.4083 0.0000 -1.2084 0.0000
# 3 58.1806 25.4083 137.2128 0.0000 7.2122 0.0000
# 4 0.0000 0.0000 0.0000 177.6756 0.0000 -209.0143
# 5 -10.1569 -1.2084 7.2122 0.0000 40.0587 0.0000
# 6 0.0000 0.0000 0.0000 -209.0143 0.0000 244.1670
#
#
#
# Elastic Compliance Matrix: (Units=1/GPa)
#
#
# Indices 1 2 3 4 5 6 
#
# 1 0.009360 0.000422 -0.004212 0.000000 0.003144 0.000000
# 2 0.000422 0.023305 -0.004580 0.000000 0.001635 0.000000
# 3 -0.004212 -0.004580 0.010081 0.000000 -0.003021 0.000000
# 4 0.000000 0.000000 0.000000 -0.801980 0.000000 -0.686519
# 5 0.003144 0.001635 -0.003021 0.000000 0.026354 0.000000
# 6 0.000000 0.000000 0.000000 -0.686519 0.000000 -0.583585
#
#
# Mechanical properties :
#
#
# Convention : Reuss Voigt Hill
#
# Bulk Modulus (GPa) = 38.45441 56.39645 47.42543
# Shear Modulus (GPa) = -3.87280 107.56371 51.84546
#
# Velocity S-wave (km/s) = -1.35856 7.15977 4.97074
# Velocity P-wave (km/s) = 3.98316 9.75843 7.45293
#
# Compressibility (1/GPa) = 0.02600482
#
# Stress axis : x y z
#
# Youngs Moduli (GPa) = 106.83992 42.90987 99.19686
#
# Poissons Ratio (x) = -0.01812 0.41784
# Poissons Ratio (y) = -0.04512 0.45436
# Poissons Ratio (z) = 0.45003 0.19654
#
# Static dielectric constant tensor:
#      x y z
#    x 4.211890 0.000000 0.128400 
#    y 0.000000 3.405920 0.000000 
#    z 0.128400 0.000000 3.886230 
# 
# 
# High freq. dielectric constant tensor:
#      x y z
#    x 1.837800 0.000000 0.002240 
#    y 0.000000 1.790680 0.000000 
#    z 0.002240 0.000000 1.837700 
# 
# From -- ./inp_files/35325.got.cif
#   From: 2010.06.25/outbox.cif.g09.slc.cpg/sg15_18_cif.got.tgz:35325.got - 2010.06.28 07:06:18.
