data_PCOD8142572
_publ_section_title
;
Structure prediction by ZEFSAII (Michael W. Deem and Ramdas Pophale) SiO2 
 PCOD8142572
Probable space group: C 2/C
;
_chemical_formula_sum "Si O2"
_cell_formula_units_Z 64
_cell_length_a 9.359817
_cell_length_b 18.637843
_cell_length_c 30.935594
_cell_angle_alpha 90.000000
_cell_angle_beta 143.449142
_cell_angle_gamma 90.000000
_cell_volume 3213.879204
_symmetry_space_group_name_H-M "C 2/C"
_symmetry_group_IT_number 15
_symmetry_cell_setting 'monoclinic'
loop_
_space_group_symop_operation_xyz
x,y,z
-x,y,1/2-z
-x,-y,-z
x,-y,1/2+z
1/2+x,1/2+y,z
1/2-x,1/2+y,1/2-z
1/2-x,1/2-y,-z
1/2+x,1/2-y,1/2+z
loop_
_atom_site_type_symbol
_atom_site_label
_atom_site_fract_x
_atom_site_fract_y
_atom_site_fract_z
Si Si1 0.356747 0.067765 0.447142
Si Si2 0.565167 0.475304 0.168545
Si Si3 0.807104 0.117136 0.672882
Si Si4 0.872207 0.240968 0.575186
Si Si5 0.465444 0.025007 0.831222
Si Si6 0.103603 0.891807 0.094149
Si Si7 0.132012 0.604010 0.428001
Si Si8 0.052904 0.692487 0.967093
O O1 0.499231 0.094053 0.440667
O O2 0.325554 0.128754 0.476043
O O3 0.500000 0.000000 0.500000
O O4 0.092225 0.047154 0.366783
O O5 0.431022 0.407985 0.158557
O O6 0.824158 0.492183 0.252408
O O7 0.580254 0.458101 0.121481
O O8 0.730994 0.046283 0.680876
O O9 0.569572 0.163474 0.606507
O O10 0.000000 0.159790 0.750000
O O11 0.750000 0.250000 0.500000
O O12 0.967024 0.319131 0.613717
O O13 0.669324 0.222076 0.560085
O O14 0.082426 0.181490 0.618127
O O15 0.639043 0.093751 0.865511
O O16 0.598765 0.954908 0.882454
O O17 0.913640 0.894093 0.008803
O O18 0.250000 0.750000 0.000000
#
# Coordination Sequence:
#
# PCOD8142572 Si02
#       8
#     8   8   8   8   8   8   8   8
#     4  12  19  39  66  88 118 160 211 252 314 366
#     4  11  21  40  65  86 124 162 206 264 311 365
#     4  10  21  39  62  88 122 160 207 259 306 366
#     4  10  21  40  59  86 130 162 195 254 319 368
#     4  11  24  36  63  98 123 155 217 263 310 367
#     4  11  21  39  64  90 125 166 205 252 313 381
#     4  11  21  37  63  92 125 162 202 262 316 366
#     4  12  24  39  64  97 121 164 215 258 307 378
#
# _framework density 19.913629
#
# number of rings (size 3 to 8) (size 9 to 14) (size 15 to 20)
#    0.000    1.000    7.500    0.750    3.500    1.000 
#    0.000    1.250    5.500    0.000    0.000    0.000 
#    0.000    0.000    0.000    0.000    0.000    0.000 
#
# Total GULP energy -396527.157319 kJ/mol
# GULP energy per Si atom -12391.473666 kJ/mol
# Density = 1.986830 g / cm^3
# Si number density = 19.913629 Si / 1000 Ang^3
#
#
#
# Elastic Constant Matrix: (Units=GPa)
#
#
# Indices 1 2 3 4 5 6 
#
# 1 67.3676 35.0525 18.5873 0.0007 5.2587 0.0005
# 2 35.0525 120.5646 54.3466 0.0001 6.8635 0.0002
# 3 18.5873 54.3466 118.8780 0.0010 10.2698 0.0004
# 4 0.0007 0.0001 0.0010 21.3739 0.0005 2.2464
# 5 5.2587 6.8635 10.2698 0.0005 25.0069 0.0004
# 6 0.0005 0.0002 0.0004 2.2464 0.0004 32.8840
#
#
#
# Elastic Compliance Matrix: (Units=1/GPa)
#
#
# Indices 1 2 3 4 5 6 
#
# 1 0.017634 -0.004842 -0.000351 0.000000 -0.002235 0.000000
# 2 -0.004842 0.011798 -0.004608 0.000000 -0.000327 0.000000
# 3 -0.000351 -0.004608 0.010843 0.000000 -0.003114 0.000000
# 4 0.000000 0.000000 0.000000 0.047124 -0.000001 -0.003219
# 5 -0.002235 -0.000327 -0.003114 -0.000001 0.041828 0.000000
# 6 0.000000 0.000000 0.000000 -0.003219 0.000000 0.030630
#
#
# Mechanical properties :
#
#
# Convention : Reuss Voigt Hill
#
# Bulk Modulus (GPa) = 48.37073 58.08699 53.22886
# Shear Modulus (GPa) = 26.83136 29.10788 27.96962
#
# Velocity S-wave (km/s) = 3.67466 3.82737 3.75179
# Velocity P-wave (km/s) = 6.50747 6.98316 6.74951
#
# Compressibility (1/GPa) = 0.02067366
#
# Stress axis : x y z
#
# Youngs Moduli (GPa) = 56.70749 84.76148 92.22913
#
# Poissons Ratio (x) = 0.41038 0.03235
# Poissons Ratio (y) = 0.27455 0.42501
# Poissons Ratio (z) = 0.01989 0.39060
#
# Static dielectric constant tensor:
#      x y z
#    x 3.556930 0.000000 0.095630 
#    y 0.000000 3.931920 0.000000 
#    z 0.095630 0.000000 3.299330 
# 
# 
# High freq. dielectric constant tensor:
#      x y z
#    x 1.783840 0.000000 -0.006050 
#    y 0.000000 1.762010 0.000000 
#    z -0.006050 0.000000 1.767500 
# 
# From -- ./inp_files/308810.got.cif
#   From: 2010.06.25/outbox.cif.g09.slc.cpg/sg15_155_cif.got.tgz:308810.got - 2010.06.28 07:06:18.
