data_PCOD8142229
_publ_section_title
;
Structure prediction by ZEFSAII (Michael W. Deem and Ramdas Pophale) SiO2 
 PCOD8142229
Probable space group: C 2/C
;
_chemical_formula_sum "Si O2"
_cell_formula_units_Z 52
_cell_length_a 11.090019
_cell_length_b 23.920491
_cell_length_c 13.474951
_cell_angle_alpha 90.000000
_cell_angle_beta 126.901591
_cell_angle_gamma 90.000000
_cell_volume 2858.507159
_symmetry_space_group_name_H-M "C 2/C"
_symmetry_group_IT_number 15
_symmetry_cell_setting 'monoclinic'
loop_
_space_group_symop_operation_xyz
x,y,z
-x,y,1/2-z
-x,-y,-z
x,-y,1/2+z
1/2+x,1/2+y,z
1/2-x,1/2+y,1/2-z
1/2-x,1/2-y,-z
1/2+x,1/2-y,1/2+z
loop_
_atom_site_type_symbol
_atom_site_label
_atom_site_fract_x
_atom_site_fract_y
_atom_site_fract_z
Si Si1 0.741985 0.961155 0.000429
Si Si2 0.500000 0.504575 0.250000
Si Si3 0.721617 0.455153 0.707368
Si Si4 0.818071 0.763458 0.143412
Si Si5 0.391950 0.138215 0.957988
Si Si6 0.616994 0.840984 0.720973
Si Si7 0.522042 0.043405 0.646973
O O1 0.810615 0.964235 0.924497
O O2 0.626758 0.011861 0.965554
O O3 0.663447 0.901735 0.979595
O O4 0.875559 0.963872 0.144468
O O5 0.431964 0.541992 0.305229
O O6 0.783663 0.393935 0.756903
O O7 0.837930 0.502217 0.802155
O O8 0.739219 0.819899 0.144081
O O9 0.776101 0.710728 0.193021
O O10 0.000000 0.770128 0.250000
O O11 0.750000 0.750000 0.000000
O O12 0.451757 0.101486 0.896301
O O13 0.525739 0.174438 0.074704
O O14 0.500000 0.856076 0.750000
O O15 0.500000 0.058992 0.750000
#
# Coordination Sequence:
#
# PCOD8142229 Si02
#       7
#     8   4   8   8   8   8   8
#     4  11  21  36  56  87 117 158 192 239 299 360
#     4  12  24  32  48  88 128 154 182 240 308 352
#     4  11  20  37  58  83 120 153 199 238 296 365
#     4  11  22  37  57  91 122 154 203 253 302 342
#     4  12  20  36  63  88 116 150 199 251 299 351
#     4  11  19  37  62  84 110 157 199 247 292 349
#     4  10  21  38  64  88 113 155 204 242 290 363
#
# _framework density 18.191313999999998
#
# number of rings (size 3 to 8) (size 9 to 14) (size 15 to 20)
#    0.000    0.923    7.692    2.308    1.077    0.000 
#    0.000    0.000    1.692    0.923    0.000    0.000 
#    0.000    0.000    0.000    0.000    0.000    0.000 
#
# Total GULP energy -322264.888729 kJ/mol
# GULP energy per Si atom -12394.803413 kJ/mol
# Density = 1.814991 g / cm^3
# Si number density = 18.191314 Si / 1000 Ang^3
#
#
#
# Elastic Constant Matrix: (Units=GPa)
#
#
# Indices 1 2 3 4 5 6 
#
# 1 97.8082 41.4684 30.9622 0.0000 -12.1193 0.0000
# 2 41.4684 108.7567 50.3326 0.0000 -1.2934 0.0000
# 3 30.9622 50.3326 128.6089 0.0000 5.1649 0.0000
# 4 0.0000 0.0000 0.0000 -42.7799 0.0000 8.4609
# 5 -12.1193 -1.2934 5.1649 0.0000 19.6769 0.0000
# 6 0.0000 0.0000 0.0000 8.4609 0.0000 23.3447
#
#
#
# Elastic Compliance Matrix: (Units=1/GPa)
#
#
# Indices 1 2 3 4 5 6 
#
# 1 0.013718 -0.004197 -0.002009 0.000000 0.008700 0.000000
# 2 -0.004197 0.012584 -0.003885 0.000000 -0.000738 0.000000
# 3 -0.002009 -0.003885 0.009944 0.000000 -0.004103 0.000000
# 4 0.000000 0.000000 0.000000 -0.021812 0.000000 0.007905
# 5 0.008700 -0.000738 -0.004103 0.000000 0.057208 0.000000
# 6 0.000000 0.000000 0.000000 0.007905 0.000000 0.039971
#
#
# Mechanical properties :
#
#
# Convention : Reuss Voigt Hill
#
# Bulk Modulus (GPa) = 62.25195 64.52225 63.38710
# Shear Modulus (GPa) = 36.45610 14.20905 25.33257
#
# Velocity S-wave (km/s) = 4.48151 2.79783 3.73576
# Velocity P-wave (km/s) = 7.81495 6.78107 7.31630
#
# Compressibility (1/GPa) = 0.01606375
#
# Stress axis : x y z
#
# Youngs Moduli (GPa) = 72.89849 79.46371 100.55855
#
# Poissons Ratio (x) = 0.33352 0.20205
# Poissons Ratio (y) = 0.30596 0.39067
# Poissons Ratio (z) = 0.14648 0.30871
#
# Static dielectric constant tensor:
#      x y z
#    x 3.254140 0.000000 0.006820 
#    y 0.000000 3.371640 0.000000 
#    z 0.006820 0.000000 3.565880 
# 
# 
# High freq. dielectric constant tensor:
#      x y z
#    x 1.679230 0.000000 -0.003090 
#    y 0.000000 1.693790 0.000000 
#    z -0.003090 0.000000 1.724550 
# 
# From -- ./inp_files/147210.got.cif
#   From: 2010.06.25/outbox.cif.g09.slc.cpg/sg15_74_cif.got.tgz:147210.got - 2010.06.28 07:06:18.
