data_PCOD8142850
_publ_section_title
;
Structure prediction by ZEFSAII (Michael W. Deem and Ramdas Pophale) SiO2 
 PCOD8142850
Probable space group: C 2/C
;
_chemical_formula_sum "Si O2"
_cell_formula_units_Z 60
_cell_length_a 29.207628
_cell_length_b 17.198350
_cell_length_c 12.039829
_cell_angle_alpha 90.000000
_cell_angle_beta 29.120586
_cell_angle_gamma 90.000000
_cell_volume 2943.198030
_symmetry_space_group_name_H-M "C 2/C"
_symmetry_group_IT_number 15
_symmetry_cell_setting 'monoclinic'
loop_
_space_group_symop_operation_xyz
x,y,z
-x,y,1/2-z
-x,-y,-z
x,-y,1/2+z
1/2+x,1/2+y,z
1/2-x,1/2+y,1/2-z
1/2-x,1/2-y,-z
1/2+x,1/2-y,1/2+z
loop_
_atom_site_type_symbol
_atom_site_label
_atom_site_fract_x
_atom_site_fract_y
_atom_site_fract_z
Si Si1 0.154815 0.913081 0.404657
Si Si2 0.892520 0.350720 0.637076
Si Si3 0.793997 0.737024 0.163060
Si Si4 0.100481 0.725862 0.998922
Si Si5 0.000000 0.535698 0.750000
Si Si6 0.857133 0.577069 0.449179
Si Si7 0.062773 0.247087 0.333213
Si Si8 0.486011 0.573895 0.106709
O O1 0.193736 0.827019 0.337823
O O2 0.092709 0.947978 0.635711
O O3 0.089488 0.911533 0.435425
O O4 0.252572 0.961002 0.186863
O O5 0.808325 0.313866 0.743183
O O6 0.856565 0.388614 0.826372
O O7 0.938084 0.415215 0.464255
O O8 0.961110 0.279986 0.520181
O O9 0.686875 0.718811 0.352360
O O10 0.868104 0.719852 0.908162
O O11 0.115192 0.641124 0.018536
O O12 0.000000 0.761929 0.250000
O O13 0.102216 0.717282 0.862854
O O14 0.933907 0.488879 0.805068
O O15 0.052368 0.153491 0.368039
O O16 0.500000 0.500000 0.000000
#
# Coordination Sequence:
#
# PCOD8142850 Si02
#       8
#     8   8   8   8   4   8   8   8
#     4   9  21  41  65  88 127 162 213 263 324 394
#     4  12  22  40  71  93 127 176 227 267 321 404
#     4  10  21  39  66  94 119 171 224 263 319 396
#     4  11  22  39  61  92 132 166 209 270 333 384
#     4  12  24  42  62 100 128 176 222 268 332 392
#     4  11  24  42  60  96 136 170 206 276 337 387
#     4  11  20  41  64  94 125 166 218 275 325 388
#     4  10  21  41  66  90 119 167 213 269 332 386
#
# _framework density 20.385988000000001
#
# number of rings (size 3 to 8) (size 9 to 14) (size 15 to 20)
#    0.000    1.333    4.667    0.800    0.000    4.267 
#    4.800    1.333    0.000    0.000    0.000    0.000 
#    0.000    0.000    0.000    0.000    0.000    0.000 
#
# Total GULP energy -371847.405453 kJ/mol
# GULP energy per Si atom -12394.913515 kJ/mol
# Density = 2.033959 g / cm^3
# Si number density = 20.385988 Si / 1000 Ang^3
#
#
#
# Elastic Constant Matrix: (Units=GPa)
#
#
# Indices 1 2 3 4 5 6 
#
# 1 142.0646 34.6123 52.1271 0.0000 -4.4365 0.0000
# 2 34.6123 56.8214 24.3317 0.0000 8.2476 0.0000
# 3 52.1271 24.3317 110.7845 0.0000 -27.0611 0.0000
# 4 0.0000 0.0000 0.0000 20.6195 0.0000 3.7600
# 5 -4.4365 8.2476 -27.0611 0.0000 38.8142 0.0000
# 6 0.0000 0.0000 0.0000 3.7600 0.0000 35.9380
#
#
#
# Elastic Compliance Matrix: (Units=1/GPa)
#
#
# Indices 1 2 3 4 5 6 
#
# 1 0.009347 -0.004032 -0.003667 0.000000 -0.000631 0.000000
# 2 -0.004032 0.023851 -0.005655 0.000000 -0.009472 0.000000
# 3 -0.003667 -0.005655 0.014686 0.000000 0.011022 0.000000
# 4 0.000000 0.000000 0.000000 0.049441 0.000000 -0.005173
# 5 -0.000631 -0.009472 0.011022 0.000000 0.035388 0.000000
# 6 0.000000 0.000000 0.000000 -0.005173 0.000000 0.028367
#
#
# Mechanical properties :
#
#
# Convention : Reuss Voigt Hill
#
# Bulk Modulus (GPa) = 47.22053 59.09029 53.15541
# Shear Modulus (GPa) = 25.66112 32.31430 28.98771
#
# Velocity S-wave (km/s) = 3.55175 3.98568 3.77496
# Velocity P-wave (km/s) = 6.32720 7.08728 6.71800
#
# Compressibility (1/GPa) = 0.02117723
#
# Stress axis : x y z
#
# Youngs Moduli (GPa) = 106.98523 41.92625 68.09184
#
# Poissons Ratio (x) = 0.16904 0.24967
# Poissons Ratio (y) = 0.43136 0.38506
# Poissons Ratio (z) = 0.39228 0.23709
#
# Static dielectric constant tensor:
#      x y z
#    x 4.086920 0.000000 -0.239350 
#    y 0.000000 3.460690 0.000000 
#    z -0.239350 0.000000 4.159480 
# 
# 
# High freq. dielectric constant tensor:
#      x y z
#    x 1.810260 0.000000 -0.007510 
#    y 0.000000 1.770920 0.000000 
#    z -0.007510 0.000000 1.810060 
# 
# From -- ./inp_files/123992.got.cif
#   From: 2010.06.25/outbox.cif.g09.slc.cpg/sg15_62_cif.got.tgz:123992.got - 2010.06.28 07:06:18.
