data_PCOD8142400
_publ_section_title
;
Structure prediction by ZEFSAII (Michael W. Deem and Ramdas Pophale) SiO2 
 PCOD8142400
Probable space group: C 2/C
;
_chemical_formula_sum "Si O2"
_cell_formula_units_Z 64
_cell_length_a 8.626917
_cell_length_b 23.786566
_cell_length_c 28.697146
_cell_angle_alpha 90.000000
_cell_angle_beta 149.397649
_cell_angle_gamma 90.000000
_cell_volume 2997.846038
_symmetry_space_group_name_H-M "C 2/C"
_symmetry_group_IT_number 15
_symmetry_cell_setting 'monoclinic'
loop_
_space_group_symop_operation_xyz
x,y,z
-x,y,1/2-z
-x,-y,-z
x,-y,1/2+z
1/2+x,1/2+y,z
1/2-x,1/2+y,1/2-z
1/2-x,1/2-y,-z
1/2+x,1/2-y,1/2+z
loop_
_atom_site_type_symbol
_atom_site_label
_atom_site_fract_x
_atom_site_fract_y
_atom_site_fract_z
Si Si1 0.181024 0.743889 0.536254
Si Si2 0.164424 0.958720 0.576607
Si Si3 0.657865 0.660993 0.402006
Si Si4 0.329109 0.862741 0.313947
Si Si5 0.417660 0.654146 0.013689
Si Si6 0.816995 0.967387 0.583401
Si Si7 0.820322 0.253190 0.752842
Si Si8 0.782764 0.018276 0.738435
O O1 0.250000 0.750000 0.500000
O O2 0.463572 0.752249 0.645356
O O3 0.000815 0.685327 0.494467
O O4 0.944334 0.792302 0.487790
O O5 0.142475 0.894558 0.552928
O O6 0.973750 0.961426 0.574471
O O7 0.519406 0.971780 0.670978
O O8 0.000000 0.000000 0.500000
O O9 0.502405 0.667663 0.412377
O O10 0.697982 0.595474 0.397763
O O11 0.427558 0.695599 0.308059
O O12 0.567218 0.865207 0.418192
O O13 0.363323 0.806066 0.292218
O O14 0.370239 0.920136 0.295327
O O15 0.000000 0.864110 0.250000
O O16 0.500000 0.000000 0.500000
O O17 0.022682 0.008905 0.665833
O O18 0.000000 0.256977 0.750000
O O19 0.000000 0.011822 0.750000
#
# Coordination Sequence:
#
# PCOD8142400 Si02
#       8
#     8   8   8   8   8   8   8   8
#     4  12  27  43  66 102 143 171 223 293 362 403
#     4  11  23  43  70  98 136 181 232 286 347 410
#     4  11  24  45  71  97 132 185 238 279 339 430
#     4  10  21  38  70  99 128 172 231 281 336 415
#     4  11  22  44  72  98 132 183 236 279 341 432
#     4  11  27  43  68 101 140 183 242 289 344 415
#     4  11  22  42  73  99 128 179 231 282 338 418
#     4  11  24  43  66 100 138 180 229 284 346 416
#
# _framework density 21.348659999999999
#
# number of rings (size 3 to 8) (size 9 to 14) (size 15 to 20)
#    0.000    1.000    3.750    3.000    8.750    2.500 
#    0.000    0.000    0.000    0.000    0.000    0.000 
#    0.000    0.000    0.000    0.000    0.000    0.000 
#
# Total GULP energy -396570.347897 kJ/mol
# GULP energy per Si atom -12392.823372 kJ/mol
# Density = 2.130007 g / cm^3
# Si number density = 21.348660 Si / 1000 Ang^3
#
#
#
# Elastic Constant Matrix: (Units=GPa)
#
#
# Indices 1 2 3 4 5 6 
#
# 1 56.0135 23.9867 19.4414 -0.0053 -4.2765 -0.0224
# 2 23.9867 124.0004 44.6664 -0.0045 4.8837 -0.0087
# 3 19.4414 44.6664 162.5484 -0.0147 -2.3991 -0.0095
# 4 -0.0053 -0.0045 -0.0147 42.9248 -0.0031 6.7552
# 5 -4.2765 4.8837 -2.3991 -0.0031 37.8465 -0.0157
# 6 -0.0224 -0.0087 -0.0095 6.7552 -0.0157 30.8081
#
#
#
# Elastic Compliance Matrix: (Units=1/GPa)
#
#
# Indices 1 2 3 4 5 6 
#
# 1 0.020027 -0.003472 -0.001402 0.000000 0.002622 0.000015
# 2 -0.003472 0.009618 -0.002254 0.000000 -0.001776 -0.000001
# 3 -0.001402 -0.002254 0.006948 0.000002 0.000573 0.000000
# 4 0.000000 0.000000 0.000002 0.024129 0.000000 -0.005291
# 5 0.002622 -0.001776 0.000573 0.000000 0.026984 0.000015
# 6 0.000015 -0.000001 0.000000 -0.005291 0.000015 0.033619
#
#
# Mechanical properties :
#
#
# Convention : Reuss Voigt Hill
#
# Bulk Modulus (GPa) = 44.77199 57.63901 51.20550
# Shear Modulus (GPa) = 34.95855 39.28042 37.11949
#
# Velocity S-wave (km/s) = 4.05100 4.29411 4.17433
# Velocity P-wave (km/s) = 6.54967 7.18633 6.87537
#
# Compressibility (1/GPa) = 0.02233539
#
# Stress axis : x y z
#
# Youngs Moduli (GPa) = 49.93351 103.97233 143.93582
#
# Poissons Ratio (x) = 0.36100 0.20187
# Poissons Ratio (y) = 0.17337 0.32441
# Poissons Ratio (z) = 0.07003 0.23434
#
# Static dielectric constant tensor:
#      x y z
#    x 3.483210 0.000030 0.035390 
#    y 0.000030 4.465420 -0.000070 
#    z 0.035390 -0.000070 4.063640 
# 
# 
# High freq. dielectric constant tensor:
#      x y z
#    x 1.800970 0.000000 0.003510 
#    y 0.000000 1.860000 -0.000010 
#    z 0.003510 -0.000010 1.857550 
# 
# From -- ./inp_files/309124.got.cif
#   From: 2010.06.25/outbox.cif.g09.slc.cpg/sg15_155_cif.got.tgz:309124.got - 2010.06.28 07:06:18.
