data_PCOD8142960
_publ_section_title
;
Structure prediction by ZEFSAII (Michael W. Deem and Ramdas Pophale) SiO2 
 PCOD8142960
Probable space group: C 2/C
;
_chemical_formula_sum "Si O2"
_cell_formula_units_Z 56
_cell_length_a 21.674734
_cell_length_b 9.429953
_cell_length_c 13.963078
_cell_angle_alpha 90.000000
_cell_angle_beta 89.169679
_cell_angle_gamma 90.000000
_cell_volume 2853.637892
_symmetry_space_group_name_H-M "C 2/C"
_symmetry_group_IT_number 15
_symmetry_cell_setting 'monoclinic'
loop_
_space_group_symop_operation_xyz
x,y,z
-x,y,1/2-z
-x,-y,-z
x,-y,1/2+z
1/2+x,1/2+y,z
1/2-x,1/2+y,1/2-z
1/2-x,1/2-y,-z
1/2+x,1/2-y,1/2+z
loop_
_atom_site_type_symbol
_atom_site_label
_atom_site_fract_x
_atom_site_fract_y
_atom_site_fract_z
Si Si1 0.128228 0.019988 0.881702
Si Si2 0.133197 0.986143 0.608742
Si Si3 0.004680 0.911658 0.095307
Si Si4 0.308621 0.289418 0.266681
Si Si5 0.399427 0.967504 0.749401
Si Si6 0.998912 0.415345 0.902276
Si Si7 0.165510 0.233998 0.258770
O O1 0.140331 0.860382 0.847039
O O2 0.059434 0.064827 0.847201
O O3 0.176089 0.127068 0.831499
O O4 0.136810 0.030777 0.995024
O O5 0.150498 0.837040 0.656647
O O6 0.179701 0.108790 0.642416
O O7 0.064893 0.029871 0.648938
O O8 0.015733 0.747041 0.073183
O O9 0.000000 0.000000 0.000000
O O10 0.347919 0.147269 0.275222
O O11 0.238098 0.247040 0.267905
O O12 0.446112 0.981352 0.836824
O O13 0.435240 0.924484 0.651972
O O14 0.367022 0.116173 0.733001
O O15 0.000000 0.500000 0.000000
#
# Coordination Sequence:
#
# PCOD8142960 Si02
#       7
#     8   8   8   8   8   8   8
#     4  10  23  42  68  92 121 164 212 255 310 371
#     4  10  23  42  68  92 121 164 212 255 310 371
#     4  10  21  39  69  93 121 158 210 252 310 376
#     4  11  22  45  63  89 132 164 212 255 300 369
#     4  11  24  39  64  95 129 163 200 262 323 359
#     4  11  25  41  64  96 130 161 199 259 324 374
#     4  11  26  40  63  94 125 168 214 255 299 371
#
# _framework density 19.624074
#
# number of rings (size 3 to 8) (size 9 to 14) (size 15 to 20)
#    0.000    1.429    2.857    1.714    8.000    4.571 
#    0.000    2.857    0.000    0.000    0.000    0.000 
#    0.000    0.000    0.000    0.000    0.000    0.000 
#
# Total GULP energy -347218.642231 kJ/mol
# GULP energy per Si atom -12400.665794 kJ/mol
# Density = 1.957941 g / cm^3
# Si number density = 19.624074 Si / 1000 Ang^3
#
#
#
# Elastic Constant Matrix: (Units=GPa)
#
#
# Indices 1 2 3 4 5 6 
#
# 1 102.5070 14.0650 6.5690 0.0000 3.1884 0.0000
# 2 14.0650 81.4965 -1.5674 0.0000 3.5000 0.0000
# 3 6.5690 -1.5674 89.9724 0.0000 4.4694 0.0000
# 4 0.0000 0.0000 0.0000 34.0360 0.0000 3.4003
# 5 3.1884 3.5000 4.4694 0.0000 16.5071 0.0000
# 6 0.0000 0.0000 0.0000 3.4003 0.0000 37.7331
#
#
#
# Elastic Compliance Matrix: (Units=1/GPa)
#
#
# Indices 1 2 3 4 5 6 
#
# 1 0.010076 -0.001692 -0.000696 0.000000 -0.001399 0.000000
# 2 -0.001692 0.012678 0.000468 0.000000 -0.002488 0.000000
# 3 -0.000696 0.000468 0.011324 0.000000 -0.003031 0.000000
# 4 0.000000 0.000000 0.000000 0.029648 0.000000 -0.002672
# 5 -0.001399 -0.002488 -0.003031 0.000000 0.062198 0.000000
# 6 0.000000 0.000000 0.000000 -0.002672 0.000000 0.026743
#
#
# Mechanical properties :
#
#
# Convention : Reuss Voigt Hill
#
# Bulk Modulus (GPa) = 33.07045 34.67879 33.87462
# Shear Modulus (GPa) = 30.01453 34.64919 32.33186
#
# Velocity S-wave (km/s) = 3.91509 4.20652 4.06342
# Velocity P-wave (km/s) = 6.10949 6.42674 6.27012
#
# Compressibility (1/GPa) = 0.03023847
#
# Stress axis : x y z
#
# Youngs Moduli (GPa) = 99.24858 78.87450 88.30785
#
# Poissons Ratio (x) = 0.13347 0.06143
# Poissons Ratio (y) = 0.16795 -0.04133
# Poissons Ratio (z) = 0.06904 -0.03691
#
# Static dielectric constant tensor:
#      x y z
#    x 4.013820 0.000000 0.025080 
#    y 0.000000 3.662320 0.000000 
#    z 0.025080 0.000000 3.444360 
# 
# 
# High freq. dielectric constant tensor:
#      x y z
#    x 1.775580 0.000000 0.003010 
#    y 0.000000 1.778840 0.000000 
#    z 0.003010 0.000000 1.761420 
# 
# From -- ./inp_files/166646.got.cif
#   From: 2010.06.25/outbox.cif.g09.slc.cpg/sg15_84_cif.got.tgz:166646.got - 2010.06.28 07:06:18.
