data_PCOD8142218
_publ_section_title
;
Structure prediction by ZEFSAII (Michael W. Deem and Ramdas Pophale) SiO2 
 PCOD8142218
Probable space group: C 2/C
;
_chemical_formula_sum "Si O2"
_cell_formula_units_Z 48
_cell_length_a 28.380545
_cell_length_b 9.075244
_cell_length_c 10.202780
_cell_angle_alpha 90.000000
_cell_angle_beta 123.595417
_cell_angle_gamma 90.000000
_cell_volume 2188.893236
_symmetry_space_group_name_H-M "C 2/C"
_symmetry_group_IT_number 15
_symmetry_cell_setting 'monoclinic'
loop_
_space_group_symop_operation_xyz
x,y,z
-x,y,1/2-z
-x,-y,-z
x,-y,1/2+z
1/2+x,1/2+y,z
1/2-x,1/2+y,1/2-z
1/2-x,1/2-y,-z
1/2+x,1/2-y,1/2+z
loop_
_atom_site_type_symbol
_atom_site_label
_atom_site_fract_x
_atom_site_fract_y
_atom_site_fract_z
Si Si1 0.210371 0.448116 0.742563
Si Si2 0.435698 0.043633 0.417697
Si Si3 0.126586 0.397744 0.946307
Si Si4 0.161095 0.897005 0.592728
Si Si5 0.814665 0.290927 0.125001
Si Si6 0.129652 0.218171 0.553396
O O1 0.187341 0.517926 0.567856
O O2 0.277214 0.451193 0.856624
O O3 0.183674 0.541819 0.819789
O O4 0.184624 0.282452 0.718825
O O5 0.406835 0.042261 0.230219
O O6 0.426506 0.204642 0.472915
O O7 0.500000 0.000000 0.500000
O O8 0.409031 0.923590 0.474631
O O9 0.136658 0.220491 0.949722
O O10 0.162746 0.823862 0.735304
O O11 0.122493 0.042715 0.545565
O O12 0.750000 0.250000 0.000000
O O13 0.859291 0.274080 0.076933
#
# Coordination Sequence:
#
# PCOD8142218 Si02
#       6
#     8   8   8   8   8   8
#     4  10  21  38  64 100 146 191 225 267 336 434
#     4  11  26  49  74  99 126 182 252 304 352 403
#     4  10  25  44  72 102 138 180 236 290 344 425
#     4  11  22  39  63 106 147 180 220 280 349 431
#     4  11  21  38  59  95 151 190 232 271 340 423
#     4  11  24  38  67  97 138 190 227 290 349 405
#
# _framework density 21.928891
#
# number of rings (size 3 to 8) (size 9 to 14) (size 15 to 20)
#    0.000    1.333    3.333    1.500   16.333    0.000 
#    0.000    5.833    0.000    4.000    0.000    0.000 
#    0.000    0.000    0.000    0.000    0.000    0.000 
#
# Total GULP energy -297324.802248 kJ/mol
# GULP energy per Si atom -12388.533427 kJ/mol
# Density = 2.187898 g / cm^3
# Si number density = 21.928891 Si / 1000 Ang^3
#
#
#
# Elastic Constant Matrix: (Units=GPa)
#
#
# Indices 1 2 3 4 5 6 
#
# 1 130.4788 33.4866 54.8258 0.0000 3.0635 0.0000
# 2 33.4866 151.5154 31.2205 0.0000 6.9913 0.0000
# 3 54.8258 31.2205 120.3715 0.0000 -11.2818 0.0000
# 4 0.0000 0.0000 0.0000 24.6853 0.0000 -2.5655
# 5 3.0635 6.9913 -11.2818 0.0000 36.5315 0.0000
# 6 0.0000 0.0000 0.0000 -2.5655 0.0000 28.6420
#
#
#
# Elastic Compliance Matrix: (Units=1/GPa)
#
#
# Indices 1 2 3 4 5 6 
#
# 1 0.009846 -0.001188 -0.004359 0.000000 -0.001944 0.000000
# 2 -0.001188 0.007253 -0.001504 0.000000 -0.001753 0.000000
# 3 -0.004359 -0.001504 0.011065 0.000000 0.004070 0.000000
# 4 0.000000 0.000000 0.000000 0.040891 0.000000 0.003663
# 5 -0.001944 -0.001753 0.004070 0.000000 0.029129 0.000000
# 6 0.000000 0.000000 0.000000 0.003663 0.000000 0.035242
#
#
# Mechanical properties :
#
#
# Convention : Reuss Voigt Hill
#
# Bulk Modulus (GPa) = 71.11617 71.27017 71.19317
# Shear Modulus (GPa) = 32.84812 36.82729 34.83770
#
# Velocity S-wave (km/s) = 3.87452 4.10249 3.99013
# Velocity P-wave (km/s) = 7.24684 7.41699 7.33240
#
# Compressibility (1/GPa) = 0.01406150
#
# Stress axis : x y z
#
# Youngs Moduli (GPa) = 101.56237 137.86456 90.37854
#
# Poissons Ratio (x) = 0.16382 0.39393
# Poissons Ratio (y) = 0.12068 0.13597
# Poissons Ratio (z) = 0.44268 0.20741
#
# Static dielectric constant tensor:
#      x y z
#    x 3.889750 0.000000 -0.248850 
#    y 0.000000 3.325520 0.000000 
#    z -0.248850 0.000000 4.327590 
# 
# 
# High freq. dielectric constant tensor:
#      x y z
#    x 1.844860 0.000000 -0.032170 
#    y 0.000000 1.870030 0.000000 
#    z -0.032170 0.000000 1.853700 
# 
# From -- ./inp_files/121617.got.cif
#   From: 2010.06.25/outbox.cif.g09.slc.cpg/sg15_61_cif.got.tgz:121617.got - 2010.06.28 07:06:18.
