data_PCOD8142898
_publ_section_title
;
Structure prediction by ZEFSAII (Michael W. Deem and Ramdas Pophale) SiO2 
 PCOD8142898
Probable space group: C 2/C
;
_chemical_formula_sum "Si O2"
_cell_formula_units_Z 56
_cell_length_a 11.637115
_cell_length_b 15.433625
_cell_length_c 17.854943
_cell_angle_alpha 90.000000
_cell_angle_beta 57.724380
_cell_angle_gamma 90.000000
_cell_volume 2711.313686
_symmetry_space_group_name_H-M "C 2/C"
_symmetry_group_IT_number 15
_symmetry_cell_setting 'monoclinic'
loop_
_space_group_symop_operation_xyz
x,y,z
-x,y,1/2-z
-x,-y,-z
x,-y,1/2+z
1/2+x,1/2+y,z
1/2-x,1/2+y,1/2-z
1/2-x,1/2-y,-z
1/2+x,1/2-y,1/2+z
loop_
_atom_site_type_symbol
_atom_site_label
_atom_site_fract_x
_atom_site_fract_y
_atom_site_fract_z
Si Si1 0.641653 0.003948 0.729773
Si Si2 0.317569 0.768369 0.555522
Si Si3 0.826215 0.408878 0.026556
Si Si4 0.624047 0.063993 0.386715
Si Si5 0.865867 0.299891 0.256102
Si Si6 0.353614 0.453773 0.542783
Si Si7 0.372883 0.739271 0.088432
O O1 0.500000 0.965142 0.750000
O O2 0.690354 0.941744 0.780864
O O3 0.752616 0.012549 0.626195
O O4 0.613914 0.099929 0.771414
O O5 0.250000 0.750000 0.500000
O O6 0.296894 0.868055 0.588062
O O7 0.260276 0.709944 0.642915
O O8 0.472947 0.748905 0.489162
O O9 0.857936 0.468890 0.086073
O O10 0.789800 0.312251 0.070034
O O11 0.698285 0.448058 0.024889
O O12 0.965652 0.409431 0.929950
O O13 0.843776 0.248790 0.186688
O O14 0.000000 0.262163 0.250000
O O15 0.500000 0.500000 0.500000
O O16 0.333148 0.357514 0.581423
#
# Coordination Sequence:
#
# PCOD8142898 Si02
#       7
#     8   8   8   8   8   8   8
#     4  11  22  41  67  94 125 168 222 265 313 392
#     4  11  23  37  64  96 128 164 216 274 326 383
#     4  10  22  41  66  94 122 168 215 266 323 391
#     4  10  21  39  67  92 122 165 220 265 315 386
#     4  11  22  37  62  94 127 167 214 268 328 385
#     4  12  26  41  66  95 134 170 216 270 332 393
#     4  11  23  43  63  91 133 174 212 267 333 393
#
# _framework density 20.654194
#
# number of rings (size 3 to 8) (size 9 to 14) (size 15 to 20)
#    0.000    1.143    4.286    2.143    4.000    0.000 
#    0.000    0.714    0.000    0.000    0.000    0.000 
#    0.000    0.000    0.000    0.000    0.000    0.000 
#
# Total GULP energy -347089.529883 kJ/mol
# GULP energy per Si atom -12396.054639 kJ/mol
# Density = 2.060718 g / cm^3
# Si number density = 20.654194 Si / 1000 Ang^3
#
#
#
# Elastic Constant Matrix: (Units=GPa)
#
#
# Indices 1 2 3 4 5 6 
#
# 1 101.3428 29.3726 41.5661 0.0000 8.3010 0.0000
# 2 29.3726 90.3996 14.0063 0.0000 10.8290 0.0000
# 3 41.5661 14.0063 125.9953 0.0000 11.5943 0.0000
# 4 0.0000 0.0000 0.0000 27.2320 0.0000 3.4516
# 5 8.3010 10.8290 11.5943 0.0000 28.7837 0.0000
# 6 0.0000 0.0000 0.0000 3.4516 0.0000 32.6838
#
#
#
# Elastic Compliance Matrix: (Units=1/GPa)
#
#
# Indices 1 2 3 4 5 6 
#
# 1 0.012405 -0.003365 -0.003641 0.000000 -0.000845 0.000000
# 2 -0.003365 0.012601 0.000059 0.000000 -0.003794 0.000000
# 3 -0.003641 0.000059 0.009385 0.000000 -0.002752 0.000000
# 4 0.000000 0.000000 0.000000 0.037220 0.000000 -0.003931
# 5 -0.000845 -0.003794 -0.002752 0.000000 0.037521 0.000000
# 6 0.000000 0.000000 0.000000 -0.003931 0.000000 0.031011
#
#
# Mechanical properties :
#
#
# Convention : Reuss Voigt Hill
#
# Bulk Modulus (GPa) = 48.79050 54.18086 51.48568
# Shear Modulus (GPa) = 31.08095 33.25943 32.17019
#
# Velocity S-wave (km/s) = 3.88342 4.01721 3.95088
# Velocity P-wave (km/s) = 6.61678 6.91423 6.76714
#
# Compressibility (1/GPa) = 0.02049579
#
# Stress axis : x y z
#
# Youngs Moduli (GPa) = 80.61030 79.35969 106.55727
#
# Poissons Ratio (x) = 0.26708 0.38794
# Poissons Ratio (y) = 0.27129 -0.00624
# Poissons Ratio (z) = 0.29348 -0.00465
#
# Static dielectric constant tensor:
#      x y z
#    x 3.518930 0.000000 0.131260 
#    y 0.000000 3.903540 0.000000 
#    z 0.131260 0.000000 3.697640 
# 
# 
# High freq. dielectric constant tensor:
#      x y z
#    x 1.792700 0.000000 0.014720 
#    y 0.000000 1.814710 0.000000 
#    z 0.014720 0.000000 1.812390 
# 
# From -- ./inp_files/198236.got.cif
#   From: 2010.06.25/outbox.cif.g09.slc.cpg/sg15_100_cif.got.tgz:198236.got - 2010.06.28 07:06:18.
