data_PCOD8142221
_publ_section_title
;
Structure prediction by ZEFSAII (Michael W. Deem and Ramdas Pophale) SiO2 
 PCOD8142221
Probable space group: C 2/C
;
_chemical_formula_sum "Si O2"
_cell_formula_units_Z 40
_cell_length_a 19.470668
_cell_length_b 9.488422
_cell_length_c 15.797192
_cell_angle_alpha 90.000000
_cell_angle_beta 133.890082
_cell_angle_gamma 90.000000
_cell_volume 2103.254683
_symmetry_space_group_name_H-M "C 2/C"
_symmetry_group_IT_number 15
_symmetry_cell_setting 'monoclinic'
loop_
_space_group_symop_operation_xyz
x,y,z
-x,y,1/2-z
-x,-y,-z
x,-y,1/2+z
1/2+x,1/2+y,z
1/2-x,1/2+y,1/2-z
1/2-x,1/2-y,-z
1/2+x,1/2-y,1/2+z
loop_
_atom_site_type_symbol
_atom_site_label
_atom_site_fract_x
_atom_site_fract_y
_atom_site_fract_z
Si Si1 0.131500 0.089021 0.556344
Si Si2 0.400760 0.773100 0.125486
Si Si3 0.158739 0.364143 0.252836
Si Si4 0.948610 0.207725 0.482319
Si Si5 0.510962 0.947342 0.853935
O O1 0.139350 0.153316 0.469387
O O2 0.235719 0.094800 0.689022
O O3 0.057813 0.176304 0.550954
O O4 0.098848 0.928794 0.516936
O O5 0.500000 0.721168 0.250000
O O6 0.329476 0.797218 0.143152
O O7 0.418276 0.918237 0.088316
O O8 0.112002 0.248918 0.151584
O O9 0.091970 0.502869 0.198771
O O10 0.944129 0.331853 0.546722
O O11 0.500000 0.883954 0.750000
#
# Coordination Sequence:
#
# PCOD8142221 Si02
#       5
#     8   8   8   8   8
#     4  11  23  36  59  92 116 146 196 238 289 334
#     4   9  18  39  60  82 116 160 191 225 286 347
#     4  10  21  38  64  82 116 161 194 222 291 360
#     4  11  23  38  58  90 119 144 190 252 283 328
#     4   9  20  40  61  79 113 162 187 231 292 344
#
# _framework density 19.018145000000001
#
# number of rings (size 3 to 8) (size 9 to 14) (size 15 to 20)
#    0.000    2.400    4.000    1.200    2.800    0.800 
#    0.000    4.000    0.000    0.000    0.000    0.000 
#    0.000    0.000    0.000    0.000    0.000    0.000 
#
# Total GULP energy -247969.330476 kJ/mol
# GULP energy per Si atom -12398.466524 kJ/mol
# Density = 1.897486 g / cm^3
# Si number density = 19.018145 Si / 1000 Ang^3
#
#
#
# Elastic Constant Matrix: (Units=GPa)
#
#
# Indices 1 2 3 4 5 6 
#
# 1 88.2957 53.0884 57.4403 0.0000 8.1634 0.0000
# 2 53.0884 110.5745 67.3357 0.0000 -13.4499 0.0000
# 3 57.4403 67.3357 76.3617 0.0000 5.8869 0.0000
# 4 0.0000 0.0000 0.0000 22.8537 0.0000 -5.0547
# 5 8.1634 -13.4499 5.8869 0.0000 35.9074 0.0000
# 6 0.0000 0.0000 0.0000 -5.0547 0.0000 15.8680
#
#
#
# Elastic Compliance Matrix: (Units=1/GPa)
#
#
# Indices 1 2 3 4 5 6 
#
# 1 0.022611 -0.002404 -0.014607 0.000000 -0.003646 0.000000
# 2 -0.002404 0.024412 -0.020727 0.000000 0.013089 0.000000
# 3 -0.014607 -0.020727 0.043250 0.000000 -0.011534 0.000000
# 4 0.000000 0.000000 0.000000 0.047073 0.000000 0.014995
# 5 -0.003646 0.013089 -0.011534 0.000000 0.035472 0.000000
# 6 0.000000 0.000000 0.000000 0.014995 0.000000 0.067797
#
#
# Mechanical properties :
#
#
# Convention : Reuss Voigt Hill
#
# Bulk Modulus (GPa) = 67.58741 70.10675 68.84708
# Shear Modulus (GPa) = 15.57521 21.41696 18.49609
#
# Velocity S-wave (km/s) = 2.86486 3.35943 3.12196
# Velocity P-wave (km/s) = 6.82340 7.21047 7.01960
#
# Compressibility (1/GPa) = 0.01479565
#
# Stress axis : x y z
#
# Youngs Moduli (GPa) = 44.22680 40.96322 23.12160
#
# Poissons Ratio (x) = 0.09848 0.33774
# Poissons Ratio (y) = 0.10633 0.47925
# Poissons Ratio (z) = 0.64602 0.84906
#
# Static dielectric constant tensor:
#      x y z
#    x 3.544370 0.000000 -0.008950 
#    y 0.000000 3.285510 0.000000 
#    z -0.008950 0.000000 3.316930 
# 
# 
# High freq. dielectric constant tensor:
#      x y z
#    x 1.741940 0.000000 0.000840 
#    y 0.000000 1.724240 0.000000 
#    z 0.000840 0.000000 1.734520 
# 
# From -- ./inp_files/165871.got.cif
#   From: 2010.06.25/outbox.cif.g09.slc.cpg/sg15_83_cif.got.tgz:165871.got - 2010.06.28 07:06:18.
