data_PCOD8142301
_publ_section_title
;
Structure prediction by ZEFSAII (Michael W. Deem and Ramdas Pophale) SiO2 
 PCOD8142301
Probable space group: C 2/C
;
_chemical_formula_sum "Si O2"
_cell_formula_units_Z 56
_cell_length_a 21.699194
_cell_length_b 8.387886
_cell_length_c 20.064321
_cell_angle_alpha 90.000000
_cell_angle_beta 132.209792
_cell_angle_gamma 90.000000
_cell_volume 2704.935698
_symmetry_space_group_name_H-M "C 2/C"
_symmetry_group_IT_number 15
_symmetry_cell_setting 'monoclinic'
loop_
_space_group_symop_operation_xyz
x,y,z
-x,y,1/2-z
-x,-y,-z
x,-y,1/2+z
1/2+x,1/2+y,z
1/2-x,1/2+y,1/2-z
1/2-x,1/2-y,-z
1/2+x,1/2-y,1/2+z
loop_
_atom_site_type_symbol
_atom_site_label
_atom_site_fract_x
_atom_site_fract_y
_atom_site_fract_z
Si Si1 0.250991 0.789275 0.598396
Si Si2 0.319740 0.990175 0.379931
Si Si3 0.402588 0.311607 0.435844
Si Si4 0.495242 0.518803 0.888512
Si Si5 0.650496 0.359732 0.798514
Si Si6 0.142651 0.076817 0.910384
Si Si7 0.217248 0.564947 0.791415
O O1 0.180636 0.656346 0.567161
O O2 0.210492 0.918487 0.519039
O O3 0.333092 0.712231 0.625397
O O4 0.284768 0.880443 0.687689
O O5 0.328292 0.918102 0.312444
O O6 0.393058 0.121193 0.444347
O O7 0.230041 0.070495 0.318707
O O8 0.445915 0.393563 0.530311
O O9 0.457851 0.346953 0.410286
O O10 0.312785 0.384105 0.357251
O O11 0.427959 0.417494 0.800199
O O12 0.551517 0.608458 0.874202
O O13 0.645455 0.408319 0.872877
O O14 0.662043 0.169051 0.802996
#
# Coordination Sequence:
#
# PCOD8142301 Si02
#       7
#     8   8   8   8   8   8   8
#     4  10  21  40  64  94 121 166 213 263 312 384
#     4  10  21  38  65  96 124 159 213 267 316 381
#     4  10  22  37  66  95 120 168 205 264 329 374
#     4  11  21  41  62  89 131 164 209 263 326 378
#     4  10  22  37  63  90 119 168 214 260 313 379
#     4  10  22  40  62  86 127 169 207 255 316 384
#     4  11  20  39  67  93 120 158 222 271 306 378
#
# _framework density 20.702897
#
# number of rings (size 3 to 8) (size 9 to 14) (size 15 to 20)
#    0.000    1.714    2.857    2.143    2.000    0.571 
#    5.143    2.857    3.143    0.000    0.000    0.000 
#    0.000    0.000    0.000    0.000    0.000    0.000 
#
# Total GULP energy -347078.002044 kJ/mol
# GULP energy per Si atom -12395.642930 kJ/mol
# Density = 2.065578 g / cm^3
# Si number density = 20.702897 Si / 1000 Ang^3
#
#
#
# Elastic Constant Matrix: (Units=GPa)
#
#
# Indices 1 2 3 4 5 6 
#
# 1 138.5677 55.7025 25.6949 0.0000 -8.3151 0.0000
# 2 55.7025 101.5622 26.9912 0.0000 -10.4632 0.0000
# 3 25.6949 26.9912 67.1954 0.0000 -10.0319 0.0000
# 4 0.0000 0.0000 0.0000 29.8572 0.0000 2.9915
# 5 -8.3151 -10.4632 -10.0319 0.0000 29.7206 0.0000
# 6 0.0000 0.0000 0.0000 2.9915 0.0000 30.3300
#
#
#
# Elastic Compliance Matrix: (Units=1/GPa)
#
#
# Indices 1 2 3 4 5 6 
#
# 1 0.009435 -0.004690 -0.001660 0.000000 0.000428 0.000000
# 2 -0.004690 0.013535 -0.003294 0.000000 0.002341 0.000000
# 3 -0.001660 -0.003294 0.017478 0.000000 0.004275 0.000000
# 4 0.000000 0.000000 0.000000 0.033827 0.000000 -0.003336
# 5 0.000428 0.002341 0.004275 0.000000 0.036034 0.000000
# 6 0.000000 0.000000 0.000000 -0.003336 0.000000 0.033300
#
#
# Mechanical properties :
#
#
# Convention : Reuss Voigt Hill
#
# Bulk Modulus (GPa) = 47.25709 58.23361 52.74535
# Shear Modulus (GPa) = 29.42033 31.24399 30.33216
#
# Velocity S-wave (km/s) = 3.77380 3.88901 3.83184
# Velocity P-wave (km/s) = 6.47029 6.95379 6.71639
#
# Compressibility (1/GPa) = 0.02116084
#
# Stress axis : x y z
#
# Youngs Moduli (GPa) = 105.98367 73.88372 57.21379
#
# Poissons Ratio (x) = 0.34648 0.09499
# Poissons Ratio (y) = 0.49701 0.18846
# Poissons Ratio (z) = 0.17597 0.24337
#
# Static dielectric constant tensor:
#      x y z
#    x 3.940000 0.000000 -0.119090 
#    y 0.000000 3.953790 0.000000 
#    z -0.119090 0.000000 3.608070 
# 
# 
# High freq. dielectric constant tensor:
#      x y z
#    x 1.814040 0.000000 -0.013530 
#    y 0.000000 1.799430 0.000000 
#    z -0.013530 0.000000 1.798740 
# 
# From -- ./inp_files/251956.got.cif
#   From: 2010.06.25/outbox.cif.g09.slc.cpg/sg15_126_cif.got.tgz:251956.got - 2010.06.28 07:06:18.
