data_PCOD8142283
_publ_section_title
;
Structure prediction by ZEFSAII (Michael W. Deem and Ramdas Pophale) SiO2 
 PCOD8142283
Probable space group: C 2/C
;
_chemical_formula_sum "Si O2"
_cell_formula_units_Z 36
_cell_length_a 10.496789
_cell_length_b 22.587557
_cell_length_c 8.621374
_cell_angle_alpha 90.000000
_cell_angle_beta 124.599055
_cell_angle_gamma 90.000000
_cell_volume 1682.592490
_symmetry_space_group_name_H-M "C 2/C"
_symmetry_group_IT_number 15
_symmetry_cell_setting 'monoclinic'
loop_
_space_group_symop_operation_xyz
x,y,z
-x,y,1/2-z
-x,-y,-z
x,-y,1/2+z
1/2+x,1/2+y,z
1/2-x,1/2+y,1/2-z
1/2-x,1/2-y,-z
1/2+x,1/2-y,1/2+z
loop_
_atom_site_type_symbol
_atom_site_label
_atom_site_fract_x
_atom_site_fract_y
_atom_site_fract_z
Si Si1 0.000000 0.745934 0.250000
Si Si2 0.169739 0.887458 0.854708
Si Si3 0.360648 0.153188 0.762099
Si Si4 0.692100 0.280879 0.657918
Si Si5 0.964698 0.563383 0.406210
O O1 0.865909 0.702071 0.221720
O O2 0.068986 0.787951 0.433364
O O3 0.143885 0.821564 0.767353
O O4 0.283944 0.923304 0.819621
O O5 0.000000 0.918095 0.750000
O O6 0.236418 0.882800 0.074275
O O7 0.500000 0.174512 0.750000
O O8 0.288597 0.212118 0.783477
O O9 0.421461 0.111199 0.939494
O O10 0.000000 0.562164 0.250000
O O11 0.000000 0.500000 0.500000
#
# Coordination Sequence:
#
# PCOD8142283 Si02
#       5
#     4   8   8   8   8
#     4  10  22  30  52  88 138 168 220 260 304 384
#     4  11  23  40  65  99 133 170 218 274 324 382
#     4  10  21  38  65  90 133 177 222 259 325 389
#     4  11  21  35  58  92 141 174 218 254 333 377
#     4  11  25  47  72  94 125 176 224 269 325 397
#
# _framework density 21.395555000000002
#
# number of rings (size 3 to 8) (size 9 to 14) (size 15 to 20)
#    0.000    1.333    0.000    7.333    9.333    0.000 
#    0.000    4.444    0.000    0.000    0.000    0.000 
#    0.000    0.000    0.000    0.000    0.000    0.000 
#
# Total GULP energy -223223.430682 kJ/mol
# GULP energy per Si atom -12401.301705 kJ/mol
# Density = 2.134686 g / cm^3
# Si number density = 21.395555 Si / 1000 Ang^3
#
#
#
# Elastic Constant Matrix: (Units=GPa)
#
#
# Indices 1 2 3 4 5 6 
#
# 1 143.5552 44.1556 80.0685 0.0000 10.3826 0.0000
# 2 44.1556 85.4008 25.2903 0.0000 -9.5009 0.0000
# 3 80.0685 25.2903 152.1428 0.0000 -3.9578 0.0000
# 4 0.0000 0.0000 0.0000 26.1840 0.0000 -4.1233
# 5 10.3826 -9.5009 -3.9578 0.0000 48.1380 0.0000
# 6 0.0000 0.0000 0.0000 -4.1233 0.0000 22.7646
#
#
#
# Elastic Compliance Matrix: (Units=1/GPa)
#
#
# Indices 1 2 3 4 5 6 
#
# 1 0.011851 -0.004936 -0.005520 0.000000 -0.003984 0.000000
# 2 -0.004936 0.014624 0.000270 0.000000 0.003973 0.000000
# 3 -0.005520 0.000270 0.009486 0.000000 0.002024 0.000000
# 4 0.000000 0.000000 0.000000 0.039313 0.000000 0.007121
# 5 -0.003984 0.003973 0.002024 0.000000 0.022584 0.000000
# 6 0.000000 0.000000 0.000000 0.007121 0.000000 0.045217
#
#
# Mechanical properties :
#
#
# Convention : Reuss Voigt Hill
#
# Bulk Modulus (GPa) = 64.14981 75.56973 69.85977
# Shear Modulus (GPa) = 29.64858 34.85628 32.25243
#
# Velocity S-wave (km/s) = 3.72659 4.04064 3.88678
# Velocity P-wave (km/s) = 6.96882 7.56082 7.27085
#
# Compressibility (1/GPa) = 0.01558851
#
# Stress axis : x y z
#
# Youngs Moduli (GPa) = 84.37914 68.38247 105.42313
#
# Poissons Ratio (x) = 0.33754 0.58195
# Poissons Ratio (y) = 0.41650 -0.02849
# Poissons Ratio (z) = 0.46578 -0.01848
#
# Static dielectric constant tensor:
#      x y z
#    x 4.093880 0.000000 0.016470 
#    y 0.000000 3.543450 0.000000 
#    z 0.016470 0.000000 4.229720 
# 
# 
# High freq. dielectric constant tensor:
#      x y z
#    x 1.853000 0.000000 -0.001930 
#    y 0.000000 1.802370 0.000000 
#    z -0.001930 0.000000 1.858370 
# 
# From -- ./inp_files/31677.got.cif
#   From: 2010.06.25/outbox.cif.g09.slc.cpg/sg15_16_cif.got.tgz:31677.got - 2010.06.28 07:06:18.
