data_PCOD8142211
_publ_section_title
;
Structure prediction by ZEFSAII (Michael W. Deem and Ramdas Pophale) SiO2 
 PCOD8142211
Probable space group: C 2/C
;
_chemical_formula_sum "Si O2"
_cell_formula_units_Z 44
_cell_length_a 19.290356
_cell_length_b 11.871931
_cell_length_c 9.927728
_cell_angle_alpha 90.000000
_cell_angle_beta 75.217915
_cell_angle_gamma 90.000000
_cell_volume 2198.338063
_symmetry_space_group_name_H-M "C 2/C"
_symmetry_group_IT_number 15
_symmetry_cell_setting 'monoclinic'
loop_
_space_group_symop_operation_xyz
x,y,z
-x,y,1/2-z
-x,-y,-z
x,-y,1/2+z
1/2+x,1/2+y,z
1/2-x,1/2+y,1/2-z
1/2-x,1/2-y,-z
1/2+x,1/2-y,1/2+z
loop_
_atom_site_type_symbol
_atom_site_label
_atom_site_fract_x
_atom_site_fract_y
_atom_site_fract_z
Si Si1 0.172769 0.938691 0.436213
Si Si2 0.301988 0.087505 0.461581
Si Si3 0.044744 0.523785 0.607324
Si Si4 0.371709 0.382671 0.751067
Si Si5 0.000000 0.739734 0.750000
Si Si6 0.741428 0.266943 0.221130
O O1 0.127227 0.925263 0.595034
O O2 0.188938 0.817948 0.360093
O O3 0.248335 0.994700 0.432912
O O4 0.127634 0.014460 0.354207
O O5 0.377511 0.028771 0.443523
O O6 0.306834 0.191171 0.354768
O O7 0.276729 0.130802 0.619949
O O8 0.000000 0.465474 0.750000
O O9 0.000000 0.500000 0.500000
O O10 0.048068 0.659586 0.628359
O O11 0.445245 0.314853 0.689557
O O12 0.302657 0.305160 0.762322
#
# Coordination Sequence:
#
# PCOD8142211 Si02
#       6
#     8   8   8   8   4   8
#     4  11  22  39  63  95 119 161 208 258 307 364
#     4  10  21  38  64  91 129 158 201 265 306 358
#     4  10  23  39  61  89 123 163 200 248 309 364
#     4  11  23  40  63  88 124 161 211 247 314 365
#     4  10  24  42  62  86 126 166 204 256 298 374
#     4  10  21  38  63  96 122 158 201 262 309 361
#
# _framework density 20.01512
#
# number of rings (size 3 to 8) (size 9 to 14) (size 15 to 20)
#    0.545    1.091    1.818    2.727    2.545    2.182 
#    0.000    0.000    2.000    0.000    0.000    0.000 
#    0.000    0.000    0.000    0.000    0.000    0.000 
#
# Total GULP energy -272805.554929 kJ/mol
# GULP energy per Si atom -12400.252497 kJ/mol
# Density = 1.996956 g / cm^3
# Si number density = 20.015120 Si / 1000 Ang^3
#
#
#
# Elastic Constant Matrix: (Units=GPa)
#
#
# Indices 1 2 3 4 5 6 
#
# 1 107.6696 44.0499 29.8742 0.0000 6.7241 0.0000
# 2 44.0499 83.6377 32.3414 0.0000 6.8931 0.0000
# 3 29.8742 32.3414 121.3057 0.0000 14.2226 0.0000
# 4 0.0000 0.0000 0.0000 35.3900 0.0000 -2.5606
# 5 6.7241 6.8931 14.2226 0.0000 21.2493 0.0000
# 6 0.0000 0.0000 0.0000 -2.5606 0.0000 36.6568
#
#
#
# Elastic Compliance Matrix: (Units=1/GPa)
#
#
# Indices 1 2 3 4 5 6 
#
# 1 0.012077 -0.005765 -0.001311 0.000000 -0.001074 0.000000
# 2 -0.005765 0.016171 -0.002702 0.000000 -0.001613 0.000000
# 3 -0.001311 -0.002702 0.009914 0.000000 -0.005344 0.000000
# 4 0.000000 0.000000 0.000000 0.028400 0.000000 0.001984
# 5 -0.001074 -0.001613 -0.005344 0.000000 0.051500 0.000000
# 6 0.000000 0.000000 0.000000 0.001984 0.000000 0.027419
#
#
# Mechanical properties :
#
#
# Convention : Reuss Voigt Hill
#
# Bulk Modulus (GPa) = 53.75304 58.34936 56.05120
# Shear Modulus (GPa) = 29.19892 32.41571 30.80731
#
# Velocity S-wave (km/s) = 3.82362 4.02874 3.92752
# Velocity P-wave (km/s) = 6.81234 7.13141 6.97370
#
# Compressibility (1/GPa) = 0.01860360
#
# Stress axis : x y z
#
# Youngs Moduli (GPa) = 82.80034 61.84064 100.87153
#
# Poissons Ratio (x) = 0.35652 0.13227
# Poissons Ratio (y) = 0.47736 0.27259
# Poissons Ratio (z) = 0.10858 0.16712
#
# Static dielectric constant tensor:
#      x y z
#    x 3.508010 0.000000 0.182470 
#    y 0.000000 3.816220 0.000000 
#    z 0.182470 0.000000 3.698030 
# 
# 
# High freq. dielectric constant tensor:
#      x y z
#    x 1.767930 0.000000 0.016830 
#    y 0.000000 1.787350 0.000000 
#    z 0.016830 0.000000 1.785460 
# 
# From -- ./inp_files/54411.got.cif
#   From: 2010.06.25/outbox.cif.g09.slc.cpg/sg15_28_cif.got.tgz:54411.got - 2010.06.28 07:06:18.
