data_PCOD8142779
_publ_section_title
;
Structure prediction by ZEFSAII (Michael W. Deem and Ramdas Pophale) SiO2 
 PCOD8142779
Probable space group: C 2/C
;
_chemical_formula_sum "Si O2"
_cell_formula_units_Z 60
_cell_length_a 26.188525
_cell_length_b 20.636572
_cell_length_c 15.565443
_cell_angle_alpha 90.000000
_cell_angle_beta 159.372951
_cell_angle_gamma 90.000000
_cell_volume 2963.482759
_symmetry_space_group_name_H-M "C 2/C"
_symmetry_group_IT_number 15
_symmetry_cell_setting 'monoclinic'
loop_
_space_group_symop_operation_xyz
x,y,z
-x,y,1/2-z
-x,-y,-z
x,-y,1/2+z
1/2+x,1/2+y,z
1/2-x,1/2+y,1/2-z
1/2-x,1/2-y,-z
1/2+x,1/2-y,1/2+z
loop_
_atom_site_type_symbol
_atom_site_label
_atom_site_fract_x
_atom_site_fract_y
_atom_site_fract_z
Si Si1 0.873415 0.384363 0.988151
Si Si2 0.207999 0.231904 0.274307
Si Si3 0.446751 0.933790 0.377309
Si Si4 0.945320 0.649295 0.036728
Si Si5 0.019486 0.145232 0.092788
Si Si6 0.224736 0.385831 0.066072
Si Si7 0.000000 0.808964 0.750000
Si Si8 0.776079 0.032727 0.115901
O O1 0.752714 0.328993 0.785605
O O2 0.807626 0.448216 0.928928
O O3 0.000000 0.357159 0.250000
O O4 0.923957 0.402147 0.973099
O O5 0.102845 0.276073 0.050046
O O6 0.127923 0.202358 0.232645
O O7 0.353876 0.267872 0.532566
O O8 0.400032 0.884673 0.377430
O O9 0.500000 0.000000 0.500000
O O10 0.308339 0.943773 0.100848
O O11 0.862720 0.611573 0.982274
O O12 0.118611 0.644794 0.326751
O O13 0.988875 0.147811 0.146565
O O14 0.073021 0.072158 0.153220
O O15 0.867715 0.157697 0.804140
O O16 0.284518 0.455606 0.130015
#
# Coordination Sequence:
#
# PCOD8142779 Si02
#       8
#     8   8   8   8   8   8   4   8
#     4   9  20  36  61  92 124 162 202 268 327 365
#     4  11  23  41  63  94 128 164 211 263 321 386
#     4  11  20  36  63  97 123 159 215 268 313 381
#     4  11  24  38  65  94 126 174 217 254 317 383
#     4  11  25  41  66  92 128 168 211 268 329 374
#     4  11  23  43  62  90 131 174 212 263 316 385
#     4  12  22  42  64  98 122 158 210 270 316 382
#     4  10  21  39  65  92 125 162 210 263 328 380
#
# _framework density 20.246448000000001
#
# number of rings (size 3 to 8) (size 9 to 14) (size 15 to 20)
#    0.000    1.333    3.333    2.400    5.600    0.533 
#    0.000    1.333    0.000    2.400    0.000    0.000 
#    0.000    0.000    0.000    0.000    0.000    0.000 
#
# Total GULP energy -371916.128517 kJ/mol
# GULP energy per Si atom -12397.204284 kJ/mol
# Density = 2.020037 g / cm^3
# Si number density = 20.246448 Si / 1000 Ang^3
#
#
#
# Elastic Constant Matrix: (Units=GPa)
#
#
# Indices 1 2 3 4 5 6 
#
# 1 107.0503 38.1208 29.2945 0.0000 -4.8534 0.0000
# 2 38.1208 103.0187 43.7687 0.0000 -0.3267 0.0000
# 3 29.2945 43.7687 113.6896 0.0000 11.1740 0.0000
# 4 0.0000 0.0000 0.0000 30.3238 0.0000 -1.6494
# 5 -4.8534 -0.3267 11.1740 0.0000 27.6317 0.0000
# 6 0.0000 0.0000 0.0000 -1.6494 0.0000 20.7908
#
#
#
# Elastic Compliance Matrix: (Units=1/GPa)
#
#
# Indices 1 2 3 4 5 6 
#
# 1 0.011156 -0.003332 -0.001854 0.000000 0.002670 0.000000
# 2 -0.003332 0.012710 -0.004157 0.000000 0.001246 0.000000
# 3 -0.001854 -0.004157 0.011363 0.000000 -0.004970 0.000000
# 4 0.000000 0.000000 0.000000 0.033120 0.000000 0.002628
# 5 0.002670 0.001246 -0.004970 0.000000 0.038684 0.000000
# 6 0.000000 0.000000 0.000000 0.002628 0.000000 0.048307
#
#
# Mechanical properties :
#
#
# Convention : Reuss Voigt Hill
#
# Bulk Modulus (GPa) = 60.45146 60.68073 60.56609
# Shear Modulus (GPa) = 27.84883 29.92091 28.88487
#
# Velocity S-wave (km/s) = 3.71279 3.84843 3.78122
# Velocity P-wave (km/s) = 6.94999 7.05573 7.00306
#
# Compressibility (1/GPa) = 0.01654220
#
# Stress axis : x y z
#
# Youngs Moduli (GPa) = 89.63441 78.67771 88.00835
#
# Poissons Ratio (x) = 0.26215 0.16320
# Poissons Ratio (y) = 0.29866 0.36586
# Poissons Ratio (z) = 0.16621 0.32707
#
# Static dielectric constant tensor:
#      x y z
#    x 3.408930 0.000000 0.367520 
#    y 0.000000 3.679090 0.000000 
#    z 0.367520 0.000000 3.418900 
# 
# 
# High freq. dielectric constant tensor:
#      x y z
#    x 1.788640 0.000000 0.009090 
#    y 0.000000 1.786710 0.000000 
#    z 0.009090 0.000000 1.789100 
# 
# From -- ./inp_files/179135.got.cif
#   From: 2010.06.25/outbox.cif.g09.slc.cpg/sg15_90_cif.got.tgz:179135.got - 2010.06.28 07:06:18.
