data_PCOD8142856
_publ_section_title
;
Structure prediction by ZEFSAII (Michael W. Deem and Ramdas Pophale) SiO2 
 PCOD8142856
Probable space group: C 2/C
;
_chemical_formula_sum "Si O2"
_cell_formula_units_Z 44
_cell_length_a 9.371689
_cell_length_b 16.680077
_cell_length_c 20.033759
_cell_angle_alpha 90.000000
_cell_angle_beta 137.229897
_cell_angle_gamma 90.000000
_cell_volume 2126.598281
_symmetry_space_group_name_H-M "C 2/C"
_symmetry_group_IT_number 15
_symmetry_cell_setting 'monoclinic'
loop_
_space_group_symop_operation_xyz
x,y,z
-x,y,1/2-z
-x,-y,-z
x,-y,1/2+z
1/2+x,1/2+y,z
1/2-x,1/2+y,1/2-z
1/2-x,1/2-y,-z
1/2+x,1/2-y,1/2+z
loop_
_atom_site_type_symbol
_atom_site_label
_atom_site_fract_x
_atom_site_fract_y
_atom_site_fract_z
Si Si1 0.655728 0.292553 0.064867
Si Si2 0.799157 0.447847 0.419162
Si Si3 0.290669 0.804672 0.784956
Si Si4 0.500000 0.433905 0.750000
Si Si5 0.240704 0.661570 0.467817
Si Si6 0.536637 0.811908 0.110114
O O1 0.709243 0.261150 0.156593
O O2 0.864396 0.335586 0.107543
O O3 0.452464 0.352139 0.996386
O O4 0.596566 0.215442 0.000021
O O5 0.613944 0.509358 0.341844
O O6 0.749677 0.400976 0.469373
O O7 0.828857 0.389056 0.365478
O O8 0.000000 0.500000 0.500000
O O9 0.524039 0.841121 0.850631
O O10 0.194205 0.758936 0.687818
O O11 0.150354 0.879890 0.756662
O O12 0.250000 0.750000 0.500000
#
# Coordination Sequence:
#
# PCOD8142856 Si02
#       6
#     8   8   8   4   8   8
#     4  10  21  39  66  94 127 164 230 269 313 383
#     4  12  25  42  67 100 136 171 220 280 343 389
#     4  11  21  42  67  94 133 172 226 270 314 404
#     4  12  24  40  66 100 132 176 222 280 334 398
#     4  10  21  42  63  93 135 170 217 278 317 390
#     4  11  22  38  71  96 123 182 223 257 333 404
#
# _framework density 20.690321999999998
#
# number of rings (size 3 to 8) (size 9 to 14) (size 15 to 20)
#    0.000    1.091    7.273    0.000    7.636    0.727 
#    0.000    0.909    0.000    0.000    0.000    0.000 
#    0.000    0.000    0.000    0.000    0.000    0.000 
#
# Total GULP energy -272718.511242 kJ/mol
# GULP energy per Si atom -12396.295966 kJ/mol
# Density = 2.064323 g / cm^3
# Si number density = 20.690322 Si / 1000 Ang^3
#
#
#
# Elastic Constant Matrix: (Units=GPa)
#
#
# Indices 1 2 3 4 5 6 
#
# 1 120.7123 38.8465 20.4856 0.0000 30.7104 0.0000
# 2 38.8465 97.0574 30.2796 0.0000 14.1584 0.0000
# 3 20.4856 30.2796 82.7964 0.0000 23.0948 0.0000
# 4 0.0000 0.0000 0.0000 39.6312 0.0000 -4.3447
# 5 30.7104 14.1584 23.0948 0.0000 36.6585 0.0000
# 6 0.0000 0.0000 0.0000 -4.3447 0.0000 38.4547
#
#
#
# Elastic Compliance Matrix: (Units=1/GPa)
#
#
# Indices 1 2 3 4 5 6 
#
# 1 0.011545 -0.003621 0.000941 0.000000 -0.008866 0.000000
# 2 -0.003621 0.012914 -0.003981 0.000000 0.000554 0.000000
# 3 0.000941 -0.003981 0.015883 0.000000 -0.009257 0.000000
# 4 0.000000 0.000000 0.000000 0.025549 0.000000 0.002887
# 5 -0.008866 0.000554 -0.009257 0.000000 0.040324 0.000000
# 6 0.000000 0.000000 0.000000 0.002887 0.000000 0.026331
#
#
# Mechanical properties :
#
#
# Convention : Reuss Voigt Hill
#
# Bulk Modulus (GPa) = 37.01090 53.30993 45.16042
# Shear Modulus (GPa) = 32.28386 37.01252 34.64819
#
# Velocity S-wave (km/s) = 3.95439 4.23410 4.09664
# Velocity P-wave (km/s) = 6.22708 7.05160 6.65213
#
# Compressibility (1/GPa) = 0.02701907
#
# Stress axis : x y z
#
# Youngs Moduli (GPa) = 86.61384 77.43692 62.95992
#
# Poissons Ratio (x) = 0.28041 -0.05923
# Poissons Ratio (y) = 0.31364 0.25066
# Poissons Ratio (z) = -0.08149 0.30830
#
# Static dielectric constant tensor:
#      x y z
#    x 4.390390 0.000000 0.516700 
#    y 0.000000 3.537520 0.000000 
#    z 0.516700 0.000000 3.906560 
# 
# 
# High freq. dielectric constant tensor:
#      x y z
#    x 1.816230 0.000000 0.020560 
#    y 0.000000 1.779300 0.000000 
#    z 0.020560 0.000000 1.819300 
# 
# From -- ./inp_files/182379.got.cif
#   From: 2010.06.25/outbox.cif.g09.slc.cpg/sg15_92_cif.got.tgz:182379.got - 2010.06.28 07:06:18.
