data_PCOD8142843
_publ_section_title
;
Structure prediction by ZEFSAII (Michael W. Deem and Ramdas Pophale) SiO2 
 PCOD8142843
Probable space group: C 2/C
;
_chemical_formula_sum "Si O2"
_cell_formula_units_Z 40
_cell_length_a 11.379843
_cell_length_b 15.614144
_cell_length_c 11.518446
_cell_angle_alpha 90.000000
_cell_angle_beta 110.263857
_cell_angle_gamma 90.000000
_cell_volume 1919.998970
_symmetry_space_group_name_H-M "C 2/C"
_symmetry_group_IT_number 15
_symmetry_cell_setting 'monoclinic'
loop_
_space_group_symop_operation_xyz
x,y,z
-x,y,1/2-z
-x,-y,-z
x,-y,1/2+z
1/2+x,1/2+y,z
1/2-x,1/2+y,1/2-z
1/2-x,1/2-y,-z
1/2+x,1/2-y,1/2+z
loop_
_atom_site_type_symbol
_atom_site_label
_atom_site_fract_x
_atom_site_fract_y
_atom_site_fract_z
Si Si1 0.521159 0.802393 0.624855
Si Si2 0.558218 0.365910 0.008558
Si Si3 0.726858 0.098697 0.081500
Si Si4 0.895486 0.529339 0.116423
Si Si5 0.145059 0.978341 0.670790
O O1 0.500000 0.773498 0.750000
O O2 0.498642 0.722410 0.533091
O O3 0.663648 0.835326 0.650599
O O4 0.426604 0.880491 0.564303
O O5 0.686837 0.350486 0.980817
O O6 0.458226 0.406419 0.887770
O O7 0.587016 0.427699 0.128187
O O8 0.811656 0.029980 0.180996
O O9 0.612996 0.047288 0.979930
O O10 0.759265 0.538229 0.123994
O O11 0.000000 0.508388 0.250000
#
# Coordination Sequence:
#
# PCOD8142843 Si02
#       5
#     8   8   8   8   8
#     4  11  22  40  62  93 130 159 210 265 312 366
#     4  10  24  39  63  94 128 166 208 260 320 370
#     4  11  21  42  66  90 128 166 216 257 312 380
#     4  10  21  39  66  93 122 165 211 259 311 377
#     4  10  21  42  64  90 123 172 210 252 315 384
#
# _framework density 20.833345000000001
#
# number of rings (size 3 to 8) (size 9 to 14) (size 15 to 20)
#    0.000    1.600    4.000    1.800    0.000    5.600 
#    3.600    2.000    0.000    0.000    0.000    0.000 
#    0.000    0.000    0.000    0.000    0.000    0.000 
#
# Total GULP energy -247941.206579 kJ/mol
# GULP energy per Si atom -12397.060329 kJ/mol
# Density = 2.078593 g / cm^3
# Si number density = 20.833345 Si / 1000 Ang^3
#
#
#
# Elastic Constant Matrix: (Units=GPa)
#
#
# Indices 1 2 3 4 5 6 
#
# 1 88.2940 46.6781 23.8083 0.0000 -2.2633 0.0000
# 2 46.6781 95.2491 51.6817 0.0000 -4.5153 0.0000
# 3 23.8083 51.6817 99.0404 0.0000 3.5670 0.0000
# 4 0.0000 0.0000 0.0000 22.0868 0.0000 -6.8325
# 5 -2.2633 -4.5153 3.5670 0.0000 35.7844 0.0000
# 6 0.0000 0.0000 0.0000 -6.8325 0.0000 30.7446
#
#
#
# Elastic Compliance Matrix: (Units=1/GPa)
#
#
# Indices 1 2 3 4 5 6 
#
# 1 0.015294 -0.007676 0.000330 0.000000 -0.000034 0.000000
# 2 -0.007676 0.018747 -0.008034 0.000000 0.002681 0.000000
# 3 0.000330 -0.008034 0.014297 0.000000 -0.002418 0.000000
# 4 0.000000 0.000000 0.000000 0.048618 0.000000 0.010805
# 5 -0.000034 0.002681 -0.002418 0.000000 0.028522 0.000000
# 6 0.000000 0.000000 0.000000 0.010805 0.000000 0.034927
#
#
# Mechanical properties :
#
#
# Convention : Reuss Voigt Hill
#
# Bulk Modulus (GPa) = 56.88780 58.54663 57.71722
# Shear Modulus (GPa) = 25.37773 28.41751 26.89762
#
# Velocity S-wave (km/s) = 3.49396 3.69730 3.59707
# Velocity P-wave (km/s) = 6.60624 6.81102 6.70941
#
# Compressibility (1/GPa) = 0.01757846
#
# Stress axis : x y z
#
# Youngs Moduli (GPa) = 65.38611 53.34318 69.94546
#
# Poissons Ratio (x) = 0.40944 -0.02309
# Poissons Ratio (y) = 0.50188 0.56193
# Poissons Ratio (z) = -0.02158 0.42855
#
# Static dielectric constant tensor:
#      x y z
#    x 3.969240 0.000000 -0.064700 
#    y 0.000000 3.636400 0.000000 
#    z -0.064700 0.000000 3.778390 
# 
# 
# High freq. dielectric constant tensor:
#      x y z
#    x 1.837980 0.000000 -0.013740 
#    y 0.000000 1.796840 0.000000 
#    z -0.013740 0.000000 1.802510 
# 
# From -- ./inp_files/85965.got.cif
#   From: 2010.06.25/outbox.cif.g09.slc.cpg/sg15_43_cif.got.tgz:85965.got - 2010.06.28 07:06:18.
