data_PCOD8142149
_publ_section_title
;
Structure prediction by ZEFSAII (Michael W. Deem and Ramdas Pophale) SiO2 
 PCOD8142149
Probable space group: C 2/C
;
_chemical_formula_sum "Si O2"
_cell_formula_units_Z 40
_cell_length_a 27.418164
_cell_length_b 7.454152
_cell_length_c 9.629545
_cell_angle_alpha 90.000000
_cell_angle_beta 100.880292
_cell_angle_gamma 90.000000
_cell_volume 1932.699566
_symmetry_space_group_name_H-M "C 2/C"
_symmetry_group_IT_number 15
_symmetry_cell_setting 'monoclinic'
loop_
_space_group_symop_operation_xyz
x,y,z
-x,y,1/2-z
-x,-y,-z
x,-y,1/2+z
1/2+x,1/2+y,z
1/2-x,1/2+y,1/2-z
1/2-x,1/2-y,-z
1/2+x,1/2-y,1/2+z
loop_
_atom_site_type_symbol
_atom_site_label
_atom_site_fract_x
_atom_site_fract_y
_atom_site_fract_z
Si Si1 0.697596 0.620638 0.334108
Si Si2 0.199994 0.205733 0.645713
Si Si3 0.597905 0.127629 0.067009
Si Si4 0.905019 0.700664 0.746669
Si Si5 0.465856 0.551019 0.854457
O O1 0.747972 0.698513 0.296135
O O2 0.701962 0.595818 0.502247
O O3 0.687481 0.426483 0.264810
O O4 0.653073 0.754089 0.271441
O O5 0.157255 0.355701 0.616282
O O6 0.573472 0.299068 0.125735
O O7 0.579971 0.944646 0.129342
O O8 0.582724 0.118268 0.897631
O O9 0.937327 0.876763 0.785031
O O10 0.500000 0.628139 0.750000
O O11 0.500000 0.500000 0.000000
#
# Coordination Sequence:
#
# PCOD8142149 Si02
#       5
#     8   8   8   8   8
#     4  10  21  38  62  94 132 169 214 260 321 387
#     4  10  21  38  62  94 131 171 212 262 320 386
#     4  11  25  43  67  98 133 172 218 271 326 388
#     4  11  25  43  67  99 132 172 219 269 327 390
#     4  12  26  46  68  95 129 174 224 273 327 382
#
# _framework density 20.696437
#
# number of rings (size 3 to 8) (size 9 to 14) (size 15 to 20)
#    0.000    1.200    4.000    1.200    2.800    4.000 
#    0.000    0.000    0.000    0.000    0.000    0.000 
#    0.000    0.000    0.000    0.000    0.000    0.000 
#
# Total GULP energy -248119.607258 kJ/mol
# GULP energy per Si atom -12405.980363 kJ/mol
# Density = 2.064933 g / cm^3
# Si number density = 20.696437 Si / 1000 Ang^3
#
#
#
# Elastic Constant Matrix: (Units=GPa)
#
#
# Indices 1 2 3 4 5 6 
#
# 1 94.3991 16.5817 29.2088 0.0000 -2.4390 0.0000
# 2 16.5817 60.5472 10.7128 0.0000 -4.8195 0.0000
# 3 29.2088 10.7128 74.2914 0.0000 -4.1606 0.0000
# 4 0.0000 0.0000 0.0000 42.0170 0.0000 -2.6146
# 5 -2.4390 -4.8195 -4.1606 0.0000 34.5616 0.0000
# 6 0.0000 0.0000 0.0000 -2.6146 0.0000 25.4151
#
#
#
# Elastic Compliance Matrix: (Units=1/GPa)
#
#
# Indices 1 2 3 4 5 6 
#
# 1 0.012450 -0.002612 -0.004520 0.000000 -0.000030 0.000000
# 2 -0.002612 0.017647 -0.001400 0.000000 0.002108 0.000000
# 3 -0.004520 -0.001400 0.015515 0.000000 0.001354 0.000000
# 4 0.000000 0.000000 0.000000 0.023953 0.000000 0.002464
# 5 -0.000030 0.002108 0.001354 0.000000 0.029389 0.000000
# 6 0.000000 0.000000 0.000000 0.002464 0.000000 0.039600
#
#
# Mechanical properties :
#
#
# Convention : Reuss Voigt Hill
#
# Bulk Modulus (GPa) = 35.02799 38.02716 36.52757
# Shear Modulus (GPa) = 30.27850 31.91435 31.09643
#
# Velocity S-wave (km/s) = 3.82904 3.93112 3.88042
# Velocity P-wave (km/s) = 6.04236 6.24649 6.14527
#
# Compressibility (1/GPa) = 0.02854860
#
# Stress axis : x y z
#
# Youngs Moduli (GPa) = 80.32172 56.66730 64.45295
#
# Poissons Ratio (x) = 0.14803 0.29132
# Poissons Ratio (y) = 0.20982 0.09021
# Poissons Ratio (z) = 0.36304 0.07931
#
# Static dielectric constant tensor:
#      x y z
#    x 3.899570 0.000000 -0.005700 
#    y 0.000000 3.496700 0.000000 
#    z -0.005700 0.000000 3.875340 
# 
# 
# High freq. dielectric constant tensor:
#      x y z
#    x 1.826070 0.000000 -0.000210 
#    y 0.000000 1.797630 0.000000 
#    z -0.000210 0.000000 1.818570 
# 
# From -- ./inp_files/68184.got.cif
#   From: 2010.06.25/outbox.cif.g09.slc.cpg/sg15_35_cif.got.tgz:68184.got - 2010.06.28 07:06:18.
