data_PCOD8142454
_publ_section_title
;
Structure prediction by ZEFSAII (Michael W. Deem and Ramdas Pophale) SiO2 
 PCOD8142454
Probable space group: C 2/C
;
_chemical_formula_sum "Si O2"
_cell_formula_units_Z 64
_cell_length_a 30.577590
_cell_length_b 14.058749
_cell_length_c 9.509054
_cell_angle_alpha 90.000000
_cell_angle_beta 126.223918
_cell_angle_gamma 90.000000
_cell_volume 3297.666054
_symmetry_space_group_name_H-M "C 2/C"
_symmetry_group_IT_number 15
_symmetry_cell_setting 'monoclinic'
loop_
_space_group_symop_operation_xyz
x,y,z
-x,y,1/2-z
-x,-y,-z
x,-y,1/2+z
1/2+x,1/2+y,z
1/2-x,1/2+y,1/2-z
1/2-x,1/2-y,-z
1/2+x,1/2-y,1/2+z
loop_
_atom_site_type_symbol
_atom_site_label
_atom_site_fract_x
_atom_site_fract_y
_atom_site_fract_z
Si Si1 0.671371 0.885166 0.679996
Si Si2 0.696182 0.415482 0.870399
Si Si3 0.867500 0.988217 0.488888
Si Si4 0.676346 0.944096 0.381875
Si Si5 0.875855 0.814451 0.309414
Si Si6 0.153246 0.264385 0.174918
Si Si7 0.219371 0.193899 0.059029
Si Si8 0.937520 0.163542 0.662877
O O1 0.654169 0.932601 0.498991
O O2 0.641230 0.785172 0.651062
O O3 0.736653 0.874810 0.785875
O O4 0.658299 0.953462 0.787170
O O5 0.678110 0.452846 0.682464
O O6 0.680990 0.303691 0.844913
O O7 0.659837 0.465598 0.916433
O O8 0.759341 0.432472 0.014985
O O9 0.886888 0.891357 0.450664
O O10 0.920506 0.052958 0.613349
O O11 0.645858 0.867247 0.227651
O O12 0.927693 0.801399 0.305834
O O13 0.829751 0.859018 0.115815
O O14 0.195009 0.268901 0.123272
O O15 0.094954 0.227697 0.011335
O O16 0.250000 0.250000 0.000000
O O17 0.000000 0.175741 0.750000
#
# Coordination Sequence:
#
# PCOD8142454 Si02
#       8
#     8   8   8   8   8   8   8   8
#     4  11  24  36  57  90 128 170 209 249 302 371
#     4  11  21  34  56  87 127 167 200 242 300 370
#     4  11  21  37  59  90 126 161 204 247 302 380
#     4  12  24  35  58  91 128 173 206 249 301 375
#     4  10  21  39  59  86 125 161 204 260 309 365
#     4  10  22  38  56  86 121 163 213 254 307 365
#     4   9  19  34  53  81 119 165 200 245 300 361
#     4  10  23  43  66  91 119 161 207 265 324 367
#
# _framework density 19.407665000000001
#
# number of rings (size 3 to 8) (size 9 to 14) (size 15 to 20)
#    0.000    1.500    2.500    2.625   10.500    0.500 
#    0.000    0.000    0.000    0.750    0.000    0.000 
#    0.000    0.000    0.000    0.000    0.000    0.000 
#
# Total GULP energy -396717.205052 kJ/mol
# GULP energy per Si atom -12397.412658 kJ/mol
# Density = 1.936349 g / cm^3
# Si number density = 19.407665 Si / 1000 Ang^3
#
#
#
# Elastic Constant Matrix: (Units=GPa)
#
#
# Indices 1 2 3 4 5 6 
#
# 1 110.3000 32.8354 39.8886 0.0000 0.3814 0.0000
# 2 32.8354 94.2793 30.7703 0.0000 1.7651 0.0000
# 3 39.8886 30.7703 72.1034 0.0000 -14.4600 0.0000
# 4 0.0000 0.0000 0.0000 34.7554 0.0000 -11.1918
# 5 0.3814 1.7651 -14.4600 0.0000 25.0139 0.0000
# 6 0.0000 0.0000 0.0000 -11.1918 0.0000 21.9998
#
#
#
# Elastic Compliance Matrix: (Units=1/GPa)
#
#
# Indices 1 2 3 4 5 6 
#
# 1 0.012054 -0.001971 -0.006601 0.000000 -0.003861 0.000000
# 2 -0.001971 0.013094 -0.005290 0.000000 -0.003952 0.000000
# 3 -0.006601 -0.005290 0.022479 0.000000 0.013469 0.000000
# 4 0.000000 0.000000 0.000000 0.034409 0.000000 0.017505
# 5 -0.003861 -0.003952 0.013469 0.000000 0.048101 0.000000
# 6 0.000000 0.000000 0.000000 0.017505 0.000000 0.054360
#
#
# Mechanical properties :
#
#
# Convention : Reuss Voigt Hill
#
# Bulk Modulus (GPa) = 50.24566 53.74125 51.99345
# Shear Modulus (GPa) = 22.84606 27.89974 25.37290
#
# Velocity S-wave (km/s) = 3.43471 3.79563 3.61967
# Velocity P-wave (km/s) = 6.45565 6.85273 6.65715
#
# Compressibility (1/GPa) = 0.01990222
#
# Stress axis : x y z
#
# Youngs Moduli (GPa) = 82.96275 76.37228 44.48524
#
# Poissons Ratio (x) = 0.15055 0.29366
# Poissons Ratio (y) = 0.16354 0.23532
# Poissons Ratio (z) = 0.54766 0.40399
#
# Static dielectric constant tensor:
#      x y z
#    x 3.086970 0.000000 -0.093020 
#    y 0.000000 3.671110 0.000000 
#    z -0.093020 0.000000 3.686720 
# 
# 
# High freq. dielectric constant tensor:
#      x y z
#    x 1.729120 0.000000 -0.038300 
#    y 0.000000 1.759320 0.000000 
#    z -0.038300 0.000000 1.746650 
# 
# From -- ./inp_files/69948.got.cif
#   From: 2010.06.25/outbox.cif.g09.slc.cpg/sg15_35_cif.got.tgz:69948.got - 2010.06.28 07:06:18.
