data_PCOD8142669
_publ_section_title
;
Structure prediction by ZEFSAII (Michael W. Deem and Ramdas Pophale) SiO2 
 PCOD8142669
Probable space group: C 2/C
;
_chemical_formula_sum "Si O2"
_cell_formula_units_Z 44
_cell_length_a 10.407223
_cell_length_b 17.679579
_cell_length_c 14.641158
_cell_angle_alpha 90.000000
_cell_angle_beta 124.023634
_cell_angle_gamma 90.000000
_cell_volume 2232.726533
_symmetry_space_group_name_H-M "C 2/C"
_symmetry_group_IT_number 15
_symmetry_cell_setting 'monoclinic'
loop_
_space_group_symop_operation_xyz
x,y,z
-x,y,1/2-z
-x,-y,-z
x,-y,1/2+z
1/2+x,1/2+y,z
1/2-x,1/2+y,1/2-z
1/2-x,1/2-y,-z
1/2+x,1/2-y,1/2+z
loop_
_atom_site_type_symbol
_atom_site_label
_atom_site_fract_x
_atom_site_fract_y
_atom_site_fract_z
Si Si1 0.000000 0.117855 0.250000
Si Si2 0.162447 0.325068 0.000821
Si Si3 0.434764 0.499844 0.872558
Si Si4 0.690654 0.200805 0.177577
Si Si5 0.169357 0.408227 0.827355
Si Si6 0.857506 0.155029 0.748021
O O1 0.020183 0.064376 0.346509
O O2 0.843106 0.169104 0.186085
O O3 0.217188 0.355757 0.120933
O O4 0.250000 0.250000 0.000000
O O5 0.210361 0.391319 0.948959
O O6 0.975118 0.317811 0.935363
O O7 0.258779 0.475834 0.815397
O O8 0.431433 0.579374 0.819855
O O9 0.500000 0.500000 0.000000
O O10 0.692845 0.169779 0.281646
O O11 0.700866 0.291663 0.192425
O O12 0.000000 0.440376 0.750000
O O13 0.000000 0.194515 0.750000
#
# Coordination Sequence:
#
# PCOD8142669 Si02
#       6
#     4   8   8   8   8   8
#     4  10  24  46  62  90 134 180 208 254 348 396
#     4  11  19  35  68  98 121 160 222 280 317 376
#     4  11  24  41  63  89 131 176 213 264 323 396
#     4  10  21  39  63  92 127 165 211 266 325 386
#     4   9  19  39  58  86 125 163 205 269 325 370
#     4  12  21  37  65  98 123 165 227 268 319 388
#
# _framework density 19.706848000000001
#
# number of rings (size 3 to 8) (size 9 to 14) (size 15 to 20)
#    0.000    1.455    4.545    1.636    0.000    0.000 
#    4.909    4.545    0.000    0.000    0.000    0.000 
#    0.000    0.000    0.000    0.000    0.000    0.000 
#
# Total GULP energy -272592.368607 kJ/mol
# GULP energy per Si atom -12390.562209 kJ/mol
# Density = 1.966199 g / cm^3
# Si number density = 19.706848 Si / 1000 Ang^3
#
#
#
# Elastic Constant Matrix: (Units=GPa)
#
#
# Indices 1 2 3 4 5 6 
#
# 1 131.4525 48.4810 42.6479 0.0000 13.6405 0.0000
# 2 48.4810 89.4177 33.1795 0.0000 0.8837 0.0000
# 3 42.6479 33.1795 132.8087 0.0000 0.3052 0.0000
# 4 0.0000 0.0000 0.0000 15.3668 0.0000 -6.8665
# 5 13.6405 0.8837 0.3052 0.0000 27.6900 0.0000
# 6 0.0000 0.0000 0.0000 -6.8665 0.0000 21.8285
#
#
#
# Elastic Compliance Matrix: (Units=1/GPa)
#
#
# Indices 1 2 3 4 5 6 
#
# 1 0.010654 -0.004917 -0.002181 0.000000 -0.005068 0.000000
# 2 -0.004917 0.014599 -0.002073 0.000000 0.001979 0.000000
# 3 -0.002181 -0.002073 0.008746 0.000000 0.001044 0.000000
# 4 0.000000 0.000000 0.000000 0.075719 0.000000 0.023819
# 5 -0.005068 0.001979 0.001044 0.000000 0.038536 0.000000
# 6 0.000000 0.000000 0.000000 0.023819 0.000000 0.053304
#
#
# Mechanical properties :
#
#
# Convention : Reuss Voigt Hill
#
# Bulk Modulus (GPa) = 63.87135 66.92174 65.39655
# Shear Modulus (GPa) = 22.21046 28.26840 25.23943
#
# Velocity S-wave (km/s) = 3.36079 3.79152 3.58263
# Velocity P-wave (km/s) = 6.89500 7.29382 7.09721
#
# Compressibility (1/GPa) = 0.01565647
#
# Stress axis : x y z
#
# Youngs Moduli (GPa) = 93.85850 68.49752 114.34418
#
# Poissons Ratio (x) = 0.33681 0.24941
# Poissons Ratio (y) = 0.46152 0.23701
# Poissons Ratio (z) = 0.20473 0.14198
#
# Static dielectric constant tensor:
#      x y z
#    x 3.130730 0.000000 -0.067320 
#    y 0.000000 3.695650 0.000000 
#    z -0.067320 0.000000 3.634730 
# 
# 
# High freq. dielectric constant tensor:
#      x y z
#    x 1.762110 0.000000 0.009850 
#    y 0.000000 1.757770 0.000000 
#    z 0.009850 0.000000 1.772210 
# 
# From -- ./inp_files/86779.got.cif
#   From: 2010.06.25/outbox.cif.g09.slc.cpg/sg15_44_cif.got.tgz:86779.got - 2010.06.28 07:06:18.
