data_PCOD8142560
_publ_section_title
;
Structure prediction by ZEFSAII (Michael W. Deem and Ramdas Pophale) SiO2 
 PCOD8142560
Probable space group: C 2/C
;
_chemical_formula_sum "Si O2"
_cell_formula_units_Z 44
_cell_length_a 29.858143
_cell_length_b 7.734720
_cell_length_c 22.563416
_cell_angle_alpha 90.000000
_cell_angle_beta 22.218578
_cell_angle_gamma 90.000000
_cell_volume 1970.452563
_symmetry_space_group_name_H-M "C 2/C"
_symmetry_group_IT_number 15
_symmetry_cell_setting 'monoclinic'
loop_
_space_group_symop_operation_xyz
x,y,z
-x,y,1/2-z
-x,-y,-z
x,-y,1/2+z
1/2+x,1/2+y,z
1/2-x,1/2+y,1/2-z
1/2-x,1/2-y,-z
1/2+x,1/2-y,1/2+z
loop_
_atom_site_type_symbol
_atom_site_label
_atom_site_fract_x
_atom_site_fract_y
_atom_site_fract_z
Si Si1 0.922445 0.212808 0.223037
Si Si2 0.584631 0.682293 0.792560
Si Si3 0.500000 0.395308 0.750000
Si Si4 0.746881 0.483680 0.918617
Si Si5 0.893251 0.812503 0.097624
Si Si6 0.165477 0.867754 0.896788
O O1 0.992739 0.222434 0.199681
O O2 0.810415 0.339178 0.360297
O O3 0.877299 0.015589 0.267415
O O4 0.012637 0.280015 0.061398
O O5 0.680180 0.815439 0.647804
O O6 0.576618 0.722416 0.872028
O O7 0.451285 0.725545 0.931436
O O8 0.616778 0.516768 0.607463
O O9 0.731563 0.478999 0.866284
O O10 0.757705 0.755335 0.250953
O O11 0.894711 0.014654 0.080152
#
# Coordination Sequence:
#
# PCOD8142560 Si02
#       6
#     8   8   4   8   8   8
#     4  11  24  44  67  95 136 174 217 275 330 391
#     4  10  23  43  65  98 132 169 223 273 333 393
#     4  12  24  48  66 100 132 174 236 268 318 410
#     4  11  25  44  67  92 133 176 221 274 325 390
#     4  10  22  35  67  95 132 168 215 272 334 398
#     4  10  21  39  62 103 133 164 219 272 330 400
#
# _framework density 22.329896000000002
#
# number of rings (size 3 to 8) (size 9 to 14) (size 15 to 20)
#    0.000    1.455    3.636    2.727    7.636    2.182 
#    3.273    1.818    0.000    0.000    0.000    0.000 
#    0.000    0.000    0.000    0.000    0.000    0.000 
#
# Total GULP energy -272651.303744 kJ/mol
# GULP energy per Si atom -12393.241079 kJ/mol
# Density = 2.227907 g / cm^3
# Si number density = 22.329896 Si / 1000 Ang^3
#
#
#
# Elastic Constant Matrix: (Units=GPa)
#
#
# Indices 1 2 3 4 5 6 
#
# 1 91.8763 21.8279 17.2573 0.0019 -1.2512 -0.0028
# 2 21.8279 98.1272 76.4347 0.0449 -9.3058 -0.0041
# 3 17.2573 76.4347 169.4737 0.1324 -20.9920 -0.0001
# 4 0.0019 0.0449 0.1324 35.1632 0.0122 -10.5319
# 5 -1.2512 -9.3058 -20.9920 0.0122 30.7917 -0.0087
# 6 -0.0028 -0.0041 -0.0001 -10.5319 -0.0087 20.9078
#
#
#
# Elastic Compliance Matrix: (Units=1/GPa)
#
#
# Indices 1 2 3 4 5 6 
#
# 1 0.011495 -0.002535 -0.000070 0.000004 -0.000347 0.000003
# 2 -0.002535 0.016269 -0.007081 0.000008 -0.000014 0.000007
# 3 -0.000070 -0.007081 0.009651 -0.000034 0.004437 -0.000017
# 4 0.000004 0.000008 -0.000034 0.033492 -0.000029 0.016871
# 5 -0.000347 -0.000014 0.004437 -0.000029 0.035483 0.000000
# 6 0.000003 0.000007 -0.000017 0.016871 0.000000 0.056327
#
#
# Mechanical properties :
#
#
# Convention : Reuss Voigt Hill
#
# Bulk Modulus (GPa) = 55.42566 65.61300 60.51933
# Shear Modulus (GPa) = 26.58098 33.63638 30.10868
#
# Velocity S-wave (km/s) = 3.45393 3.88537 3.67598
# Velocity P-wave (km/s) = 6.38602 7.04098 6.72148
#
# Compressibility (1/GPa) = 0.01804218
#
# Stress axis : x y z
#
# Youngs Moduli (GPa) = 86.99447 61.46543 103.61601
#
# Poissons Ratio (x) = 0.15584 0.00725
# Poissons Ratio (y) = 0.22056 0.73372
# Poissons Ratio (z) = 0.00609 0.43525
#
# Static dielectric constant tensor:
#      x y z
#    x 4.007220 -0.000030 -0.094750 
#    y -0.000030 3.754930 0.000110 
#    z -0.094750 0.000110 4.664060 
# 
# 
# High freq. dielectric constant tensor:
#      x y z
#    x 1.878590 0.000000 -0.007380 
#    y 0.000000 1.844600 0.000000 
#    z -0.007380 0.000000 1.898740 
# 
# From -- ./inp_files/284373.got.cif
#   From: 2010.06.25/outbox.cif.g09.slc.cpg/sg15_143_cif.got.tgz:284373.got - 2010.06.28 07:06:18.
