data_PCOD8142278
_publ_section_title
;
Structure prediction by ZEFSAII (Michael W. Deem and Ramdas Pophale) SiO2 
 PCOD8142278
Probable space group: C 2/C
;
_chemical_formula_sum "Si O2"
_cell_formula_units_Z 64
_cell_length_a 25.984918
_cell_length_b 14.339412
_cell_length_c 18.880157
_cell_angle_alpha 90.000000
_cell_angle_beta 26.326715
_cell_angle_gamma 90.000000
_cell_volume 3119.904404
_symmetry_space_group_name_H-M "C 2/C"
_symmetry_group_IT_number 15
_symmetry_cell_setting 'monoclinic'
loop_
_space_group_symop_operation_xyz
x,y,z
-x,y,1/2-z
-x,-y,-z
x,-y,1/2+z
1/2+x,1/2+y,z
1/2-x,1/2+y,1/2-z
1/2-x,1/2-y,-z
1/2+x,1/2-y,1/2+z
loop_
_atom_site_type_symbol
_atom_site_label
_atom_site_fract_x
_atom_site_fract_y
_atom_site_fract_z
Si Si1 0.259743 0.026451 0.313226
Si Si2 0.232877 0.364288 0.298499
Si Si3 0.062445 0.593579 0.603666
Si Si4 0.390844 0.200938 0.088796
Si Si5 0.998632 0.264504 0.903389
Si Si6 0.229135 0.981555 0.116184
Si Si7 0.998954 0.937214 0.336087
Si Si8 0.615789 0.936446 0.701994
O O1 0.302201 0.122830 0.226749
O O2 0.308832 0.012297 0.331047
O O3 0.120538 0.021200 0.486994
O O4 0.309255 0.941204 0.205824
O O5 0.321737 0.293474 0.151841
O O6 0.294951 0.414580 0.287765
O O7 0.127530 0.303655 0.458741
O O8 0.043854 0.664305 0.561792
O O9 0.200708 0.575208 0.446285
O O10 0.000000 0.637569 0.750000
O O11 0.003983 0.493484 0.658866
O O12 0.484238 0.230764 0.032824
O O13 0.018212 0.164293 0.845457
O O14 0.093368 0.330215 0.749925
O O15 0.104202 0.003331 0.234316
O O16 0.311606 0.929697 0.958888
O O17 0.000000 0.931529 0.250000
#
# Coordination Sequence:
#
# PCOD8142278 Si02
#       8
#     8   8   8   8   8   8   8   8
#     4  11  23  41  63  88 126 171 204 255 310 375
#     4  12  23  39  62  93 124 160 215 254 314 373
#     4  10  21  40  68  89 120 160 214 266 308 355
#     4  11  22  41  62  94 125 161 213 259 312 368
#     4  11  23  36  62  94 127 159 202 263 319 376
#     4  11  22  39  61  94 121 163 206 256 316 376
#     4  12  25  40  60  92 136 169 202 248 322 388
#     4  10  21  38  65  90 122 160 207 261 314 370
#
# _framework density 20.513449999999999
#
# number of rings (size 3 to 8) (size 9 to 14) (size 15 to 20)
#    0.000    1.000    6.250    0.750    1.750    3.000 
#    2.250    0.625    0.000    2.250    0.000    0.000 
#    0.000    0.000    0.000    0.000    0.000    0.000 
#
# Total GULP energy -396833.515905 kJ/mol
# GULP energy per Si atom -12401.047372 kJ/mol
# Density = 2.046676 g / cm^3
# Si number density = 20.513450 Si / 1000 Ang^3
#
#
#
# Elastic Constant Matrix: (Units=GPa)
#
#
# Indices 1 2 3 4 5 6 
#
# 1 106.5343 17.7117 24.2960 0.0000 3.6061 0.0000
# 2 17.7117 44.3186 4.6334 0.0000 10.8223 0.0000
# 3 24.2960 4.6334 70.8417 0.0000 -1.0977 0.0000
# 4 0.0000 0.0000 0.0000 20.5375 0.0000 2.8641
# 5 3.6061 10.8223 -1.0977 0.0000 43.0744 0.0000
# 6 0.0000 0.0000 0.0000 2.8641 0.0000 22.3909
#
#
#
# Elastic Compliance Matrix: (Units=1/GPa)
#
#
# Indices 1 2 3 4 5 6 
#
# 1 0.010835 -0.003969 -0.003456 0.000000 0.000002 0.000000
# 2 -0.003969 0.025691 -0.000414 0.000000 -0.006133 0.000000
# 3 -0.003456 -0.000414 0.015341 0.000000 0.000784 0.000000
# 4 0.000000 0.000000 0.000000 0.049576 0.000000 -0.006341
# 5 0.000002 -0.006133 0.000784 0.000000 0.024776 0.000000
# 6 0.000000 0.000000 0.000000 -0.006341 0.000000 0.045472
#
#
# Mechanical properties :
#
#
# Convention : Reuss Voigt Hill
#
# Bulk Modulus (GPa) = 27.63399 34.99742 31.31570
# Shear Modulus (GPa) = 25.07118 28.87079 26.97099
#
# Velocity S-wave (km/s) = 3.49977 3.75561 3.62994
# Velocity P-wave (km/s) = 5.46183 5.99199 5.73304
#
# Compressibility (1/GPa) = 0.03618732
#
# Stress axis : x y z
#
# Youngs Moduli (GPa) = 92.29605 38.92402 65.18661
#
# Poissons Ratio (x) = 0.15450 0.22530
# Poissons Ratio (y) = 0.36634 0.02699
# Poissons Ratio (z) = 0.31900 0.01612
#
# Static dielectric constant tensor:
#      x y z
#    x 4.011560 0.000000 -0.045030 
#    y 0.000000 3.425690 0.000000 
#    z -0.045030 0.000000 3.678480 
# 
# 
# High freq. dielectric constant tensor:
#      x y z
#    x 1.819780 0.000000 -0.000070 
#    y 0.000000 1.769830 0.000000 
#    z -0.000070 0.000000 1.799690 
# 
# From -- ./inp_files/219708.got.cif
#   From: 2010.06.25/outbox.cif.g09.slc.cpg/sg15_110_cif.got.tgz:219708.got - 2010.06.28 07:06:18.
