data_PCOD8142589
_publ_section_title
;
Structure prediction by ZEFSAII (Michael W. Deem and Ramdas Pophale) SiO2 
 PCOD8142589
Probable space group: C 2/C
;
_chemical_formula_sum "Si O2"
_cell_formula_units_Z 32
_cell_length_a 11.673201
_cell_length_b 10.602630
_cell_length_c 14.157921
_cell_angle_alpha 90.000000
_cell_angle_beta 112.356017
_cell_angle_gamma 90.000000
_cell_volume 1620.573959
_symmetry_space_group_name_H-M "C 2/C"
_symmetry_group_IT_number 15
_symmetry_cell_setting 'monoclinic'
loop_
_space_group_symop_operation_xyz
x,y,z
-x,y,1/2-z
-x,-y,-z
x,-y,1/2+z
1/2+x,1/2+y,z
1/2-x,1/2+y,1/2-z
1/2-x,1/2-y,-z
1/2+x,1/2-y,1/2+z
loop_
_atom_site_type_symbol
_atom_site_label
_atom_site_fract_x
_atom_site_fract_y
_atom_site_fract_z
Si Si1 0.869382 0.435380 0.445466
Si Si2 0.064127 0.825134 0.585832
Si Si3 0.689823 0.561398 0.538155
Si Si4 0.627401 0.138295 0.751894
O O1 0.765308 0.497115 0.477486
O O2 0.826587 0.448524 0.321888
O O3 0.000000 0.500000 0.500000
O O4 0.892922 0.285466 0.474115
O O5 0.133754 0.953339 0.586141
O O6 0.098077 0.779365 0.702722
O O7 0.915887 0.846782 0.534846
O O8 0.775136 0.646359 0.632647
O O9 0.500000 0.077077 0.750000
#
# Coordination Sequence:
#
# PCOD8142589 Si02
#       4
#     8   8   8   8
#     4  10  21  39  62  90 126 163 212 260 309 382
#     4   9  24  38  63  96 123 166 219 255 325 383
#     4  11  20  44  65  87 138 164 205 275 319 378
#     4  10  22  38  59  98 119 168 211 255 319 382
#
# _framework density 19.746089999999999
#
# number of rings (size 3 to 8) (size 9 to 14) (size 15 to 20)
#    1.500    0.500    2.500    0.750    0.000    8.000 
#    0.000    3.750    0.000    0.000    0.000    0.000 
#    0.000    0.000    0.000    0.000    0.000    0.000 
#
# Total GULP energy -198211.979530 kJ/mol
# GULP energy per Si atom -12388.248721 kJ/mol
# Density = 1.970115 g / cm^3
# Si number density = 19.746090 Si / 1000 Ang^3
#
#
#
# Elastic Constant Matrix: (Units=GPa)
#
#
# Indices 1 2 3 4 5 6 
#
# 1 131.9124 32.8244 67.2772 0.0000 0.8492 0.0000
# 2 32.8244 84.2504 43.1796 0.0000 7.2242 0.0000
# 3 67.2772 43.1796 94.3364 0.0000 -7.8426 0.0000
# 4 0.0000 0.0000 0.0000 32.6780 0.0000 -3.3745
# 5 0.8492 7.2242 -7.8426 0.0000 29.5133 0.0000
# 6 0.0000 0.0000 0.0000 -3.3745 0.0000 32.6339
#
#
#
# Elastic Compliance Matrix: (Units=1/GPa)
#
#
# Indices 1 2 3 4 5 6 
#
# 1 0.012122 0.000077 -0.008908 0.000000 -0.002735 0.000000
# 2 0.000077 0.016547 -0.008146 0.000000 -0.006217 0.000000
# 3 -0.008908 -0.008146 0.021340 0.000000 0.007921 0.000000
# 4 0.000000 0.000000 0.000000 0.030932 0.000000 0.003199
# 5 -0.002735 -0.006217 0.007921 0.000000 0.037588 0.000000
# 6 0.000000 0.000000 0.000000 0.003199 0.000000 0.030974
#
#
# Mechanical properties :
#
#
# Convention : Reuss Voigt Hill
#
# Bulk Modulus (GPa) = 62.28004 66.34016 64.31010
# Shear Modulus (GPa) = 26.48180 30.11291 28.29735
#
# Velocity S-wave (km/s) = 3.66610 3.90937 3.78969
# Velocity P-wave (km/s) = 7.03770 7.35167 7.19640
#
# Compressibility (1/GPa) = 0.01605651
#
# Stress axis : x y z
#
# Youngs Moduli (GPa) = 82.49238 60.43275 46.86038
#
# Poissons Ratio (x) = -0.00465 0.41742
# Poissons Ratio (y) = -0.00635 0.38171
# Poissons Ratio (z) = 0.73482 0.49227
#
# Static dielectric constant tensor:
#      x y z
#    x 3.755790 0.000000 -0.108200 
#    y 0.000000 3.490340 0.000000 
#    z -0.108200 0.000000 3.527920 
# 
# 
# High freq. dielectric constant tensor:
#      x y z
#    x 1.776100 0.000000 -0.001860 
#    y 0.000000 1.759650 0.000000 
#    z -0.001860 0.000000 1.763080 
# 
# From -- ./inp_files/84167.got.cif
#   From: 2010.06.25/outbox.cif.g09.slc.cpg/sg15_43_cif.got.tgz:84167.got - 2010.06.28 07:06:18.
