data_PCOD8142219
_publ_section_title
;
Structure prediction by ZEFSAII (Michael W. Deem and Ramdas Pophale) SiO2 
 PCOD8142219
Probable space group: C 2/C
;
_chemical_formula_sum "Si O2"
_cell_formula_units_Z 36
_cell_length_a 7.379025
_cell_length_b 26.474251
_cell_length_c 8.450441
_cell_angle_alpha 90.000000
_cell_angle_beta 98.560394
_cell_angle_gamma 90.000000
_cell_volume 1632.437764
_symmetry_space_group_name_H-M "C 2/C"
_symmetry_group_IT_number 15
_symmetry_cell_setting 'monoclinic'
loop_
_space_group_symop_operation_xyz
x,y,z
-x,y,1/2-z
-x,-y,-z
x,-y,1/2+z
1/2+x,1/2+y,z
1/2-x,1/2+y,1/2-z
1/2-x,1/2-y,-z
1/2+x,1/2-y,1/2+z
loop_
_atom_site_type_symbol
_atom_site_label
_atom_site_fract_x
_atom_site_fract_y
_atom_site_fract_z
Si Si1 0.807943 0.070495 0.554218
Si Si2 0.500000 0.653014 0.750000
Si Si3 0.060011 0.614794 0.078071
Si Si4 0.677963 0.205517 0.879414
Si Si5 0.288665 0.977486 0.769462
O O1 0.954724 0.115081 0.598714
O O2 0.612789 0.097538 0.545876
O O3 0.834234 0.043401 0.389961
O O4 0.815558 0.027224 0.688498
O O5 0.333466 0.689186 0.775649
O O6 0.203033 0.567561 0.099074
O O7 0.000000 0.629251 0.250000
O O8 0.145825 0.661427 0.000101
O O9 0.500000 0.220455 0.750000
O O10 0.750000 0.250000 0.000000
O O11 0.500000 0.989203 0.750000
#
# Coordination Sequence:
#
# PCOD8142219 Si02
#       5
#     8   4   8   8   8
#     4  10  21  38  64 100 147 182 232 279 335 427
#     4  12  28  44  72 108 134 186 240 284 370 420
#     4   9  20  43  71  99 139 190 233 287 351 413
#     4  12  29  50  79 102 140 184 235 314 362 429
#     4   9  19  34  66 102 139 194 231 274 340 412
#
# _framework density 22.052907999999999
#
# number of rings (size 3 to 8) (size 9 to 14) (size 15 to 20)
#    0.000    2.222    2.222    2.667    7.778    5.333 
#    0.000    0.000    0.000    0.000    0.000    0.000 
#    0.000    0.000    0.000    0.000    0.000    0.000 
#
# Total GULP energy -223082.446437 kJ/mol
# GULP energy per Si atom -12393.469246 kJ/mol
# Density = 2.200272 g / cm^3
# Si number density = 22.052908 Si / 1000 Ang^3
#
#
#
# Elastic Constant Matrix: (Units=GPa)
#
#
# Indices 1 2 3 4 5 6 
#
# 1 78.1251 52.8451 47.8089 0.0000 13.9838 0.0000
# 2 52.8451 135.0533 47.6310 0.0000 3.8353 0.0000
# 3 47.8089 47.6310 90.4247 0.0000 20.6997 0.0000
# 4 0.0000 0.0000 0.0000 23.8743 0.0000 7.4689
# 5 13.9838 3.8353 20.6997 0.0000 27.9391 0.0000
# 6 0.0000 0.0000 0.0000 7.4689 0.0000 22.3829
#
#
#
# Elastic Compliance Matrix: (Units=1/GPa)
#
#
# Indices 1 2 3 4 5 6 
#
# 1 0.022287 -0.005910 -0.007590 0.000000 -0.004720 0.000000
# 2 -0.005910 0.010843 -0.003520 0.000000 0.004078 0.000000
# 3 -0.007590 -0.003520 0.019203 0.000000 -0.009945 0.000000
# 4 0.000000 0.000000 0.000000 0.046768 0.000000 -0.015606
# 5 -0.004720 0.004078 -0.009945 0.000000 0.044963 0.000000
# 6 0.000000 0.000000 0.000000 -0.015606 0.000000 0.049885
#
#
# Mechanical properties :
#
#
# Convention : Reuss Voigt Hill
#
# Bulk Modulus (GPa) = 54.66725 66.68590 60.67658
# Shear Modulus (GPa) = 21.35970 25.19379 23.27675
#
# Velocity S-wave (km/s) = 3.11556 3.38364 3.25236
# Velocity P-wave (km/s) = 6.14697 6.75056 6.45582
#
# Compressibility (1/GPa) = 0.01829249
#
# Stress axis : x y z
#
# Youngs Moduli (GPa) = 44.86899 92.22847 52.07621
#
# Poissons Ratio (x) = 0.54505 0.39526
# Poissons Ratio (y) = 0.26517 0.18332
# Poissons Ratio (z) = 0.34056 0.32466
#
# Static dielectric constant tensor:
#      x y z
#    x 3.749920 0.000000 0.230560 
#    y 0.000000 4.020570 0.000000 
#    z 0.230560 0.000000 4.018480 
# 
# 
# High freq. dielectric constant tensor:
#      x y z
#    x 1.855130 0.000000 0.016000 
#    y 0.000000 1.867740 0.000000 
#    z 0.016000 0.000000 1.874650 
# 
# From -- ./inp_files/23852.got.cif
#   From: 2010.06.25/outbox.cif.g09.slc.cpg/sg15_12_cif.got.tgz:23852.got - 2010.06.28 07:06:18.
