data_PCOD8142148
_publ_section_title
;
Structure prediction by ZEFSAII (Michael W. Deem and Ramdas Pophale) SiO2 
 PCOD8142148
Probable space group: C 2/C
;
_chemical_formula_sum "Si O2"
_cell_formula_units_Z 56
_cell_length_a 9.161723
_cell_length_b 18.252586
_cell_length_c 16.583362
_cell_angle_alpha 90.000000
_cell_angle_beta 77.829786
_cell_angle_gamma 90.000000
_cell_volume 2710.830049
_symmetry_space_group_name_H-M "C 2/C"
_symmetry_group_IT_number 15
_symmetry_cell_setting 'monoclinic'
loop_
_space_group_symop_operation_xyz
x,y,z
-x,y,1/2-z
-x,-y,-z
x,-y,1/2+z
1/2+x,1/2+y,z
1/2-x,1/2+y,1/2-z
1/2-x,1/2-y,-z
1/2+x,1/2-y,1/2+z
loop_
_atom_site_type_symbol
_atom_site_label
_atom_site_fract_x
_atom_site_fract_y
_atom_site_fract_z
Si Si1 0.049892 0.598599 0.020672
Si Si2 0.854315 0.758198 0.864526
Si Si3 0.114642 0.093371 0.537634
Si Si4 0.000000 0.884562 0.750000
Si Si5 0.573074 0.965562 0.114860
Si Si6 0.529233 0.255491 0.474951
Si Si7 0.608835 0.486307 0.873060
Si Si8 0.500000 0.137090 0.750000
O O1 0.019405 0.548621 0.103441
O O2 0.053010 0.682577 0.046219
O O3 0.211555 0.580712 0.963268
O O4 0.920370 0.578796 0.971027
O O5 0.690093 0.749253 0.916539
O O6 0.872535 0.690185 0.800274
O O7 0.884613 0.834240 0.814295
O O8 0.966318 0.755238 0.927920
O O9 0.079654 0.066896 0.451579
O O10 0.065658 0.177807 0.549074
O O11 0.022170 0.046823 0.613825
O O12 0.101842 0.936225 0.794466
O O13 0.456045 0.919885 0.183593
O O14 0.735494 0.969139 0.137754
#
# Coordination Sequence:
#
# PCOD8142148 Si02
#       8
#     8   8   8   4   8   8   8   4
#     4  10  22  38  62  93 125 166 205 255 309 371
#     4  10  23  35  65  91 118 165 212 251 318 370
#     4  10  21  38  62  94 121 164 207 256 305 376
#     4  11  22  42  60  97 126 162 204 271 316 366
#     4  10  22  38  60  90 125 162 207 247 314 370
#     4  11  20  40  62  90 123 164 210 258 298 383
#     4  10  22  38  63  89 125 159 210 253 313 371
#     4  11  20  40  58  91 120 156 204 263 300 370
#
# _framework density 20.657879999999999
#
# number of rings (size 3 to 8) (size 9 to 14) (size 15 to 20)
#    0.000    1.714    2.857    1.286    2.000    4.571 
#    0.000    0.000    0.000    4.286    0.000    0.000 
#    0.000    0.000    0.000    0.000    0.000    0.000 
#
# Total GULP energy -346996.364093 kJ/mol
# GULP energy per Si atom -12392.727289 kJ/mol
# Density = 2.061086 g / cm^3
# Si number density = 20.657880 Si / 1000 Ang^3
#
#
#
# Elastic Constant Matrix: (Units=GPa)
#
#
# Indices 1 2 3 4 5 6 
#
# 1 74.5772 42.0875 31.7072 0.0000 4.3771 0.0000
# 2 42.0875 170.6550 56.7237 0.0000 0.3084 0.0000
# 3 31.7072 56.7237 97.3565 0.0000 -2.9353 0.0000
# 4 0.0000 0.0000 0.0000 48.5164 0.0000 -1.9380
# 5 4.3771 0.3084 -2.9353 0.0000 16.5041 0.0000
# 6 0.0000 0.0000 0.0000 -1.9380 0.0000 25.3409
#
#
#
# Elastic Compliance Matrix: (Units=1/GPa)
#
#
# Indices 1 2 3 4 5 6 
#
# 1 0.017041 -0.002848 -0.004047 0.000000 -0.005186 0.000000
# 2 -0.002848 0.007756 -0.003592 0.000000 -0.000028 0.000000
# 3 -0.004047 -0.003592 0.013791 0.000000 0.003593 0.000000
# 4 0.000000 0.000000 0.000000 0.020675 0.000000 0.001581
# 5 -0.005186 -0.000028 0.003593 0.000000 0.062606 0.000000
# 6 0.000000 0.000000 0.000000 0.001581 0.000000 0.039583
#
#
# Mechanical properties :
#
#
# Convention : Reuss Voigt Hill
#
# Bulk Modulus (GPa) = 56.77465 67.06948 61.92207
# Shear Modulus (GPa) = 26.55359 32.21030 29.38194
#
# Velocity S-wave (km/s) = 3.58913 3.95299 3.77545
# Velocity P-wave (km/s) = 6.68721 7.30562 7.00324
#
# Compressibility (1/GPa) = 0.01761349
#
# Stress axis : x y z
#
# Youngs Moduli (GPa) = 58.68097 128.92684 72.51147
#
# Poissons Ratio (x) = 0.36722 0.29345
# Poissons Ratio (y) = 0.16714 0.26049
# Poissons Ratio (z) = 0.23748 0.46315
#
# Static dielectric constant tensor:
#      x y z
#    x 3.474050 0.000000 0.006720 
#    y 0.000000 4.036410 0.000000 
#    z 0.006720 0.000000 3.734460 
# 
# 
# High freq. dielectric constant tensor:
#      x y z
#    x 1.781520 0.000000 -0.003770 
#    y 0.000000 1.833480 0.000000 
#    z -0.003770 0.000000 1.794240 
# 
# From -- ./inp_files/190951.got.cif
#   From: 2010.06.25/outbox.cif.g09.slc.cpg/sg15_96_cif.got.tgz:190951.got - 2010.06.28 07:06:18.
