data_PCOD8142145
_publ_section_title
;
Structure prediction by ZEFSAII (Michael W. Deem and Ramdas Pophale) SiO2 
 PCOD8142145
Probable space group: C 2/C
;
_chemical_formula_sum "Si O2"
_cell_formula_units_Z 40
_cell_length_a 21.865738
_cell_length_b 8.296835
_cell_length_c 14.771389
_cell_angle_alpha 90.000000
_cell_angle_beta 141.811532
_cell_angle_gamma 90.000000
_cell_volume 1656.769927
_symmetry_space_group_name_H-M "C 2/C"
_symmetry_group_IT_number 15
_symmetry_cell_setting 'monoclinic'
loop_
_space_group_symop_operation_xyz
x,y,z
-x,y,1/2-z
-x,-y,-z
x,-y,1/2+z
1/2+x,1/2+y,z
1/2-x,1/2+y,1/2-z
1/2-x,1/2-y,-z
1/2+x,1/2-y,1/2+z
loop_
_atom_site_type_symbol
_atom_site_label
_atom_site_fract_x
_atom_site_fract_y
_atom_site_fract_z
Si Si1 0.390427 0.886936 0.663732
Si Si2 0.461352 0.645326 0.395698
Si Si3 0.156574 0.432626 0.209148
Si Si4 0.189912 0.082846 0.843996
Si Si5 0.664245 0.750262 0.621017
O O1 0.500000 0.904482 0.750000
O O2 0.304360 0.961499 0.499301
O O3 0.360168 0.699440 0.639384
O O4 0.388629 0.979483 0.756779
O O5 0.500000 0.500000 0.500000
O O6 0.421917 0.793872 0.412554
O O7 0.374179 0.582790 0.228847
O O8 0.556707 0.713636 0.453007
O O9 0.255870 0.333393 0.351476
O O10 0.177780 0.556880 0.151236
O O11 0.181897 0.170524 0.739087
#
# Coordination Sequence:
#
# PCOD8142145 Si02
#       5
#     8   8   8   8   8
#     4  10  23  42  64  93 133 176 215 263 324 390
#     4  10  21  38  62  93 127 164 210 267 324 377
#     4  11  23  40  65  96 129 169 218 266 324 385
#     4   9  21  40  63  92 127 171 217 263 324 388
#     4  10  21  38  63  93 127 164 211 271 322 380
#
# _framework density 24.143363999999998
#
# number of rings (size 3 to 8) (size 9 to 14) (size 15 to 20)
#    0.000    2.000    0.000    3.000    0.000   13.600 
#    0.000    1.000    0.000    0.000    0.000    0.000 
#    0.000    0.000    0.000    0.000    0.000    0.000 
#
# Total GULP energy -247799.362417 kJ/mol
# GULP energy per Si atom -12389.968121 kJ/mol
# Density = 2.408841 g / cm^3
# Si number density = 24.143364 Si / 1000 Ang^3
#
#
#
# Elastic Constant Matrix: (Units=GPa)
#
#
# Indices 1 2 3 4 5 6 
#
# 1 78.0393 40.6445 32.9703 0.0000 38.1871 0.0000
# 2 40.6445 154.8750 61.5118 0.0000 35.0470 0.0000
# 3 32.9703 61.5118 149.7506 0.0000 47.3025 0.0000
# 4 0.0000 0.0000 0.0000 46.0650 0.0000 14.8849
# 5 38.1871 35.0470 47.3025 0.0000 54.8885 0.0000
# 6 0.0000 0.0000 0.0000 14.8849 0.0000 29.5226
#
#
#
# Elastic Compliance Matrix: (Units=1/GPa)
#
#
# Indices 1 2 3 4 5 6 
#
# 1 0.020270 -0.002666 0.000755 0.000000 -0.013050 0.000000
# 2 -0.002666 0.008448 -0.002425 0.000000 -0.001449 0.000000
# 3 0.000755 -0.002425 0.009872 0.000000 -0.007484 0.000000
# 4 0.000000 0.000000 0.000000 0.025933 0.000000 -0.013075
# 5 -0.013050 -0.001449 -0.007484 0.000000 0.034673 0.000000
# 6 0.000000 0.000000 0.000000 -0.013075 0.000000 0.040465
#
#
# Mechanical properties :
#
#
# Convention : Reuss Voigt Hill
#
# Bulk Modulus (GPa) = 33.42747 72.54645 52.98696
# Shear Modulus (GPa) = 31.58456 42.59777 37.09117
#
# Velocity S-wave (km/s) = 3.62084 4.20499 3.92380
# Velocity P-wave (km/s) = 5.59965 7.32731 6.52095
#
# Compressibility (1/GPa) = 0.02991552
#
# Stress axis : x y z
#
# Youngs Moduli (GPa) = 49.33510 118.37650 101.29844
#
# Poissons Ratio (x) = 0.31559 -0.07644
# Poissons Ratio (y) = 0.13153 0.24568
# Poissons Ratio (z) = -0.03723 0.28710
#
# Static dielectric constant tensor:
#      x y z
#    x 4.028640 0.000000 0.536600 
#    y 0.000000 4.957560 0.000000 
#    z 0.536600 0.000000 4.740650 
# 
# 
# High freq. dielectric constant tensor:
#      x y z
#    x 1.924570 0.000000 0.040060 
#    y 0.000000 1.978110 0.000000 
#    z 0.040060 0.000000 1.958590 
# 
# From -- ./inp_files/218812.got.cif
#   From: 2010.06.25/outbox.cif.g09.slc.cpg/sg15_110_cif.got.tgz:218812.got - 2010.06.28 07:06:18.
