data_PCOD8142162
_publ_section_title
;
Structure prediction by ZEFSAII (Michael W. Deem and Ramdas Pophale) SiO2 
 PCOD8142162
Probable space group: C 2/C
;
_chemical_formula_sum "Si O2"
_cell_formula_units_Z 56
_cell_length_a 19.200240
_cell_length_b 9.042513
_cell_length_c 17.782868
_cell_angle_alpha 90.000000
_cell_angle_beta 72.570606
_cell_angle_gamma 90.000000
_cell_volume 2945.679457
_symmetry_space_group_name_H-M "C 2/C"
_symmetry_group_IT_number 15
_symmetry_cell_setting 'monoclinic'
loop_
_space_group_symop_operation_xyz
x,y,z
-x,y,1/2-z
-x,-y,-z
x,-y,1/2+z
1/2+x,1/2+y,z
1/2-x,1/2+y,1/2-z
1/2-x,1/2-y,-z
1/2+x,1/2-y,1/2+z
loop_
_atom_site_type_symbol
_atom_site_label
_atom_site_fract_x
_atom_site_fract_y
_atom_site_fract_z
Si Si1 0.086369 0.849587 0.991896
Si Si2 0.700612 0.168367 0.455156
Si Si3 0.557997 0.674340 0.042147
Si Si4 0.572738 0.143792 0.681874
Si Si5 0.225485 0.110779 0.352363
Si Si6 0.156295 0.403301 0.563420
Si Si7 0.721730 0.791046 0.206776
O O1 0.143188 0.885847 0.907887
O O2 0.015882 0.776644 0.975792
O O3 0.116692 0.738969 0.044246
O O4 0.065010 0.998009 0.042640
O O5 0.750000 0.250000 0.500000
O O6 0.623558 0.251475 0.474489
O O7 0.741027 0.174161 0.362347
O O8 0.689793 0.998848 0.483765
O O9 0.556289 0.725522 0.128895
O O10 0.500000 0.101952 0.750000
O O11 0.635443 0.197791 0.718644
O O12 0.598191 0.998848 0.628847
O O13 0.278668 0.150449 0.403963
O O14 0.236031 0.234613 0.285686
O O15 0.240652 0.949499 0.314167
#
# Coordination Sequence:
#
# PCOD8142162 Si02
#       7
#     8   8   8   8   8   8   8
#     4  11  22  39  59  92 120 156 203 250 298 362
#     4  11  18  41  65  83 116 160 203 246 300 365
#     4  10  21  38  63  84 119 156 198 248 296 363
#     4  10  21  41  60  84 118 158 197 247 308 366
#     4  11  23  39  58  90 124 155 202 251 300 367
#     4  10  23  39  63  90 118 161 203 256 296 362
#     4  11  23  38  60  89 120 157 200 251 307 355
#
# _framework density 19.010894
#
# number of rings (size 3 to 8) (size 9 to 14) (size 15 to 20)
#    0.000    1.429    5.714    1.286    2.000    3.429 
#    5.143    0.714    0.000    0.000    0.000    0.000 
#    0.000    0.000    0.000    0.000    0.000    0.000 
#
# Total GULP energy -347330.178094 kJ/mol
# GULP energy per Si atom -12404.649218 kJ/mol
# Density = 1.896762 g / cm^3
# Si number density = 19.010894 Si / 1000 Ang^3
#
#
#
# Elastic Constant Matrix: (Units=GPa)
#
#
# Indices 1 2 3 4 5 6 
#
# 1 143.3813 48.7431 51.6394 0.0000 -3.3297 0.0000
# 2 48.7431 73.1032 33.9341 0.0000 16.3946 0.0000
# 3 51.6394 33.9341 75.9173 0.0000 -8.1681 0.0000
# 4 0.0000 0.0000 0.0000 24.8030 0.0000 8.2011
# 5 -3.3297 16.3946 -8.1681 0.0000 35.6242 0.0000
# 6 0.0000 0.0000 0.0000 8.2011 0.0000 31.6508
#
#
#
# Elastic Compliance Matrix: (Units=1/GPa)
#
#
# Indices 1 2 3 4 5 6 
#
# 1 0.010493 -0.005516 -0.004402 0.000000 0.002510 0.000000
# 2 -0.005516 0.024466 -0.008664 0.000000 -0.013761 0.000000
# 3 -0.004402 -0.008664 0.020941 0.000000 0.008377 0.000000
# 4 0.000000 0.000000 0.000000 0.044096 0.000000 -0.011426
# 5 0.002510 -0.013761 0.008377 0.000000 0.036559 0.000000
# 6 0.000000 0.000000 0.000000 -0.011426 0.000000 0.034555
#
#
# Mechanical properties :
#
#
# Convention : Reuss Voigt Hill
#
# Bulk Modulus (GPa) = 53.37688 62.33719 57.85704
# Shear Modulus (GPa) = 23.30793 28.95460 26.13126
#
# Velocity S-wave (km/s) = 3.50527 3.90687 3.71150
# Velocity P-wave (km/s) = 6.67237 7.29472 6.99047
#
# Compressibility (1/GPa) = 0.01873470
#
# Stress axis : x y z
#
# Youngs Moduli (GPa) = 95.29868 40.87382 47.75426
#
# Poissons Ratio (x) = 0.22547 0.21021
# Poissons Ratio (y) = 0.52569 0.41375
# Poissons Ratio (z) = 0.41949 0.35414
#
# Static dielectric constant tensor:
#      x y z
#    x 3.709180 0.000000 -0.167280 
#    y 0.000000 3.490430 0.000000 
#    z -0.167280 0.000000 3.696130 
# 
# 
# High freq. dielectric constant tensor:
#      x y z
#    x 1.752610 0.000000 -0.004210 
#    y 0.000000 1.736700 0.000000 
#    z -0.004210 0.000000 1.734450 
# 
# From -- ./inp_files/209503.got.cif
#   From: 2010.06.25/outbox.cif.g09.slc.cpg/sg15_105_cif.got.tgz:209503.got - 2010.06.28 07:06:18.
