data_PCOD8142814
_publ_section_title
;
Structure prediction by ZEFSAII (Michael W. Deem and Ramdas Pophale) SiO2 
 PCOD8142814
Probable space group: C 2/C
;
_chemical_formula_sum "Si O2"
_cell_formula_units_Z 60
_cell_length_a 11.475393
_cell_length_b 28.507309
_cell_length_c 16.460461
_cell_angle_alpha 90.000000
_cell_angle_beta 33.143332
_cell_angle_gamma 90.000000
_cell_volume 2944.034857
_symmetry_space_group_name_H-M "C 2/C"
_symmetry_group_IT_number 15
_symmetry_cell_setting 'monoclinic'
loop_
_space_group_symop_operation_xyz
x,y,z
-x,y,1/2-z
-x,-y,-z
x,-y,1/2+z
1/2+x,1/2+y,z
1/2-x,1/2+y,1/2-z
1/2-x,1/2-y,-z
1/2+x,1/2-y,1/2+z
loop_
_atom_site_type_symbol
_atom_site_label
_atom_site_fract_x
_atom_site_fract_y
_atom_site_fract_z
Si Si1 0.104283 0.552274 0.376691
Si Si2 0.818232 0.805069 0.287103
Si Si3 0.187532 0.521058 0.497067
Si Si4 0.340984 0.132617 0.278134
Si Si5 0.500000 0.079307 0.750000
Si Si6 0.562977 0.513916 0.873994
Si Si7 0.457072 0.776055 0.914233
Si Si8 0.387813 0.382218 0.117988
O O1 0.170369 0.557334 0.431826
O O2 0.167824 0.600366 0.296371
O O3 0.204049 0.505502 0.277603
O O4 0.865218 0.533087 0.501180
O O5 0.595032 0.794559 0.464402
O O6 0.798079 0.851144 0.244265
O O7 0.000000 0.811013 0.250000
O O8 0.859104 0.763093 0.198766
O O9 0.049791 0.544768 0.647721
O O10 0.426885 0.515062 0.387954
O O11 0.500000 0.107617 0.250000
O O12 0.458272 0.181379 0.189950
O O13 0.101498 0.140028 0.452386
O O14 0.296470 0.111414 0.842766
O O15 0.547417 0.569648 0.875799
O O16 0.500000 0.500000 0.000000
O O17 0.250000 0.750000 0.000000
#
# Coordination Sequence:
#
# PCOD8142814 Si02
#       8
#     8   8   8   8   4   8   8   8
#     4  11  24  36  59  92 127 171 225 275 332 389
#     4  10  21  39  65  99 132 167 213 279 345 416
#     4  11  23  39  58  85 127 174 224 279 325 394
#     4  12  23  38  66 101 134 171 219 274 349 416
#     4  12  24  44  64  82 142 182 232 266 340 396
#     4  12  21  40  60  87 129 182 229 277 327 382
#     4  10  21  40  66  97 141 167 205 276 359 410
#     4  12  25  39  68  97 131 185 230 270 340 403
#
# _framework density 20.380192999999998
#
# number of rings (size 3 to 8) (size 9 to 14) (size 15 to 20)
#    0.000    0.800    4.000    4.800    2.800    1.067 
#    0.000    0.000    0.000    3.200    0.000    0.000 
#    0.000    0.000    0.000    0.000    0.000    0.000 
#
# Total GULP energy -371738.747839 kJ/mol
# GULP energy per Si atom -12391.291595 kJ/mol
# Density = 2.033381 g / cm^3
# Si number density = 20.380193 Si / 1000 Ang^3
#
#
#
# Elastic Constant Matrix: (Units=GPa)
#
#
# Indices 1 2 3 4 5 6 
#
# 1 127.9521 41.4837 44.3807 -0.0002 9.6696 0.0001
# 2 41.4837 117.3811 45.4776 0.0000 17.4265 0.0000
# 3 44.3807 45.4776 90.5286 -0.0013 7.5728 0.0004
# 4 -0.0002 0.0000 -0.0013 44.3885 0.0004 10.2172
# 5 9.6696 17.4265 7.5728 0.0004 38.0388 -0.0002
# 6 0.0001 0.0000 0.0004 10.2172 -0.0002 29.5423
#
#
#
# Elastic Compliance Matrix: (Units=1/GPa)
#
#
# Indices 1 2 3 4 5 6 
#
# 1 0.009803 -0.001863 -0.003796 0.000000 -0.000883 0.000000
# 2 -0.001863 0.011518 -0.004547 0.000000 -0.003898 0.000000
# 3 -0.003796 -0.004547 0.015189 0.000001 0.000024 0.000000
# 4 0.000000 0.000000 0.000001 0.024477 0.000000 -0.008465
# 5 -0.000883 -0.003898 0.000024 0.000000 0.028294 0.000000
# 6 0.000000 0.000000 0.000000 -0.008465 0.000000 0.036777
#
#
# Mechanical properties :
#
#
# Convention : Reuss Voigt Hill
#
# Bulk Modulus (GPa) = 62.11662 66.50507 64.31084
# Shear Modulus (GPa) = 32.93025 36.02857 34.47941
#
# Velocity S-wave (km/s) = 4.02406 4.20911 4.11762
# Velocity P-wave (km/s) = 7.22051 7.50501 7.36414
#
# Compressibility (1/GPa) = 0.01609875
#
# Stress axis : x y z
#
# Youngs Moduli (GPa) = 102.01248 86.82195 65.83535
#
# Poissons Ratio (x) = 0.16171 0.24992
# Poissons Ratio (y) = 0.19000 0.29935
# Poissons Ratio (z) = 0.38726 0.39477
#
# Static dielectric constant tensor:
#      x y z
#    x 0.416980 -0.000310 1.907860 
#    y -0.000310 3.601330 0.000180 
#    z 1.907860 0.000180 3.077200 
# 
# 
# High freq. dielectric constant tensor:
#      x y z
#    x 1.780060 0.000000 0.015720 
#    y 0.000000 1.784810 0.000000 
#    z 0.015720 0.000000 1.815360 
# 
# From -- ./inp_files/201393.got.cif
#   From: 2010.06.25/outbox.cif.g09.slc.cpg/sg15_101_cif.got.tgz:201393.got - 2010.06.28 07:06:18.
