data_PCOD8142701
_publ_section_title
;
Structure prediction by ZEFSAII (Michael W. Deem and Ramdas Pophale) SiO2 
 PCOD8142701
Probable space group: C 2/C
;
_chemical_formula_sum "Si O2"
_cell_formula_units_Z 48
_cell_length_a 8.694294
_cell_length_b 11.356565
_cell_length_c 22.700545
_cell_angle_alpha 90.000000
_cell_angle_beta 99.228738
_cell_angle_gamma 90.000000
_cell_volume 2212.378183
_symmetry_space_group_name_H-M "C 2/C"
_symmetry_group_IT_number 15
_symmetry_cell_setting 'monoclinic'
loop_
_space_group_symop_operation_xyz
x,y,z
-x,y,1/2-z
-x,-y,-z
x,-y,1/2+z
1/2+x,1/2+y,z
1/2-x,1/2+y,1/2-z
1/2-x,1/2-y,-z
1/2+x,1/2-y,1/2+z
loop_
_atom_site_type_symbol
_atom_site_label
_atom_site_fract_x
_atom_site_fract_y
_atom_site_fract_z
Si Si1 0.160821 0.175081 0.895712
Si Si2 0.817463 0.172301 0.086385
Si Si3 0.612813 0.622330 0.539842
Si Si4 0.063535 0.487161 0.069651
Si Si5 0.724757 0.945084 0.882124
Si Si6 0.511284 0.473831 0.681984
O O1 0.334292 0.130874 0.921296
O O2 0.183333 0.308168 0.877129
O O3 0.052221 0.169563 0.946722
O O4 0.081260 0.093532 0.840535
O O5 0.761435 0.306804 0.077020
O O6 0.663084 0.100570 0.091619
O O7 0.892834 0.128970 0.030208
O O8 0.941796 0.143159 0.145260
O O9 0.645477 0.486171 0.560691
O O10 0.931262 0.482507 0.111825
O O11 0.000000 0.500000 0.000000
O O12 0.805262 0.982974 0.825006
O O13 0.500000 0.452684 0.750000
#
# Coordination Sequence:
#
# PCOD8142701 Si02
#       6
#     8   8   8   8   8   8
#     4  10  24  42  65  95 132 170 213 268 336 385
#     4  10  21  40  66  96 137 176 211 269 335 388
#     4  10  21  39  64 102 136 166 208 274 336 400
#     4  11  22  37  61 101 133 162 212 264 328 404
#     4  11  23  41  65 100 124 172 213 269 330 388
#     4  10  25  48  63  89 131 177 227 269 315 390
#
# _framework density 21.696110999999998
#
# number of rings (size 3 to 8) (size 9 to 14) (size 15 to 20)
#    0.000    1.667    3.333    0.000    4.667    2.667 
#    6.000    3.333    0.000    1.000    0.000    0.000 
#    0.000    0.000    0.000    0.000    0.000    0.000 
#
# Total GULP energy -297407.918303 kJ/mol
# GULP energy per Si atom -12391.996596 kJ/mol
# Density = 2.164673 g / cm^3
# Si number density = 21.696111 Si / 1000 Ang^3
#
#
#
# Elastic Constant Matrix: (Units=GPa)
#
#
# Indices 1 2 3 4 5 6 
#
# 1 140.2681 22.5962 72.9991 0.0000 -34.6476 0.0000
# 2 22.5962 100.4109 35.6013 0.0000 -1.8676 0.0000
# 3 72.9991 35.6013 139.6364 0.0000 -28.0285 0.0000
# 4 0.0000 0.0000 0.0000 12.5952 0.0000 -3.2975
# 5 -34.6476 -1.8676 -28.0285 0.0000 31.2584 0.0000
# 6 0.0000 0.0000 0.0000 -3.2975 0.0000 27.4317
#
#
#
# Elastic Compliance Matrix: (Units=1/GPa)
#
#
# Indices 1 2 3 4 5 6 
#
# 1 0.011658 -0.001047 -0.003959 0.000000 0.009309 0.000000
# 2 -0.001047 0.011175 -0.002928 0.000000 -0.003118 0.000000
# 3 -0.003959 -0.002928 0.011051 0.000000 0.005346 0.000000
# 4 0.000000 0.000000 0.000000 0.081975 0.000000 0.009854
# 5 0.009309 -0.003118 0.005346 0.000000 0.046917 0.000000
# 6 0.000000 0.000000 0.000000 0.009854 0.000000 0.037639
#
#
# Mechanical properties :
#
#
# Convention : Reuss Voigt Hill
#
# Bulk Modulus (GPa) = 55.50520 71.41206 63.45863
# Shear Modulus (GPa) = 22.49364 30.86499 26.67932
#
# Velocity S-wave (km/s) = 3.22337 3.77584 3.51049
# Velocity P-wave (km/s) = 6.28427 7.21078 6.76341
#
# Compressibility (1/GPa) = 0.01801633
#
# Stress axis : x y z
#
# Youngs Moduli (GPa) = 85.78098 89.48829 90.49339
#
# Poissons Ratio (x) = 0.09366 0.35826
# Poissons Ratio (y) = 0.08978 0.26494
# Poissons Ratio (z) = 0.33960 0.26199
#
# Static dielectric constant tensor:
#      x y z
#    x 4.919700 0.000000 -0.151380 
#    y 0.000000 4.637100 0.000000 
#    z -0.151380 0.000000 3.402340 
# 
# 
# High freq. dielectric constant tensor:
#      x y z
#    x 1.883920 0.000000 -0.014360 
#    y 0.000000 1.861850 0.000000 
#    z -0.014360 0.000000 1.794350 
# 
# From -- ./inp_files/263078.got.cif
#   From: 2010.06.25/outbox.cif.g09.slc.cpg/sg15_132_cif.got.tgz:263078.got - 2010.06.28 07:06:18.
