data_PCOD8142767
_publ_section_title
;
Structure prediction by ZEFSAII (Michael W. Deem and Ramdas Pophale) SiO2 
 PCOD8142767
Probable space group: C 2/C
;
_chemical_formula_sum "Si O2"
_cell_formula_units_Z 64
_cell_length_a 12.580277
_cell_length_b 14.378723
_cell_length_c 29.037828
_cell_angle_alpha 90.000000
_cell_angle_beta 36.964518
_cell_angle_gamma 90.000000
_cell_volume 3158.497497
_symmetry_space_group_name_H-M "C 2/C"
_symmetry_group_IT_number 15
_symmetry_cell_setting 'monoclinic'
loop_
_space_group_symop_operation_xyz
x,y,z
-x,y,1/2-z
-x,-y,-z
x,-y,1/2+z
1/2+x,1/2+y,z
1/2-x,1/2+y,1/2-z
1/2-x,1/2-y,-z
1/2+x,1/2-y,1/2+z
loop_
_atom_site_type_symbol
_atom_site_label
_atom_site_fract_x
_atom_site_fract_y
_atom_site_fract_z
Si Si1 0.623584 0.159566 0.593378
Si Si2 0.198003 0.677389 0.670331
Si Si3 0.009102 0.685456 0.390043
Si Si4 0.607820 0.633213 0.081180
Si Si5 0.700533 0.651191 0.564981
Si Si6 0.802568 0.503984 0.086423
Si Si7 0.838451 0.500273 0.680517
Si Si8 0.884544 0.028365 0.657470
O O1 0.726304 0.160018 0.606359
O O2 0.544524 0.263007 0.614560
O O3 0.756602 0.133087 0.507420
O O4 0.466310 0.086531 0.645035
O O5 0.327921 0.755929 0.645536
O O6 0.225925 0.576020 0.684314
O O7 0.000000 0.710858 0.750000
O O8 0.070630 0.598393 0.337431
O O9 0.888931 0.650843 0.474102
O O10 0.882802 0.746557 0.400323
O O11 0.695139 0.583368 0.095741
O O12 0.433664 0.576484 0.124948
O O13 0.724825 0.599868 0.605217
O O14 0.558359 0.589599 0.586199
O O15 0.783652 0.519540 0.146973
O O16 0.000000 0.500000 0.000000
O O17 0.666725 0.521092 0.770643
#
# Coordination Sequence:
#
# PCOD8142767 Si02
#       8
#     8   8   8   8   8   8   8   8
#     4  11  23  40  63  91 125 160 204 256 310 360
#     4  11  23  41  65  93 123 161 210 257 308 368
#     4  10  21  39  65  89 117 164 209 246 304 369
#     4  10  23  40  61  91 121 159 206 253 303 370
#     4   9  20  38  59  89 123 154 202 260 298 365
#     4  11  19  37  62  89 121 156 202 250 307 365
#     4  12  22  36  63  90 124 163 199 260 308 358
#     4  10  23  41  60  90 128 161 207 255 306 371
#
# _framework density 20.262798
#
# number of rings (size 3 to 8) (size 9 to 14) (size 15 to 20)
#    0.000    1.500    3.750    1.500    1.750    2.500 
#    0.000    1.250    0.000    1.500    0.000    0.000 
#    0.000    0.000    0.000    0.000    0.000    0.000 
#
# Total GULP energy -396555.722803 kJ/mol
# GULP energy per Si atom -12392.366338 kJ/mol
# Density = 2.021668 g / cm^3
# Si number density = 20.262798 Si / 1000 Ang^3
#
#
#
# Elastic Constant Matrix: (Units=GPa)
#
#
# Indices 1 2 3 4 5 6 
#
# 1 49.0349 38.6237 35.9658 -0.0014 -4.3609 -0.0003
# 2 38.6237 156.0240 58.2904 -0.0008 -5.8631 -0.0003
# 3 35.9658 58.2904 88.0589 -0.0022 -5.1968 -0.0006
# 4 -0.0014 -0.0008 -0.0022 27.9896 -0.0004 -8.8680
# 5 -4.3609 -5.8631 -5.1968 -0.0004 28.8497 -0.0001
# 6 -0.0003 -0.0003 -0.0006 -8.8680 -0.0001 34.9597
#
#
#
# Elastic Compliance Matrix: (Units=1/GPa)
#
#
# Indices 1 2 3 4 5 6 
#
# 1 0.030917 -0.003857 -0.009950 0.000001 0.002097 0.000000
# 2 -0.003857 0.009011 -0.004362 0.000000 0.000462 0.000000
# 3 -0.009950 -0.004362 0.018362 0.000001 0.000917 0.000000
# 4 0.000001 0.000000 0.000001 0.038850 0.000001 0.009855
# 5 0.002097 0.000462 0.000917 0.000001 0.035239 0.000000
# 6 0.000000 0.000000 0.000000 0.009855 0.000000 0.031104
#
#
# Mechanical properties :
#
#
# Convention : Reuss Voigt Hill
#
# Bulk Modulus (GPa) = 45.55775 62.09752 53.82763
# Shear Modulus (GPa) = 24.13847 29.04233 26.59040
#
# Velocity S-wave (km/s) = 3.45522 3.78998 3.62647
# Velocity P-wave (km/s) = 6.20083 7.06148 6.64511
#
# Compressibility (1/GPa) = 0.02195016
#
# Stress axis : x y z
#
# Youngs Moduli (GPa) = 32.34507 110.97239 54.46117
#
# Poissons Ratio (x) = 0.42804 0.54190
# Poissons Ratio (y) = 0.12476 0.23758
# Poissons Ratio (z) = 0.32184 0.48409
#
# Static dielectric constant tensor:
#      x y z
#    x 3.697750 0.000000 -0.086500 
#    y 0.000000 4.144880 0.000000 
#    z -0.086500 0.000000 3.784360 
# 
# 
# High freq. dielectric constant tensor:
#      x y z
#    x 1.769450 0.000000 -0.011350 
#    y 0.000000 1.810240 0.000000 
#    z -0.011350 0.000000 1.793060 
# 
# From -- ./inp_files/293032.got.cif
#   From: 2010.06.25/outbox.cif.g09.slc.cpg/sg15_147_cif.got.tgz:293032.got - 2010.06.28 07:06:18.
