data_PCOD8142595
_publ_section_title
;
Structure prediction by ZEFSAII (Michael W. Deem and Ramdas Pophale) SiO2 
 PCOD8142595
Probable space group: C 2/C
;
_chemical_formula_sum "Si O2"
_cell_formula_units_Z 40
_cell_length_a 5.188371
_cell_length_b 23.371092
_cell_length_c 19.210968
_cell_angle_alpha 90.000000
_cell_angle_beta 132.137206
_cell_angle_gamma 90.000000
_cell_volume 1727.404528
_symmetry_space_group_name_H-M "C 2/C"
_symmetry_group_IT_number 15
_symmetry_cell_setting 'monoclinic'
loop_
_space_group_symop_operation_xyz
x,y,z
-x,y,1/2-z
-x,-y,-z
x,-y,1/2+z
1/2+x,1/2+y,z
1/2-x,1/2+y,1/2-z
1/2-x,1/2-y,-z
1/2+x,1/2-y,1/2+z
loop_
_atom_site_type_symbol
_atom_site_label
_atom_site_fract_x
_atom_site_fract_y
_atom_site_fract_z
Si Si1 0.041539 0.402273 0.339270
Si Si2 0.358465 0.377196 0.957577
Si Si3 0.889051 0.472672 0.809154
Si Si4 0.676728 0.784348 0.149475
Si Si5 0.874780 0.695611 0.455615
O O1 0.440394 0.395317 0.435798
O O2 0.000000 0.397113 0.250000
O O3 0.899375 0.462935 0.342359
O O4 0.822646 0.351256 0.332809
O O5 0.612933 0.349209 0.946271
O O6 0.175422 0.433923 0.897265
O O7 0.057700 0.332599 0.922848
O O8 0.500000 0.448016 0.750000
O O9 0.000000 0.475659 0.750000
O O10 0.335925 0.749811 0.113225
O O11 0.000000 0.756372 0.250000
O O12 0.668031 0.780460 0.063197
#
# Coordination Sequence:
#
# PCOD8142595 Si02
#       5
#     8   8   8   8   8
#     4  10  22  40  66  94 123 162 211 256 308 365
#     4  11  23  43  65  91 127 165 203 257 309 364
#     4  11  24  42  64  93 127 163 208 255 306 369
#     4  10  21  39  62  91 126 163 204 258 307 361
#     4  10  24  40  63  93 123 162 210 249 306 374
#
# _framework density 23.156127999999999
#
# number of rings (size 3 to 8) (size 9 to 14) (size 15 to 20)
#    0.000    1.600    0.000    3.600    0.000   16.000 
#    0.000   10.000    0.000    0.000    0.000    0.000 
#    0.000    0.000    0.000    0.000    0.000    0.000 
#
# Total GULP energy -247916.337627 kJ/mol
# GULP energy per Si atom -12395.816881 kJ/mol
# Density = 2.310342 g / cm^3
# Si number density = 23.156128 Si / 1000 Ang^3
#
#
#
# Elastic Constant Matrix: (Units=GPa)
#
#
# Indices 1 2 3 4 5 6 
#
# 1 81.4645 11.5094 18.9248 0.0000 16.2561 0.0000
# 2 11.5094 95.8452 53.9832 0.0000 5.9814 0.0000
# 3 18.9248 53.9832 142.0734 0.0000 19.1267 0.0000
# 4 0.0000 0.0000 0.0000 74.7962 0.0000 -48.0264
# 5 16.2561 5.9814 19.1267 0.0000 22.0001 0.0000
# 6 0.0000 0.0000 0.0000 -48.0264 0.0000 78.7242
#
#
#
# Elastic Compliance Matrix: (Units=1/GPa)
#
#
# Indices 1 2 3 4 5 6 
#
# 1 0.014512 -0.001008 -0.000162 0.000000 -0.010308 0.000000
# 2 -0.001008 0.013359 -0.005157 0.000000 0.001596 0.000000
# 3 -0.000162 -0.005157 0.009983 0.000000 -0.007157 0.000000
# 4 0.000000 0.000000 0.000000 0.021979 0.000000 0.013409
# 5 -0.010308 0.001596 -0.007157 0.000000 0.058860 0.000000
# 6 0.000000 0.000000 0.000000 0.013409 0.000000 0.020883
#
#
# Mechanical properties :
#
#
# Convention : Reuss Voigt Hill
#
# Bulk Modulus (GPa) = 39.68115 54.24645 46.96380
# Shear Modulus (GPa) = 31.12722 50.76847 40.94784
#
# Velocity S-wave (km/s) = 3.67035 4.68743 4.20972
# Velocity P-wave (km/s) = 5.92753 7.26452 6.62981
#
# Compressibility (1/GPa) = 0.02520088
#
# Stress axis : x y z
#
# Youngs Moduli (GPa) = 68.90663 74.85391 100.16857
#
# Poissons Ratio (x) = 0.07545 0.01627
# Poissons Ratio (y) = 0.06945 0.51654
# Poissons Ratio (z) = 0.01119 0.38600
#
# Static dielectric constant tensor:
#      x y z
#    x 3.781310 0.000000 0.172380 
#    y 0.000000 4.596670 0.000000 
#    z 0.172380 0.000000 4.409260 
# 
# 
# High freq. dielectric constant tensor:
#      x y z
#    x 1.895850 0.000000 0.011890 
#    y 0.000000 1.929380 0.000000 
#    z 0.011890 0.000000 1.925880 
# 
# From -- ./inp_files/129537.got.cif
#   From: 2010.06.25/outbox.cif.g09.slc.cpg/sg15_65_cif.got.tgz:129537.got - 2010.06.28 07:06:18.
