data_PCOD8142284
_publ_section_title
;
Structure prediction by ZEFSAII (Michael W. Deem and Ramdas Pophale) SiO2 
 PCOD8142284
Probable space group: C 2/C
;
_chemical_formula_sum "Si O2"
_cell_formula_units_Z 56
_cell_length_a 17.432222
_cell_length_b 9.222539
_cell_length_c 17.030799
_cell_angle_alpha 90.000000
_cell_angle_beta 106.203145
_cell_angle_gamma 90.000000
_cell_volume 2629.271407
_symmetry_space_group_name_H-M "C 2/C"
_symmetry_group_IT_number 15
_symmetry_cell_setting 'monoclinic'
loop_
_space_group_symop_operation_xyz
x,y,z
-x,y,1/2-z
-x,-y,-z
x,-y,1/2+z
1/2+x,1/2+y,z
1/2-x,1/2+y,1/2-z
1/2-x,1/2-y,-z
1/2+x,1/2-y,1/2+z
loop_
_atom_site_type_symbol
_atom_site_label
_atom_site_fract_x
_atom_site_fract_y
_atom_site_fract_z
Si Si1 0.383814 0.365274 0.964343
Si Si2 0.817912 0.538256 0.791901
Si Si3 0.944808 0.605348 0.433196
Si Si4 0.443470 0.654318 0.052356
Si Si5 0.918645 0.642193 0.681302
Si Si6 0.905279 0.648334 0.099051
Si Si7 0.269133 0.797577 0.672009
O O1 0.459705 0.354986 0.927201
O O2 0.300072 0.383091 0.895518
O O3 0.399668 0.500614 0.027282
O O4 0.370851 0.215406 0.008596
O O5 0.880941 0.499627 0.876659
O O6 0.851264 0.635264 0.729081
O O7 0.751474 0.633551 0.814816
O O8 0.779258 0.388654 0.753911
O O9 0.909255 0.734357 0.476695
O O10 0.000000 0.500000 0.500000
O O11 0.998907 0.680240 0.378815
O O12 0.423329 0.705569 0.135709
O O13 0.897974 0.525608 0.606852
O O14 0.000000 0.604018 0.750000
O O15 0.855739 0.717088 0.155921
#
# Coordination Sequence:
#
# PCOD8142284 Si02
#       7
#     8   8   8   8   8   8   8
#     4  10  22  41  59  95 130 163 208 271 326 386
#     4  11  25  40  64  93 134 170 215 266 342 380
#     4  11  19  39  70  93 119 168 226 265 308 393
#     4  10  22  37  68  93 123 166 221 264 321 385
#     4  11  19  38  63  94 118 159 222 271 308 384
#     4  10  21  38  65  91 118 167 217 260 313 387
#     4  11  25  41  61  91 135 170 206 272 331 396
#
# _framework density 21.298674999999999
#
# number of rings (size 3 to 8) (size 9 to 14) (size 15 to 20)
#    0.000    1.429    2.857    3.000    2.000    1.143 
#    0.000    3.571    0.000    0.000    0.000    0.000 
#    0.000    0.000    0.000    0.000    0.000    0.000 
#
# Total GULP energy -346898.538646 kJ/mol
# GULP energy per Si atom -12389.233523 kJ/mol
# Density = 2.125020 g / cm^3
# Si number density = 21.298675 Si / 1000 Ang^3
#
#
#
# Elastic Constant Matrix: (Units=GPa)
#
#
# Indices 1 2 3 4 5 6 
#
# 1 70.3496 35.4046 29.4697 0.0000 -7.6548 0.0000
# 2 35.4046 80.8927 53.5920 0.0000 -0.2962 0.0000
# 3 29.4697 53.5920 91.4436 0.0000 9.1881 0.0000
# 4 0.0000 0.0000 0.0000 38.0449 0.0000 -1.7250
# 5 -7.6548 -0.2962 9.1881 0.0000 17.3906 0.0000
# 6 0.0000 0.0000 0.0000 -1.7250 0.0000 37.9686
#
#
#
# Elastic Compliance Matrix: (Units=1/GPa)
#
#
# Indices 1 2 3 4 5 6 
#
# 1 0.020160 -0.006139 -0.003992 0.000000 0.010879 0.000000
# 2 -0.006139 0.022911 -0.011846 0.000000 0.003947 0.000000
# 3 -0.003992 -0.011846 0.020447 0.000000 -0.012762 0.000000
# 4 0.000000 0.000000 0.000000 0.026339 0.000000 0.001197
# 5 0.010879 0.003947 -0.012762 0.000000 0.069101 0.000000
# 6 0.000000 0.000000 0.000000 0.001197 0.000000 0.026392
#
#
# Mechanical properties :
#
#
# Convention : Reuss Voigt Hill
#
# Bulk Modulus (GPa) = 51.11242 53.29094 52.20168
# Shear Modulus (GPa) = 21.20213 26.96212 24.08213
#
# Velocity S-wave (km/s) = 3.15853 3.56182 3.36622
# Velocity P-wave (km/s) = 6.11161 6.48001 6.29850
#
# Compressibility (1/GPa) = 0.01956472
#
# Stress axis : x y z
#
# Youngs Moduli (GPa) = 49.60233 43.64701 48.90695
#
# Poissons Ratio (x) = 0.26794 0.19526
# Poissons Ratio (y) = 0.30450 0.57933
# Poissons Ratio (z) = 0.19804 0.51703
#
# Static dielectric constant tensor:
#      x y z
#    x 3.995970 0.000000 -0.166030 
#    y 0.000000 3.861630 0.000000 
#    z -0.166030 0.000000 3.863290 
# 
# 
# High freq. dielectric constant tensor:
#      x y z
#    x 1.829030 0.000000 -0.013210 
#    y 0.000000 1.830980 0.000000 
#    z -0.013210 0.000000 1.826540 
# 
# From -- ./inp_files/209658.got.cif
#   From: 2010.06.25/outbox.cif.g09.slc.cpg/sg15_105_cif.got.tgz:209658.got - 2010.06.28 07:06:18.
