data_PCOD8142992
_publ_section_title
;
Structure prediction by ZEFSAII (Michael W. Deem and Ramdas Pophale) SiO2 
 PCOD8142992
Probable space group: C 2/C
;
_chemical_formula_sum "Si O2"
_cell_formula_units_Z 56
_cell_length_a 14.787791
_cell_length_b 25.525371
_cell_length_c 15.764002
_cell_angle_alpha 90.000000
_cell_angle_beta 150.906193
_cell_angle_gamma 90.000000
_cell_volume 2893.299317
_symmetry_space_group_name_H-M "C 2/C"
_symmetry_group_IT_number 15
_symmetry_cell_setting 'monoclinic'
loop_
_space_group_symop_operation_xyz
x,y,z
-x,y,1/2-z
-x,-y,-z
x,-y,1/2+z
1/2+x,1/2+y,z
1/2-x,1/2+y,1/2-z
1/2-x,1/2-y,-z
1/2+x,1/2-y,1/2+z
loop_
_atom_site_type_symbol
_atom_site_label
_atom_site_fract_x
_atom_site_fract_y
_atom_site_fract_z
Si Si1 0.204565 0.688269 0.030993
Si Si2 0.628759 0.442369 0.272675
Si Si3 0.004098 0.469929 0.846081
Si Si4 0.610300 0.384634 0.097715
Si Si5 0.943950 0.793996 0.568521
Si Si6 0.700410 0.544161 0.226440
Si Si7 0.473349 0.081705 0.586914
O O1 0.369442 0.685182 0.234864
O O2 0.270371 0.699761 0.989668
O O3 0.053469 0.730790 0.942617
O O4 0.110605 0.632697 0.939235
O O5 0.500000 0.446396 0.250000
O O6 0.568384 0.392154 0.164584
O O7 0.610071 0.493911 0.198234
O O8 0.843886 0.437074 0.476282
O O9 0.797600 0.469969 0.716750
O O10 0.067565 0.530744 0.889157
O O11 0.000000 0.444291 0.750000
O O12 0.809837 0.410429 0.249263
O O13 0.596131 0.324386 0.053188
O O14 0.465604 0.415538 0.921008
O O15 0.869912 0.571311 0.414006
#
# Coordination Sequence:
#
# PCOD8142992 Si02
#       7
#     8   8   8   8   8   8   8
#     4  10  21  40  56  91 124 154 201 245 304 375
#     4  11  23  37  57  85 119 161 208 253 294 355
#     4  11  23  39  57  86 123 164 202 255 304 355
#     4  12  22  36  62  85 113 165 199 246 306 354
#     4  10  22  37  61  86 124 160 194 250 306 369
#     4  11  22  41  55  82 124 155 206 245 298 361
#     4  11  22  36  57  83 118 152 200 242 293 363
#
# _framework density 19.355065
#
# number of rings (size 3 to 8) (size 9 to 14) (size 15 to 20)
#    0.000    1.143    4.286    3.000    4.000    2.286 
#    0.000    0.000    0.000    0.000    0.000    5.000 
#    0.000    0.000    0.000    0.000    0.000    0.000 
#
# Total GULP energy -347022.721057 kJ/mol
# GULP energy per Si atom -12393.668609 kJ/mol
# Density = 1.931101 g / cm^3
# Si number density = 19.355065 Si / 1000 Ang^3
#
#
#
# Elastic Constant Matrix: (Units=GPa)
#
#
# Indices 1 2 3 4 5 6 
#
# 1 97.1004 21.9951 17.4726 0.0001 -6.3231 0.0001
# 2 21.9951 79.1069 19.6403 0.0000 -5.2593 0.0000
# 3 17.4726 19.6403 80.2867 0.0000 1.7339 0.0000
# 4 0.0001 0.0000 0.0000 30.0979 0.0000 0.4127
# 5 -6.3231 -5.2593 1.7339 0.0000 32.1961 0.0000
# 6 0.0001 0.0000 0.0000 0.4127 0.0000 21.4074
#
#
#
# Elastic Compliance Matrix: (Units=1/GPa)
#
#
# Indices 1 2 3 4 5 6 
#
# 1 0.011342 -0.002559 -0.001884 0.000000 0.001911 0.000000
# 2 -0.002559 0.014220 -0.002965 0.000000 0.001980 0.000000
# 3 -0.001884 -0.002965 0.013625 0.000000 -0.001588 0.000000
# 4 0.000000 0.000000 0.000000 0.033234 0.000000 -0.000641
# 5 0.001911 0.001980 -0.001588 0.000000 0.031844 0.000000
# 6 0.000000 0.000000 0.000000 -0.000641 0.000000 0.046725
#
#
# Mechanical properties :
#
#
# Convention : Reuss Voigt Hill
#
# Bulk Modulus (GPa) = 41.02931 41.63447 41.33189
# Shear Modulus (GPa) = 28.74760 29.89934 29.32347
#
# Velocity S-wave (km/s) = 3.85811 3.93463 3.89656
# Velocity P-wave (km/s) = 6.41022 6.49611 6.45331
#
# Compressibility (1/GPa) = 0.02437282
#
# Stress axis : x y z
#
# Youngs Moduli (GPa) = 88.17102 70.32228 73.39568
#
# Poissons Ratio (x) = 0.17994 0.13825
# Poissons Ratio (y) = 0.22561 0.21759
# Poissons Ratio (z) = 0.16608 0.20847
#
# Static dielectric constant tensor:
#      x y z
#    x 3.450560 0.000000 -0.043430 
#    y 0.000000 3.575360 0.000000 
#    z -0.043430 0.000000 3.746740 
# 
# 
# High freq. dielectric constant tensor:
#      x y z
#    x 1.728310 0.000000 0.002730 
#    y 0.000000 1.727280 0.000000 
#    z 0.002730 0.000000 1.778730 
# 
# From -- ./inp_files/157190.got.cif
#   From: 2010.06.25/outbox.cif.g09.slc.cpg/sg15_79_cif.got.tgz:157190.got - 2010.06.28 07:06:18.
