data_PCOD8142041
_publ_section_title
;
Structure prediction by ZEFSAII (Michael W. Deem and Ramdas Pophale) SiO2 
 PCOD8142041
Probable space group: C 2/C
;
_chemical_formula_sum "Si O2"
_cell_formula_units_Z 52
_cell_length_a 16.036617
_cell_length_b 13.904788
_cell_length_c 11.805622
_cell_angle_alpha 90.000000
_cell_angle_beta 107.975540
_cell_angle_gamma 90.000000
_cell_volume 2503.989628
_symmetry_space_group_name_H-M "C 2/C"
_symmetry_group_IT_number 15
_symmetry_cell_setting 'monoclinic'
loop_
_space_group_symop_operation_xyz
x,y,z
-x,y,1/2-z
-x,-y,-z
x,-y,1/2+z
1/2+x,1/2+y,z
1/2-x,1/2+y,1/2-z
1/2-x,1/2-y,-z
1/2+x,1/2-y,1/2+z
loop_
_atom_site_type_symbol
_atom_site_label
_atom_site_fract_x
_atom_site_fract_y
_atom_site_fract_z
Si Si1 0.268218 0.119647 0.914788
Si Si2 0.170277 0.097442 0.220270
Si Si3 0.811762 0.598115 0.459382
Si Si4 0.126764 0.792048 0.488737
Si Si5 0.000000 0.150332 0.250000
Si Si6 0.281826 0.609158 0.849863
Si Si7 0.058866 0.762379 0.007245
O O1 0.167046 0.127664 0.919307
O O2 0.264250 0.150614 0.781781
O O3 0.314261 0.016573 0.947057
O O4 0.328111 0.189156 0.016279
O O5 0.241115 0.136635 0.339531
O O6 0.079084 0.079326 0.248307
O O7 0.198204 0.002581 0.164695
O O8 0.155600 0.182515 0.127167
O O9 0.785441 0.624316 0.575965
O O10 0.903321 0.652849 0.471174
O O11 0.022136 0.777495 0.439094
O O12 0.029818 0.217873 0.366507
O O13 0.370731 0.661976 0.919452
#
# Coordination Sequence:
#
# PCOD8142041 Si02
#       7
#     8   8   8   8   4   8   8
#     4  10  23  41  65  83 125 163 211 246 316 364
#     4  10  21  38  61  87 123 155 207 251 314 359
#     4  11  22  40  61  94 116 166 206 260 298 375
#     4  10  22  42  60  91 120 163 200 258 310 376
#     4  10  22  36  58  92 120 160 192 270 304 370
#     4  11  22  37  63  90 120 164 200 254 298 379
#     4  11  24  37  64  90 128 150 212 253 317 352
#
# _framework density 20.766857999999999
#
# number of rings (size 3 to 8) (size 9 to 14) (size 15 to 20)
#    0.000    1.538    3.077    1.385    4.308    6.154 
#    0.000    0.000    0.000    0.000    0.000    0.000 
#    0.000    0.000    0.000    0.000    0.000    0.000 
#
# Total GULP energy -322236.574449 kJ/mol
# GULP energy per Si atom -12393.714402 kJ/mol
# Density = 2.071959 g / cm^3
# Si number density = 20.766858 Si / 1000 Ang^3
#
#
#
# Elastic Constant Matrix: (Units=GPa)
#
#
# Indices 1 2 3 4 5 6 
#
# 1 76.2245 34.3064 11.3394 0.0000 -4.7780 0.0000
# 2 34.3064 67.9544 20.6789 0.0000 4.8897 0.0000
# 3 11.3394 20.6789 82.5304 0.0000 -2.4793 0.0000
# 4 0.0000 0.0000 0.0000 21.0603 0.0000 1.9033
# 5 -4.7780 4.8897 -2.4793 0.0000 27.3472 0.0000
# 6 0.0000 0.0000 0.0000 1.9033 0.0000 24.3254
#
#
#
# Elastic Compliance Matrix: (Units=1/GPa)
#
#
# Indices 1 2 3 4 5 6 
#
# 1 0.017556 -0.009214 0.000038 0.000000 0.004718 0.000000
# 2 -0.009214 0.021054 -0.004182 0.000000 -0.005754 0.000000
# 3 0.000038 -0.004182 0.013218 0.000000 0.001953 0.000000
# 4 0.000000 0.000000 0.000000 0.047821 0.000000 -0.003742
# 5 0.004718 -0.005754 0.001953 0.000000 0.038597 0.000000
# 6 0.000000 0.000000 0.000000 -0.003742 0.000000 0.041402
#
#
# Mechanical properties :
#
#
# Convention : Reuss Voigt Hill
#
# Bulk Modulus (GPa) = 39.82143 39.92876 39.87510
# Shear Modulus (GPa) = 23.28443 25.23889 24.26166
#
# Velocity S-wave (km/s) = 3.35211 3.48996 3.42173
# Velocity P-wave (km/s) = 5.84802 5.95892 5.90373
#
# Compressibility (1/GPa) = 0.02511211
#
# Stress axis : x y z
#
# Youngs Moduli (GPa) = 56.95945 47.49631 75.65416
#
# Poissons Ratio (x) = 0.43765 -0.00290
# Poissons Ratio (y) = 0.52485 0.31640
# Poissons Ratio (z) = -0.00218 0.19864
#
# Static dielectric constant tensor:
#      x y z
#    x 3.889070 0.000000 -0.153040 
#    y 0.000000 3.586180 0.000000 
#    z -0.153040 0.000000 3.935020 
# 
# 
# High freq. dielectric constant tensor:
#      x y z
#    x 1.806770 0.000000 -0.010110 
#    y 0.000000 1.811300 0.000000 
#    z -0.010110 0.000000 1.816280 
# 
# From -- ./inp_files/97117.got.cif
#   From: 2010.06.25/outbox.cif.g09.slc.cpg/sg15_49_cif.got.tgz:97117.got - 2010.06.28 07:06:18.
