data_PCOD8142750
_publ_section_title
;
Structure prediction by ZEFSAII (Michael W. Deem and Ramdas Pophale) SiO2 
 PCOD8142750
Probable space group: C 2/C
;
_chemical_formula_sum "Si O2"
_cell_formula_units_Z 48
_cell_length_a 27.346580
_cell_length_b 14.134641
_cell_length_c 5.216275
_cell_angle_alpha 90.000000
_cell_angle_beta 80.352492
_cell_angle_gamma 90.000000
_cell_volume 1987.752878
_symmetry_space_group_name_H-M "C 2/C"
_symmetry_group_IT_number 15
_symmetry_cell_setting 'monoclinic'
loop_
_space_group_symop_operation_xyz
x,y,z
-x,y,1/2-z
-x,-y,-z
x,-y,1/2+z
1/2+x,1/2+y,z
1/2-x,1/2+y,1/2-z
1/2-x,1/2-y,-z
1/2+x,1/2-y,1/2+z
loop_
_atom_site_type_symbol
_atom_site_label
_atom_site_fract_x
_atom_site_fract_y
_atom_site_fract_z
Si Si1 0.362867 0.895783 0.026733
Si Si2 0.268106 0.694560 0.233191
Si Si3 0.677238 0.101788 0.435925
Si Si4 0.142556 0.060858 0.367813
Si Si5 0.030480 0.131181 0.473209
Si Si6 0.028808 0.354679 0.475255
O O1 0.330538 0.843437 0.280451
O O2 0.418561 0.905747 0.073241
O O3 0.341466 0.998444 0.966696
O O4 0.356607 0.844707 0.754511
O O5 0.250000 0.750000 0.500000
O O6 0.233547 0.600018 0.286450
O O7 0.324706 0.657417 0.170031
O O8 0.250000 0.750000 0.000000
O O9 0.084744 0.086848 0.420426
O O10 0.155541 0.002924 0.611553
O O11 0.037087 0.243171 0.470630
O O12 0.000000 0.097953 0.250000
O O13 0.000000 0.096796 0.750000
O O14 0.000000 0.389375 0.250000
O O15 0.000000 0.389949 0.750000
#
# Coordination Sequence:
#
# PCOD8142750 Si02
#       6
#     8   8   8   8   8   8
#     4  10  21  40  65  98 128 186 216 271 343 408
#     4  12  28  48  72 106 137 186 234 291 348 415
#     4  10  23  39  65  92 133 178 217 277 333 412
#     4  12  28  47  74 108 145 182 234 300 353 423
#     4  10  23  43  69 102 140 182 228 287 355 415
#     4  10  21  39  64  96 137 175 226 286 329 401
#
# _framework density 24.147872
#
# number of rings (size 3 to 8) (size 9 to 14) (size 15 to 20)
#    0.000    1.333    0.000    4.000    9.333    2.000 
#    0.000   10.000    0.000    0.000    0.000    0.000 
#    0.000    0.000    0.000    0.000    0.000    0.000 
#
# Total GULP energy -297466.731401 kJ/mol
# GULP energy per Si atom -12394.447142 kJ/mol
# Density = 2.409291 g / cm^3
# Si number density = 24.147872 Si / 1000 Ang^3
#
#
#
# Elastic Constant Matrix: (Units=GPa)
#
#
# Indices 1 2 3 4 5 6 
#
# 1 123.2583 30.6604 59.7642 0.0000 -6.6293 0.0000
# 2 30.6604 64.6105 28.4022 0.0000 -9.6982 0.0000
# 3 59.7642 28.4022 224.8550 0.0000 22.1699 0.0000
# 4 0.0000 0.0000 0.0000 17.6894 0.0000 -12.2110
# 5 -6.6293 -9.6982 22.1699 0.0000 51.6154 0.0000
# 6 0.0000 0.0000 0.0000 -12.2110 0.0000 38.9711
#
#
#
# Elastic Compliance Matrix: (Units=1/GPa)
#
#
# Indices 1 2 3 4 5 6 
#
# 1 0.010275 -0.003542 -0.002452 0.000000 0.001707 0.000000
# 2 -0.003542 0.018503 -0.001769 0.000000 0.003781 0.000000
# 3 -0.002452 -0.001769 0.005624 0.000000 -0.003063 0.000000
# 4 0.000000 0.000000 0.000000 0.072133 0.000000 0.022602
# 5 0.001707 0.003781 -0.003063 0.000000 0.021620 0.000000
# 6 0.000000 0.000000 0.000000 0.022602 0.000000 0.032742
#
#
# Mechanical properties :
#
#
# Convention : Reuss Voigt Hill
#
# Bulk Modulus (GPa) = 52.97244 72.26417 62.61831
# Shear Modulus (GPa) = 27.36522 41.24831 34.30676
#
# Velocity S-wave (km/s) = 3.37001 4.13747 3.77330
# Velocity P-wave (km/s) = 6.09319 7.26743 6.70606
#
# Compressibility (1/GPa) = 0.01887774
#
# Stress axis : x y z
#
# Youngs Moduli (GPa) = 97.32637 54.04488 177.79642
#
# Poissons Ratio (x) = 0.19141 0.43594
# Poissons Ratio (y) = 0.34470 0.31447
# Poissons Ratio (z) = 0.23863 0.09559
#
# Static dielectric constant tensor:
#      x y z
#    x 4.530050 0.000000 0.024950 
#    y 0.000000 4.334890 0.000000 
#    z 0.024950 0.000000 4.669190 
# 
# 
# High freq. dielectric constant tensor:
#      x y z
#    x 1.968030 0.000000 0.007540 
#    y 0.000000 1.943880 0.000000 
#    z 0.007540 0.000000 1.994800 
# 
# From -- ./inp_files/15414.got.cif
#   From: 2010.06.25/outbox.cif.g09.slc.cpg/sg15_8_cif.got.tgz:15414.got - 2010.06.28 07:06:18.
