data_PCOD8142744
_publ_section_title
;
Structure prediction by ZEFSAII (Michael W. Deem and Ramdas Pophale) SiO2 
 PCOD8142744
Probable space group: C 2/C
;
_chemical_formula_sum "Si O2"
_cell_formula_units_Z 56
_cell_length_a 12.640525
_cell_length_b 24.601578
_cell_length_c 11.971060
_cell_angle_alpha 90.000000
_cell_angle_beta 46.864447
_cell_angle_gamma 90.000000
_cell_volume 2716.612766
_symmetry_space_group_name_H-M "C 2/C"
_symmetry_group_IT_number 15
_symmetry_cell_setting 'monoclinic'
loop_
_space_group_symop_operation_xyz
x,y,z
-x,y,1/2-z
-x,-y,-z
x,-y,1/2+z
1/2+x,1/2+y,z
1/2-x,1/2+y,1/2-z
1/2-x,1/2-y,-z
1/2+x,1/2-y,1/2+z
loop_
_atom_site_type_symbol
_atom_site_label
_atom_site_fract_x
_atom_site_fract_y
_atom_site_fract_z
Si Si1 0.724683 0.912549 0.223184
Si Si2 0.453963 0.950512 0.958589
Si Si3 0.283441 0.033649 0.366117
Si Si4 0.022356 0.258653 0.073706
Si Si5 0.529291 0.607627 0.602615
Si Si6 0.094627 0.769339 0.075345
Si Si7 0.708144 0.809459 0.104461
O O1 0.617914 0.905925 0.407672
O O2 0.671130 0.870620 0.168360
O O3 0.881126 0.891469 0.143568
O O4 0.729994 0.973263 0.172783
O O5 0.597958 0.930830 0.789140
O O6 0.332416 0.970464 0.959054
O O7 0.500000 0.000000 0.000000
O O8 0.131620 0.064188 0.467337
O O9 0.140429 0.304385 0.028203
O O10 0.878826 0.264929 0.254922
O O11 0.118343 0.202848 0.018549
O O12 0.969109 0.263960 0.984321
O O13 0.500000 0.589005 0.750000
O O14 0.601939 0.666730 0.543537
O O15 0.000000 0.755863 0.250000
O O16 0.250000 0.750000 0.000000
#
# Coordination Sequence:
#
# PCOD8142744 Si02
#       7
#     8   8   8   8   8   8   8
#     4  11  21  41  67  91 127 169 219 257 328 390
#     4   9  20  37  60  89 129 161 212 262 305 379
#     4  10  21  39  64  95 129 166 210 267 318 383
#     4  10  21  41  64  90 128 158 222 259 320 381
#     4  11  22  40  65  91 128 175 211 263 331 382
#     4  11  24  42  66  98 129 169 220 272 326 391
#     4  10  22  40  68  90 123 179 206 270 323 377
#
# _framework density 20.613906
#
# number of rings (size 3 to 8) (size 9 to 14) (size 15 to 20)
#    0.000    1.714    2.857    1.286    2.000    4.571 
#    7.714    0.000   15.714    0.000    0.000    0.000 
#    0.000    0.000    0.000    0.000    0.000    0.000 
#
# Total GULP energy -346929.798940 kJ/mol
# GULP energy per Si atom -12390.349962 kJ/mol
# Density = 2.056699 g / cm^3
# Si number density = 20.613906 Si / 1000 Ang^3
#
#
#
# Elastic Constant Matrix: (Units=GPa)
#
#
# Indices 1 2 3 4 5 6 
#
# 1 133.6706 43.2766 43.8482 0.0000 7.1359 0.0000
# 2 43.2766 103.3633 69.7179 0.0000 -1.6494 0.0000
# 3 43.8482 69.7179 106.0797 0.0000 -5.7577 0.0000
# 4 0.0000 0.0000 0.0000 8.5489 0.0000 30.0632
# 5 7.1359 -1.6494 -5.7577 0.0000 39.5140 0.0000
# 6 0.0000 0.0000 0.0000 30.0632 0.0000 2.3648
#
#
#
# Elastic Compliance Matrix: (Units=1/GPa)
#
#
# Indices 1 2 3 4 5 6 
#
# 1 0.009103 -0.002210 -0.002424 0.000000 -0.002089 0.000000
# 2 -0.002210 0.017950 -0.010908 0.000000 -0.000441 0.000000
# 3 -0.002424 -0.010908 0.017737 0.000000 0.002567 0.000000
# 4 0.000000 0.000000 0.000000 -0.002676 0.000000 0.034024
# 5 -0.002089 -0.000441 0.002567 0.000000 0.026040 0.000000
# 6 0.000000 0.000000 0.000000 0.034024 0.000000 -0.009675
#
#
# Mechanical properties :
#
#
# Convention : Reuss Voigt Hill
#
# Bulk Modulus (GPa) = 72.95357 72.97766 72.96561
# Shear Modulus (GPa) = 53.11800 22.50361 37.81080
#
# Velocity S-wave (km/s) = 5.08173 3.30763 4.28745
# Velocity P-wave (km/s) = 8.36058 7.07575 7.74485
#
# Compressibility (1/GPa) = 0.01370735
#
# Stress axis : x y z
#
# Youngs Moduli (GPa) = 109.85195 55.71078 56.38003
#
# Poissons Ratio (x) = 0.12311 0.13666
# Poissons Ratio (y) = 0.24275 0.61497
# Poissons Ratio (z) = 0.26627 0.60767
#
# Static dielectric constant tensor:
#      x y z
#    x 3.930570 0.000000 0.039360 
#    y 0.000000 3.457040 0.000000 
#    z 0.039360 0.000000 4.216980 
# 
# 
# High freq. dielectric constant tensor:
#      x y z
#    x 1.825190 0.000000 -0.003290 
#    y 0.000000 1.777280 0.000000 
#    z -0.003290 0.000000 1.813480 
# 
# From -- ./inp_files/92001.got.cif
#   From: 2010.06.25/outbox.cif.g09.slc.cpg/sg15_47_cif.got.tgz:92001.got - 2010.06.28 07:06:18.
