data_PCOD8142619
_publ_section_title
;
Structure prediction by ZEFSAII (Michael W. Deem and Ramdas Pophale) SiO2 
 PCOD8142619
Probable space group: C 2/C
;
_chemical_formula_sum "Si O2"
_cell_formula_units_Z 40
_cell_length_a 12.428755
_cell_length_b 10.141906
_cell_length_c 16.461806
_cell_angle_alpha 90.000000
_cell_angle_beta 127.214973
_cell_angle_gamma 90.000000
_cell_volume 1652.496737
_symmetry_space_group_name_H-M "C 2/C"
_symmetry_group_IT_number 15
_symmetry_cell_setting 'monoclinic'
loop_
_space_group_symop_operation_xyz
x,y,z
-x,y,1/2-z
-x,-y,-z
x,-y,1/2+z
1/2+x,1/2+y,z
1/2-x,1/2+y,1/2-z
1/2-x,1/2-y,-z
1/2+x,1/2-y,1/2+z
loop_
_atom_site_type_symbol
_atom_site_label
_atom_site_fract_x
_atom_site_fract_y
_atom_site_fract_z
Si Si1 0.015022 0.088040 0.429522
Si Si2 0.055607 0.452627 0.356736
Si Si3 0.814759 0.310287 0.318836
Si Si4 0.761847 0.241889 0.884622
Si Si5 0.227228 0.974670 0.420762
O O1 0.123867 0.200917 0.499685
O O2 0.074058 0.995348 0.384199
O O3 0.874203 0.160709 0.345888
O O4 0.000000 0.000000 0.500000
O O5 0.119752 0.315813 0.351827
O O6 0.167165 0.540214 0.455392
O O7 0.000000 0.528930 0.250000
O O8 0.933713 0.417419 0.361654
O O9 0.711992 0.313074 0.195125
O O10 0.737415 0.346184 0.367294
O O11 0.762816 0.399109 0.882487
#
# Coordination Sequence:
#
# PCOD8142619 Si02
#       5
#     8   8   8   8   8
#     4  11  24  42  62  90 135 171 211 270 324 387
#     4   9  17  35  62  92 120 162 213 265 319 379
#     4  11  22  37  67  95 123 172 214 263 330 380
#     4  10  21  39  62  96 120 164 226 256 317 400
#     4  11  21  40  66  90 129 164 219 268 317 392
#
# _framework density 24.205795999999999
#
# number of rings (size 3 to 8) (size 9 to 14) (size 15 to 20)
#    0.000    1.600    4.000    1.800    2.800    0.800 
#    0.000    0.000    0.000    0.000    0.000    0.000 
#    0.000    0.000    0.000    0.000    0.000    0.000 
#
# Total GULP energy -247919.400947 kJ/mol
# GULP energy per Si atom -12395.970047 kJ/mol
# Density = 2.415070 g / cm^3
# Si number density = 24.205796 Si / 1000 Ang^3
#
#
#
# Elastic Constant Matrix: (Units=GPa)
#
#
# Indices 1 2 3 4 5 6 
#
# 1 88.5739 38.0923 29.0805 0.0000 -33.4062 0.0000
# 2 38.0923 33.1477 19.7055 0.0000 -19.4699 0.0000
# 3 29.0805 19.7055 135.0017 0.0000 -26.1946 0.0000
# 4 0.0000 0.0000 0.0000 31.2873 0.0000 -13.4638
# 5 -33.4062 -19.4699 -26.1946 0.0000 35.5630 0.0000
# 6 0.0000 0.0000 0.0000 -13.4638 0.0000 31.1115
#
#
#
# Elastic Compliance Matrix: (Units=1/GPa)
#
#
# Indices 1 2 3 4 5 6 
#
# 1 0.025154 -0.022164 0.000055 0.000000 0.011535 0.000000
# 2 -0.022164 0.064494 -0.002133 0.000000 0.012918 0.000000
# 3 0.000055 -0.002133 0.008739 0.000000 0.005321 0.000000
# 4 0.000000 0.000000 0.000000 0.039276 0.000000 0.016997
# 5 0.011535 0.012918 0.005321 0.000000 0.049946 0.000000
# 6 0.000000 0.000000 0.000000 0.016997 0.000000 0.039498
#
#
# Mechanical properties :
#
#
# Convention : Reuss Voigt Hill
#
# Bulk Modulus (GPa) = 20.03880 47.83111 33.93496
# Shear Modulus (GPa) = 17.11004 30.91536 24.01270
#
# Velocity S-wave (km/s) = 2.66156 3.57765 3.15306
# Velocity P-wave (km/s) = 4.21209 6.07200 5.22546
#
# Compressibility (1/GPa) = 0.04990318
#
# Stress axis : x y z
#
# Youngs Moduli (GPa) = 39.75461 15.50538 114.42630
#
# Poissons Ratio (x) = 0.34366 -0.00627
# Poissons Ratio (y) = 0.88112 0.24407
# Poissons Ratio (z) = -0.00218 0.03307
#
# Static dielectric constant tensor:
#      x y z
#    x 5.627770 0.000000 2.045260 
#    y 0.000000 3.780100 0.000000 
#    z 2.045260 0.000000 7.537740 
# 
# 
# High freq. dielectric constant tensor:
#      x y z
#    x 1.940630 0.000000 -0.011000 
#    y 0.000000 1.912510 0.000000 
#    z -0.011000 0.000000 1.979290 
# 
# From -- ./inp_files/142384.got.cif
#   From: 2010.06.25/outbox.cif.g09.slc.cpg/sg15_72_cif.got.tgz:142384.got - 2010.06.28 07:06:18.
