data_PCOD8142449
_publ_section_title
;
Structure prediction by ZEFSAII (Michael W. Deem and Ramdas Pophale) SiO2 
 PCOD8142449
Probable space group: C 2/C
;
_chemical_formula_sum "Si O2"
_cell_formula_units_Z 32
_cell_length_a 8.055724
_cell_length_b 11.810025
_cell_length_c 28.079982
_cell_angle_alpha 90.000000
_cell_angle_beta 28.302328
_cell_angle_gamma 90.000000
_cell_volume 1266.613594
_symmetry_space_group_name_H-M "C 2/C"
_symmetry_group_IT_number 15
_symmetry_cell_setting 'monoclinic'
loop_
_space_group_symop_operation_xyz
x,y,z
-x,y,1/2-z
-x,-y,-z
x,-y,1/2+z
1/2+x,1/2+y,z
1/2-x,1/2+y,1/2-z
1/2-x,1/2-y,-z
1/2+x,1/2-y,1/2+z
loop_
_atom_site_type_symbol
_atom_site_label
_atom_site_fract_x
_atom_site_fract_y
_atom_site_fract_z
Si Si1 0.757299 0.771995 0.907652
Si Si2 0.862569 0.979401 0.713895
Si Si3 0.458328 0.049654 0.901374
Si Si4 0.909265 0.099904 0.932401
O O1 0.855279 0.682839 0.924330
O O2 0.611463 0.712240 0.897144
O O3 0.459836 0.862870 0.999793
O O4 0.093644 0.844377 0.805428
O O5 0.512866 0.004033 0.832957
O O6 0.184616 0.035872 0.660320
O O7 0.841281 0.035401 0.667312
O O8 0.156288 0.977240 0.003761
#
# Coordination Sequence:
#
# PCOD8142449 Si02
#       4
#     8   8   8   8
#     4  10  21  39  62  82 118 155 184 239 290 327
#     4  10  23  39  57  86 117 149 193 236 282 342
#     4  10  21  39  59  85 117 149 193 237 280 343
#     4  10  22  38  60  88 114 150 194 232 284 344
#
# _framework density 25.264216000000001
#
# number of rings (size 3 to 8) (size 9 to 14) (size 15 to 20)
#    0.000    2.000    0.000    3.750    0.000   15.000 
#    0.000    5.000    0.000    0.000    0.000    0.000 
#    0.000    0.000    0.000    0.000    0.000    0.000 
#
# Total GULP energy -198418.701381 kJ/mol
# GULP energy per Si atom -12401.168836 kJ/mol
# Density = 2.520671 g / cm^3
# Si number density = 25.264216 Si / 1000 Ang^3
#
#
#
# Elastic Constant Matrix: (Units=GPa)
#
#
# Indices 1 2 3 4 5 6 
#
# 1 44.2266 28.2925 28.8675 0.1333 29.4357 -0.0731
# 2 28.2925 163.4304 59.8647 0.0311 13.5161 -0.1042
# 3 28.8675 59.8647 145.0780 -0.0066 38.6346 -0.1750
# 4 0.1333 0.0311 -0.0066 19.4334 0.0181 -6.3347
# 5 29.4357 13.5161 38.6346 0.0181 41.2483 0.0430
# 6 -0.0731 -0.1042 -0.1750 -6.3347 0.0430 43.0339
#
#
#
# Elastic Compliance Matrix: (Units=1/GPa)
#
#
# Indices 1 2 3 4 5 6 
#
# 1 0.047976 -0.006263 0.002144 -0.000264 -0.034193 0.000070
# 2 -0.006263 0.008036 -0.003409 0.000022 0.005029 -0.000007
# 3 0.002144 -0.003409 0.010636 0.000021 -0.010375 0.000052
# 4 -0.000264 0.000022 0.000021 0.054053 0.000129 0.007956
# 5 -0.034193 0.005029 -0.010375 0.000129 0.056713 -0.000126
# 6 0.000070 -0.000007 0.000052 0.007956 -0.000126 0.024409
#
#
# Mechanical properties :
#
#
# Convention : Reuss Voigt Hill
#
# Bulk Modulus (GPa) = 19.38299 65.19827 42.29063
# Shear Modulus (GPa) = 21.36048 36.45713 28.90881
#
# Velocity S-wave (km/s) = 2.91087 3.80285 3.38636
# Velocity P-wave (km/s) = 4.35733 6.71899 5.66265
#
# Compressibility (1/GPa) = 0.05159163
#
# Stress axis : x y z
#
# Youngs Moduli (GPa) = 20.84359 124.44326 94.02186
#
# Poissons Ratio (x) = 0.77936 -0.20154
# Poissons Ratio (y) = 0.13054 0.32052
# Poissons Ratio (z) = -0.04468 0.42422
#
# Static dielectric constant tensor:
#      x y z
#    x 4.370220 -0.000110 0.134640 
#    y -0.000110 4.495610 -0.000240 
#    z 0.134640 -0.000240 4.767510 
# 
# 
# High freq. dielectric constant tensor:
#      x y z
#    x 2.009780 -0.000010 -0.003910 
#    y -0.000010 2.006270 0.000000 
#    z -0.003910 0.000000 2.002690 
# 
# From -- ./inp_files/131754.got.cif
#   From: 2010.06.25/outbox.cif.g09.slc.cpg/sg15_66_cif.got.tgz:131754.got - 2010.06.28 07:06:18.
