data_PCOD8142710
_publ_section_title
;
Structure prediction by ZEFSAII (Michael W. Deem and Ramdas Pophale) SiO2 
 PCOD8142710
Probable space group: C 2/C
;
_chemical_formula_sum "Si O2"
_cell_formula_units_Z 52
_cell_length_a 14.164480
_cell_length_b 16.923845
_cell_length_c 20.073805
_cell_angle_alpha 90.000000
_cell_angle_beta 32.451542
_cell_angle_gamma 90.000000
_cell_volume 2582.074730
_symmetry_space_group_name_H-M "C 2/C"
_symmetry_group_IT_number 15
_symmetry_cell_setting 'monoclinic'
loop_
_space_group_symop_operation_xyz
x,y,z
-x,y,1/2-z
-x,-y,-z
x,-y,1/2+z
1/2+x,1/2+y,z
1/2-x,1/2+y,1/2-z
1/2-x,1/2-y,-z
1/2+x,1/2-y,1/2+z
loop_
_atom_site_type_symbol
_atom_site_label
_atom_site_fract_x
_atom_site_fract_y
_atom_site_fract_z
Si Si1 0.151097 0.424722 0.459435
Si Si2 0.572101 0.834162 0.307599
Si Si3 0.500000 0.702934 0.250000
Si Si4 0.000000 0.727690 0.250000
Si Si5 0.338473 0.898814 0.557484
Si Si6 0.889758 0.151422 0.706365
Si Si7 0.000000 0.469241 0.250000
Si Si8 0.758909 0.396669 0.951163
O O1 0.191865 0.514932 0.455327
O O2 0.280110 0.403927 0.321743
O O3 0.184198 0.375861 0.506735
O O4 0.947289 0.410408 0.561398
O O5 0.482992 0.760386 0.323330
O O6 0.447439 0.843853 0.444165
O O7 0.768016 0.816177 0.218697
O O8 0.583080 0.913770 0.257328
O O9 0.342299 0.645653 0.324567
O O10 0.030962 0.777221 0.298308
O O11 0.172609 0.674013 0.136318
O O12 0.046290 0.101248 0.577973
O O13 0.158546 0.521620 0.125230
#
# Coordination Sequence:
#
# PCOD8142710 Si02
#       8
#     8   8   4   4   8   8   4   8
#     4  10  21  39  64  88 122 158 200 255 301 347
#     4  10  23  42  60  87 128 158 200 256 301 359
#     4  11  24  38  66  89 118 166 202 245 306 362
#     4  11  24  36  60  89 124 162 188 253 312 360
#     4  10  22  39  61  90 119 159 204 251 298 361
#     4  11  23  38  62  93 121 160 204 249 303 364
#     4  10  22  42  62  84 122 170 200 252 310 338
#     4  11  22  39  63  87 124 159 204 248 304 366
#
# _framework density 20.138843999999999
#
# number of rings (size 3 to 8) (size 9 to 14) (size 15 to 20)
#    0.000    1.538    3.077    0.923    4.308    1.846 
#    0.000    0.000    0.000    0.000    0.000    0.000 
#    0.000    0.000    0.000    0.000    0.000    0.000 
#
# Total GULP energy -322326.626766 kJ/mol
# GULP energy per Si atom -12397.177953 kJ/mol
# Density = 2.009301 g / cm^3
# Si number density = 20.138844 Si / 1000 Ang^3
#
#
#
# Elastic Constant Matrix: (Units=GPa)
#
#
# Indices 1 2 3 4 5 6 
#
# 1 57.5600 29.9921 8.0583 -0.0005 -6.6746 -0.0004
# 2 29.9921 100.2645 29.8293 0.0030 -15.1040 0.0011
# 3 8.0583 29.8293 92.9964 0.0010 -15.2224 0.0012
# 4 -0.0005 0.0030 0.0010 23.2365 0.0004 -2.5943
# 5 -6.6746 -15.1040 -15.2224 0.0004 26.6742 -0.0002
# 6 -0.0004 0.0011 0.0012 -2.5943 -0.0002 26.9242
#
#
#
# Elastic Compliance Matrix: (Units=1/GPa)
#
#
# Indices 1 2 3 4 5 6 
#
# 1 0.020680 -0.006020 0.000472 0.000001 0.002035 0.000001
# 2 -0.006020 0.013330 -0.003050 -0.000002 0.004301 -0.000001
# 3 0.000472 -0.003050 0.012605 0.000000 0.005584 0.000000
# 4 0.000001 -0.000002 0.000000 0.043504 -0.000002 0.004192
# 5 0.002035 0.004301 0.005584 -0.000002 0.043621 0.000000
# 6 0.000001 -0.000001 0.000000 0.004192 0.000000 0.037545
#
#
# Mechanical properties :
#
#
# Convention : Reuss Voigt Hill
#
# Bulk Modulus (GPa) = 33.99192 42.95337 38.47265
# Shear Modulus (GPa) = 25.21619 27.56305 26.38962
#
# Velocity S-wave (km/s) = 3.54237 3.70354 3.62385
# Velocity P-wave (km/s) = 5.80057 6.29787 6.05433
#
# Compressibility (1/GPa) = 0.02941875
#
# Stress axis : x y z
#
# Youngs Moduli (GPa) = 48.35646 75.02109 79.33632
#
# Poissons Ratio (x) = 0.45161 -0.03746
# Poissons Ratio (y) = 0.29109 0.24197
# Poissons Ratio (z) = -0.02283 0.22881
#
# Static dielectric constant tensor:
#      x y z
#    x 3.864790 -0.000010 -0.077650 
#    y -0.000010 3.704070 0.000010 
#    z -0.077650 0.000010 3.646560 
# 
# 
# High freq. dielectric constant tensor:
#      x y z
#    x 1.787310 0.000000 0.000100 
#    y 0.000000 1.787750 0.000000 
#    z 0.000100 0.000000 1.783680 
# 
# From -- ./inp_files/98484.got.cif
#   From: 2010.06.25/outbox.cif.g09.slc.cpg/sg15_50_cif.got.tgz:98484.got - 2010.06.28 07:06:18.
