data_PCOD8142347
_publ_section_title
;
Structure prediction by ZEFSAII (Michael W. Deem and Ramdas Pophale) SiO2 
 PCOD8142347
Probable space group: C 2/C
;
_chemical_formula_sum "Si O2"
_cell_formula_units_Z 44
_cell_length_a 14.637560
_cell_length_b 8.509836
_cell_length_c 14.170551
_cell_angle_alpha 90.000000
_cell_angle_beta 65.107745
_cell_angle_gamma 90.000000
_cell_volume 1601.150752
_symmetry_space_group_name_H-M "C 2/C"
_symmetry_group_IT_number 15
_symmetry_cell_setting 'monoclinic'
loop_
_space_group_symop_operation_xyz
x,y,z
-x,y,1/2-z
-x,-y,-z
x,-y,1/2+z
1/2+x,1/2+y,z
1/2-x,1/2+y,1/2-z
1/2-x,1/2-y,-z
1/2+x,1/2-y,1/2+z
loop_
_atom_site_type_symbol
_atom_site_label
_atom_site_fract_x
_atom_site_fract_y
_atom_site_fract_z
Si Si1 0.639836 0.924639 0.767109
Si Si2 0.865234 0.894613 0.502239
Si Si3 0.280907 0.064260 0.592513
Si Si4 0.500000 0.352304 0.750000
Si Si5 0.077712 0.565830 0.611050
Si Si6 0.088274 0.907497 0.349738
O O1 0.646841 0.736170 0.773861
O O2 0.726594 0.009273 0.794092
O O3 0.650415 0.967380 0.651908
O O4 0.532131 0.989631 0.847974
O O5 0.821908 0.957297 0.421379
O O6 0.811344 0.745208 0.571306
O O7 0.980113 0.847292 0.433383
O O8 0.851259 0.031228 0.585725
O O9 0.367001 0.946931 0.513020
O O10 0.566993 0.245211 0.650057
O O11 0.423627 0.455159 0.721796
#
# Coordination Sequence:
#
# PCOD8142347 Si02
#       6
#     8   8   8   4   8   8
#     4  10  21  38  67  89 126 163 214 248 316 366
#     4  10  24  39  64  90 129 157 211 249 326 362
#     4  11  22  43  64  94 124 169 201 263 307 380
#     4  10  22  38  64  88 126 162 216 258 304 368
#     4  10  21  39  66  95 117 170 212 253 303 387
#     4  11  22  41  61  94 122 167 204 264 306 376
#
# _framework density 27.480233999999999
#
# number of rings (size 3 to 8) (size 9 to 14) (size 15 to 20)
#    0.000    1.818    1.818    3.818    5.091    0.727 
#    3.273    0.000    0.000    0.000    0.000    0.000 
#    0.000    0.000    0.000    0.000    0.000    0.000 
#
# Total GULP energy -272944.644503 kJ/mol
# GULP energy per Si atom -12406.574750 kJ/mol
# Density = 2.741769 g / cm^3
# Si number density = 27.480234 Si / 1000 Ang^3
#
#
#
# Elastic Constant Matrix: (Units=GPa)
#
#
# Indices 1 2 3 4 5 6 
#
# 1 100.6344 41.4625 15.0612 0.0000 58.7004 0.0000
# 2 41.4625 159.7915 12.9927 0.0000 37.3071 0.0000
# 3 15.0612 12.9927 82.7688 0.0000 27.4491 0.0000
# 4 0.0000 0.0000 0.0000 42.4803 0.0000 14.3156
# 5 58.7004 37.3071 27.4491 0.0000 54.1408 0.0000
# 6 0.0000 0.0000 0.0000 14.3156 0.0000 35.6270
#
#
#
# Elastic Compliance Matrix: (Units=1/GPa)
#
#
# Indices 1 2 3 4 5 6 
#
# 1 0.029541 0.000055 0.006312 0.000000 -0.035267 0.000000
# 2 0.000055 0.007487 0.000656 0.000000 -0.005551 0.000000
# 3 0.006312 0.000656 0.015928 0.000000 -0.015370 0.000000
# 4 0.000000 0.000000 0.000000 0.027227 0.000000 -0.010940
# 5 -0.035267 -0.005551 -0.015370 0.000000 0.068325 0.000000
# 6 0.000000 0.000000 0.000000 -0.010940 0.000000 0.032465
#
#
# Mechanical properties :
#
#
# Convention : Reuss Voigt Hill
#
# Bulk Modulus (GPa) = 14.92527 53.58085 34.25306
# Shear Modulus (GPa) = 26.41872 44.69486 35.55679
#
# Velocity S-wave (km/s) = 3.10396 4.03729 3.60099
# Velocity P-wave (km/s) = 4.27659 6.42442 5.45721
#
# Compressibility (1/GPa) = 0.06700046
#
# Stress axis : x y z
#
# Youngs Moduli (GPa) = 33.85158 133.57291 62.78363
#
# Poissons Ratio (x) = -0.00741 -0.39626
# Poissons Ratio (y) = -0.00188 -0.04117
# Poissons Ratio (z) = -0.21366 -0.08759
#
# Static dielectric constant tensor:
#      x y z
#    x 5.035170 0.000000 0.170860 
#    y 0.000000 4.823940 0.000000 
#    z 0.170860 0.000000 5.080520 
# 
# 
# High freq. dielectric constant tensor:
#      x y z
#    x 2.118960 0.000000 0.001050 
#    y 0.000000 2.105960 0.000000 
#    z 0.001050 0.000000 2.122240 
# 
# From -- ./inp_files/159300.got.cif
#   From: 2010.06.25/outbox.cif.g09.slc.cpg/sg15_80_cif.got.tgz:159300.got - 2010.06.28 07:06:18.
