data_PCOD8142183
_publ_section_title
;
Structure prediction by ZEFSAII (Michael W. Deem and Ramdas Pophale) SiO2 
 PCOD8142183
Probable space group: C 2/C
;
_chemical_formula_sum "Si O2"
_cell_formula_units_Z 40
_cell_length_a 23.713294
_cell_length_b 15.462336
_cell_length_c 14.078870
_cell_angle_alpha 90.000000
_cell_angle_beta 157.544619
_cell_angle_gamma 90.000000
_cell_volume 1971.773608
_symmetry_space_group_name_H-M "C 2/C"
_symmetry_group_IT_number 15
_symmetry_cell_setting 'monoclinic'
loop_
_space_group_symop_operation_xyz
x,y,z
-x,y,1/2-z
-x,-y,-z
x,-y,1/2+z
1/2+x,1/2+y,z
1/2-x,1/2+y,1/2-z
1/2-x,1/2-y,-z
1/2+x,1/2-y,1/2+z
loop_
_atom_site_type_symbol
_atom_site_label
_atom_site_fract_x
_atom_site_fract_y
_atom_site_fract_z
Si Si1 0.827154 0.994444 0.613106
Si Si2 0.488320 0.039842 0.341297
Si Si3 0.626852 0.207320 0.241750
Si Si4 0.234661 0.073635 0.171746
Si Si5 0.975095 0.879568 0.980494
O O1 0.914725 0.908363 0.782375
O O2 0.652232 0.980035 0.352053
O O3 0.863900 0.025370 0.562825
O O4 0.873230 0.070889 0.758511
O O5 0.500000 0.057486 0.250000
O O6 0.469870 0.133573 0.359250
O O7 0.630723 0.990441 0.599665
O O8 0.750000 0.250000 0.500000
O O9 0.709027 0.166372 0.278763
O O10 0.507051 0.278288 0.023131
O O11 0.142435 0.092840 0.122049
#
# Coordination Sequence:
#
# PCOD8142183 Si02
#       5
#     8   8   8   8   8
#     4  10  21  38  63  91 124 166 204 253 318 371
#     4  11  22  41  65  90 125 172 211 251 321 385
#     4  11  23  37  64  96 125 158 220 261 308 371
#     4  11  23  42  65  91 131 171 205 258 325 375
#     4  11  22  39  64  98 129 155 214 271 301 372
#
# _framework density 20.286304999999999
#
# number of rings (size 3 to 8) (size 9 to 14) (size 15 to 20)
#    0.000    1.200    6.000    3.000    2.800    0.000 
#    0.000    4.000    0.000    0.000    0.000    0.000 
#    0.000    0.000    0.000    0.000    0.000    0.000 
#
# Total GULP energy -247905.252568 kJ/mol
# GULP energy per Si atom -12395.262628 kJ/mol
# Density = 2.024013 g / cm^3
# Si number density = 20.286305 Si / 1000 Ang^3
#
#
#
# Elastic Constant Matrix: (Units=GPa)
#
#
# Indices 1 2 3 4 5 6 
#
# 1 74.2523 27.4439 28.9115 0.0000 1.9958 0.0000
# 2 27.4439 135.1152 68.7703 0.0000 -4.2893 0.0000
# 3 28.9115 68.7703 100.2770 0.0000 -6.5070 0.0000
# 4 0.0000 0.0000 0.0000 40.0815 0.0000 1.1192
# 5 1.9958 -4.2893 -6.5070 0.0000 28.2823 0.0000
# 6 0.0000 0.0000 0.0000 1.1192 0.0000 -1.2525
#
#
#
# Elastic Compliance Matrix: (Units=1/GPa)
#
#
# Indices 1 2 3 4 5 6 
#
# 1 0.015450 -0.001334 -0.003679 0.000000 -0.002139 0.000000
# 2 -0.001334 0.011485 -0.007485 0.000000 0.000114 0.000000
# 3 -0.003679 -0.007485 0.016353 0.000000 0.002887 0.000000
# 4 0.000000 0.000000 0.000000 0.024342 0.000000 0.021752
# 5 -0.002139 0.000114 0.002887 0.000000 0.036190 0.000000
# 6 0.000000 0.000000 0.000000 0.021752 0.000000 -0.778974
#
#
# Mechanical properties :
#
#
# Convention : Reuss Voigt Hill
#
# Bulk Modulus (GPa) = 54.66055 62.21064 58.43560
# Shear Modulus (GPa) = -7.76324 25.72351 8.98014
#
# Velocity S-wave (km/s) = -1.95835 3.56479 2.10625
# Velocity P-wave (km/s) = 4.67862 6.90482 5.89772
#
# Compressibility (1/GPa) = 0.01829473
#
# Stress axis : x y z
#
# Youngs Moduli (GPa) = 64.72310 87.06952 61.14968
#
# Poissons Ratio (x) = 0.11613 0.22495
# Poissons Ratio (y) = 0.08632 0.45768
# Poissons Ratio (z) = 0.23810 0.65168
#
# Static dielectric constant tensor:
#      x y z
#    x 3.819770 0.000000 -0.082460 
#    y 0.000000 3.893060 0.000000 
#    z -0.082460 0.000000 3.901850 
# 
# 
# High freq. dielectric constant tensor:
#      x y z
#    x 1.792560 0.000000 0.003440 
#    y 0.000000 1.779520 0.000000 
#    z 0.003440 0.000000 1.802190 
# 
# From -- ./inp_files/85520.got.cif
#   From: 2010.06.25/outbox.cif.g09.slc.cpg/sg15_43_cif.got.tgz:85520.got - 2010.06.28 07:06:18.
