data_PCOD8142687
_publ_section_title
;
Structure prediction by ZEFSAII (Michael W. Deem and Ramdas Pophale) SiO2 
 PCOD8142687
Probable space group: C 2/C
;
_chemical_formula_sum "Si O2"
_cell_formula_units_Z 40
_cell_length_a 11.430008
_cell_length_b 10.114179
_cell_length_c 17.901475
_cell_angle_alpha 90.000000
_cell_angle_beta 129.398155
_cell_angle_gamma 90.000000
_cell_volume 1599.216474
_symmetry_space_group_name_H-M "C 2/C"
_symmetry_group_IT_number 15
_symmetry_cell_setting 'monoclinic'
loop_
_space_group_symop_operation_xyz
x,y,z
-x,y,1/2-z
-x,-y,-z
x,-y,1/2+z
1/2+x,1/2+y,z
1/2-x,1/2+y,1/2-z
1/2-x,1/2-y,-z
1/2+x,1/2-y,1/2+z
loop_
_atom_site_type_symbol
_atom_site_label
_atom_site_fract_x
_atom_site_fract_y
_atom_site_fract_z
Si Si1 0.709546 0.663883 0.824450
Si Si2 0.939332 0.942155 0.382485
Si Si3 0.852579 0.444882 0.652218
Si Si4 0.480526 0.291762 0.541139
Si Si5 0.846923 0.467117 0.982009
O O1 0.601580 0.623438 0.712177
O O2 0.634990 0.786710 0.836018
O O3 0.878615 0.708005 0.867854
O O4 0.711038 0.537931 0.881261
O O5 0.017077 0.835847 0.469695
O O6 0.789875 0.996187 0.362522
O O7 0.048149 0.074581 0.420505
O O8 0.850654 0.474400 0.565088
O O9 0.000000 0.509844 0.750000
O O10 0.334382 0.194057 0.480864
O O11 0.000000 0.500000 0.000000
#
# Coordination Sequence:
#
# PCOD8142687 Si02
#       5
#     8   8   8   8   8
#     4  10  22  38  68  95 132 177 223 272 334 398
#     4  10  22  41  66  98 131 179 222 273 334 393
#     4  11  23  39  65  98 131 176 226 272 329 409
#     4   9  21  39  67  91 136 174 222 272 332 391
#     4  10  21  39  63  94 129 174 218 272 328 383
#
# _framework density 25.012248
#
# number of rings (size 3 to 8) (size 9 to 14) (size 15 to 20)
#    0.000    2.000    0.000    3.000   11.200    0.800 
#    3.600    0.000    0.000    0.000    0.000    0.000 
#    0.000    0.000    0.000    0.000    0.000    0.000 
#
# Total GULP energy -247877.777526 kJ/mol
# GULP energy per Si atom -12393.888876 kJ/mol
# Density = 2.495532 g / cm^3
# Si number density = 25.012248 Si / 1000 Ang^3
#
#
#
# Elastic Constant Matrix: (Units=GPa)
#
#
# Indices 1 2 3 4 5 6 
#
# 1 27.4953 28.9377 3.0636 0.0000 -14.1923 0.0000
# 2 28.9377 170.8994 66.4611 0.0000 -19.9055 0.0000
# 3 3.0636 66.4611 151.2395 0.0000 -17.1812 0.0000
# 4 0.0000 0.0000 0.0000 47.0923 0.0000 3.2471
# 5 -14.1923 -19.9055 -17.1812 0.0000 42.4216 0.0000
# 6 0.0000 0.0000 0.0000 3.2471 0.0000 41.5942
#
#
#
# Elastic Compliance Matrix: (Units=1/GPa)
#
#
# Indices 1 2 3 4 5 6 
#
# 1 0.053364 -0.009040 0.004652 0.000000 0.015495 0.000000
# 2 -0.009040 0.008782 -0.003723 0.000000 -0.000411 0.000000
# 3 0.004652 -0.003723 0.008524 0.000000 0.003262 0.000000
# 4 0.000000 0.000000 0.000000 0.021350 0.000000 -0.001667
# 5 0.015495 -0.000411 0.003262 0.000000 0.029885 0.000000
# 6 0.000000 0.000000 0.000000 -0.001667 0.000000 0.024172
#
#
# Mechanical properties :
#
#
# Convention : Reuss Voigt Hill
#
# Bulk Modulus (GPa) = 18.36594 60.72878 39.54736
# Shear Modulus (GPa) = 27.70864 42.96641 35.33752
#
# Velocity S-wave (km/s) = 3.33198 4.14915 3.76281
# Velocity P-wave (km/s) = 4.70760 6.87650 5.89270
#
# Compressibility (1/GPa) = 0.05444863
#
# Stress axis : x y z
#
# Youngs Moduli (GPa) = 18.73907 113.86947 117.31145
#
# Poissons Ratio (x) = 1.02941 -0.54574
# Poissons Ratio (y) = 0.16941 0.43673
# Poissons Ratio (z) = -0.08717 0.42391
#
# Static dielectric constant tensor:
#      x y z
#    x 5.469060 0.000000 0.012040 
#    y 0.000000 5.346730 0.000000 
#    z 0.012040 0.000000 4.815950 
# 
# 
# High freq. dielectric constant tensor:
#      x y z
#    x 1.993570 0.000000 0.015060 
#    y 0.000000 2.012920 0.000000 
#    z 0.015060 0.000000 1.998520 
# 
# From -- ./inp_files/150952.got.cif
#   From: 2010.06.25/outbox.cif.g09.slc.cpg/sg15_76_cif.got.tgz:150952.got - 2010.06.28 07:06:18.
