data_PCOD8142492
_publ_section_title
;
Structure prediction by ZEFSAII (Michael W. Deem and Ramdas Pophale) SiO2 
 PCOD8142492
Probable space group: C 2/C
;
_chemical_formula_sum "Si O2"
_cell_formula_units_Z 44
_cell_length_a 11.044497
_cell_length_b 20.669666
_cell_length_c 8.722078
_cell_angle_alpha 90.000000
_cell_angle_beta 76.911646
_cell_angle_gamma 90.000000
_cell_volume 1939.403345
_symmetry_space_group_name_H-M "C 2/C"
_symmetry_group_IT_number 15
_symmetry_cell_setting 'monoclinic'
loop_
_space_group_symop_operation_xyz
x,y,z
-x,y,1/2-z
-x,-y,-z
x,-y,1/2+z
1/2+x,1/2+y,z
1/2-x,1/2+y,1/2-z
1/2-x,1/2-y,-z
1/2+x,1/2-y,1/2+z
loop_
_atom_site_type_symbol
_atom_site_label
_atom_site_fract_x
_atom_site_fract_y
_atom_site_fract_z
Si Si1 0.692752 0.717468 0.782869
Si Si2 0.727184 0.996817 0.591699
Si Si3 0.371457 0.686292 0.364930
Si Si4 0.145934 0.409211 0.878306
Si Si5 0.645232 0.417395 0.203195
Si Si6 0.500000 0.813539 0.750000
O O1 0.823618 0.748169 0.796006
O O2 0.716831 0.651517 0.683572
O O3 0.619768 0.767596 0.692080
O O4 0.611161 0.701048 0.959277
O O5 0.628429 0.041079 0.524473
O O6 0.819592 0.042126 0.658142
O O7 0.648317 0.949238 0.719733
O O8 0.816164 0.955332 0.458321
O O9 0.500000 0.665123 0.250000
O O10 0.275499 0.627868 0.367508
O O11 0.031432 0.358521 0.891000
O O12 0.500000 0.403336 0.250000
#
# Coordination Sequence:
#
# PCOD8142492 Si02
#       6
#     8   8   8   8   8   4
#     4  10  21  39  60  90 119 160 202 251 304 359
#     4  10  23  38  58  89 124 160 202 245 302 368
#     4  10  22  38  61  86 124 159 200 251 308 359
#     4  10  22  40  62  90 122 160 205 250 303 362
#     4  11  21  37  60  89 124 157 198 251 303 362
#     4  10  22  40  64  86 120 162 206 254 300 354
#
# _framework density 22.687393
#
# number of rings (size 3 to 8) (size 9 to 14) (size 15 to 20)
#    0.000    1.818    2.727    0.545    2.545    5.091 
#    0.000    3.636    8.000    0.000    0.000    0.000 
#    0.000    0.000    0.000    0.000    0.000    0.000 
#
# Total GULP energy -272747.399311 kJ/mol
# GULP energy per Si atom -12397.609060 kJ/mol
# Density = 2.263576 g / cm^3
# Si number density = 22.687393 Si / 1000 Ang^3
#
#
#
# Elastic Constant Matrix: (Units=GPa)
#
#
# Indices 1 2 3 4 5 6 
#
# 1 74.8840 35.4360 29.6303 0.0000 16.3185 0.0000
# 2 35.4360 153.1617 49.4761 0.0000 21.3733 0.0000
# 3 29.6303 49.4761 93.9373 0.0000 19.8839 0.0000
# 4 0.0000 0.0000 0.0000 -25.5446 0.0000 27.2982
# 5 16.3185 21.3733 19.8839 0.0000 22.1815 0.0000
# 6 0.0000 0.0000 0.0000 27.2982 0.0000 40.5716
#
#
#
# Elastic Compliance Matrix: (Units=1/GPa)
#
#
# Indices 1 2 3 4 5 6 
#
# 1 0.017136 -0.001954 -0.002599 0.000000 -0.008394 0.000000
# 2 -0.001954 0.008522 -0.003009 0.000000 -0.004077 0.000000
# 3 -0.002599 -0.003009 0.014849 0.000000 -0.008499 0.000000
# 4 0.000000 0.000000 0.000000 -0.022773 0.000000 0.015322
# 5 -0.008394 -0.004077 -0.008499 0.000000 0.062805 0.000000
# 6 0.000000 0.000000 0.000000 0.015322 0.000000 0.014338
#
#
# Mechanical properties :
#
#
# Convention : Reuss Voigt Hill
#
# Bulk Modulus (GPa) = 39.39676 61.22977 50.31327
# Shear Modulus (GPa) = 42.20701 21.27106 31.73904
#
# Velocity S-wave (km/s) = 4.31788 3.06530 3.74434
# Velocity P-wave (km/s) = 6.50089 6.29088 6.39675
#
# Compressibility (1/GPa) = 0.02538280
#
# Stress axis : x y z
#
# Youngs Moduli (GPa) = 58.35582 117.34264 67.34282
#
# Poissons Ratio (x) = 0.22924 0.17506
# Poissons Ratio (y) = 0.11400 0.20266
# Poissons Ratio (z) = 0.15169 0.35313
#
# Static dielectric constant tensor:
#      x y z
#    x 3.808340 0.000000 0.495410 
#    y 0.000000 4.642970 0.000000 
#    z 0.495410 0.000000 3.976710 
# 
# 
# High freq. dielectric constant tensor:
#      x y z
#    x 1.878940 0.000000 0.039660 
#    y 0.000000 1.924990 0.000000 
#    z 0.039660 0.000000 1.871400 
# 
# From -- ./inp_files/30833.got.cif
#   From: 2010.06.25/outbox.cif.g09.slc.cpg/sg15_16_cif.got.tgz:30833.got - 2010.06.28 07:06:18.
