data_PCOD8142651
_publ_section_title
;
Structure prediction by ZEFSAII (Michael W. Deem and Ramdas Pophale) SiO2 
 PCOD8142651
Probable space group: C 2/C
;
_chemical_formula_sum "Si O2"
_cell_formula_units_Z 32
_cell_length_a 27.612786
_cell_length_b 8.023397
_cell_length_c 11.743408
_cell_angle_alpha 90.000000
_cell_angle_beta 150.518118
_cell_angle_gamma 90.000000
_cell_volume 1280.438309
_symmetry_space_group_name_H-M "C 2/C"
_symmetry_group_IT_number 15
_symmetry_cell_setting 'monoclinic'
loop_
_space_group_symop_operation_xyz
x,y,z
-x,y,1/2-z
-x,-y,-z
x,-y,1/2+z
1/2+x,1/2+y,z
1/2-x,1/2+y,1/2-z
1/2-x,1/2-y,-z
1/2+x,1/2-y,1/2+z
loop_
_atom_site_type_symbol
_atom_site_label
_atom_site_fract_x
_atom_site_fract_y
_atom_site_fract_z
Si Si1 0.352023 0.083599 0.252912
Si Si2 0.039129 0.743565 0.585133
Si Si3 0.337097 0.738675 0.951200
Si Si4 0.186706 0.050225 0.260661
O O1 0.420017 0.232349 0.336671
O O2 0.331715 0.122496 0.342711
O O3 0.415098 0.916374 0.382353
O O4 0.251246 0.068768 0.975688
O O5 0.083159 0.905026 0.609775
O O6 0.064752 0.747065 0.772201
O O7 0.246098 0.779492 0.851582
O O8 0.332878 0.552276 0.894202
#
# Coordination Sequence:
#
# PCOD8142651 Si02
#       4
#     8   8   8   8
#     4  10  21  39  63  89 124 167 215 269 325 386
#     4  10  22  40  62  92 126 164 218 271 320 391
#     4  11  21  38  62  88 124 170 213 264 329 387
#     4  11  22  39  63  92 128 170 214 266 328 387
#
# _framework density 24.991440999999998
#
# number of rings (size 3 to 8) (size 9 to 14) (size 15 to 20)
#    0.000    1.500    0.000    7.500    0.000    1.000 
#    0.000    6.250    0.000    0.000    0.000    0.000 
#    0.000    0.000    0.000    0.000    0.000    0.000 
#
# Total GULP energy -198427.013193 kJ/mol
# GULP energy per Si atom -12401.688325 kJ/mol
# Density = 2.493456 g / cm^3
# Si number density = 24.991441 Si / 1000 Ang^3
#
#
#
# Elastic Constant Matrix: (Units=GPa)
#
#
# Indices 1 2 3 4 5 6 
#
# 1 135.8141 36.4066 55.0038 0.0000 2.4618 0.0000
# 2 36.4066 72.4278 37.9504 0.0000 -5.8489 0.0000
# 3 55.0038 37.9504 92.3033 0.0000 14.1522 0.0000
# 4 0.0000 0.0000 0.0000 28.9836 0.0000 -2.2753
# 5 2.4618 -5.8489 14.1522 0.0000 37.8185 0.0000
# 6 0.0000 0.0000 0.0000 -2.2753 0.0000 52.6793
#
#
#
# Elastic Compliance Matrix: (Units=1/GPa)
#
#
# Indices 1 2 3 4 5 6 
#
# 1 0.010061 -0.002247 -0.005217 0.000000 0.000950 0.000000
# 2 -0.002247 0.019368 -0.007538 0.000000 0.005963 0.000000
# 3 -0.005217 -0.007538 0.018214 0.000000 -0.007642 0.000000
# 4 0.000000 0.000000 0.000000 0.034620 0.000000 0.001495
# 5 0.000950 0.005963 -0.007642 0.000000 0.030162 0.000000
# 6 0.000000 0.000000 0.000000 0.001495 0.000000 0.019047
#
#
# Mechanical properties :
#
#
# Convention : Reuss Voigt Hill
#
# Bulk Modulus (GPa) = 56.69641 62.14075 59.41858
# Shear Modulus (GPa) = 29.87648 35.30857 32.59252
#
# Velocity S-wave (km/s) = 3.46131 3.76284 3.61522
# Velocity P-wave (km/s) = 6.22172 6.61796 6.42289
#
# Compressibility (1/GPa) = 0.01763780
#
# Stress axis : x y z
#
# Youngs Moduli (GPa) = 99.39336 51.63250 54.90322
#
# Poissons Ratio (x) = 0.11601 0.28644
# Poissons Ratio (y) = 0.22332 0.41388
# Poissons Ratio (z) = 0.51856 0.38922
#
# Static dielectric constant tensor:
#      x y z
#    x 4.560200 0.000000 0.196710 
#    y 0.000000 4.400250 0.000000 
#    z 0.196710 0.000000 4.354990 
# 
# 
# High freq. dielectric constant tensor:
#      x y z
#    x 2.010620 0.000000 0.008770 
#    y 0.000000 1.999400 0.000000 
#    z 0.008770 0.000000 1.977590 
# 
# From -- ./inp_files/93263.got.cif
#   From: 2010.06.25/outbox.cif.g09.slc.cpg/sg15_47_cif.got.tgz:93263.got - 2010.06.28 07:06:18.
