data_PCOD8142723
_publ_section_title
;
Structure prediction by ZEFSAII (Michael W. Deem and Ramdas Pophale) SiO2 
 PCOD8142723
Probable space group: C 2/C
;
_chemical_formula_sum "Si O2"
_cell_formula_units_Z 56
_cell_length_a 19.568550
_cell_length_b 28.317410
_cell_length_c 5.160104
_cell_angle_alpha 90.000000
_cell_angle_beta 72.720089
_cell_angle_gamma 90.000000
_cell_volume 2730.314073
_symmetry_space_group_name_H-M "C 2/C"
_symmetry_group_IT_number 15
_symmetry_cell_setting 'monoclinic'
loop_
_space_group_symop_operation_xyz
x,y,z
-x,y,1/2-z
-x,-y,-z
x,-y,1/2+z
1/2+x,1/2+y,z
1/2-x,1/2+y,1/2-z
1/2-x,1/2-y,-z
1/2+x,1/2-y,1/2+z
loop_
_atom_site_type_symbol
_atom_site_label
_atom_site_fract_x
_atom_site_fract_y
_atom_site_fract_z
Si Si1 0.644966 0.125558 0.989695
Si Si2 0.631935 0.739728 0.084373
Si Si3 0.000000 0.107768 0.750000
Si Si4 0.000000 0.827919 0.750000
Si Si5 0.781028 0.470888 0.985567
Si Si6 0.615596 0.529736 0.674128
Si Si7 0.769354 0.290108 0.168553
Si Si8 0.078713 0.664254 0.547802
O O1 0.582982 0.135115 0.273495
O O2 0.668282 0.071980 0.995277
O O3 0.714301 0.158909 0.975799
O O4 0.623980 0.136074 0.715660
O O5 0.568608 0.704479 0.222385
O O6 0.655883 0.771781 0.298585
O O7 0.605493 0.782870 0.929578
O O8 0.699838 0.707143 0.931687
O O9 0.991408 0.140196 0.510205
O O10 0.070804 0.076141 0.657951
O O11 0.797994 0.511412 0.177069
O O12 0.698315 0.455309 0.083349
O O13 0.596112 0.490898 0.477988
O O14 0.750000 0.250000 0.000000
O O15 0.000000 0.668258 0.750000
#
# Coordination Sequence:
#
# PCOD8142723 Si02
#       8
#     8   8   4   4   8   8   8   8
#     4  11  23  38  67  94 120 165 201 259 309 370
#     4  10  23  41  57  89 129 171 209 255 312 364
#     4  12  26  41  58  94 122 172 216 253 310 364
#     4  12  28  39  60  90 136 176 202 259 310 366
#     4  10  22  41  64  94 123 157 204 263 319 369
#     4  10  21  41  66  86 118 162 210 264 311 363
#     4  10  21  39  64  91 125 164 212 264 311 365
#     4  11  22  41  64  91 124 162 210 243 298 382
#
# _framework density 20.510459999999998
#
# number of rings (size 3 to 8) (size 9 to 14) (size 15 to 20)
#    0.000    1.429    2.143    2.571    4.000    0.000 
#    0.000    0.000    0.000    8.571    0.000    0.000 
#    0.000    0.000    0.000    0.000    0.000    0.000 
#
# Total GULP energy -346971.766133 kJ/mol
# GULP energy per Si atom -12391.848790 kJ/mol
# Density = 2.046378 g / cm^3
# Si number density = 20.510460 Si / 1000 Ang^3
#
#
#
# Elastic Constant Matrix: (Units=GPa)
#
#
# Indices 1 2 3 4 5 6 
#
# 1 75.0511 33.8702 12.8608 0.0000 -17.3157 0.0000
# 2 33.8702 85.9252 13.9418 0.0000 -16.3674 0.0000
# 3 12.8608 13.9418 84.1288 0.0000 2.5839 0.0000
# 4 0.0000 0.0000 0.0000 24.0076 0.0000 0.3195
# 5 -17.3157 -16.3674 2.5839 0.0000 18.4649 0.0000
# 6 0.0000 0.0000 0.0000 0.3195 0.0000 24.4711
#
#
#
# Elastic Compliance Matrix: (Units=1/GPa)
#
#
# Indices 1 2 3 4 5 6 
#
# 1 0.019056 -0.004343 -0.002635 0.000000 0.014389 0.000000
# 2 -0.004343 0.015637 -0.002238 0.000000 0.010101 0.000000
# 3 -0.002635 -0.002238 0.012852 0.000000 -0.006253 0.000000
# 4 0.000000 0.000000 0.000000 0.041661 0.000000 -0.000544
# 5 0.014389 0.010101 -0.006253 0.000000 0.077479 0.000000
# 6 0.000000 0.000000 0.000000 -0.000544 0.000000 0.040872
#
#
# Mechanical properties :
#
#
# Convention : Reuss Voigt Hill
#
# Bulk Modulus (GPa) = 34.34876 40.71676 37.53276
# Shear Modulus (GPa) = 21.21409 25.68422 23.44916
#
# Velocity S-wave (km/s) = 3.21955 3.54255 3.38491
# Velocity P-wave (km/s) = 5.53209 6.05208 5.79792
#
# Compressibility (1/GPa) = 0.02911314
#
# Stress axis : x y z
#
# Youngs Moduli (GPa) = 52.47818 63.95007 77.80718
#
# Poissons Ratio (x) = 0.27773 0.20504
# Poissons Ratio (y) = 0.22791 0.17411
# Poissons Ratio (z) = 0.13829 0.14310
#
# Static dielectric constant tensor:
#      x y z
#    x 3.465720 0.000000 0.355020 
#    y 0.000000 3.476050 0.000000 
#    z 0.355020 0.000000 3.401340 
# 
# 
# High freq. dielectric constant tensor:
#      x y z
#    x 1.801870 0.000000 0.004140 
#    y 0.000000 1.797330 0.000000 
#    z 0.004140 0.000000 1.807080 
# 
# From -- ./inp_files/11514.got.cif
#   From: 2010.06.25/outbox.cif.g09.slc.cpg/sg15_6_cif.got.tgz:11514.got - 2010.06.28 07:06:18.
