data_PCOD8142260
_publ_section_title
;
Structure prediction by ZEFSAII (Michael W. Deem and Ramdas Pophale) SiO2 
 PCOD8142260
Probable space group: C 2/C
;
_chemical_formula_sum "Si O2"
_cell_formula_units_Z 44
_cell_length_a 8.015007
_cell_length_b 19.852308
_cell_length_c 15.754856
_cell_angle_alpha 90.000000
_cell_angle_beta 54.731287
_cell_angle_gamma 90.000000
_cell_volume 2046.729952
_symmetry_space_group_name_H-M "C 2/C"
_symmetry_group_IT_number 15
_symmetry_cell_setting 'monoclinic'
loop_
_space_group_symop_operation_xyz
x,y,z
-x,y,1/2-z
-x,-y,-z
x,-y,1/2+z
1/2+x,1/2+y,z
1/2-x,1/2+y,1/2-z
1/2-x,1/2-y,-z
1/2+x,1/2-y,1/2+z
loop_
_atom_site_type_symbol
_atom_site_label
_atom_site_fract_x
_atom_site_fract_y
_atom_site_fract_z
Si Si1 0.044647 0.625270 0.081501
Si Si2 0.443651 0.554852 0.950401
Si Si3 0.574324 0.783135 0.414079
Si Si4 0.843261 0.938503 0.866446
Si Si5 0.316233 0.656936 0.536658
Si Si6 0.500000 0.221796 0.250000
O O1 0.973225 0.676419 0.174745
O O2 0.878060 0.567204 0.112148
O O3 0.246259 0.587653 0.051782
O O4 0.106138 0.663227 0.978049
O O5 0.395635 0.516759 0.875558
O O6 0.625924 0.611631 0.896670
O O7 0.500000 0.500000 0.000000
O O8 0.477009 0.717427 0.485296
O O9 0.415754 0.814151 0.390526
O O10 0.796872 0.768082 0.309837
O O11 0.000000 0.912626 0.750000
O O12 0.851356 0.887781 0.942679
#
# Coordination Sequence:
#
# PCOD8142260 Si02
#       6
#     8   8   8   8   8   4
#     4  11  23  39  65  90 127 163 206 260 313 371
#     4  10  21  39  64  85 123 167 203 254 312 363
#     4  10  21  39  64  91 125 160 204 259 316 373
#     4  10  21  38  64  94 122 163 215 250 301 376
#     4   9  19  39  63  89 125 166 196 254 322 371
#     4  12  22  36  66  96 124 164 220 256 308 388
#
# _framework density 21.497705
#
# number of rings (size 3 to 8) (size 9 to 14) (size 15 to 20)
#    0.000    1.818    1.818    2.182    2.545    0.000 
#    1.636    0.000    4.000    0.000    0.000    0.000 
#    0.000    0.000    0.000    0.000    0.000    0.000 
#
# Total GULP energy -272631.960524 kJ/mol
# GULP energy per Si atom -12392.361842 kJ/mol
# Density = 2.144878 g / cm^3
# Si number density = 21.497705 Si / 1000 Ang^3
#
#
#
# Elastic Constant Matrix: (Units=GPa)
#
#
# Indices 1 2 3 4 5 6 
#
# 1 142.0625 71.9576 50.3724 0.0000 -33.5479 0.0000
# 2 71.9576 114.4052 34.0849 0.0000 -20.7988 0.0000
# 3 50.3724 34.0849 84.1582 0.0000 -21.1979 0.0000
# 4 0.0000 0.0000 0.0000 19.0617 0.0000 -5.1183
# 5 -33.5479 -20.7988 -21.1979 0.0000 29.0733 0.0000
# 6 0.0000 0.0000 0.0000 -5.1183 0.0000 53.9776
#
#
#
# Elastic Compliance Matrix: (Units=1/GPa)
#
#
# Indices 1 2 3 4 5 6 
#
# 1 0.013174 -0.005702 -0.003398 0.000000 0.008644 0.000000
# 2 -0.005702 0.013071 -0.001449 0.000000 0.001715 0.000000
# 3 -0.003398 -0.001449 0.016236 0.000000 0.006880 0.000000
# 4 0.000000 0.000000 0.000000 0.053832 0.000000 0.005104
# 5 0.008644 0.001715 0.006880 0.000000 0.050614 0.000000
# 6 0.000000 0.000000 0.000000 0.005104 0.000000 0.019010
#
#
# Mechanical properties :
#
#
# Convention : Reuss Voigt Hill
#
# Bulk Modulus (GPa) = 46.76803 72.60617 59.68710
# Shear Modulus (GPa) = 25.75172 32.70326 29.22749
#
# Velocity S-wave (km/s) = 3.46480 3.90454 3.69123
# Velocity P-wave (km/s) = 6.14887 7.36033 6.78171
#
# Compressibility (1/GPa) = 0.02138213
#
# Stress axis : x y z
#
# Youngs Moduli (GPa) = 75.90975 76.50774 61.59029
#
# Poissons Ratio (x) = 0.43623 0.20931
# Poissons Ratio (y) = 0.43282 0.08925
# Poissons Ratio (z) = 0.25797 0.11086
#
# Static dielectric constant tensor:
#      x y z
#    x 4.640860 0.000000 -0.204740 
#    y 0.000000 4.570440 0.000000 
#    z -0.204740 0.000000 3.900100 
# 
# 
# High freq. dielectric constant tensor:
#      x y z
#    x 1.868690 0.000000 -0.011990 
#    y 0.000000 1.855780 0.000000 
#    z -0.011990 0.000000 1.802570 
# 
# From -- ./inp_files/135825.got.cif
#   From: 2010.06.25/outbox.cif.g09.slc.cpg/sg15_68_cif.got.tgz:135825.got - 2010.06.28 07:06:18.
