data_PCOD8142038
_publ_section_title
;
Structure prediction by ZEFSAII (Michael W. Deem and Ramdas Pophale) SiO2 
 PCOD8142038
Probable space group: C 2/C
;
_chemical_formula_sum "Si O2"
_cell_formula_units_Z 48
_cell_length_a 6.492130
_cell_length_b 27.853012
_cell_length_c 14.276334
_cell_angle_alpha 90.000000
_cell_angle_beta 61.224118
_cell_angle_gamma 90.000000
_cell_volume 2262.729544
_symmetry_space_group_name_H-M "C 2/C"
_symmetry_group_IT_number 15
_symmetry_cell_setting 'monoclinic'
loop_
_space_group_symop_operation_xyz
x,y,z
-x,y,1/2-z
-x,-y,-z
x,-y,1/2+z
1/2+x,1/2+y,z
1/2-x,1/2+y,1/2-z
1/2-x,1/2-y,-z
1/2+x,1/2-y,1/2+z
loop_
_atom_site_type_symbol
_atom_site_label
_atom_site_fract_x
_atom_site_fract_y
_atom_site_fract_z
Si Si1 0.582993 0.112756 0.458595
Si Si2 0.489103 0.275448 0.477358
Si Si3 0.115632 0.931829 0.013400
Si Si4 0.712986 0.861404 0.131923
Si Si5 0.134585 0.801979 0.633021
Si Si6 0.587418 0.527582 0.123853
O O1 0.318171 0.108970 0.477033
O O2 0.588615 0.139905 0.557520
O O3 0.757731 0.146301 0.358539
O O4 0.678276 0.058850 0.436045
O O5 0.250000 0.250000 0.500000
O O6 0.616929 0.315461 0.383288
O O7 0.655830 0.230303 0.448464
O O8 0.453454 0.303149 0.584769
O O9 0.869797 0.909269 0.100770
O O10 0.163045 0.974473 0.076144
O O11 0.104677 0.950984 0.908054
O O12 0.500000 0.864337 0.250000
O O13 0.000000 0.779235 0.750000
O O14 0.500000 0.527391 0.250000
#
# Coordination Sequence:
#
# PCOD8142038 Si02
#       6
#     8   8   8   8   8   8
#     4  10  21  39  60  87 122 155 202 256 301 370
#     4  10  21  39  60  89 122 156 198 246 300 371
#     4  10  22  40  59  88 119 162 206 252 314 367
#     4  10  22  38  60  90 124 157 205 254 303 368
#     4  10  21  38  61  87 121 156 194 249 303 356
#     4  10  22  39  59  88 122 157 207 258 306 369
#
# _framework density 21.213318999999998
#
# number of rings (size 3 to 8) (size 9 to 14) (size 15 to 20)
#    0.000    2.000    0.000    2.500    2.333    1.333 
#    0.000    3.333    0.000    0.000    0.000    0.000 
#    0.000    0.000    0.000    0.000    0.000    0.000 
#
# Total GULP energy -297363.091381 kJ/mol
# GULP energy per Si atom -12390.128808 kJ/mol
# Density = 2.116504 g / cm^3
# Si number density = 21.213319 Si / 1000 Ang^3
#
#
#
# Elastic Constant Matrix: (Units=GPa)
#
#
# Indices 1 2 3 4 5 6 
#
# 1 114.8591 42.2508 58.0073 0.0000 -8.3353 0.0000
# 2 42.2508 106.0165 37.1333 0.0000 -2.6242 0.0000
# 3 58.0073 37.1333 133.1406 0.0000 1.3155 0.0000
# 4 0.0000 0.0000 0.0000 25.4363 0.0000 -3.5218
# 5 -8.3353 -2.6242 1.3155 0.0000 20.6940 0.0000
# 6 0.0000 0.0000 0.0000 -3.5218 0.0000 43.6669
#
#
#
# Elastic Compliance Matrix: (Units=1/GPa)
#
#
# Indices 1 2 3 4 5 6 
#
# 1 0.012611 -0.003282 -0.004628 0.000000 0.004957 0.000000
# 2 -0.003282 0.011355 -0.001739 0.000000 0.000229 0.000000
# 3 -0.004628 -0.001739 0.010039 0.000000 -0.002723 0.000000
# 4 0.000000 0.000000 0.000000 0.039758 0.000000 0.003207
# 5 0.004957 0.000229 -0.002723 0.000000 0.050522 0.000000
# 6 0.000000 0.000000 0.000000 0.003207 0.000000 0.023159
#
#
# Mechanical properties :
#
#
# Convention : Reuss Voigt Hill
#
# Bulk Modulus (GPa) = 67.99670 69.86654 68.93162
# Shear Modulus (GPa) = 29.12991 32.40110 30.76550
#
# Velocity S-wave (km/s) = 3.70968 3.91243 3.81240
# Velocity P-wave (km/s) = 7.10439 7.30864 7.20724
#
# Compressibility (1/GPa) = 0.01470660
#
# Stress axis : x y z
#
# Youngs Moduli (GPa) = 79.29855 88.06409 99.61000
#
# Poissons Ratio (x) = 0.28903 0.46098
# Poissons Ratio (y) = 0.26026 0.17326
# Poissons Ratio (z) = 0.36698 0.15318
#
# Static dielectric constant tensor:
#      x y z
#    x 5.067940 0.000000 0.691680 
#    y 0.000000 4.069410 0.000000 
#    z 0.691680 0.000000 3.866010 
# 
# 
# High freq. dielectric constant tensor:
#      x y z
#    x 1.825570 0.000000 -0.001340 
#    y 0.000000 1.851660 0.000000 
#    z -0.001340 0.000000 1.813330 
# 
# From -- ./inp_files/130592.got.cif
#   From: 2010.06.25/outbox.cif.g09.slc.cpg/sg15_66_cif.got.tgz:130592.got - 2010.06.28 07:06:18.
