data_PCOD8142894
_publ_section_title
;
Structure prediction by ZEFSAII (Michael W. Deem and Ramdas Pophale) SiO2 
 PCOD8142894
Probable space group: C 2/C
;
_chemical_formula_sum "Si O2"
_cell_formula_units_Z 64
_cell_length_a 21.001682
_cell_length_b 9.110110
_cell_length_c 15.796369
_cell_angle_alpha 90.000000
_cell_angle_beta 90.400513
_cell_angle_gamma 90.000000
_cell_volume 3022.208054
_symmetry_space_group_name_H-M "C 2/C"
_symmetry_group_IT_number 15
_symmetry_cell_setting 'monoclinic'
loop_
_space_group_symop_operation_xyz
x,y,z
-x,y,1/2-z
-x,-y,-z
x,-y,1/2+z
1/2+x,1/2+y,z
1/2-x,1/2+y,1/2-z
1/2-x,1/2-y,-z
1/2+x,1/2-y,1/2+z
loop_
_atom_site_type_symbol
_atom_site_label
_atom_site_fract_x
_atom_site_fract_y
_atom_site_fract_z
Si Si1 0.674045 0.011523 0.995957
Si Si2 0.359046 0.204185 0.651651
Si Si3 0.735162 0.461574 0.852273
Si Si4 0.856556 0.568271 0.251831
Si Si5 0.030335 0.841586 0.492919
Si Si6 0.996743 0.306134 0.151145
Si Si7 0.444573 0.097354 0.402951
Si Si8 0.844345 0.767600 0.096252
O O1 0.683905 0.110241 0.913064
O O2 0.687381 0.840568 0.974001
O O3 0.725438 0.073073 0.062428
O O4 0.600739 0.024450 0.026348
O O5 0.321909 0.352344 0.670287
O O6 0.427766 0.244443 0.614766
O O7 0.375423 0.103025 0.734818
O O8 0.781931 0.443725 0.773387
O O9 0.706983 0.624206 0.862641
O O10 0.898065 0.643230 0.325817
O O11 0.871191 0.664683 0.170387
O O12 0.044080 0.783100 0.589047
O O13 0.983227 0.734068 0.440190
O O14 0.097556 0.856539 0.445317
O O15 0.000000 0.000000 0.500000
O O16 0.000000 0.261776 0.250000
O O17 0.005852 0.479206 0.134158
#
# Coordination Sequence:
#
# PCOD8142894 Si02
#       8
#     8   8   8   8   8   8   8   8
#     4  10  21  39  67  91 123 180 233 269 326 402
#     4  11  21  39  62  94 129 167 219 280 332 390
#     4  11  23  40  63  94 136 171 222 280 338 390
#     4  10  23  41  66  97 125 176 229 277 326 398
#     4  12  26  44  65 101 145 177 222 285 353 410
#     4  12  23  42  71 101 132 171 228 281 336 413
#     4  11  21  42  69  94 128 177 237 274 325 411
#     4  11  23  41  65  96 138 181 223 277 342 405
#
# _framework density 21.176570000000002
#
# number of rings (size 3 to 8) (size 9 to 14) (size 15 to 20)
#    0.000    1.000    3.750    4.125    0.000    0.000 
#    4.500    1.250    0.000    0.000    0.000    0.000 
#    0.000    0.000    0.000    0.000    0.000    0.000 
#
# Total GULP energy -396687.526315 kJ/mol
# GULP energy per Si atom -12396.485197 kJ/mol
# Density = 2.112837 g / cm^3
# Si number density = 21.176570 Si / 1000 Ang^3
#
#
#
# Elastic Constant Matrix: (Units=GPa)
#
#
# Indices 1 2 3 4 5 6 
#
# 1 76.4798 14.2623 13.4730 0.0000 -10.0180 0.0000
# 2 14.2623 78.7346 29.2676 0.0000 -1.7193 0.0000
# 3 13.4730 29.2676 102.6493 0.0000 -5.5687 0.0000
# 4 0.0000 0.0000 0.0000 20.2391 0.0000 -4.2083
# 5 -10.0180 -1.7193 -5.5687 0.0000 30.8174 0.0000
# 6 0.0000 0.0000 0.0000 -4.2083 0.0000 37.9956
#
#
#
# Elastic Compliance Matrix: (Units=1/GPa)
#
#
# Indices 1 2 3 4 5 6 
#
# 1 0.014214 -0.002096 -0.001034 0.000000 0.004317 0.000000
# 2 -0.002096 0.014516 -0.003895 0.000000 -0.000575 0.000000
# 3 -0.001034 -0.003895 0.011067 0.000000 0.001446 0.000000
# 4 0.000000 0.000000 0.000000 0.050574 0.000000 0.005601
# 5 0.004317 -0.000575 0.001446 0.000000 0.034082 0.000000
# 6 0.000000 0.000000 0.000000 0.005601 0.000000 0.026939
#
#
# Mechanical properties :
#
#
# Convention : Reuss Voigt Hill
#
# Bulk Modulus (GPa) = 38.84008 41.31883 40.07946
# Shear Modulus (GPa) = 28.73182 31.20115 29.96649
#
# Velocity S-wave (km/s) = 3.68744 3.84263 3.76583
# Velocity P-wave (km/s) = 6.04239 6.26432 6.15435
#
# Compressibility (1/GPa) = 0.02574660
#
# Stress axis : x y z
#
# Youngs Moduli (GPa) = 70.35407 68.89011 90.36225
#
# Poissons Ratio (x) = 0.14441 0.09341
# Poissons Ratio (y) = 0.14748 0.35195
# Poissons Ratio (z) = 0.07273 0.26832
#
# Static dielectric constant tensor:
#      x y z
#    x 3.827390 0.000000 -0.180610 
#    y 0.000000 3.604520 0.000000 
#    z -0.180610 0.000000 3.996100 
# 
# 
# High freq. dielectric constant tensor:
#      x y z
#    x 1.832900 0.000000 -0.011920 
#    y 0.000000 1.813840 0.000000 
#    z -0.011920 0.000000 1.838380 
# 
# From -- ./inp_files/213907.got.cif
#   From: 2010.06.25/outbox.cif.g09.slc.cpg/sg15_107_cif.got.tgz:213907.got - 2010.06.28 07:06:18.
