data_PCOD8142339
_publ_section_title
;
Structure prediction by ZEFSAII (Michael W. Deem and Ramdas Pophale) SiO2 
 PCOD8142339
Probable space group: C 2/C
;
_chemical_formula_sum "Si O2"
_cell_formula_units_Z 32
_cell_length_a 23.501118
_cell_length_b 9.915852
_cell_length_c 18.124766
_cell_angle_alpha 90.000000
_cell_angle_beta 159.954818
_cell_angle_gamma 90.000000
_cell_volume 1447.712879
_symmetry_space_group_name_H-M "C 2/C"
_symmetry_group_IT_number 15
_symmetry_cell_setting 'monoclinic'
loop_
_space_group_symop_operation_xyz
x,y,z
-x,y,1/2-z
-x,-y,-z
x,-y,1/2+z
1/2+x,1/2+y,z
1/2-x,1/2+y,1/2-z
1/2-x,1/2-y,-z
1/2+x,1/2-y,1/2+z
loop_
_atom_site_type_symbol
_atom_site_label
_atom_site_fract_x
_atom_site_fract_y
_atom_site_fract_z
Si Si1 0.613452 0.874053 0.118100
Si Si2 0.862440 0.038469 0.642290
Si Si3 0.052533 0.667598 0.230135
Si Si4 0.507744 0.389073 0.946856
O O1 0.542205 0.753755 0.080790
O O2 0.810060 0.890704 0.369577
O O3 0.595527 0.851487 0.008103
O O4 0.500000 0.000000 0.000000
O O5 0.875637 0.183846 0.698874
O O6 0.687475 0.046161 0.384843
O O7 0.000000 0.008627 0.750000
O O8 0.874416 0.924919 0.720197
O O9 0.000000 0.659770 0.250000
O O10 0.500000 0.500000 0.000000
#
# Coordination Sequence:
#
# PCOD8142339 Si02
#       4
#     8   8   8   8
#     4  12  26  42  68 105 139 185 230 283 348 415
#     4  10  21  39  67  94 130 176 225 285 335 403
#     4  10  21  38  66  97 129 174 231 275 339 407
#     4  12  24  44  68 100 141 179 231 287 345 405
#
# _framework density 22.103831
#
# number of rings (size 3 to 8) (size 9 to 14) (size 15 to 20)
#    0.000    1.000    2.500    4.500    7.000    0.000 
#    0.000    6.250    0.000    0.000    0.000    0.000 
#    0.000    0.000    0.000    0.000    0.000    0.000 
#
# Total GULP energy -198320.398496 kJ/mol
# GULP energy per Si atom -12395.024906 kJ/mol
# Density = 2.205352 g / cm^3
# Si number density = 22.103831 Si / 1000 Ang^3
#
#
#
# Elastic Constant Matrix: (Units=GPa)
#
#
# Indices 1 2 3 4 5 6 
#
# 1 97.1540 50.5719 23.1834 -0.0001 0.3220 -0.0001
# 2 50.5719 131.3142 23.5682 0.0001 5.1328 0.0001
# 3 23.1834 23.5682 81.0927 0.0001 -0.2382 0.0001
# 4 -0.0001 0.0001 0.0001 31.1064 0.0002 0.7159
# 5 0.3220 5.1328 -0.2382 0.0002 49.6808 0.0001
# 6 -0.0001 0.0001 0.0001 0.7159 0.0001 31.4740
#
#
#
# Elastic Compliance Matrix: (Units=1/GPa)
#
#
# Indices 1 2 3 4 5 6 
#
# 1 0.013325 -0.004709 -0.002440 0.000000 0.000388 0.000000
# 2 -0.004709 0.009734 -0.001486 0.000000 -0.000982 0.000000
# 3 -0.002440 -0.001486 0.013462 0.000000 0.000234 0.000000
# 4 0.000000 0.000000 0.000000 0.032165 0.000000 -0.000732
# 5 0.000388 -0.000982 0.000234 0.000000 0.020229 0.000000
# 6 0.000000 0.000000 0.000000 -0.000732 0.000000 0.031789
#
#
# Mechanical properties :
#
#
# Convention : Reuss Voigt Hill
#
# Bulk Modulus (GPa) = 51.94354 56.02311 53.98332
# Shear Modulus (GPa) = 34.62877 36.60139 35.61508
#
# Velocity S-wave (km/s) = 3.96238 4.07367 4.01841
# Velocity P-wave (km/s) = 6.66969 6.89397 6.78276
#
# Compressibility (1/GPa) = 0.01925167
#
# Stress axis : x y z
#
# Youngs Moduli (GPa) = 75.04654 102.73353 74.28584
#
# Poissons Ratio (x) = 0.48378 0.18124
# Poissons Ratio (y) = 0.35340 0.11036
# Poissons Ratio (z) = 0.18309 0.15262
#
# Static dielectric constant tensor:
#      x y z
#    x -7.993820 0.000060 -2.421640 
#    y 0.000060 5.477280 0.000010 
#    z -2.421640 0.000010 4.057050 
# 
# 
# High freq. dielectric constant tensor:
#      x y z
#    x 1.881490 0.000000 -0.002530 
#    y 0.000000 1.853160 0.000000 
#    z -0.002530 0.000000 1.874910 
# 
# From -- ./inp_files/36557.got.cif
#   From: 2010.06.25/outbox.cif.g09.slc.cpg/sg15_19_cif.got.tgz:36557.got - 2010.06.28 07:06:18.
