data_PCOD8142080
_publ_section_title
;
Structure prediction by ZEFSAII (Michael W. Deem and Ramdas Pophale) SiO2 
 PCOD8142080
Probable space group: C 2/C
;
_chemical_formula_sum "Si O2"
_cell_formula_units_Z 60
_cell_length_a 17.128383
_cell_length_b 28.376320
_cell_length_c 11.364360
_cell_angle_alpha 90.000000
_cell_angle_beta 148.800904
_cell_angle_gamma 90.000000
_cell_volume 2861.267822
_symmetry_space_group_name_H-M "C 2/C"
_symmetry_group_IT_number 15
_symmetry_cell_setting 'monoclinic'
loop_
_space_group_symop_operation_xyz
x,y,z
-x,y,1/2-z
-x,-y,-z
x,-y,1/2+z
1/2+x,1/2+y,z
1/2-x,1/2+y,1/2-z
1/2-x,1/2-y,-z
1/2+x,1/2-y,1/2+z
loop_
_atom_site_type_symbol
_atom_site_label
_atom_site_fract_x
_atom_site_fract_y
_atom_site_fract_z
Si Si1 0.804155 0.955825 0.699372
Si Si2 0.312752 0.804553 0.760230
Si Si3 0.868130 0.847576 0.170924
Si Si4 0.450176 0.108077 0.558171
Si Si5 0.966890 0.778194 0.952081
Si Si6 0.875236 0.059088 0.807177
Si Si7 0.000000 0.822074 0.750000
Si Si8 0.779523 0.903821 0.425127
O O1 0.647650 0.939978 0.558724
O O2 0.826398 0.927573 0.607615
O O3 0.797763 0.011286 0.661143
O O4 0.942450 0.944134 0.966121
O O5 0.260913 0.817619 0.561037
O O6 0.461895 0.773410 0.941978
O O7 0.188784 0.776332 0.676394
O O8 0.342792 0.853171 0.864377
O O9 0.924004 0.817693 0.353673
O O10 0.810453 0.897786 0.146185
O O11 0.000000 0.858119 0.250000
O O12 0.500000 0.126473 0.750000
O O13 0.599751 0.100108 0.674591
O O14 0.942314 0.789431 0.782840
O O15 0.837078 0.063711 0.894867
O O16 0.858114 0.852805 0.523580
#
# Coordination Sequence:
#
# PCOD8142080 Si02
#       8
#     8   8   8   8   8   8   4   8
#     4  10  21  38  61  96 131 167 212 270 323 382
#     4  11  25  42  65  92 128 168 216 263 325 393
#     4  10  21  42  63  90 133 171 211 266 324 380
#     4  10  23  42  62  88 133 168 203 268 337 374
#     4  11  24  40  65  94 124 170 211 268 319 380
#     4  11  21  37  68  94 123 170 227 257 316 389
#     4  12  22  40  70  90 130 158 220 268 320 380
#     4  11  21  40  64  91 126 166 210 271 321 379
#
# _framework density 20.969725
#
# number of rings (size 3 to 8) (size 9 to 14) (size 15 to 20)
#    0.000    1.333    2.667    3.600    2.800    4.267 
#    0.000    4.667    0.000    0.000    0.000    0.000 
#    0.000    0.000    0.000    0.000    0.000    0.000 
#
# Total GULP energy -372119.734467 kJ/mol
# GULP energy per Si atom -12403.991149 kJ/mol
# Density = 2.092200 g / cm^3
# Si number density = 20.969725 Si / 1000 Ang^3
#
#
#
# Elastic Constant Matrix: (Units=GPa)
#
#
# Indices 1 2 3 4 5 6 
#
# 1 65.1165 21.1489 31.6102 0.0000 5.4369 0.0000
# 2 21.1489 89.1316 18.3535 0.0000 2.0031 0.0000
# 3 31.6102 18.3535 71.8809 0.0000 10.9200 0.0000
# 4 0.0000 0.0000 0.0000 33.8249 0.0000 1.5605
# 5 5.4369 2.0031 10.9200 0.0000 33.8099 0.0000
# 6 0.0000 0.0000 0.0000 1.5605 0.0000 20.5112
#
#
#
# Elastic Compliance Matrix: (Units=1/GPa)
#
#
# Indices 1 2 3 4 5 6 
#
# 1 0.020337 -0.003154 -0.008065 0.000000 -0.000479 0.000000
# 2 -0.003154 0.012334 -0.001817 0.000000 0.000363 0.000000
# 3 -0.008065 -0.001817 0.018623 0.000000 -0.004610 0.000000
# 4 0.000000 0.000000 0.000000 0.029668 0.000000 -0.002257
# 5 -0.000479 0.000363 -0.004610 0.000000 0.031122 0.000000
# 6 0.000000 0.000000 0.000000 -0.002257 0.000000 0.048926
#
#
# Mechanical properties :
#
#
# Convention : Reuss Voigt Hill
#
# Bulk Modulus (GPa) = 39.65057 40.92823 40.28940
# Shear Modulus (GPa) = 25.57694 27.96362 26.77028
#
# Velocity S-wave (km/s) = 3.49622 3.65571 3.57685
# Velocity P-wave (km/s) = 5.93697 6.11384 6.02605
#
# Compressibility (1/GPa) = 0.02522032
#
# Stress axis : x y z
#
# Youngs Moduli (GPa) = 49.17253 81.07803 53.69689
#
# Poissons Ratio (x) = 0.25571 0.43307
# Poissons Ratio (y) = 0.15509 0.09759
# Poissons Ratio (z) = 0.39658 0.14736
#
# Static dielectric constant tensor:
#      x y z
#    x 3.834870 0.000000 0.010450 
#    y 0.000000 3.702360 0.000000 
#    z 0.010450 0.000000 3.877240 
# 
# 
# High freq. dielectric constant tensor:
#      x y z
#    x 1.820240 0.000000 -0.001550 
#    y 0.000000 1.819480 0.000000 
#    z -0.001550 0.000000 1.816100 
# 
# From -- ./inp_files/108608.got.cif
#   From: 2010.06.25/outbox.cif.g09.slc.cpg/sg15_55_cif.got.tgz:108608.got - 2010.06.28 07:06:18.
