data_PCOD8142939
_publ_section_title
;
Structure prediction by ZEFSAII (Michael W. Deem and Ramdas Pophale) SiO2 
 PCOD8142939
Probable space group: C 2/C
;
_chemical_formula_sum "Si O2"
_cell_formula_units_Z 52
_cell_length_a 23.761831
_cell_length_b 12.413398
_cell_length_c 14.851161
_cell_angle_alpha 90.000000
_cell_angle_beta 145.945819
_cell_angle_gamma 90.000000
_cell_volume 2453.018849
_symmetry_space_group_name_H-M "C 2/C"
_symmetry_group_IT_number 15
_symmetry_cell_setting 'monoclinic'
loop_
_space_group_symop_operation_xyz
x,y,z
-x,y,1/2-z
-x,-y,-z
x,-y,1/2+z
1/2+x,1/2+y,z
1/2-x,1/2+y,1/2-z
1/2-x,1/2-y,-z
1/2+x,1/2-y,1/2+z
loop_
_atom_site_type_symbol
_atom_site_label
_atom_site_fract_x
_atom_site_fract_y
_atom_site_fract_z
Si Si1 0.231543 0.115836 0.922737
Si Si2 0.794273 0.290822 0.193479
Si Si3 0.110280 0.340141 0.532446
Si Si4 0.610365 0.094061 0.517297
Si Si5 0.000000 0.208348 0.250000
Si Si6 0.670761 0.612251 0.380651
Si Si7 0.894539 0.320325 0.763601
O O1 0.309400 0.145437 0.945613
O O2 0.137528 0.197843 0.802485
O O3 0.178047 0.002107 0.842556
O O4 0.298361 0.111239 0.102337
O O5 0.703709 0.233975 0.127656
O O6 0.857592 0.370295 0.340069
O O7 0.857570 0.189957 0.240400
O O8 0.770157 0.356067 0.069033
O O9 0.118073 0.465458 0.514883
O O10 0.090325 0.336021 0.611233
O O11 0.016506 0.287445 0.356696
O O12 0.497554 0.140656 0.350471
O O13 0.913362 0.122630 0.154920
#
# Coordination Sequence:
#
# PCOD8142939 Si02
#       7
#     8   8   8   8   4   8   8
#     4  11  24  44  64  93 136 171 212 263 323 381
#     4  10  21  39  68  95 128 165 215 273 314 376
#     4  11  22  41  66  96 130 165 216 272 314 378
#     4  12  23  41  69  94 128 174 215 260 327 376
#     4  10  24  40  68  98 126 162 226 268 322 380
#     4  10  21  43  65  94 129 169 213 272 322 372
#     4  11  25  42  63  98 132 167 220 263 313 393
#
# _framework density 21.198367999999999
#
# number of rings (size 3 to 8) (size 9 to 14) (size 15 to 20)
#    0.000    1.231    3.077    2.769    2.154    0.000 
#    5.538    4.615    0.000    0.000    0.000    0.000 
#    0.000    0.000    0.000    0.000    0.000    0.000 
#
# Total GULP energy -322140.510003 kJ/mol
# GULP energy per Si atom -12390.019615 kJ/mol
# Density = 2.115012 g / cm^3
# Si number density = 21.198368 Si / 1000 Ang^3
#
#
#
# Elastic Constant Matrix: (Units=GPa)
#
#
# Indices 1 2 3 4 5 6 
#
# 1 73.7946 32.7632 18.2918 0.0000 -6.4523 0.0000
# 2 32.7632 101.7554 21.7260 0.0000 19.3195 0.0000
# 3 18.2918 21.7260 75.5927 0.0000 -2.2483 0.0000
# 4 0.0000 0.0000 0.0000 22.2780 0.0000 -0.5108
# 5 -6.4523 19.3195 -2.2483 0.0000 33.4667 0.0000
# 6 0.0000 0.0000 0.0000 -0.5108 0.0000 27.8946
#
#
#
# Elastic Compliance Matrix: (Units=1/GPa)
#
#
# Indices 1 2 3 4 5 6 
#
# 1 0.017607 -0.006539 -0.002172 0.000000 0.007023 0.000000
# 2 -0.006539 0.014393 -0.002845 0.000000 -0.009761 0.000000
# 3 -0.002172 -0.002845 0.014638 0.000000 0.002207 0.000000
# 4 0.000000 0.000000 0.000000 0.044906 0.000000 0.000822
# 5 0.007023 -0.009761 0.002207 0.000000 0.037017 0.000000
# 6 0.000000 0.000000 0.000000 0.000822 0.000000 0.035864
#
#
# Mechanical properties :
#
#
# Convention : Reuss Voigt Hill
#
# Bulk Modulus (GPa) = 42.50583 44.07830 43.29207
# Shear Modulus (GPa) = 25.59126 28.61865 27.10496
#
# Velocity S-wave (km/s) = 3.47829 3.67828 3.57968
# Velocity P-wave (km/s) = 6.01883 6.23522 6.12798
#
# Compressibility (1/GPa) = 0.02352618
#
# Stress axis : x y z
#
# Youngs Moduli (GPa) = 56.79673 69.47630 68.31667
#
# Poissons Ratio (x) = 0.45428 0.14840
# Poissons Ratio (y) = 0.37137 0.19435
# Poissons Ratio (z) = 0.12338 0.19765
#
# Static dielectric constant tensor:
#      x y z
#    x 3.845060 0.000000 -0.051810 
#    y 0.000000 3.819550 0.000000 
#    z -0.051810 0.000000 3.808560 
# 
# 
# High freq. dielectric constant tensor:
#      x y z
#    x 1.839930 0.000000 -0.005640 
#    y 0.000000 1.829300 0.000000 
#    z -0.005640 0.000000 1.825380 
# 
# From -- ./inp_files/173201.got.cif
#   From: 2010.06.25/outbox.cif.g09.slc.cpg/sg15_87_cif.got.tgz:173201.got - 2010.06.28 07:06:18.
