data_PCOD8142048
_publ_section_title
;
Structure prediction by ZEFSAII (Michael W. Deem and Ramdas Pophale) SiO2 
 PCOD8142048
Probable space group: C 2/C
;
_chemical_formula_sum "Si O2"
_cell_formula_units_Z 48
_cell_length_a 25.447669
_cell_length_b 14.699618
_cell_length_c 20.918815
_cell_angle_alpha 90.000000
_cell_angle_beta 18.401943
_cell_angle_gamma 90.000000
_cell_volume 2470.244121
_symmetry_space_group_name_H-M "C 2/C"
_symmetry_group_IT_number 15
_symmetry_cell_setting 'monoclinic'
loop_
_space_group_symop_operation_xyz
x,y,z
-x,y,1/2-z
-x,-y,-z
x,-y,1/2+z
1/2+x,1/2+y,z
1/2-x,1/2+y,1/2-z
1/2-x,1/2-y,-z
1/2+x,1/2-y,1/2+z
loop_
_atom_site_type_symbol
_atom_site_label
_atom_site_fract_x
_atom_site_fract_y
_atom_site_fract_z
Si Si1 0.586733 0.628120 0.874922
Si Si2 0.338087 0.521071 0.470123
Si Si3 0.081534 0.736856 0.019343
Si Si4 0.049159 0.948856 0.842481
Si Si5 0.310329 0.149429 0.947095
Si Si6 0.741191 0.319601 0.951885
O O1 0.761897 0.677503 0.680347
O O2 0.623357 0.537562 0.791751
O O3 0.446298 0.686505 0.001546
O O4 0.517968 0.616699 0.025214
O O5 0.500000 0.563181 0.250000
O O6 0.383225 0.522148 0.493184
O O7 0.192278 0.589553 0.615732
O O8 0.304465 0.422354 0.477049
O O9 0.100276 0.783654 0.066790
O O10 0.917787 0.674181 0.211815
O O11 0.194157 0.898455 0.635230
O O12 0.500000 0.153084 0.750000
O O13 0.250000 0.250000 0.000000
O O14 0.750000 0.250000 0.000000
#
# Coordination Sequence:
#
# PCOD8142048 Si02
#       6
#     8   8   8   8   8   8
#     4  10  22  41  62  88 125 173 201 260 305 384
#     4  10  21  38  61  88 123 158 202 254 309 367
#     4  10  22  36  58  90 122 156 215 240 305 383
#     4  10  22  43  64  85 129 166 209 254 323 365
#     4  11  25  42  65  93 118 156 211 267 314 370
#     4  11  21  34  57  89 127 160 194 253 315 369
#
# _framework density 19.431277999999999
#
# number of rings (size 3 to 8) (size 9 to 14) (size 15 to 20)
#    0.000    1.667    1.667    3.000    9.333    2.667 
#    0.000    2.500    0.000    0.000    0.000    0.000 
#    0.000    0.000    0.000    0.000    0.000    0.000 
#
# Total GULP energy -297466.690277 kJ/mol
# GULP energy per Si atom -12394.445428 kJ/mol
# Density = 1.938705 g / cm^3
# Si number density = 19.431278 Si / 1000 Ang^3
#
#
#
# Elastic Constant Matrix: (Units=GPa)
#
#
# Indices 1 2 3 4 5 6 
#
# 1 123.1410 49.0068 44.1863 0.0065 -5.6375 -0.0020
# 2 49.0068 120.6753 47.6530 0.0200 -5.5564 -0.0033
# 3 44.1863 47.6530 89.5894 0.0227 -13.6356 -0.0136
# 4 0.0065 0.0200 0.0227 28.4013 -0.0085 -0.7326
# 5 -5.6375 -5.5564 -13.6356 -0.0085 32.7807 0.0022
# 6 -0.0020 -0.0033 -0.0136 -0.7326 0.0022 37.9397
#
#
#
# Elastic Compliance Matrix: (Units=1/GPa)
#
#
# Indices 1 2 3 4 5 6 
#
# 1 0.010581 -0.002827 -0.003748 0.000002 -0.000219 -0.000001
# 2 -0.002827 0.011256 -0.004672 -0.000004 -0.000522 -0.000001
# 3 -0.003748 -0.004672 0.016310 -0.000007 0.005348 0.000005
# 4 0.000002 -0.000004 -0.000007 0.035227 0.000006 0.000680
# 5 -0.000219 -0.000522 0.005348 0.000006 0.032604 0.000000
# 6 -0.000001 -0.000001 0.000005 0.000680 0.000000 0.026371
#
#
# Mechanical properties :
#
#
# Convention : Reuss Voigt Hill
#
# Bulk Modulus (GPa) = 63.89032 68.34419 66.11725
# Shear Modulus (GPa) = 31.23836 32.66165 31.95000
#
# Velocity S-wave (km/s) = 4.01388 4.10430 4.05934
# Velocity P-wave (km/s) = 7.37788 7.59664 7.48806
#
# Compressibility (1/GPa) = 0.01565182
#
# Stress axis : x y z
#
# Youngs Moduli (GPa) = 94.51162 88.84450 61.31325
#
# Poissons Ratio (x) = 0.25115 0.22981
# Poissons Ratio (y) = 0.26717 0.28646
# Poissons Ratio (z) = 0.35424 0.41509
#
# Static dielectric constant tensor:
#      x y z
#    x 3.841080 -0.000010 -0.268230 
#    y -0.000010 3.595840 0.000010 
#    z -0.268230 0.000010 3.515950 
# 
# 
# High freq. dielectric constant tensor:
#      x y z
#    x 1.766700 0.000000 -0.017330 
#    y 0.000000 1.763060 0.000000 
#    z -0.017330 0.000000 1.747950 
# 
# From -- ./inp_files/54962.got.cif
#   From: 2010.06.25/outbox.cif.g09.slc.cpg/sg15_28_cif.got.tgz:54962.got - 2010.06.28 07:06:18.
