data_PCOD8142838
_publ_section_title
;
Structure prediction by ZEFSAII (Michael W. Deem and Ramdas Pophale) SiO2 
 PCOD8142838
Probable space group: C 2/C
;
_chemical_formula_sum "Si O2"
_cell_formula_units_Z 32
_cell_length_a 17.016344
_cell_length_b 9.177252
_cell_length_c 19.759634
_cell_angle_alpha 90.000000
_cell_angle_beta 150.979801
_cell_angle_gamma 90.000000
_cell_volume 1496.942554
_symmetry_space_group_name_H-M "C 2/C"
_symmetry_group_IT_number 15
_symmetry_cell_setting 'monoclinic'
loop_
_space_group_symop_operation_xyz
x,y,z
-x,y,1/2-z
-x,-y,-z
x,-y,1/2+z
1/2+x,1/2+y,z
1/2-x,1/2+y,1/2-z
1/2-x,1/2-y,-z
1/2+x,1/2-y,1/2+z
loop_
_atom_site_type_symbol
_atom_site_label
_atom_site_fract_x
_atom_site_fract_y
_atom_site_fract_z
Si Si1 0.119991 0.375457 0.398171
Si Si2 0.860707 0.786193 0.275576
Si Si3 0.209641 0.902838 0.557948
Si Si4 0.352377 0.030103 0.789498
O O1 0.250000 0.250000 0.500000
O O2 0.197990 0.533196 0.438022
O O3 0.000000 0.322118 0.250000
O O4 0.021640 0.395721 0.394009
O O5 0.801085 0.743496 0.154310
O O6 0.719672 0.881493 0.202693
O O7 0.886587 0.637281 0.338362
O O8 0.025133 0.877889 0.397766
O O9 0.224585 0.023794 0.629755
#
# Coordination Sequence:
#
# PCOD8142838 Si02
#       4
#     8   8   8   8
#     4  10  22  44  63  90 128 167 212 258 317 381
#     4  10  21  39  66  92 131 164 210 265 313 375
#     4   9  22  41  62  92 129 164 211 260 311 381
#     4   9  22  38  64  94 125 164 213 257 316 371
#
# _framework density 21.376906000000002
#
# number of rings (size 3 to 8) (size 9 to 14) (size 15 to 20)
#    1.500    1.000    0.000    0.750    3.500    4.000 
#    4.500    0.000    0.000    0.000    0.000    0.000 
#    0.000    0.000    0.000    0.000    0.000    0.000 
#
# Total GULP energy -198230.549879 kJ/mol
# GULP energy per Si atom -12389.409367 kJ/mol
# Density = 2.132825 g / cm^3
# Si number density = 21.376906 Si / 1000 Ang^3
#
#
#
# Elastic Constant Matrix: (Units=GPa)
#
#
# Indices 1 2 3 4 5 6 
#
# 1 59.5836 32.3973 64.2021 -0.0012 16.1373 0.0002
# 2 32.3973 83.8094 49.4804 -0.0013 18.7967 0.0005
# 3 64.2021 49.4804 119.1506 0.0004 39.1689 0.0007
# 4 -0.0012 -0.0013 0.0004 51.9237 -0.0002 8.6645
# 5 16.1373 18.7967 39.1689 -0.0002 21.4064 0.0001
# 6 0.0002 0.0005 0.0007 8.6645 0.0001 44.2584
#
#
#
# Elastic Compliance Matrix: (Units=1/GPa)
#
#
# Indices 1 2 3 4 5 6 
#
# 1 0.047027 -0.005424 -0.032620 0.000001 0.028999 0.000000
# 2 -0.005424 0.016623 -0.001321 0.000000 -0.008091 0.000000
# 3 -0.032620 -0.001321 0.045303 -0.000001 -0.057144 0.000000
# 4 0.000001 0.000000 -0.000001 0.019909 0.000001 -0.003898
# 5 0.028999 -0.008091 -0.057144 0.000001 0.136519 0.000000
# 6 0.000000 0.000000 0.000000 -0.003898 0.000000 0.023358
#
#
# Mechanical properties :
#
#
# Convention : Reuss Voigt Hill
#
# Bulk Modulus (GPa) = 33.08683 61.63369 47.36026
# Shear Modulus (GPa) = 13.24351 31.28197 22.26274
#
# Velocity S-wave (km/s) = 2.49172 3.82953 3.23063
# Velocity P-wave (km/s) = 4.87747 6.96048 6.00991
#
# Compressibility (1/GPa) = 0.03022351
#
# Stress axis : x y z
#
# Youngs Moduli (GPa) = 21.26438 60.15814 22.07349
#
# Poissons Ratio (x) = 0.32629 0.72004
# Poissons Ratio (y) = 0.11533 0.02916
# Poissons Ratio (z) = 0.69365 0.07946
#
# Static dielectric constant tensor:
#      x y z
#    x 3.564400 0.000000 0.136850 
#    y 0.000000 3.700470 0.000000 
#    z 0.136850 0.000000 3.711540 
# 
# 
# High freq. dielectric constant tensor:
#      x y z
#    x 1.817800 0.000000 0.017130 
#    y 0.000000 1.828130 0.000000 
#    z 0.017130 0.000000 1.835600 
# 
# From -- ./inp_files/121023.got.cif
#   From: 2010.06.25/outbox.cif.g09.slc.cpg/sg15_61_cif.got.tgz:121023.got - 2010.06.28 07:06:18.
