data_PCOD8142759
_publ_section_title
;
Structure prediction by ZEFSAII (Michael W. Deem and Ramdas Pophale) SiO2 
 PCOD8142759
Probable space group: C 2/C
;
_chemical_formula_sum "Si O2"
_cell_formula_units_Z 60
_cell_length_a 8.855711
_cell_length_b 17.243126
_cell_length_c 18.878430
_cell_angle_alpha 90.000000
_cell_angle_beta 97.925881
_cell_angle_gamma 90.000000
_cell_volume 2855.200910
_symmetry_space_group_name_H-M "C 2/C"
_symmetry_group_IT_number 15
_symmetry_cell_setting 'monoclinic'
loop_
_space_group_symop_operation_xyz
x,y,z
-x,y,1/2-z
-x,-y,-z
x,-y,1/2+z
1/2+x,1/2+y,z
1/2-x,1/2+y,1/2-z
1/2-x,1/2-y,-z
1/2+x,1/2-y,1/2+z
loop_
_atom_site_type_symbol
_atom_site_label
_atom_site_fract_x
_atom_site_fract_y
_atom_site_fract_z
Si Si1 0.002083 0.743797 0.009525
Si Si2 0.767126 0.763727 0.115664
Si Si3 0.830968 0.472354 0.495280
Si Si4 0.222906 0.132508 0.460306
Si Si5 0.231161 0.591499 0.360581
Si Si6 0.952318 0.935858 0.673271
Si Si7 0.240728 0.423192 0.163534
Si Si8 0.000000 0.496503 0.250000
O O1 0.913522 0.766377 0.074514
O O2 0.108846 0.669477 0.031011
O O3 0.889584 0.724945 0.937902
O O4 0.105766 0.817033 0.997058
O O5 0.761714 0.682530 0.157684
O O6 0.782830 0.832192 0.175697
O O7 0.726114 0.548639 0.498345
O O8 0.811797 0.414182 0.559512
O O9 0.791133 0.426756 0.422085
O O10 0.000000 0.500000 0.500000
O O11 0.167755 0.119027 0.375512
O O12 0.395787 0.551290 0.362999
O O13 0.109624 0.550708 0.302670
O O14 0.000000 0.894258 0.750000
O O15 0.878648 0.018668 0.689937
O O16 0.094965 0.442658 0.202623
#
# Coordination Sequence:
#
# PCOD8142759 Si02
#       8
#     8   8   8   8   8   8   8   4
#     4  10  21  39  65 101 143 166 219 286 345 394
#     4  11  23  42  66 101 136 174 215 289 337 396
#     4  11  21  38  71 100 126 170 230 277 329 392
#     4  10  22  38  65 104 133 180 223 279 337 403
#     4  12  25  44  71  98 134 180 228 278 341 399
#     4  11  24  44  66  93 137 180 226 276 330 409
#     4  11  25  43  69  98 133 171 229 275 337 398
#     4  12  26  48  68  96 132 186 226 272 330 430
#
# _framework density 21.014282000000001
#
# number of rings (size 3 to 8) (size 9 to 14) (size 15 to 20)
#    0.000    1.067    4.000    3.200    3.733    1.067 
#    2.400    0.000    0.000    0.000    0.000    0.000 
#    0.000    0.000    0.000    0.000    0.000    0.000 
#
# Total GULP energy -372032.416921 kJ/mol
# GULP energy per Si atom -12401.080564 kJ/mol
# Density = 2.096645 g / cm^3
# Si number density = 21.014282 Si / 1000 Ang^3
#
#
#
# Elastic Constant Matrix: (Units=GPa)
#
#
# Indices 1 2 3 4 5 6 
#
# 1 121.3205 46.5612 31.1429 0.0000 -16.1868 0.0000
# 2 46.5612 148.1101 37.2518 0.0000 -12.5100 0.0000
# 3 31.1429 37.2518 86.6061 0.0000 0.1570 0.0000
# 4 0.0000 0.0000 0.0000 16.0156 0.0000 -2.5630
# 5 -16.1868 -12.5100 0.1570 0.0000 30.3946 0.0000
# 6 0.0000 0.0000 0.0000 -2.5630 0.0000 24.5468
#
#
#
# Elastic Compliance Matrix: (Units=1/GPa)
#
#
# Indices 1 2 3 4 5 6 
#
# 1 0.010424 -0.002173 -0.002822 0.000000 0.004672 0.000000
# 2 -0.002173 0.008334 -0.002808 0.000000 0.002288 0.000000
# 3 -0.002822 -0.002808 0.013774 0.000000 -0.002730 0.000000
# 4 0.000000 0.000000 0.000000 0.063500 0.000000 0.006630
# 5 0.004672 0.002288 -0.002730 0.000000 0.036344 0.000000
# 6 0.000000 0.000000 0.000000 0.006630 0.000000 0.041431
#
#
# Mechanical properties :
#
#
# Convention : Reuss Voigt Hill
#
# Bulk Modulus (GPa) = 59.07696 65.10539 62.09117
# Shear Modulus (GPa) = 25.63374 30.26346 27.94860
#
# Velocity S-wave (km/s) = 3.49639 3.79903 3.65085
# Velocity P-wave (km/s) = 6.66884 7.09170 6.88352
#
# Compressibility (1/GPa) = 0.01692707
#
# Stress axis : x y z
#
# Youngs Moduli (GPa) = 95.92969 119.98872 72.60019
#
# Poissons Ratio (x) = 0.26068 0.20491
# Poissons Ratio (y) = 0.20841 0.20384
# Poissons Ratio (z) = 0.27076 0.33689
#
# Static dielectric constant tensor:
#      x y z
#    x 4.028390 0.000000 0.070480 
#    y 0.000000 4.057230 0.000000 
#    z 0.070480 0.000000 3.668740 
# 
# 
# High freq. dielectric constant tensor:
#      x y z
#    x 1.840010 0.000000 -0.000150 
#    y 0.000000 1.830400 0.000000 
#    z -0.000150 0.000000 1.805560 
# 
# From -- ./inp_files/190979.got.cif
#   From: 2010.06.25/outbox.cif.g09.slc.cpg/sg15_96_cif.got.tgz:190979.got - 2010.06.28 07:06:18.
