data_PCOD8142051
_publ_section_title
;
Structure prediction by ZEFSAII (Michael W. Deem and Ramdas Pophale) SiO2 
 PCOD8142051
Probable space group: C 2/C
;
_chemical_formula_sum "Si O2"
_cell_formula_units_Z 40
_cell_length_a 8.898929
_cell_length_b 11.926910
_cell_length_c 18.174352
_cell_angle_alpha 90.000000
_cell_angle_beta 88.146301
_cell_angle_gamma 90.000000
_cell_volume 1927.956744
_symmetry_space_group_name_H-M "C 2/C"
_symmetry_group_IT_number 15
_symmetry_cell_setting 'monoclinic'
loop_
_space_group_symop_operation_xyz
x,y,z
-x,y,1/2-z
-x,-y,-z
x,-y,1/2+z
1/2+x,1/2+y,z
1/2-x,1/2+y,1/2-z
1/2-x,1/2-y,-z
1/2+x,1/2-y,1/2+z
loop_
_atom_site_type_symbol
_atom_site_label
_atom_site_fract_x
_atom_site_fract_y
_atom_site_fract_z
Si Si1 0.960562 0.771710 0.668442
Si Si2 0.769539 0.029111 0.136206
Si Si3 0.165241 0.558693 0.782710
Si Si4 0.966724 0.351368 0.666698
Si Si5 0.259109 0.700488 0.580260
O O1 0.823833 0.677411 0.673867
O O2 0.000000 0.810005 0.750000
O O3 0.105132 0.722016 0.626111
O O4 0.904246 0.881777 0.626430
O O5 0.781817 0.960778 0.214162
O O6 0.783006 0.934041 0.073331
O O7 0.616702 0.098841 0.128172
O O8 0.164447 0.447979 0.834147
O O9 0.000000 0.563701 0.750000
O O10 0.904131 0.249132 0.620225
O O11 0.000000 0.312101 0.750000
O O12 0.250000 0.750000 0.500000
#
# Coordination Sequence:
#
# PCOD8142051 Si02
#       5
#     8   8   8   8   8
#     4  11  19  40  67  89 125 165 210 262 308 365
#     4  10  21  38  61  89 119 162 210 257 308 370
#     4   8  15  33  62  85 113 152 207 254 300 350
#     4   9  19  40  64  87 122 160 212 262 300 363
#     4  12  25  41  61  94 135 166 201 257 320 375
#
# _framework density 20.747354999999999
#
# number of rings (size 3 to 8) (size 9 to 14) (size 15 to 20)
#    0.000    2.400    6.000    2.400    0.000    2.400 
#    3.600    1.000    0.000    0.000    0.000    0.000 
#    0.000    0.000    0.000    0.000    0.000    0.000 
#
# Total GULP energy -247806.734397 kJ/mol
# GULP energy per Si atom -12390.336720 kJ/mol
# Density = 2.070013 g / cm^3
# Si number density = 20.747355 Si / 1000 Ang^3
#
#
#
# Elastic Constant Matrix: (Units=GPa)
#
#
# Indices 1 2 3 4 5 6 
#
# 1 48.5078 37.6627 15.4215 0.0000 6.0523 0.0000
# 2 37.6627 103.5530 10.6320 0.0000 9.8390 0.0000
# 3 15.4215 10.6320 51.4830 0.0000 8.1423 0.0000
# 4 0.0000 0.0000 0.0000 15.5689 0.0000 10.9387
# 5 6.0523 9.8390 8.1423 0.0000 18.6302 0.0000
# 6 0.0000 0.0000 0.0000 10.9387 0.0000 22.6410
#
#
#
# Elastic Compliance Matrix: (Units=1/GPa)
#
#
# Indices 1 2 3 4 5 6 
#
# 1 0.031135 -0.010465 -0.006918 0.000000 -0.001564 0.000000
# 2 -0.010465 0.013772 0.000970 0.000000 -0.004298 0.000000
# 3 -0.006918 0.000970 0.022582 0.000000 -0.008135 0.000000
# 4 0.000000 0.000000 0.000000 0.097238 0.000000 -0.046979
# 5 -0.001564 -0.004298 -0.008135 0.000000 0.060009 0.000000
# 6 0.000000 0.000000 0.000000 -0.046979 0.000000 0.066865
#
#
# Mechanical properties :
#
#
# Convention : Reuss Voigt Hill
#
# Bulk Modulus (GPa) = 28.84822 36.77511 32.81167
# Shear Modulus (GPa) = 14.88181 20.68987 17.78584
#
# Velocity S-wave (km/s) = 2.68113 3.16132 2.93107
# Velocity P-wave (km/s) = 4.84967 5.57575 5.22533
#
# Compressibility (1/GPa) = 0.03466419
#
# Stress axis : x y z
#
# Youngs Moduli (GPa) = 32.11820 72.61233 44.28261
#
# Poissons Ratio (x) = 0.75989 0.30634
# Poissons Ratio (y) = 0.33612 -0.04297
# Poissons Ratio (z) = 0.22219 -0.07046
#
# Static dielectric constant tensor:
#      x y z
#    x 3.498570 0.000000 -0.297900 
#    y 0.000000 4.798060 0.000000 
#    z -0.297900 0.000000 3.573370 
# 
# 
# High freq. dielectric constant tensor:
#      x y z
#    x 1.781470 0.000000 -0.018420 
#    y 0.000000 1.836250 0.000000 
#    z -0.018420 0.000000 1.759240 
# 
# From -- ./inp_files/229804.got.cif
#   From: 2010.06.25/outbox.cif.g09.slc.cpg/sg15_115_cif.got.tgz:229804.got - 2010.06.28 07:06:18.
