data_PCOD8142635
_publ_section_title
;
Structure prediction by ZEFSAII (Michael W. Deem and Ramdas Pophale) SiO2 
 PCOD8142635
Probable space group: C 2/C
;
_chemical_formula_sum "Si O2"
_cell_formula_units_Z 48
_cell_length_a 27.599472
_cell_length_b 8.940591
_cell_length_c 9.583441
_cell_angle_alpha 90.000000
_cell_angle_beta 99.776749
_cell_angle_gamma 90.000000
_cell_volume 2330.423866
_symmetry_space_group_name_H-M "C 2/C"
_symmetry_group_IT_number 15
_symmetry_cell_setting 'monoclinic'
loop_
_space_group_symop_operation_xyz
x,y,z
-x,y,1/2-z
-x,-y,-z
x,-y,1/2+z
1/2+x,1/2+y,z
1/2-x,1/2+y,1/2-z
1/2-x,1/2-y,-z
1/2+x,1/2-y,1/2+z
loop_
_atom_site_type_symbol
_atom_site_label
_atom_site_fract_x
_atom_site_fract_y
_atom_site_fract_z
Si Si1 0.381363 0.182967 0.348830
Si Si2 0.243651 0.582031 0.552018
Si Si3 0.896879 0.121323 0.451118
Si Si4 0.369303 0.064156 0.040847
Si Si5 0.556244 0.560727 0.742002
Si Si6 0.304238 0.569902 0.856704
O O1 0.425252 0.298115 0.339923
O O2 0.331233 0.270333 0.363010
O O3 0.396318 0.081981 0.489874
O O4 0.373235 0.076754 0.209579
O O5 0.250000 0.750000 0.500000
O O6 0.186598 0.546578 0.533923
O O7 0.266474 0.560794 0.713315
O O8 0.271220 0.455208 0.476108
O O9 0.894969 0.296447 0.477610
O O10 0.911302 0.039641 0.603120
O O11 0.937277 0.086563 0.351149
O O12 0.844546 0.062165 0.371343
O O13 0.500000 0.588005 0.750000
#
# Coordination Sequence:
#
# PCOD8142635 Si02
#       6
#     8   8   8   8   8   8
#     4  10  23  39  57  85 121 158 195 248 305 350
#     4  12  22  38  59  86 122 160 214 246 280 345
#     4  10  21  39  63  86 123 152 197 253 302 351
#     4  11  22  39  56  87 123 159 200 249 295 343
#     4  10  21  41  66  91 114 151 200 249 307 377
#     4  11  22  40  59  86 119 166 202 245 291 344
#
# _framework density 20.597113
#
# number of rings (size 3 to 8) (size 9 to 14) (size 15 to 20)
#    0.000    1.333    3.333    3.500    0.000    4.667 
#    0.000    4.167    0.000    0.000    0.000    0.000 
#    0.000    0.000    0.000    0.000    0.000    0.000 
#
# Total GULP energy -297578.510002 kJ/mol
# GULP energy per Si atom -12399.104583 kJ/mol
# Density = 2.055023 g / cm^3
# Si number density = 20.597113 Si / 1000 Ang^3
#
#
#
# Elastic Constant Matrix: (Units=GPa)
#
#
# Indices 1 2 3 4 5 6 
#
# 1 83.4689 18.3685 -10.5512 0.0000 -23.9676 0.0000
# 2 18.3685 50.3947 4.9724 0.0000 -26.8558 0.0000
# 3 -10.5512 4.9724 -94.1719 0.0000 -41.5357 0.0000
# 4 0.0000 0.0000 0.0000 45.5828 0.0000 -12.9768
# 5 -23.9676 -26.8558 -41.5357 0.0000 26.1981 0.0000
# 6 0.0000 0.0000 0.0000 -12.9768 0.0000 21.7842
#
#
#
# Elastic Compliance Matrix: (Units=1/GPa)
#
#
# Indices 1 2 3 4 5 6 
#
# 1 0.013260 -0.002179 -0.003511 0.000000 0.004331 0.000000
# 2 -0.002179 0.031902 -0.006836 0.000000 0.019871 0.000000
# 3 -0.003511 -0.006836 -0.003577 0.000000 -0.015891 0.000000
# 4 0.000000 0.000000 0.000000 0.026418 0.000000 0.015737
# 5 0.004331 0.019871 -0.015891 0.000000 0.037308 0.000000
# 6 0.000000 0.000000 0.000000 0.015737 0.000000 0.055280
#
#
# Mechanical properties :
#
#
# Convention : Reuss Voigt Hill
#
# Bulk Modulus (GPa) = 60.48513 7.25235 33.86874
# Shear Modulus (GPa) = 26.15715 20.50648 23.33181
#
# Velocity S-wave (km/s) = 3.56749 3.15874 3.36932
# Velocity P-wave (km/s) = 6.81167 4.10270 5.62277
#
# Compressibility (1/GPa) = 0.01653299
#
# Stress axis : x y z
#
# Youngs Moduli (GPa) = 75.41612 31.34637 -279.53491
#
# Poissons Ratio (x) = 0.06829 -0.98144
# Poissons Ratio (y) = 0.16430 -1.91089
# Poissons Ratio (z) = 0.26478 0.21428
#
# Static dielectric constant tensor:
#      x y z
#    x 3.636380 0.000000 -0.179290 
#    y 0.000000 3.803600 0.000000 
#    z -0.179290 0.000000 3.949390 
# 
# 
# High freq. dielectric constant tensor:
#      x y z
#    x 1.791610 0.000000 -0.009780 
#    y 0.000000 1.798190 0.000000 
#    z -0.009780 0.000000 1.817450 
# 
# From -- ./inp_files/68570.got.cif
#   From: 2010.06.25/outbox.cif.g09.slc.cpg/sg15_35_cif.got.tgz:68570.got - 2010.06.28 07:06:18.
