data_PCOD8142989
_publ_section_title
;
Structure prediction by ZEFSAII (Michael W. Deem and Ramdas Pophale) SiO2 
 PCOD8142989
Probable space group: C 2/C
;
_chemical_formula_sum "Si O2"
_cell_formula_units_Z 40
_cell_length_a 8.481688
_cell_length_b 33.435248
_cell_length_c 8.571332
_cell_angle_alpha 90.000000
_cell_angle_beta 128.589813
_cell_angle_gamma 90.000000
_cell_volume 1899.928020
_symmetry_space_group_name_H-M "C 2/C"
_symmetry_group_IT_number 15
_symmetry_cell_setting 'monoclinic'
loop_
_space_group_symop_operation_xyz
x,y,z
-x,y,1/2-z
-x,-y,-z
x,-y,1/2+z
1/2+x,1/2+y,z
1/2-x,1/2+y,1/2-z
1/2-x,1/2-y,-z
1/2+x,1/2-y,1/2+z
loop_
_atom_site_type_symbol
_atom_site_label
_atom_site_fract_x
_atom_site_fract_y
_atom_site_fract_z
Si Si1 0.500000 0.844194 0.750000
Si Si2 0.212292 0.129557 0.823658
Si Si3 0.185575 0.798922 0.094596
Si Si4 0.745442 0.213828 0.205714
Si Si5 0.778962 0.961144 0.180739
Si Si6 0.500000 0.992821 0.750000
O O1 0.350304 0.872565 0.562734
O O2 0.419965 0.814388 0.828387
O O3 0.274077 0.160603 0.726215
O O4 0.197400 0.084653 0.748402
O O5 0.000000 0.146381 0.750000
O O6 0.220693 0.761010 0.232378
O O7 0.304211 0.790902 0.008390
O O8 0.953793 0.803093 0.900456
O O9 0.680302 0.982811 0.271718
O O10 0.000000 0.976518 0.250000
O O11 0.615572 0.964838 0.942928
#
# Coordination Sequence:
#
# PCOD8142989 Si02
#       6
#     4   8   8   8   8   4
#     4  12  23  36  60  86 116 162 202 248 296 354
#     4  11  23  39  60  90 126 155 197 256 305 357
#     4  10  21  40  55  82 120 158 203 255 299 354
#     4  10  22  36  59  82 114 163 210 247 298 355
#     4  10  22  40  66  95 127 161 203 250 310 368
#     4  10  21  42  68  94 124 164 202 246 302 390
#
# _framework density 21.053429999999999
#
# number of rings (size 3 to 8) (size 9 to 14) (size 15 to 20)
#    0.000    1.600    2.000    2.400    1.400    5.600 
#    0.000    0.000    4.400    0.000    0.000    0.000 
#    0.000    0.000    0.000    0.000    0.000    0.000 
#
# Total GULP energy -247783.267357 kJ/mol
# GULP energy per Si atom -12389.163368 kJ/mol
# Density = 2.100551 g / cm^3
# Si number density = 21.053430 Si / 1000 Ang^3
#
#
#
# Elastic Constant Matrix: (Units=GPa)
#
#
# Indices 1 2 3 4 5 6 
#
# 1 97.0995 21.8000 3.6199 0.0000 -0.4796 0.0000
# 2 21.8000 91.2857 17.3524 0.0000 -6.8860 0.0000
# 3 3.6199 17.3524 89.6979 0.0000 1.6289 0.0000
# 4 0.0000 0.0000 0.0000 28.4775 0.0000 -3.2180
# 5 -0.4796 -6.8860 1.6289 0.0000 22.1256 0.0000
# 6 0.0000 0.0000 0.0000 -3.2180 0.0000 18.4998
#
#
#
# Elastic Compliance Matrix: (Units=1/GPa)
#
#
# Indices 1 2 3 4 5 6 
#
# 1 0.010890 -0.002662 0.000086 0.000000 -0.000599 0.000000
# 2 -0.002662 0.012336 -0.002351 0.000000 0.003954 0.000000
# 3 0.000086 -0.002351 0.011629 0.000000 -0.001586 0.000000
# 4 0.000000 0.000000 0.000000 0.035820 0.000000 0.006231
# 5 -0.000599 0.003954 -0.001586 0.000000 0.046531 0.000000
# 6 0.000000 0.000000 0.000000 0.006231 0.000000 0.055138
#
#
# Mechanical properties :
#
#
# Convention : Reuss Voigt Hill
#
# Bulk Modulus (GPa) = 39.99816 40.40309 40.20063
# Shear Modulus (GPa) = 26.24253 29.50796 27.87524
#
# Velocity S-wave (km/s) = 3.53437 3.74782 3.64266
# Velocity P-wave (km/s) = 5.97456 6.16122 6.06861
#
# Compressibility (1/GPa) = 0.02500115
#
# Stress axis : x y z
#
# Youngs Moduli (GPa) = 91.82520 81.06647 85.99491
#
# Poissons Ratio (x) = 0.21582 -0.00743
# Poissons Ratio (y) = 0.24447 0.20215
# Poissons Ratio (z) = -0.00794 0.19057
#
# Static dielectric constant tensor:
#      x y z
#    x 3.937900 0.000000 0.058940 
#    y 0.000000 3.555280 0.000000 
#    z 0.058940 0.000000 3.719470 
# 
# 
# High freq. dielectric constant tensor:
#      x y z
#    x 1.827700 0.000000 0.009200 
#    y 0.000000 1.812950 0.000000 
#    z 0.009200 0.000000 1.833360 
# 
# From -- ./inp_files/25419.got.cif
#   From: 2010.06.25/outbox.cif.g09.slc.cpg/sg15_13_cif.got.tgz:25419.got - 2010.06.28 07:06:18.
