data_PCOD8142536
_publ_section_title
;
Structure prediction by ZEFSAII (Michael W. Deem and Ramdas Pophale) SiO2 
 PCOD8142536
Probable space group: C 2/C
;
_chemical_formula_sum "Si O2"
_cell_formula_units_Z 64
_cell_length_a 14.403397
_cell_length_b 25.405613
_cell_length_c 9.517378
_cell_angle_alpha 90.000000
_cell_angle_beta 110.023429
_cell_angle_gamma 90.000000
_cell_volume 3272.148962
_symmetry_space_group_name_H-M "C 2/C"
_symmetry_group_IT_number 15
_symmetry_cell_setting 'monoclinic'
loop_
_space_group_symop_operation_xyz
x,y,z
-x,y,1/2-z
-x,-y,-z
x,-y,1/2+z
1/2+x,1/2+y,z
1/2-x,1/2+y,1/2-z
1/2-x,1/2-y,-z
1/2+x,1/2-y,1/2+z
loop_
_atom_site_type_symbol
_atom_site_label
_atom_site_fract_x
_atom_site_fract_y
_atom_site_fract_z
Si Si1 0.190370 0.653348 0.630568
Si Si2 0.062540 0.559515 0.657439
Si Si3 0.924905 0.556237 0.327243
Si Si4 0.111878 0.706171 0.852629
Si Si5 0.403091 0.325174 0.606216
Si Si6 0.788155 0.354601 0.855787
Si Si7 0.094161 0.178298 0.719881
Si Si8 0.826621 0.718050 0.130841
O O1 0.150888 0.596082 0.650296
O O2 0.181198 0.692976 0.756828
O O3 0.308355 0.649694 0.667311
O O4 0.130588 0.675813 0.462242
O O5 0.108351 0.503320 0.733331
O O6 0.000000 0.586981 0.750000
O O7 0.982446 0.550053 0.499372
O O8 0.828718 0.592348 0.303051
O O9 0.000000 0.580441 0.250000
O O10 0.137322 0.765856 0.904623
O O11 0.000000 0.698697 0.750000
O O12 0.131057 0.667350 0.992864
O O13 0.500000 0.334880 0.750000
O O14 0.316320 0.363642 0.618920
O O15 0.423182 0.334967 0.452836
O O16 0.770000 0.312690 0.723587
O O17 0.096117 0.241325 0.758274
O O18 0.000000 0.153671 0.750000
O O19 0.750000 0.750000 0.000000
#
# Coordination Sequence:
#
# PCOD8142536 Si02
#       8
#     8   8   8   8   8   8   8   8
#     4  11  21  37  58  84 115 158 194 233 290 349
#     4  10  21  39  61  89 120 146 188 239 294 360
#     4  10  22  38  60  92 120 147 184 241 302 350
#     4  11  22  35  58  86 114 152 198 237 283 347
#     4  11  24  38  57  82 117 157 201 242 285 338
#     4  12  21  39  61  83 117 160 198 237 292 357
#     4  11  24  38  53  82 119 155 195 244 289 335
#     4  10  23  35  55  80 118 154 196 238 284 338
#
# _framework density 19.559011999999999
#
# number of rings (size 3 to 8) (size 9 to 14) (size 15 to 20)
#    0.000    1.250    2.500    4.500    7.000    1.500 
#    0.000    0.000    0.000    0.750    0.000    1.750 
#    0.000    0.000    0.000    0.000    0.000    0.000 
#
# Total GULP energy -396650.965648 kJ/mol
# GULP energy per Si atom -12395.342677 kJ/mol
# Density = 1.951450 g / cm^3
# Si number density = 19.559012 Si / 1000 Ang^3
#
#
#
# Elastic Constant Matrix: (Units=GPa)
#
#
# Indices 1 2 3 4 5 6 
#
# 1 131.3453 56.1383 32.1660 0.0000 -14.4853 0.0000
# 2 56.1383 78.4418 18.0584 0.0000 -5.6516 0.0000
# 3 32.1660 18.0584 103.2366 0.0000 -19.6198 0.0000
# 4 0.0000 0.0000 0.0000 21.4407 0.0000 -5.9220
# 5 -14.4853 -5.6516 -19.6198 0.0000 35.2368 0.0000
# 6 0.0000 0.0000 0.0000 -5.9220 0.0000 32.4017
#
#
#
# Elastic Compliance Matrix: (Units=1/GPa)
#
#
# Indices 1 2 3 4 5 6 
#
# 1 0.011638 -0.007734 -0.001789 0.000000 0.002548 0.000000
# 2 -0.007734 0.018450 -0.000961 0.000000 -0.000755 0.000000
# 3 -0.001789 -0.000961 0.011455 0.000000 0.005489 0.000000
# 4 0.000000 0.000000 0.000000 0.049120 0.000000 0.008978
# 5 0.002548 -0.000755 0.005489 0.000000 0.032362 0.000000
# 6 0.000000 0.000000 0.000000 0.008978 0.000000 0.032503
#
#
# Mechanical properties :
#
#
# Convention : Reuss Voigt Hill
#
# Bulk Modulus (GPa) = 48.60234 58.41657 53.50946
# Shear Modulus (GPa) = 27.26961 31.59322 29.43142
#
# Velocity S-wave (km/s) = 3.73798 4.02341 3.88332
# Velocity P-wave (km/s) = 6.59795 7.17743 6.89378
#
# Compressibility (1/GPa) = 0.02057514
#
# Stress axis : x y z
#
# Youngs Moduli (GPa) = 85.92509 54.20101 87.29669
#
# Poissons Ratio (x) = 0.41917 0.15619
# Poissons Ratio (y) = 0.66451 0.08391
# Poissons Ratio (z) = 0.15374 0.05210
#
# Static dielectric constant tensor:
#      x y z
#    x 3.568530 0.000000 -0.305570 
#    y 0.000000 3.687280 0.000000 
#    z -0.305570 0.000000 3.920060 
# 
# 
# High freq. dielectric constant tensor:
#      x y z
#    x 1.750580 0.000000 -0.018860 
#    y 0.000000 1.729290 0.000000 
#    z -0.018860 0.000000 1.782070 
# 
# From -- ./inp_files/43582.got.cif
#   From: 2010.06.25/outbox.cif.g09.slc.cpg/sg15_22_cif.got.tgz:43582.got - 2010.06.28 07:06:18.
