data_PCOD8142749
_publ_section_title
;
Structure prediction by ZEFSAII (Michael W. Deem and Ramdas Pophale) SiO2 
 PCOD8142749
Probable space group: C 2/C
;
_chemical_formula_sum "Si O2"
_cell_formula_units_Z 60
_cell_length_a 15.960674
_cell_length_b 15.349330
_cell_length_c 11.822853
_cell_angle_alpha 90.000000
_cell_angle_beta 74.635468
_cell_angle_gamma 90.000000
_cell_volume 2792.909832
_symmetry_space_group_name_H-M "C 2/C"
_symmetry_group_IT_number 15
_symmetry_cell_setting 'monoclinic'
loop_
_space_group_symop_operation_xyz
x,y,z
-x,y,1/2-z
-x,-y,-z
x,-y,1/2+z
1/2+x,1/2+y,z
1/2-x,1/2+y,1/2-z
1/2-x,1/2-y,-z
1/2+x,1/2-y,1/2+z
loop_
_atom_site_type_symbol
_atom_site_label
_atom_site_fract_x
_atom_site_fract_y
_atom_site_fract_z
Si Si1 0.083044 0.359382 0.143348
Si Si2 0.979944 0.262941 0.999360
Si Si3 0.436691 0.579514 0.023279
Si Si4 0.806042 0.721835 0.707436
Si Si5 0.500000 0.845665 0.750000
Si Si6 0.207172 0.921645 0.757012
Si Si7 0.782163 0.079385 0.901408
Si Si8 0.153832 0.541382 0.127259
O O1 0.158796 0.310849 0.184572
O O2 0.113806 0.453509 0.091881
O O3 0.000000 0.371500 0.250000
O O4 0.057071 0.309120 0.039643
O O5 0.988158 0.289620 0.866582
O O6 0.001076 0.161247 0.997977
O O7 0.883608 0.276706 0.087042
O O8 0.390015 0.573644 0.160999
O O9 0.500000 0.500000 0.000000
O O10 0.368755 0.592923 0.944334
O O11 0.766188 0.818360 0.749927
O O12 0.729496 0.656012 0.689472
O O13 0.415353 0.905606 0.774523
O O14 0.268879 0.979343 0.814588
O O15 0.211484 0.977620 0.640241
O O16 0.694587 0.092587 0.006515
#
# Coordination Sequence:
#
# PCOD8142749 Si02
#       8
#     8   8   8   8   4   8   8   8
#     4  10  21  39  64  96 134 172 215 274 333 394
#     4  10  24  40  65 101 131 177 222 273 330 403
#     4  10  25  46  66  95 133 171 232 279 333 400
#     4  10  21  43  68  92 135 177 221 273 338 397
#     4  12  24  38  66 100 140 176 218 270 332 410
#     4  10  24  42  68  96 126 181 220 276 339 397
#     4  11  23  42  70  95 135 179 221 279 334 405
#     4  11  23  39  62 101 137 168 221 266 336 404
#
# _framework density 21.482972
#
# number of rings (size 3 to 8) (size 9 to 14) (size 15 to 20)
#    0.000    1.600    3.333    0.000    5.600    3.733 
#    0.000    0.667    0.000    0.000    0.000    0.000 
#    0.000    0.000    0.000    0.000    0.000    0.000 
#
# Total GULP energy -371708.119577 kJ/mol
# GULP energy per Si atom -12390.270653 kJ/mol
# Density = 2.143408 g / cm^3
# Si number density = 21.482972 Si / 1000 Ang^3
#
#
#
# Elastic Constant Matrix: (Units=GPa)
#
#
# Indices 1 2 3 4 5 6 
#
# 1 63.8999 24.6550 5.8514 0.0000 3.2300 0.0000
# 2 24.6550 81.6252 -9.4365 0.0000 -14.5321 0.0000
# 3 5.8514 -9.4365 61.5701 0.0000 -3.8689 0.0000
# 4 0.0000 0.0000 0.0000 31.8697 0.0000 1.5429
# 5 3.2300 -14.5321 -3.8689 0.0000 22.8490 0.0000
# 6 0.0000 0.0000 0.0000 1.5429 0.0000 35.3873
#
#
#
# Elastic Compliance Matrix: (Units=1/GPa)
#
#
# Indices 1 2 3 4 5 6 
#
# 1 0.019375 -0.007732 -0.003545 0.000000 -0.008257 0.000000
# 2 -0.007732 0.017359 0.004203 0.000000 0.012845 0.000000
# 3 -0.003545 0.004203 0.017609 0.000000 0.006156 0.000000
# 4 0.000000 0.000000 0.000000 0.031444 0.000000 -0.001371
# 5 -0.008257 0.012845 0.006156 0.000000 0.054145 0.000000
# 6 0.000000 0.000000 0.000000 -0.001371 0.000000 0.028318
#
#
# Mechanical properties :
#
#
# Convention : Reuss Voigt Hill
#
# Bulk Modulus (GPa) = 24.87915 27.69277 26.28596
# Shear Modulus (GPa) = 25.53649 30.42289 27.97969
#
# Velocity S-wave (km/s) = 3.45147 3.76725 3.61281
# Velocity P-wave (km/s) = 5.24305 5.64282 5.44660
#
# Compressibility (1/GPa) = 0.04019430
#
# Stress axis : x y z
#
# Youngs Moduli (GPa) = 51.61352 57.60592 56.78762
#
# Poissons Ratio (x) = 0.44541 0.20132
# Poissons Ratio (y) = 0.39908 -0.23865
# Poissons Ratio (z) = 0.18298 -0.24209
#
# Static dielectric constant tensor:
#      x y z
#    x 3.874660 0.000000 0.073330 
#    y 0.000000 4.040630 0.000000 
#    z 0.073330 0.000000 3.850910 
# 
# 
# High freq. dielectric constant tensor:
#      x y z
#    x 1.837840 0.000000 0.007330 
#    y 0.000000 1.855060 0.000000 
#    z 0.007330 0.000000 1.831430 
# 
# From -- ./inp_files/105696.got.cif
#   From: 2010.06.25/outbox.cif.g09.slc.cpg/sg15_53_cif.got.tgz:105696.got - 2010.06.28 07:06:18.
