data_PCOD8142610
_publ_section_title
;
Structure prediction by ZEFSAII (Michael W. Deem and Ramdas Pophale) SiO2 
 PCOD8142610
Probable space group: C 2/C
;
_chemical_formula_sum "Si O2"
_cell_formula_units_Z 32
_cell_length_a 17.017923
_cell_length_b 8.982904
_cell_length_c 8.847703
_cell_angle_alpha 90.000000
_cell_angle_beta 77.380027
_cell_angle_gamma 90.000000
_cell_volume 1319.874863
_symmetry_space_group_name_H-M "C 2/C"
_symmetry_group_IT_number 15
_symmetry_cell_setting 'monoclinic'
loop_
_space_group_symop_operation_xyz
x,y,z
-x,y,1/2-z
-x,-y,-z
x,-y,1/2+z
1/2+x,1/2+y,z
1/2-x,1/2+y,1/2-z
1/2-x,1/2-y,-z
1/2+x,1/2-y,1/2+z
loop_
_atom_site_type_symbol
_atom_site_label
_atom_site_fract_x
_atom_site_fract_y
_atom_site_fract_z
Si Si1 0.163151 0.803853 0.711739
Si Si2 0.903800 0.686889 0.275041
Si Si3 0.814122 0.906807 0.125974
Si Si4 0.415562 0.926244 0.078996
O O1 0.147874 0.883530 0.557284
O O2 0.229142 0.674095 0.671831
O O3 0.082929 0.712491 0.801515
O O4 0.191416 0.919182 0.829929
O O5 0.874458 0.845657 0.230007
O O6 0.868478 0.565988 0.170774
O O7 0.868562 0.636697 0.452517
O O8 0.000000 0.688547 0.250000
O O9 0.500000 0.000000 0.000000
#
# Coordination Sequence:
#
# PCOD8142610 Si02
#       4
#     8   8   8   8
#     4  11  24  42  67  99 134 176 224 277 337 400
#     4  10  21  39  62  93 130 173 219 270 330 394
#     4  11  24  42  67  99 136 176 223 279 336 400
#     4  10  21  39  63  93 130 173 219 269 329 396
#
# _framework density 24.244721999999999
#
# number of rings (size 3 to 8) (size 9 to 14) (size 15 to 20)
#    0.000    1.500    0.000    4.500    0.000   10.000 
#    0.000   15.000    0.000    0.000    0.000    0.000 
#    0.000    0.000    0.000    0.000    0.000    0.000 
#
# Total GULP energy -198226.907400 kJ/mol
# GULP energy per Si atom -12389.181712 kJ/mol
# Density = 2.418954 g / cm^3
# Si number density = 24.244722 Si / 1000 Ang^3
#
#
#
# Elastic Constant Matrix: (Units=GPa)
#
#
# Indices 1 2 3 4 5 6 
#
# 1 45.2664 26.7338 34.7402 0.0000 4.1166 0.0000
# 2 26.7338 119.7074 53.6565 0.0000 -19.8263 0.0000
# 3 34.7402 53.6565 154.5939 0.0000 -10.2695 0.0000
# 4 0.0000 0.0000 0.0000 57.9160 0.0000 5.9084
# 5 4.1166 -19.8263 -10.2695 0.0000 23.9640 0.0000
# 6 0.0000 0.0000 0.0000 5.9084 0.0000 39.1614
#
#
#
# Elastic Compliance Matrix: (Units=1/GPa)
#
#
# Indices 1 2 3 4 5 6 
#
# 1 0.031652 -0.006760 -0.005660 0.000000 -0.013456 0.000000
# 2 -0.006760 0.012589 -0.002142 0.000000 0.010659 0.000000
# 3 -0.005660 -0.002142 0.008678 0.000000 0.002919 0.000000
# 4 0.000000 0.000000 0.000000 0.017536 0.000000 -0.002646
# 5 -0.013456 0.010659 0.002919 0.000000 0.054110 0.000000
# 6 0.000000 0.000000 0.000000 -0.002646 0.000000 0.025935
#
#
# Mechanical properties :
#
#
# Convention : Reuss Voigt Hill
#
# Bulk Modulus (GPa) = 42.02865 61.09207 51.56036
# Shear Modulus (GPa) = 26.65881 37.83743 32.24812
#
# Velocity S-wave (km/s) = 3.31958 3.95479 3.65102
# Velocity P-wave (km/s) = 5.66265 6.79018 6.25189
#
# Compressibility (1/GPa) = 0.02379330
#
# Stress axis : x y z
#
# Youngs Moduli (GPa) = 31.59399 79.43503 115.23464
#
# Poissons Ratio (x) = 0.53699 0.65226
# Poissons Ratio (y) = 0.21358 0.24686
# Poissons Ratio (z) = 0.17883 0.17017
#
# Static dielectric constant tensor:
#      x y z
#    x 3.746390 0.000000 -0.122040 
#    y 0.000000 4.551370 0.000000 
#    z -0.122040 0.000000 5.428270 
# 
# 
# High freq. dielectric constant tensor:
#      x y z
#    x 1.917460 0.000000 -0.003960 
#    y 0.000000 1.972460 0.000000 
#    z -0.003960 0.000000 1.989680 
# 
# From -- ./inp_files/53404.got.cif
#   From: 2010.06.25/outbox.cif.g09.slc.cpg/sg15_27_cif.got.tgz:53404.got - 2010.06.28 07:06:18.
