data_PCOD8142510
_publ_section_title
;
Structure prediction by ZEFSAII (Michael W. Deem and Ramdas Pophale) SiO2 
 PCOD8142510
Probable space group: C 2/C
;
_chemical_formula_sum "Si O2"
_cell_formula_units_Z 36
_cell_length_a 30.756391
_cell_length_b 5.297574
_cell_length_c 10.949025
_cell_angle_alpha 90.000000
_cell_angle_beta 134.739506
_cell_angle_gamma 90.000000
_cell_volume 1267.180308
_symmetry_space_group_name_H-M "C 2/C"
_symmetry_group_IT_number 15
_symmetry_cell_setting 'monoclinic'
loop_
_space_group_symop_operation_xyz
x,y,z
-x,y,1/2-z
-x,-y,-z
x,-y,1/2+z
1/2+x,1/2+y,z
1/2-x,1/2+y,1/2-z
1/2-x,1/2-y,-z
1/2+x,1/2-y,1/2+z
loop_
_atom_site_type_symbol
_atom_site_label
_atom_site_fract_x
_atom_site_fract_y
_atom_site_fract_z
Si Si1 0.407433 0.957019 0.884327
Si Si2 0.180723 0.713294 0.079606
Si Si3 0.791383 0.773000 0.962624
Si Si4 0.066939 0.965988 0.686336
Si Si5 0.500000 0.784837 0.250000
O O1 0.355560 0.858162 0.871729
O O2 0.401024 0.740475 0.765541
O O3 0.398149 0.239559 0.817015
O O4 0.473239 0.951631 0.085616
O O5 0.169697 0.486329 0.961175
O O6 0.251484 0.739234 0.259126
O O7 0.165376 0.972722 0.970395
O O8 0.750000 0.750000 0.000000
O O9 0.057019 0.881857 0.809200
O O10 0.000000 0.000000 0.500000
#
# Coordination Sequence:
#
# PCOD8142510 Si02
#       5
#     8   8   8   8   4
#     4  11  23  38  58  85 115 149 191 233 279 336
#     4  10  22  38  58  87 115 145 190 235 278 340
#     4  10  21  39  61  84 115 149 185 234 288 336
#     4  10  22  38  56  81 113 150 191 235 277 330
#     4  10  22  38  58  80 114 152 186 230 282 330
#
# _framework density 28.409534000000001
#
# number of rings (size 3 to 8) (size 9 to 14) (size 15 to 20)
#    0.000    1.778    0.000    4.667    0.000   11.556 
#    0.000    0.000    0.000    0.000    0.000    0.000 
#    0.000    0.000    0.000    0.000    0.000    0.000 
#
# Total GULP energy -223108.788856 kJ/mol
# GULP energy per Si atom -12394.932714 kJ/mol
# Density = 2.834487 g / cm^3
# Si number density = 28.409534 Si / 1000 Ang^3
#
#
#
# Elastic Constant Matrix: (Units=GPa)
#
#
# Indices 1 2 3 4 5 6 
#
# 1 127.9977 51.5429 -11.7060 0.0000 -29.3050 0.0000
# 2 51.5429 228.1473 61.1467 0.0000 -4.2821 0.0000
# 3 -11.7060 61.1467 83.6104 0.0000 -2.1249 0.0000
# 4 0.0000 0.0000 0.0000 37.3707 0.0000 -3.6368
# 5 -29.3050 -4.2821 -2.1249 0.0000 33.9913 0.0000
# 6 0.0000 0.0000 0.0000 -3.6368 0.0000 60.9318
#
#
#
# Elastic Compliance Matrix: (Units=1/GPa)
#
#
# Indices 1 2 3 4 5 6 
#
# 1 0.012143 -0.003826 0.004760 0.000000 0.010285 0.000000
# 2 -0.003826 0.006664 -0.005480 0.000000 -0.002802 0.000000
# 3 0.004760 -0.005480 0.016748 0.000000 0.004460 0.000000
# 4 0.000000 0.000000 0.000000 0.026915 0.000000 0.001606
# 5 0.010285 -0.002802 0.004460 0.000000 0.038212 0.000000
# 6 0.000000 0.000000 0.000000 0.001606 0.000000 0.016508
#
#
# Mechanical properties :
#
#
# Convention : Reuss Voigt Hill
#
# Bulk Modulus (GPa) = 37.79076 71.30252 54.54664
# Shear Modulus (GPa) = 37.00869 49.04355 43.02612
#
# Velocity S-wave (km/s) = 3.61319 4.15939 3.89587
# Velocity P-wave (km/s) = 5.54417 6.94406 6.28322
#
# Compressibility (1/GPa) = 0.02646150
#
# Stress axis : x y z
#
# Youngs Moduli (GPa) = 82.35006 150.06693 59.70935
#
# Poissons Ratio (x) = 0.57416 -0.28419
# Poissons Ratio (y) = 0.31507 0.32722
# Poissons Ratio (z) = -0.39195 0.82240
#
# Static dielectric constant tensor:
#      x y z
#    x 5.713550 0.000000 0.115690 
#    y 0.000000 4.860960 0.000000 
#    z 0.115690 0.000000 5.937970 
# 
# 
# High freq. dielectric constant tensor:
#      x y z
#    x 2.146770 0.000000 0.025210 
#    y 0.000000 2.166230 0.000000 
#    z 0.025210 0.000000 2.205470 
# 
# From -- ./inp_files/115707.got.cif
#   From: 2010.06.25/outbox.cif.g09.slc.cpg/sg15_58_cif.got.tgz:115707.got - 2010.06.28 07:06:18.
