data_PCOD8142437
_publ_section_title
;
Structure prediction by ZEFSAII (Michael W. Deem and Ramdas Pophale) SiO2 
 PCOD8142437
Probable space group: C 2/C
;
_chemical_formula_sum "Si O2"
_cell_formula_units_Z 60
_cell_length_a 12.212436
_cell_length_b 13.449453
_cell_length_c 17.605738
_cell_angle_alpha 90.000000
_cell_angle_beta 85.161234
_cell_angle_gamma 90.000000
_cell_volume 2881.446585
_symmetry_space_group_name_H-M "C 2/C"
_symmetry_group_IT_number 15
_symmetry_cell_setting 'monoclinic'
loop_
_space_group_symop_operation_xyz
x,y,z
-x,y,1/2-z
-x,-y,-z
x,-y,1/2+z
1/2+x,1/2+y,z
1/2-x,1/2+y,1/2-z
1/2-x,1/2-y,-z
1/2+x,1/2-y,1/2+z
loop_
_atom_site_type_symbol
_atom_site_label
_atom_site_fract_x
_atom_site_fract_y
_atom_site_fract_z
Si Si1 0.334563 0.203677 0.108605
Si Si2 0.843229 0.862860 0.984936
Si Si3 0.930737 0.674082 0.679107
Si Si4 0.499798 0.042238 0.158963
Si Si5 0.000000 0.019075 0.750000
Si Si6 0.791739 0.863992 0.233835
Si Si7 0.549388 0.617172 0.389807
Si Si8 0.263748 0.008093 0.395427
O O1 0.213101 0.164833 0.092516
O O2 0.415756 0.113580 0.121082
O O3 0.329844 0.268480 0.184637
O O4 0.374796 0.267638 0.034224
O O5 0.960084 0.913297 0.958999
O O6 0.756988 0.933008 0.033841
O O7 0.967271 0.570506 0.639766
O O8 0.800235 0.670708 0.701640
O O9 0.958207 0.764736 0.621884
O O10 0.000000 0.694586 0.750000
O O11 0.500000 0.060180 0.250000
O O12 0.618070 0.061323 0.112636
O O13 0.022401 0.949107 0.819101
O O14 0.104249 0.090504 0.727594
O O15 0.740552 0.948175 0.183094
O O16 0.672215 0.593016 0.408961
#
# Coordination Sequence:
#
# PCOD8142437 Si02
#       8
#     8   8   8   8   4   8   8   8
#     4  10  24  39  68  89 129 166 211 258 318 379
#     4  10  23  44  64  90 125 176 217 249 312 388
#     4  11  21  36  60  91 127 156 208 254 314 379
#     4  11  24  40  65  95 129 162 207 269 324 368
#     4  10  24  36  64  96 126 160 212 262 328 364
#     4  10  21  39  58  93 125 159 202 262 316 375
#     4  11  23  39  66  90 127 168 212 264 314 371
#     4  10  22  42  61  90 124 167 210 260 310 378
#
# _framework density 20.822873999999999
#
# number of rings (size 3 to 8) (size 9 to 14) (size 15 to 20)
#    0.000    1.600    3.333    1.200    8.400    0.533 
#    0.000    0.667    0.000    0.000    0.000    0.000 
#    0.000    0.000    0.000    0.000    0.000    0.000 
#
# Total GULP energy -371970.004853 kJ/mol
# GULP energy per Si atom -12399.000162 kJ/mol
# Density = 2.077548 g / cm^3
# Si number density = 20.822874 Si / 1000 Ang^3
#
#
#
# Elastic Constant Matrix: (Units=GPa)
#
#
# Indices 1 2 3 4 5 6 
#
# 1 144.2976 56.1785 39.5908 0.0000 -18.7575 0.0000
# 2 56.1785 95.9806 32.8674 0.0000 10.9515 0.0000
# 3 39.5908 32.8674 46.6676 0.0000 -5.1902 0.0000
# 4 0.0000 0.0000 0.0000 -11.3868 0.0000 11.3800
# 5 -18.7575 10.9515 -5.1902 0.0000 32.0107 0.0000
# 6 0.0000 0.0000 0.0000 11.3800 0.0000 36.7497
#
#
#
# Elastic Compliance Matrix: (Units=1/GPa)
#
#
# Indices 1 2 3 4 5 6 
#
# 1 0.011676 -0.006182 -0.004639 0.000000 0.008205 0.000000
# 2 -0.006182 0.018414 -0.008990 0.000000 -0.011380 0.000000
# 3 -0.004639 -0.008990 0.032318 0.000000 0.005597 0.000000
# 4 0.000000 0.000000 0.000000 -0.067066 0.000000 0.020768
# 5 0.008205 -0.011380 0.005597 0.000000 0.040848 0.000000
# 6 0.000000 0.000000 0.000000 0.020768 0.000000 0.020780
#
#
# Mechanical properties :
#
#
# Convention : Reuss Voigt Hill
#
# Bulk Modulus (GPa) = 43.88671 60.46881 52.17776
# Shear Modulus (GPa) = 47.98989 22.02866 35.00927
#
# Velocity S-wave (km/s) = 4.80591 3.25608 4.10480
# Velocity P-wave (km/s) = 7.20539 6.57561 6.89769
#
# Compressibility (1/GPa) = 0.02278594
#
# Stress axis : x y z
#
# Youngs Moduli (GPa) = 85.64378 54.30661 30.94238
#
# Poissons Ratio (x) = 0.33571 0.14356
# Poissons Ratio (y) = 0.52942 0.27817
# Poissons Ratio (z) = 0.39734 0.48822
#
# Static dielectric constant tensor:
#      x y z
#    x 3.950730 0.000000 -0.038980 
#    y 0.000000 3.842730 0.000000 
#    z -0.038980 0.000000 3.506920 
# 
# 
# High freq. dielectric constant tensor:
#      x y z
#    x 1.827560 0.000000 -0.010010 
#    y 0.000000 1.818160 0.000000 
#    z -0.010010 0.000000 1.788840 
# 
# From -- ./inp_files/197884.got.cif
#   From: 2010.06.25/outbox.cif.g09.slc.cpg/sg15_99_cif.got.tgz:197884.got - 2010.06.28 07:06:18.
