data_PCOD8142034
_publ_section_title
;
Structure prediction by ZEFSAII (Michael W. Deem and Ramdas Pophale) SiO2 
 PCOD8142034
Probable space group: C 2/C
;
_chemical_formula_sum "Si O2"
_cell_formula_units_Z 48
_cell_length_a 22.447874
_cell_length_b 8.344135
_cell_length_c 13.720329
_cell_angle_alpha 90.000000
_cell_angle_beta 64.475682
_cell_angle_gamma 90.000000
_cell_volume 2319.109977
_symmetry_space_group_name_H-M "C 2/C"
_symmetry_group_IT_number 15
_symmetry_cell_setting 'monoclinic'
loop_
_space_group_symop_operation_xyz
x,y,z
-x,y,1/2-z
-x,-y,-z
x,-y,1/2+z
1/2+x,1/2+y,z
1/2-x,1/2+y,1/2-z
1/2-x,1/2-y,-z
1/2+x,1/2-y,1/2+z
loop_
_atom_site_type_symbol
_atom_site_label
_atom_site_fract_x
_atom_site_fract_y
_atom_site_fract_z
Si Si1 0.043944 0.988253 0.063686
Si Si2 0.794607 0.382254 0.684562
Si Si3 0.218408 0.576973 0.517282
Si Si4 0.000000 0.761078 0.750000
Si Si5 0.397271 0.986081 0.266151
Si Si6 0.500000 0.241338 0.250000
Si Si7 0.311059 0.512550 0.611078
O O1 0.019078 0.836957 0.140539
O O2 0.040751 0.137004 0.141368
O O3 0.116178 0.961349 0.968796
O O4 0.000000 0.000000 0.000000
O O5 0.788899 0.481830 0.588176
O O6 0.852296 0.472743 0.704008
O O7 0.721967 0.397912 0.784253
O O8 0.809910 0.196285 0.651058
O O9 0.250000 0.750000 0.500000
O O10 0.146234 0.575326 0.613989
O O11 0.268017 0.470010 0.545554
O O12 0.951186 0.655538 0.715731
O O13 0.434880 0.145515 0.268754
#
# Coordination Sequence:
#
# PCOD8142034 Si02
#       7
#     8   8   8   4   8   4   8
#     4  11  24  41  61  86 120 162 200 241 300 359
#     4  10  21  38  61  87 117 154 197 244 298 359
#     4   9  19  36  59  85 115 149 190 240 292 346
#     4  10  22  40  62  86 122 162 200 244 290 354
#     4  10  21  39  62  91 120 156 201 246 297 352
#     4  10  24  40  58  88 124 154 198 254 294 350
#     4  10  22  38  58  87 117 153 198 245 298 354
#
# _framework density 20.697596000000001
#
# number of rings (size 3 to 8) (size 9 to 14) (size 15 to 20)
#    0.000    2.000    0.000    3.000    0.000   10.667 
#    0.000    7.500    0.000    0.000    0.000    0.000 
#    0.000    0.000    0.000    0.000    0.000    0.000 
#
# Total GULP energy -297385.437178 kJ/mol
# GULP energy per Si atom -12391.059882 kJ/mol
# Density = 2.065049 g / cm^3
# Si number density = 20.697596 Si / 1000 Ang^3
#
#
#
# Elastic Constant Matrix: (Units=GPa)
#
#
# Indices 1 2 3 4 5 6 
#
# 1 130.8280 35.7122 72.2068 0.0000 -8.9900 0.0000
# 2 35.7122 77.3396 40.6077 0.0000 -3.3871 -0.0001
# 3 72.2068 40.6077 147.3012 0.0000 5.1518 0.0000
# 4 0.0000 0.0000 0.0000 24.5228 0.0000 -8.2719
# 5 -8.9900 -3.3871 5.1518 0.0000 46.9564 0.0000
# 6 0.0000 -0.0001 0.0000 -8.2719 0.0000 27.1769
#
#
#
# Elastic Compliance Matrix: (Units=1/GPa)
#
#
# Indices 1 2 3 4 5 6 
#
# 1 0.011193 -0.002493 -0.004887 0.000000 0.002499 0.000000
# 2 -0.002493 0.015787 -0.003165 0.000000 0.001009 0.000000
# 3 -0.004887 -0.003165 0.010137 0.000000 -0.002276 0.000000
# 4 0.000000 0.000000 0.000000 0.045444 0.000000 0.013832
# 5 0.002499 0.001009 -0.002276 0.000000 0.022097 0.000000
# 6 0.000000 0.000000 0.000000 0.013832 0.000000 0.041006
#
#
# Mechanical properties :
#
#
# Convention : Reuss Voigt Hill
#
# Bulk Modulus (GPa) = 62.39787 72.50247 67.45017
# Shear Modulus (GPa) = 29.05329 33.52738 31.29033
#
# Velocity S-wave (km/s) = 3.75067 4.02913 3.89239
# Velocity P-wave (km/s) = 6.99782 7.53330 7.27049
#
# Compressibility (1/GPa) = 0.01602619
#
# Stress axis : x y z
#
# Youngs Moduli (GPa) = 89.34040 63.34171 98.65210
#
# Poissons Ratio (x) = 0.15792 0.48211
# Poissons Ratio (y) = 0.22274 0.31227
# Poissons Ratio (z) = 0.43660 0.20050
#
# Static dielectric constant tensor:
#      x y z
#    x 3.938010 0.000000 0.254570 
#    y 0.000000 3.564720 0.000000 
#    z 0.254570 0.000000 4.205330 
# 
# 
# High freq. dielectric constant tensor:
#      x y z
#    x 1.825300 0.000000 0.000150 
#    y 0.000000 1.797180 0.000000 
#    z 0.000150 0.000000 1.822770 
# 
# From -- ./inp_files/116752.got.cif
#   From: 2010.06.25/outbox.cif.g09.slc.cpg/sg15_59_cif.got.tgz:116752.got - 2010.06.28 07:06:18.
