data_PCOD8142542
_publ_section_title
;
Structure prediction by ZEFSAII (Michael W. Deem and Ramdas Pophale) SiO2 
 PCOD8142542
Probable space group: C 2/C
;
_chemical_formula_sum "Si O2"
_cell_formula_units_Z 48
_cell_length_a 25.016524
_cell_length_b 11.335323
_cell_length_c 8.602521
_cell_angle_alpha 90.000000
_cell_angle_beta 93.183126
_cell_angle_gamma 90.000000
_cell_volume 2435.656515
_symmetry_space_group_name_H-M "C 2/C"
_symmetry_group_IT_number 15
_symmetry_cell_setting 'monoclinic'
loop_
_space_group_symop_operation_xyz
x,y,z
-x,y,1/2-z
-x,-y,-z
x,-y,1/2+z
1/2+x,1/2+y,z
1/2-x,1/2+y,1/2-z
1/2-x,1/2-y,-z
1/2+x,1/2-y,1/2+z
loop_
_atom_site_type_symbol
_atom_site_label
_atom_site_fract_x
_atom_site_fract_y
_atom_site_fract_z
Si Si1 0.059530 0.748743 0.255720
Si Si2 0.322004 0.381574 0.734570
Si Si3 0.624948 0.189309 0.541405
Si Si4 0.540425 0.014098 0.643751
Si Si5 0.781433 0.300961 0.649798
Si Si6 0.654578 0.628217 0.625276
O O1 0.083748 0.767476 0.432743
O O2 0.058273 0.610199 0.218057
O O3 0.095756 0.814631 0.133646
O O4 0.000000 0.803648 0.250000
O O5 0.347837 0.267668 0.820960
O O6 0.258026 0.387668 0.761567
O O7 0.349554 0.497059 0.807636
O O8 0.329692 0.372977 0.552100
O O9 0.594954 0.082086 0.618704
O O10 0.667519 0.135143 0.422463
O O11 0.500000 0.085825 0.750000
O O12 0.500000 0.000000 0.500000
O O13 0.750000 0.250000 0.500000
O O14 0.800920 0.199029 0.770114
#
# Coordination Sequence:
#
# PCOD8142542 Si02
#       6
#     8   8   8   8   8   8
#     4  10  21  40  61  88 126 161 202 255 305 360
#     4  11  23  42  64  89 124 161 203 257 302 364
#     4  10  21  39  61  90 123 162 203 253 306 361
#     4  11  21  38  62  90 127 162 199 257 305 356
#     4   9  20  42  62  89 121 157 200 250 299 361
#     4  11  23  42  64  91 121 162 204 249 309 362
#
# _framework density 19.707214
#
# number of rings (size 3 to 8) (size 9 to 14) (size 15 to 20)
#    0.000    1.667    3.333    3.500    2.333    0.000 
#   21.000    4.167    0.000    0.000    0.000    0.000 
#    0.000    0.000    0.000    0.000    0.000    0.000 
#
# Total GULP energy -297384.944371 kJ/mol
# GULP energy per Si atom -12391.039349 kJ/mol
# Density = 1.966236 g / cm^3
# Si number density = 19.707214 Si / 1000 Ang^3
#
#
#
# Elastic Constant Matrix: (Units=GPa)
#
#
# Indices 1 2 3 4 5 6 
#
# 1 156.0248 49.1071 67.2252 0.0000 -25.8082 0.0000
# 2 49.1071 76.6564 35.8827 0.0000 -19.4294 0.0000
# 3 67.2252 35.8827 158.6797 0.0000 -18.3261 0.0000
# 4 0.0000 0.0000 0.0000 26.9549 0.0000 -2.7775
# 5 -25.8082 -19.4294 -18.3261 0.0000 43.4054 0.0000
# 6 0.0000 0.0000 0.0000 -2.7775 0.0000 32.1694
#
#
#
# Elastic Compliance Matrix: (Units=1/GPa)
#
#
# Indices 1 2 3 4 5 6 
#
# 1 0.009270 -0.004014 -0.002724 0.000000 0.002566 0.000000
# 2 -0.004014 0.017640 -0.001737 0.000000 0.004776 0.000000
# 3 -0.002724 -0.001737 0.007960 0.000000 0.000964 0.000000
# 4 0.000000 0.000000 0.000000 0.037432 0.000000 0.003232
# 5 0.002566 0.004776 0.000964 0.000000 0.027109 0.000000
# 6 0.000000 0.000000 0.000000 0.003232 0.000000 0.031364
#
#
# Mechanical properties :
#
#
# Convention : Reuss Voigt Hill
#
# Bulk Modulus (GPa) = 55.79678 77.31009 66.55343
# Shear Modulus (GPa) = 32.53134 36.44900 34.49017
#
# Velocity S-wave (km/s) = 4.06733 4.30528 4.18799
# Velocity P-wave (km/s) = 7.10154 8.00177 7.56506
#
# Compressibility (1/GPa) = 0.01792218
#
# Stress axis : x y z
#
# Youngs Moduli (GPa) = 107.87169 56.68913 125.62907
#
# Poissons Ratio (x) = 0.22752 0.34215
# Poissons Ratio (y) = 0.43295 0.21822
# Poissons Ratio (z) = 0.29379 0.09847
#
# Static dielectric constant tensor:
#      x y z
#    x 4.283910 0.000000 -0.174940 
#    y 0.000000 2.924650 0.000000 
#    z -0.174940 0.000000 3.741290 
# 
# 
# High freq. dielectric constant tensor:
#      x y z
#    x 1.788450 0.000000 -0.003560 
#    y 0.000000 1.733310 0.000000 
#    z -0.003560 0.000000 1.788760 
# 
# From -- ./inp_files/60614.got.cif
#   From: 2010.06.25/outbox.cif.g09.slc.cpg/sg15_31_cif.got.tgz:60614.got - 2010.06.28 07:06:18.
