data_PCOD8142827
_publ_section_title
;
Structure prediction by ZEFSAII (Michael W. Deem and Ramdas Pophale) SiO2 
 PCOD8142827
Probable space group: C 2/C
;
_chemical_formula_sum "Si O2"
_cell_formula_units_Z 60
_cell_length_a 22.745702
_cell_length_b 11.799691
_cell_length_c 12.411335
_cell_angle_alpha 90.000000
_cell_angle_beta 61.001881
_cell_angle_gamma 90.000000
_cell_volume 2913.504137
_symmetry_space_group_name_H-M "C 2/C"
_symmetry_group_IT_number 15
_symmetry_cell_setting 'monoclinic'
loop_
_space_group_symop_operation_xyz
x,y,z
-x,y,1/2-z
-x,-y,-z
x,-y,1/2+z
1/2+x,1/2+y,z
1/2-x,1/2+y,1/2-z
1/2-x,1/2-y,-z
1/2+x,1/2-y,1/2+z
loop_
_atom_site_type_symbol
_atom_site_label
_atom_site_fract_x
_atom_site_fract_y
_atom_site_fract_z
Si Si1 0.182377 0.645482 0.468876
Si Si2 0.608389 0.074772 0.039711
Si Si3 0.830423 0.816347 0.831691
Si Si4 0.424725 0.711918 0.809591
Si Si5 0.435207 0.193490 0.621632
Si Si6 0.424818 0.292180 0.062882
Si Si7 0.429526 0.463139 0.871634
Si Si8 0.500000 0.935466 0.250000
O O1 0.169673 0.511922 0.498373
O O2 0.179545 0.704596 0.586977
O O3 0.257108 0.650366 0.351878
O O4 0.127929 0.702183 0.437966
O O5 0.621879 0.189081 0.098014
O O6 0.540384 0.012516 0.132899
O O7 0.599627 0.099867 0.921536
O O8 0.879551 0.791023 0.687951
O O9 0.864274 0.917535 0.868131
O O10 0.500000 0.760103 0.750000
O O11 0.404155 0.682873 0.704737
O O12 0.421163 0.598543 0.885743
O O13 0.501070 0.239054 0.503352
O O14 0.450809 0.144991 0.726021
O O15 0.427767 0.409430 0.993065
O O16 0.500000 0.429544 0.750000
#
# Coordination Sequence:
#
# PCOD8142827 Si02
#       8
#     8   8   8   8   8   8   8   4
#     4  10  23  39  66  89 129 170 211 266 324 393
#     4  12  23  37  61  99 137 164 206 265 340 379
#     4  10  21  43  63  92 122 168 227 264 310 389
#     4  11  24  38  60  99 138 160 208 278 324 383
#     4  12  21  36  67  96 127 165 218 271 316 383
#     4  11  21  40  67  96 125 172 217 267 329 377
#     4  10  21  39  66  90 122 170 221 268 313 377
#     4  12  20  36  60 102 128 162 206 266 320 388
#
# _framework density 20.593758000000001
#
# number of rings (size 3 to 8) (size 9 to 14) (size 15 to 20)
#    0.000    1.067    6.000    1.200    1.867    3.200 
#    2.400    0.667    5.867    0.000    0.000    0.000 
#    0.000    0.000    0.000    0.000    0.000    0.000 
#
# Total GULP energy -371987.524938 kJ/mol
# GULP energy per Si atom -12399.584165 kJ/mol
# Density = 2.054689 g / cm^3
# Si number density = 20.593758 Si / 1000 Ang^3
#
#
#
# Elastic Constant Matrix: (Units=GPa)
#
#
# Indices 1 2 3 4 5 6 
#
# 1 105.5011 49.1377 45.7762 0.0000 -20.1706 0.0000
# 2 49.1377 135.9525 42.9256 0.0000 2.7860 0.0000
# 3 45.7762 42.9256 82.5675 0.0000 14.4415 0.0000
# 4 0.0000 0.0000 0.0000 24.1008 0.0000 1.2127
# 5 -20.1706 2.7860 14.4415 0.0000 30.6856 0.0000
# 6 0.0000 0.0000 0.0000 1.2127 0.0000 17.7968
#
#
#
# Elastic Compliance Matrix: (Units=1/GPa)
#
#
# Indices 1 2 3 4 5 6 
#
# 1 0.020763 -0.003793 -0.013062 0.000000 0.020140 0.000000
# 2 -0.003793 0.009555 -0.002481 0.000000 -0.002193 0.000000
# 3 -0.013062 -0.002481 0.024088 0.000000 -0.019697 0.000000
# 4 0.000000 0.000000 0.000000 0.041635 0.000000 -0.002837
# 5 0.020140 -0.002193 -0.019697 0.000000 0.055297 0.000000
# 6 0.000000 0.000000 0.000000 -0.002837 0.000000 0.056383
#
#
# Mechanical properties :
#
#
# Convention : Reuss Voigt Hill
#
# Bulk Modulus (GPa) = 63.55628 66.63336 65.09482
# Shear Modulus (GPa) = 19.86985 26.92873 23.39929
#
# Velocity S-wave (km/s) = 3.10957 3.62002 3.37446
# Velocity P-wave (km/s) = 6.61978 7.06393 6.84546
#
# Compressibility (1/GPa) = 0.01573409
#
# Stress axis : x y z
#
# Youngs Moduli (GPa) = 48.16194 104.66074 41.51453
#
# Poissons Ratio (x) = 0.39698 0.54226
# Poissons Ratio (y) = 0.18268 0.10299
# Poissons Ratio (z) = 0.62909 0.25965
#
# Static dielectric constant tensor:
#      x y z
#    x 3.667330 0.000000 -0.072180 
#    y 0.000000 3.765580 0.000000 
#    z -0.072180 0.000000 3.678640 
# 
# 
# High freq. dielectric constant tensor:
#      x y z
#    x 1.787520 0.000000 0.005120 
#    y 0.000000 1.810450 0.000000 
#    z 0.005120 0.000000 1.795610 
# 
# From -- ./inp_files/117536.got.cif
#   From: 2010.06.25/outbox.cif.g09.slc.cpg/sg15_59_cif.got.tgz:117536.got - 2010.06.28 07:06:18.
