data_PCOD8142502
_publ_section_title
;
Structure prediction by ZEFSAII (Michael W. Deem and Ramdas Pophale) SiO2 
 PCOD8142502
Probable space group: C 2/C
;
_chemical_formula_sum "Si O2"
_cell_formula_units_Z 64
_cell_length_a 18.655177
_cell_length_b 23.173702
_cell_length_c 9.184876
_cell_angle_alpha 90.000000
_cell_angle_beta 49.798192
_cell_angle_gamma 90.000000
_cell_volume 3032.731093
_symmetry_space_group_name_H-M "C 2/C"
_symmetry_group_IT_number 15
_symmetry_cell_setting 'monoclinic'
loop_
_space_group_symop_operation_xyz
x,y,z
-x,y,1/2-z
-x,-y,-z
x,-y,1/2+z
1/2+x,1/2+y,z
1/2-x,1/2+y,1/2-z
1/2-x,1/2-y,-z
1/2+x,1/2-y,1/2+z
loop_
_atom_site_type_symbol
_atom_site_label
_atom_site_fract_x
_atom_site_fract_y
_atom_site_fract_z
Si Si1 0.973086 0.114795 0.449223
Si Si2 0.495966 0.276319 0.094191
Si Si3 0.794630 0.040382 0.636076
Si Si4 0.171354 0.930111 0.737256
Si Si5 0.314103 0.776953 0.236246
Si Si6 0.692555 0.826644 0.945819
Si Si7 0.639746 0.882427 0.471352
Si Si8 0.439704 0.149484 0.133052
O O1 0.882449 0.074897 0.586456
O O2 0.000000 0.130146 0.250000
O O3 0.947382 0.175130 0.559388
O O4 0.060530 0.080374 0.402879
O O5 0.500000 0.302825 0.250000
O O6 0.438263 0.216745 0.180633
O O7 0.597851 0.265262 0.892273
O O8 0.797262 0.043317 0.458512
O O9 0.698184 0.064327 0.831787
O O10 0.798992 0.973659 0.674605
O O11 0.220984 0.869081 0.693855
O O12 0.329491 0.819266 0.355540
O O13 0.220873 0.738086 0.358112
O O14 0.303390 0.822184 0.118917
O O15 0.604419 0.852627 0.971122
O O16 0.619770 0.887680 0.670612
O O17 0.544287 0.876569 0.500263
#
# Coordination Sequence:
#
# PCOD8142502 Si02
#       8
#     8   8   8   8   8   8   8   8
#     4  10  24  41  64  93 127 166 210 261 323 380
#     4  11  21  37  58  95 134 165 201 255 316 390
#     4  11  25  43  69  87 126 170 213 268 316 377
#     4  11  24  45  62  96 124 163 220 267 314 385
#     4  10  21  39  60  94 133 160 205 268 308 396
#     4  11  23  37  67  94 126 166 216 264 320 374
#     4  10  21  44  60  90 132 164 212 258 315 384
#     4  10  23  38  63  92 131 169 200 264 324 374
#
# _framework density 21.103090999999999
#
# number of rings (size 3 to 8) (size 9 to 14) (size 15 to 20)
#    0.000    1.500    5.000    0.375    5.250    4.000 
#    0.000    0.625    0.000    0.000    0.000    0.000 
#    0.000    0.000    0.000    0.000    0.000    0.000 
#
# Total GULP energy -396715.684466 kJ/mol
# GULP energy per Si atom -12397.365140 kJ/mol
# Density = 2.105506 g / cm^3
# Si number density = 21.103091 Si / 1000 Ang^3
#
#
#
# Elastic Constant Matrix: (Units=GPa)
#
#
# Indices 1 2 3 4 5 6 
#
# 1 88.6251 21.1884 20.6453 0.0000 2.4992 0.0000
# 2 21.1884 58.4741 15.6436 0.0000 2.1731 0.0000
# 3 20.6453 15.6436 61.8694 0.0000 -12.4283 0.0000
# 4 0.0000 0.0000 0.0000 -3.2082 0.0000 -3.1578
# 5 2.4992 2.1731 -12.4283 0.0000 21.4915 0.0000
# 6 0.0000 0.0000 0.0000 -3.1578 0.0000 26.0422
#
#
#
# Elastic Compliance Matrix: (Units=1/GPa)
#
#
# Indices 1 2 3 4 5 6 
#
# 1 0.013218 -0.003516 -0.004253 0.000000 -0.003641 0.000000
# 2 -0.003516 0.019792 -0.004697 0.000000 -0.004308 0.000000
# 3 -0.004253 -0.004697 0.021457 0.000000 0.013378 0.000000
# 4 0.000000 0.000000 0.000000 -0.278466 0.000000 -0.033766
# 5 -0.003641 -0.004308 0.013378 0.000000 0.055125 0.000000
# 6 0.000000 0.000000 0.000000 -0.033766 0.000000 0.034305
#
#
# Mechanical properties :
#
#
# Convention : Reuss Voigt Hill
#
# Bulk Modulus (GPa) = 33.85767 35.99149 34.92458
# Shear Modulus (GPa) = -50.10395 18.96452 -15.56971
#
# Velocity S-wave (km/s) = -4.87791 3.00102 -2.71918
# Velocity P-wave (km/s) = 3.95558 5.39447 2.59362
#
# Compressibility (1/GPa) = 0.02953541
#
# Stress axis : x y z
#
# Youngs Moduli (GPa) = 75.65697 50.52459 46.60471
#
# Poissons Ratio (x) = 0.17766 0.19820
# Poissons Ratio (y) = 0.26604 0.21888
# Poissons Ratio (z) = 0.32176 0.23729
#
# Static dielectric constant tensor:
#      x y z
#    x 3.776760 0.000000 -0.017400 
#    y 0.000000 3.591490 0.000000 
#    z -0.017400 0.000000 3.841730 
# 
# 
# High freq. dielectric constant tensor:
#      x y z
#    x 1.813750 0.000000 -0.004500 
#    y 0.000000 1.814500 0.000000 
#    z -0.004500 0.000000 1.833830 
# 
# From -- ./inp_files/57837.got.cif
#   From: 2010.06.25/outbox.cif.g09.slc.cpg/sg15_29_cif.got.tgz:57837.got - 2010.06.28 07:06:18.
