data_PCOD8142585
_publ_section_title
;
Structure prediction by ZEFSAII (Michael W. Deem and Ramdas Pophale) SiO2 
 PCOD8142585
Probable space group: C 2/C
;
_chemical_formula_sum "Si O2"
_cell_formula_units_Z 56
_cell_length_a 11.452106
_cell_length_b 20.335084
_cell_length_c 15.044028
_cell_angle_alpha 90.000000
_cell_angle_beta 50.756928
_cell_angle_gamma 90.000000
_cell_volume 2713.311040
_symmetry_space_group_name_H-M "C 2/C"
_symmetry_group_IT_number 15
_symmetry_cell_setting 'monoclinic'
loop_
_space_group_symop_operation_xyz
x,y,z
-x,y,1/2-z
-x,-y,-z
x,-y,1/2+z
1/2+x,1/2+y,z
1/2-x,1/2+y,1/2-z
1/2-x,1/2-y,-z
1/2+x,1/2-y,1/2+z
loop_
_atom_site_type_symbol
_atom_site_label
_atom_site_fract_x
_atom_site_fract_y
_atom_site_fract_z
Si Si1 0.634091 0.551127 0.938036
Si Si2 0.643528 0.911086 0.321801
Si Si3 0.086251 0.509157 0.116486
Si Si4 0.954517 0.711158 0.860905
Si Si5 0.527017 0.272288 0.132112
Si Si6 0.809643 0.644150 0.509382
Si Si7 0.378420 0.307282 0.036964
O O1 0.715033 0.562165 0.803328
O O2 0.754661 0.528097 0.953355
O O3 0.558436 0.619248 0.006238
O O4 0.500000 0.500000 0.000000
O O5 0.555225 0.854464 0.311118
O O6 0.703940 0.879397 0.382858
O O7 0.524641 0.970795 0.399116
O O8 0.120605 0.584417 0.078816
O O9 0.000000 0.506383 0.250000
O O10 0.781135 0.692065 0.934468
O O11 0.000000 0.751609 0.750000
O O12 0.984956 0.755642 0.933148
O O13 0.500000 0.262024 0.250000
O O14 0.582041 0.205373 0.060295
O O15 0.379120 0.290168 0.143398
O O16 0.643065 0.332558 0.059994
#
# Coordination Sequence:
#
# PCOD8142585 Si02
#       7
#     8   8   8   8   8   8   8
#     4  11  22  39  65  93 129 168 216 271 333 389
#     4  11  20  42  65  92 124 177 221 261 330 397
#     4  10  21  39  62  90 123 171 220 263 323 391
#     4  11  21  39  67  95 123 173 221 273 327 387
#     4  11  24  39  60  93 132 171 210 273 333 390
#     4  11  23  39  61  90 130 170 219 261 327 400
#     4  11  22  39  65  96 129 164 225 272 322 390
#
# _framework density 20.638991999999998
#
# number of rings (size 3 to 8) (size 9 to 14) (size 15 to 20)
#    0.000    1.143    4.286    3.000    0.000    0.000 
#    0.000    4.286    0.000    0.000    0.000    0.000 
#    0.000    0.000    0.000    0.000    0.000    0.000 
#
# Total GULP energy -346944.301308 kJ/mol
# GULP energy per Si atom -12390.867904 kJ/mol
# Density = 2.059202 g / cm^3
# Si number density = 20.638992 Si / 1000 Ang^3
#
#
#
# Elastic Constant Matrix: (Units=GPa)
#
#
# Indices 1 2 3 4 5 6 
#
# 1 85.4672 54.3574 33.6926 0.0000 5.5386 0.0000
# 2 54.3574 143.9251 52.8087 0.0000 -1.8367 0.0000
# 3 33.6926 52.8087 75.3880 0.0000 -2.5484 0.0000
# 4 0.0000 0.0000 0.0000 30.8984 0.0000 -5.6224
# 5 5.5386 -1.8367 -2.5484 0.0000 30.0931 0.0000
# 6 0.0000 0.0000 0.0000 -5.6224 0.0000 17.6075
#
#
#
# Elastic Compliance Matrix: (Units=1/GPa)
#
#
# Indices 1 2 3 4 5 6 
#
# 1 0.016647 -0.004790 -0.004210 0.000000 -0.003713 0.000000
# 2 -0.004790 0.010730 -0.005339 0.000000 0.001084 0.000000
# 3 -0.004210 -0.005339 0.018956 0.000000 0.002054 0.000000
# 4 0.000000 0.000000 0.000000 0.034361 0.000000 0.010972
# 5 -0.003713 0.001084 0.002054 0.000000 0.034154 0.000000
# 6 0.000000 0.000000 0.000000 0.010972 0.000000 0.060297
#
#
# Mechanical properties :
#
#
# Convention : Reuss Voigt Hill
#
# Bulk Modulus (GPa) = 56.64197 65.16641 60.90419
# Shear Modulus (GPa) = 23.84282 26.64793 25.24538
#
# Velocity S-wave (km/s) = 3.40256 3.59715 3.50121
# Velocity P-wave (km/s) = 6.55288 6.99254 6.77628
#
# Compressibility (1/GPa) = 0.01765475
#
# Stress axis : x y z
#
# Youngs Moduli (GPa) = 60.07058 93.19841 52.75487
#
# Poissons Ratio (x) = 0.44640 0.22211
# Poissons Ratio (y) = 0.28773 0.28165
# Poissons Ratio (z) = 0.25291 0.49757
#
# Static dielectric constant tensor:
#      x y z
#    x 3.821170 0.000000 0.029450 
#    y 0.000000 4.056610 0.000000 
#    z 0.029450 0.000000 3.769990 
# 
# 
# High freq. dielectric constant tensor:
#      x y z
#    x 1.813110 0.000000 0.005310 
#    y 0.000000 1.818460 0.000000 
#    z 0.005310 0.000000 1.793380 
# 
# From -- ./inp_files/145962.got.cif
#   From: 2010.06.25/outbox.cif.g09.slc.cpg/sg15_73_cif.got.tgz:145962.got - 2010.06.28 07:06:18.
