data_PCOD8142298
_publ_section_title
;
Structure prediction by ZEFSAII (Michael W. Deem and Ramdas Pophale) SiO2 
 PCOD8142298
Probable space group: C 2/C
;
_chemical_formula_sum "Si O2"
_cell_formula_units_Z 44
_cell_length_a 30.515243
_cell_length_b 10.923698
_cell_length_c 20.365773
_cell_angle_alpha 90.000000
_cell_angle_beta 19.174465
_cell_angle_gamma 90.000000
_cell_volume 2229.723658
_symmetry_space_group_name_H-M "C 2/C"
_symmetry_group_IT_number 15
_symmetry_cell_setting 'monoclinic'
loop_
_space_group_symop_operation_xyz
x,y,z
-x,y,1/2-z
-x,-y,-z
x,-y,1/2+z
1/2+x,1/2+y,z
1/2-x,1/2+y,1/2-z
1/2-x,1/2-y,-z
1/2+x,1/2-y,1/2+z
loop_
_atom_site_type_symbol
_atom_site_label
_atom_site_fract_x
_atom_site_fract_y
_atom_site_fract_z
Si Si1 0.144421 0.034658 0.870232
Si Si2 0.916559 0.569530 0.173395
Si Si3 0.733854 0.381767 0.387470
Si Si4 0.000000 0.270761 0.250000
Si Si5 0.065214 0.495548 0.592285
Si Si6 0.026935 0.803617 0.978147
O O1 0.277820 0.034094 0.636377
O O2 0.079483 0.898749 0.958951
O O3 0.177028 0.074520 0.897751
O O4 0.033726 0.127041 0.998653
O O5 0.772929 0.503833 0.373441
O O6 0.986740 0.557237 0.143015
O O7 0.000000 0.500000 0.000000
O O8 0.908471 0.715585 0.172725
O O9 0.624508 0.317084 0.587939
O O10 0.853195 0.285588 0.211513
O O11 0.960608 0.356935 0.367958
O O12 0.000000 0.434831 0.750000
#
# Coordination Sequence:
#
# PCOD8142298 Si02
#       6
#     8   8   8   4   8   8
#     4  11  22  40  66  95 129 174 225 261 331 394
#     4  10  21  38  65  95 124 170 220 262 326 389
#     4  11  23  39  68  95 131 168 223 275 324 386
#     4  10  24  40  64  94 132 166 212 282 324 378
#     4  10  21  40  64  91 131 171 212 273 330 376
#     4  10  22  37  65  95 122 174 219 267 317 400
#
# _framework density 19.733388000000001
#
# number of rings (size 3 to 8) (size 9 to 14) (size 15 to 20)
#    0.545    1.091    5.455    0.000    7.636    0.727 
#    6.545    0.909    4.000    0.000    0.000    0.000 
#    0.000    0.000    0.000    0.000    0.000    0.000 
#
# Total GULP energy -272569.153232 kJ/mol
# GULP energy per Si atom -12389.506965 kJ/mol
# Density = 1.968847 g / cm^3
# Si number density = 19.733388 Si / 1000 Ang^3
#
#
#
# Elastic Constant Matrix: (Units=GPa)
#
#
# Indices 1 2 3 4 5 6 
#
# 1 93.3733 39.2852 21.5929 0.0000 -15.9075 0.0000
# 2 39.2852 130.3923 43.5452 0.0000 -20.1294 0.0000
# 3 21.5929 43.5452 63.0077 -0.0001 -13.2301 0.0000
# 4 0.0000 0.0000 -0.0001 40.7500 0.0000 -12.3803
# 5 -15.9075 -20.1294 -13.2301 0.0000 29.4592 0.0000
# 6 0.0000 0.0000 0.0000 -12.3803 0.0000 23.8334
#
#
#
# Elastic Compliance Matrix: (Units=1/GPa)
#
#
# Indices 1 2 3 4 5 6 
#
# 1 0.012973 -0.002666 -0.001673 0.000000 0.004433 0.000000
# 2 -0.002666 0.010989 -0.005970 0.000000 0.003388 0.000000
# 3 -0.001673 -0.005970 0.021557 0.000000 0.004699 0.000000
# 4 0.000000 0.000000 0.000000 0.029138 0.000000 0.015136
# 5 0.004433 0.003388 0.004699 0.000000 0.040764 0.000000
# 6 0.000000 0.000000 0.000000 0.015136 0.000000 0.049820
#
#
# Mechanical properties :
#
#
# Convention : Reuss Voigt Hill
#
# Bulk Modulus (GPa) = 40.15665 55.06889 47.61277
# Shear Modulus (GPa) = 25.75211 30.96520 28.35866
#
# Velocity S-wave (km/s) = 3.61640 3.96558 3.79501
# Velocity P-wave (km/s) = 6.15074 6.99534 6.58659
#
# Compressibility (1/GPa) = 0.02490247
#
# Stress axis : x y z
#
# Youngs Moduli (GPa) = 77.08160 91.00064 46.38940
#
# Poissons Ratio (x) = 0.24258 0.07761
# Poissons Ratio (y) = 0.20547 0.27692
# Poissons Ratio (z) = 0.12896 0.54323
#
# Static dielectric constant tensor:
#      x y z
#    x 3.345990 0.000000 -0.260760 
#    y 0.000000 2.982420 0.000000 
#    z -0.260760 0.000000 3.883700 
# 
# 
# High freq. dielectric constant tensor:
#      x y z
#    x 1.755560 0.000000 -0.021700 
#    y 0.000000 1.780350 0.000000 
#    z -0.021700 0.000000 1.758070 
# 
# From -- ./inp_files/259145.got.cif
#   From: 2010.06.25/outbox.cif.g09.slc.cpg/sg15_130_cif.got.tgz:259145.got - 2010.06.28 07:06:18.
