data_PCOD8142588
_publ_section_title
;
Structure prediction by ZEFSAII (Michael W. Deem and Ramdas Pophale) SiO2 
 PCOD8142588
Probable space group: C 2/C
;
_chemical_formula_sum "Si O2"
_cell_formula_units_Z 40
_cell_length_a 18.181025
_cell_length_b 11.397216
_cell_length_c 16.223510
_cell_angle_alpha 90.000000
_cell_angle_beta 36.250149
_cell_angle_gamma 90.000000
_cell_volume 1987.826471
_symmetry_space_group_name_H-M "C 2/C"
_symmetry_group_IT_number 15
_symmetry_cell_setting 'monoclinic'
loop_
_space_group_symop_operation_xyz
x,y,z
-x,y,1/2-z
-x,-y,-z
x,-y,1/2+z
1/2+x,1/2+y,z
1/2-x,1/2+y,1/2-z
1/2-x,1/2-y,-z
1/2+x,1/2-y,1/2+z
loop_
_atom_site_type_symbol
_atom_site_label
_atom_site_fract_x
_atom_site_fract_y
_atom_site_fract_z
Si Si1 0.027496 0.146682 0.894878
Si Si2 0.500000 0.999275 0.250000
Si Si3 0.266087 0.382762 0.012665
Si Si4 0.500000 0.528895 0.750000
Si Si5 0.186370 0.013339 0.858899
Si Si6 0.549204 0.085691 0.384061
O O1 0.016285 0.280854 0.933083
O O2 0.006337 0.121151 0.818436
O O3 0.162486 0.095905 0.800982
O O4 0.922688 0.081150 0.040883
O O5 0.627092 0.928495 0.127002
O O6 0.499886 0.069908 0.335600
O O7 0.308486 0.397414 0.068623
O O8 0.250000 0.250000 0.000000
O O9 0.374473 0.449124 0.862315
O O10 0.304830 0.932148 0.745363
O O11 0.500000 0.000000 0.500000
#
# Coordination Sequence:
#
# PCOD8142588 Si02
#       6
#     8   4   8   4   8   8
#     4  10  22  42  63  88 128 158 209 262 305 384
#     4  10  24  42  56  96 126 149 219 254 300 382
#     4  10  21  39  62  90 126 163 204 257 310 370
#     4  10  22  38  66  92 118 179 205 250 334 358
#     4   9  23  41  59  94 123 158 209 254 310 373
#     4  11  25  40  66  93 120 170 207 257 323 369
#
# _framework density 20.122481000000001
#
# number of rings (size 3 to 8) (size 9 to 14) (size 15 to 20)
#    0.000    2.000    0.000    1.200    8.400    0.000 
#    7.200    6.000    0.000    0.000    0.000    0.000 
#    0.000    0.000    0.000    0.000    0.000    0.000 
#
# Total GULP energy -247763.198748 kJ/mol
# GULP energy per Si atom -12388.159937 kJ/mol
# Density = 2.007668 g / cm^3
# Si number density = 20.122481 Si / 1000 Ang^3
#
#
#
# Elastic Constant Matrix: (Units=GPa)
#
#
# Indices 1 2 3 4 5 6 
#
# 1 116.9058 68.9864 30.5341 0.0000 2.3380 0.0000
# 2 68.9864 170.1108 45.2751 0.0000 5.7804 0.0000
# 3 30.5341 45.2751 81.0500 0.0000 0.8857 0.0000
# 4 0.0000 0.0000 0.0000 19.3375 0.0000 -1.8113
# 5 2.3380 5.7804 0.8857 0.0000 29.4930 0.0000
# 6 0.0000 0.0000 0.0000 -1.8113 0.0000 17.0907
#
#
#
# Elastic Compliance Matrix: (Units=1/GPa)
#
#
# Indices 1 2 3 4 5 6 
#
# 1 0.011523 -0.004130 -0.002033 0.000000 -0.000043 0.000000
# 2 -0.004130 0.008431 -0.003140 0.000000 -0.001231 0.000000
# 3 -0.002033 -0.003140 0.014855 0.000000 0.000331 0.000000
# 4 0.000000 0.000000 0.000000 0.052232 0.000000 0.005536
# 5 -0.000043 -0.001231 0.000331 0.000000 0.034141 0.000000
# 6 0.000000 0.000000 0.000000 0.005536 0.000000 0.059098
#
#
# Mechanical properties :
#
#
# Convention : Reuss Voigt Hill
#
# Bulk Modulus (GPa) = 61.72481 73.07308 67.39894
# Shear Modulus (GPa) = 24.47524 28.06896 26.27210
#
# Velocity S-wave (km/s) = 3.49135 3.73890 3.61724
# Velocity P-wave (km/s) = 6.85521 7.41836 7.14234
#
# Compressibility (1/GPa) = 0.01620094
#
# Stress axis : x y z
#
# Youngs Moduli (GPa) = 86.78108 118.60761 67.31913
#
# Poissons Ratio (x) = 0.48990 0.13689
# Poissons Ratio (y) = 0.35845 0.21139
# Poissons Ratio (z) = 0.17646 0.37245
#
# Static dielectric constant tensor:
#      x y z
#    x 3.842450 0.000000 -0.112290 
#    y 0.000000 3.627550 0.000000 
#    z -0.112290 0.000000 3.837610 
# 
# 
# High freq. dielectric constant tensor:
#      x y z
#    x 1.810030 0.000000 -0.006670 
#    y 0.000000 1.782660 0.000000 
#    z -0.006670 0.000000 1.785390 
# 
# From -- ./inp_files/103221.got.cif
#   From: 2010.06.25/outbox.cif.g09.slc.cpg/sg15_52_cif.got.tgz:103221.got - 2010.06.28 07:06:18.
