data_PCOD8142862
_publ_section_title
;
Structure prediction by ZEFSAII (Michael W. Deem and Ramdas Pophale) SiO2 
 PCOD8142862
Probable space group: C 2/C
;
_chemical_formula_sum "Si O2"
_cell_formula_units_Z 56
_cell_length_a 16.374183
_cell_length_b 9.524662
_cell_length_c 19.781697
_cell_angle_alpha 90.000000
_cell_angle_beta 60.550313
_cell_angle_gamma 90.000000
_cell_volume 2686.489079
_symmetry_space_group_name_H-M "C 2/C"
_symmetry_group_IT_number 15
_symmetry_cell_setting 'monoclinic'
loop_
_space_group_symop_operation_xyz
x,y,z
-x,y,1/2-z
-x,-y,-z
x,-y,1/2+z
1/2+x,1/2+y,z
1/2-x,1/2+y,1/2-z
1/2-x,1/2-y,-z
1/2+x,1/2-y,1/2+z
loop_
_atom_site_type_symbol
_atom_site_label
_atom_site_fract_x
_atom_site_fract_y
_atom_site_fract_z
Si Si1 0.400666 0.345494 0.768301
Si Si2 0.201791 0.406114 0.437283
Si Si3 0.616287 0.327171 0.054544
Si Si4 0.420766 0.381125 0.183261
Si Si5 0.759629 0.709380 0.071941
Si Si6 0.232387 0.760221 0.798144
Si Si7 0.660508 0.505853 0.909462
O O1 0.500000 0.275189 0.750000
O O2 0.416289 0.509508 0.746355
O O3 0.340758 0.339673 0.860494
O O4 0.345161 0.269810 0.729684
O O5 0.302981 0.364654 0.425727
O O6 0.126760 0.322389 0.512924
O O7 0.174651 0.570827 0.451201
O O8 0.198764 0.367420 0.359220
O O9 0.522350 0.309256 0.137454
O O10 0.616310 0.447233 0.996373
O O11 0.335959 0.268403 0.225182
O O12 0.418606 0.470514 0.114465
O O13 0.794911 0.841399 0.099432
O O14 0.750000 0.750000 0.000000
O O15 0.236563 0.899359 0.844351
#
# Coordination Sequence:
#
# PCOD8142862 Si02
#       7
#     8   8   8   8   8   8   8
#     4  11  24  42  67 100 128 172 227 272 330 399
#     4  10  21  40  64  95 131 175 216 268 335 392
#     4  10  21  39  66  96 129 168 227 274 321 398
#     4  11  21  39  70  97 127 174 229 274 327 394
#     4  12  22  40  66  92 133 177 214 268 335 390
#     4  10  22  41  66  94 132 169 218 278 326 385
#     4  10  22  39  63  95 134 171 217 270 334 391
#
# _framework density 20.845050000000001
#
# number of rings (size 3 to 8) (size 9 to 14) (size 15 to 20)
#    0.000    1.429    4.286    1.286    0.000    0.000 
#    0.000    2.143    0.000    0.000    0.000    0.000 
#    0.000    0.000    0.000    0.000    0.000    0.000 
#
# Total GULP energy -346996.965823 kJ/mol
# GULP energy per Si atom -12392.748779 kJ/mol
# Density = 2.079761 g / cm^3
# Si number density = 20.845050 Si / 1000 Ang^3
#
#
#
# Elastic Constant Matrix: (Units=GPa)
#
#
# Indices 1 2 3 4 5 6 
#
# 1 84.5865 35.1357 51.5807 0.0000 -5.9514 0.0000
# 2 35.1357 138.7040 53.0844 0.0000 -8.4944 0.0000
# 3 51.5807 53.0844 134.0428 0.0000 -5.8271 0.0000
# 4 0.0000 0.0000 0.0000 27.2926 0.0000 -1.4249
# 5 -5.9514 -8.4944 -5.8271 0.0000 34.9659 0.0000
# 6 0.0000 0.0000 0.0000 -1.4249 0.0000 22.7056
#
#
#
# Elastic Compliance Matrix: (Units=1/GPa)
#
#
# Indices 1 2 3 4 5 6 
#
# 1 0.015962 -0.001923 -0.005321 0.000000 0.001363 0.000000
# 2 -0.001923 0.008810 -0.002689 0.000000 0.001365 0.000000
# 3 -0.005321 -0.002689 0.010582 0.000000 0.000204 0.000000
# 4 0.000000 0.000000 0.000000 0.036760 0.000000 0.002307
# 5 0.001363 0.001365 0.000204 0.000000 0.029197 0.000000
# 6 0.000000 0.000000 0.000000 0.002307 0.000000 0.044187
#
#
# Mechanical properties :
#
#
# Convention : Reuss Voigt Hill
#
# Bulk Modulus (GPa) = 64.57711 70.77054 67.67383
# Shear Modulus (GPa) = 29.32075 31.49498 30.40786
#
# Velocity S-wave (km/s) = 3.75454 3.89126 3.82351
# Velocity P-wave (km/s) = 7.05991 7.36299 7.21304
#
# Compressibility (1/GPa) = 0.01548536
#
# Stress axis : x y z
#
# Youngs Moduli (GPa) = 62.64887 113.51173 94.50048
#
# Poissons Ratio (x) = 0.21832 0.50287
# Poissons Ratio (y) = 0.12050 0.25415
# Poissons Ratio (z) = 0.33338 0.30528
#
# Static dielectric constant tensor:
#      x y z
#    x 3.180210 0.000000 -0.292970 
#    y 0.000000 8.583260 0.000000 
#    z -0.292970 0.000000 3.483110 
# 
# 
# High freq. dielectric constant tensor:
#      x y z
#    x 1.798330 0.000000 0.021040 
#    y 0.000000 1.808370 0.000000 
#    z 0.021040 0.000000 1.834290 
# 
# From -- ./inp_files/247362.got.cif
#   From: 2010.06.25/outbox.cif.g09.slc.cpg/sg15_124_cif.got.tgz:247362.got - 2010.06.28 07:06:18.
