data_PCOD8142374
_publ_section_title
;
Structure prediction by ZEFSAII (Michael W. Deem and Ramdas Pophale) SiO2 
 PCOD8142374
Probable space group: C 2/C
;
_chemical_formula_sum "Si O2"
_cell_formula_units_Z 64
_cell_length_a 12.293739
_cell_length_b 10.706816
_cell_length_c 22.968851
_cell_angle_alpha 90.000000
_cell_angle_beta 71.401291
_cell_angle_gamma 90.000000
_cell_volume 2865.425495
_symmetry_space_group_name_H-M "C 2/C"
_symmetry_group_IT_number 15
_symmetry_cell_setting 'monoclinic'
loop_
_space_group_symop_operation_xyz
x,y,z
-x,y,1/2-z
-x,-y,-z
x,-y,1/2+z
1/2+x,1/2+y,z
1/2-x,1/2+y,1/2-z
1/2-x,1/2-y,-z
1/2+x,1/2-y,1/2+z
loop_
_atom_site_type_symbol
_atom_site_label
_atom_site_fract_x
_atom_site_fract_y
_atom_site_fract_z
Si Si1 0.398255 0.456294 0.152685
Si Si2 0.342189 0.598458 0.051286
Si Si3 0.968953 0.324964 0.648548
Si Si4 0.694942 0.747677 0.662234
Si Si5 0.749212 0.896187 0.758320
Si Si6 0.192494 0.471743 0.977511
Si Si7 0.017881 0.676170 0.008212
Si Si8 0.861550 0.035150 0.348289
O O1 0.390765 0.495306 0.086653
O O2 0.410234 0.309788 0.153757
O O3 0.285518 0.490684 0.209311
O O4 0.504432 0.534890 0.160728
O O5 0.274388 0.706150 0.096484
O O6 0.261887 0.522017 0.021207
O O7 0.446043 0.677010 0.002647
O O8 0.875542 0.421005 0.690913
O O9 0.007330 0.364985 0.577678
O O10 0.074282 0.319812 0.675243
O O11 0.745674 0.774540 0.717534
O O12 0.680115 0.601649 0.661887
O O13 0.839372 0.876934 0.795980
O O14 0.103231 0.355565 0.004126
O O15 0.285684 0.420361 0.915755
O O16 0.117362 0.587008 0.965021
#
# Coordination Sequence:
#
# PCOD8142374 Si02
#       8
#     8   8   8   8   8   8   8   8
#     4  10  25  41  65  92 127 170 224 264 331 405
#     4  11  21  42  65  98 132 173 206 274 331 391
#     4  11  21  41  63  93 123 169 218 267 328 394
#     4  10  21  38  68  89 120 168 219 264 327 395
#     4  11  22  38  61  92 123 161 218 277 321 380
#     4  11  22  38  66 102 132 163 220 270 328 410
#     4  11  22  38  66 101 132 167 215 270 333 403
#     4  11  21  41  65  91 124 173 212 270 329 397
#
# _framework density 22.335251
#
# number of rings (size 3 to 8) (size 9 to 14) (size 15 to 20)
#    0.000    1.250    3.750    3.375    0.000    4.000 
#    2.250    1.250    0.000    3.000    0.000    0.000 
#    0.000    0.000    0.000    0.000    0.000    0.000 
#
# Total GULP energy -396638.567677 kJ/mol
# GULP energy per Si atom -12394.955240 kJ/mol
# Density = 2.228441 g / cm^3
# Si number density = 22.335251 Si / 1000 Ang^3
#
#
#
# Elastic Constant Matrix: (Units=GPa)
#
#
# Indices 1 2 3 4 5 6 
#
# 1 123.4744 52.0358 47.5120 0.0000 17.6855 0.0000
# 2 52.0358 39.5229 25.7285 0.0000 5.5950 0.0000
# 3 47.5120 25.7285 122.0879 0.0000 11.8678 0.0000
# 4 0.0000 0.0000 0.0000 30.0837 0.0000 -2.2376
# 5 17.6855 5.5950 11.8678 0.0000 43.8429 0.0000
# 6 0.0000 0.0000 0.0000 -2.2376 0.0000 36.9981
#
#
#
# Elastic Compliance Matrix: (Units=1/GPa)
#
#
# Indices 1 2 3 4 5 6 
#
# 1 0.019539 -0.023692 -0.002197 0.000000 -0.004264 0.000000
# 2 -0.023692 0.058246 -0.003349 0.000000 0.003030 0.000000
# 3 -0.002197 -0.003349 0.009884 0.000000 -0.001362 0.000000
# 4 0.000000 0.000000 0.000000 0.033391 0.000000 0.002019
# 5 -0.004264 0.003030 -0.001362 0.000000 0.024511 0.000000
# 6 0.000000 0.000000 0.000000 0.002019 0.000000 0.027151
#
#
# Mechanical properties :
#
#
# Convention : Reuss Voigt Hill
#
# Bulk Modulus (GPa) = 34.25431 59.51529 46.88480
# Shear Modulus (GPa) = 20.75316 32.83887 26.79601
#
# Velocity S-wave (km/s) = 3.05153 3.83857 3.46745
# Velocity P-wave (km/s) = 5.27120 6.80811 6.08834
#
# Compressibility (1/GPa) = 0.02919341
#
# Stress axis : x y z
#
# Youngs Moduli (GPa) = 51.17902 17.16867 101.17471
#
# Poissons Ratio (x) = 0.40676 0.22225
# Poissons Ratio (y) = 1.21252 0.33885
# Poissons Ratio (z) = 0.11243 0.05750
#
# Static dielectric constant tensor:
#      x y z
#    x 4.263590 0.000000 -0.121500 
#    y 0.000000 3.668030 0.000000 
#    z -0.121500 0.000000 4.245000 
# 
# 
# High freq. dielectric constant tensor:
#      x y z
#    x 1.883590 0.000000 -0.007750 
#    y 0.000000 1.846400 0.000000 
#    z -0.007750 0.000000 1.894510 
# 
# From -- ./inp_files/268814.got.cif
#   From: 2010.06.25/outbox.cif.g09.slc.cpg/sg15_135_cif.got.tgz:268814.got - 2010.06.28 07:06:18.
