data_PCOD8142188
_publ_section_title
;
Structure prediction by ZEFSAII (Michael W. Deem and Ramdas Pophale) SiO2 
 PCOD8142188
Probable space group: C 2/C
;
_chemical_formula_sum "Si O2"
_cell_formula_units_Z 40
_cell_length_a 12.225615
_cell_length_b 28.629614
_cell_length_c 12.314181
_cell_angle_alpha 90.000000
_cell_angle_beta 156.284998
_cell_angle_gamma 90.000000
_cell_volume 1733.485946
_symmetry_space_group_name_H-M "C 2/C"
_symmetry_group_IT_number 15
_symmetry_cell_setting 'monoclinic'
loop_
_space_group_symop_operation_xyz
x,y,z
-x,y,1/2-z
-x,-y,-z
x,-y,1/2+z
1/2+x,1/2+y,z
1/2-x,1/2+y,1/2-z
1/2-x,1/2-y,-z
1/2+x,1/2-y,1/2+z
loop_
_atom_site_type_symbol
_atom_site_label
_atom_site_fract_x
_atom_site_fract_y
_atom_site_fract_z
Si Si1 0.753188 0.550053 0.822046
Si Si2 0.000000 0.122530 0.750000
Si Si3 0.596611 0.779859 0.606021
Si Si4 0.223948 0.353942 0.545686
Si Si5 0.000000 0.682408 0.250000
Si Si6 0.829765 0.051990 0.256172
O O1 0.660609 0.592023 0.811206
O O2 0.614350 0.557851 0.578194
O O3 0.671708 0.499729 0.799390
O O4 0.078452 0.553594 0.111907
O O5 0.776421 0.153341 0.485448
O O6 0.388253 0.744076 0.362639
O O7 0.615044 0.827962 0.554605
O O8 0.484127 0.787476 0.625785
O O9 0.500000 0.330445 0.750000
O O10 0.293910 0.407910 0.634892
O O11 0.000000 0.351426 0.250000
#
# Coordination Sequence:
#
# PCOD8142188 Si02
#       6
#     8   4   8   8   4   8
#     4  10  21  38  63  91 131 174 221 275 323 377
#     4  12  22  37  66 100 132 168 212 271 332 406
#     4  12  26  47  73  99 133 172 226 287 347 411
#     4  12  26  43  68 100 136 184 221 278 335 407
#     4  12  26  45  72 102 134 172 222 285 350 406
#     4  10  22  42  60  90 130 177 225 270 319 387
#
# _framework density 23.074891999999998
#
# number of rings (size 3 to 8) (size 9 to 14) (size 15 to 20)
#    0.000    0.800    0.000    7.800    1.400    2.400 
#    1.800    0.000    0.000    0.000    0.000    0.000 
#    0.000    0.000    0.000    0.000    0.000    0.000 
#
# Total GULP energy -248059.689802 kJ/mol
# GULP energy per Si atom -12402.984490 kJ/mol
# Density = 2.302237 g / cm^3
# Si number density = 23.074892 Si / 1000 Ang^3
#
#
#
# Elastic Constant Matrix: (Units=GPa)
#
#
# Indices 1 2 3 4 5 6 
#
# 1 80.1312 25.9892 26.7651 -0.0006 -3.1417 -0.0006
# 2 25.9892 94.9892 39.6561 0.0000 -11.4599 0.0001
# 3 26.7651 39.6561 119.8000 -0.0011 -11.3099 -0.0018
# 4 -0.0006 0.0000 -0.0011 28.7517 -0.0009 2.6277
# 5 -3.1417 -11.4599 -11.3099 -0.0009 24.5079 -0.0011
# 6 -0.0006 0.0001 -0.0018 2.6277 -0.0011 1.8702
#
#
#
# Elastic Compliance Matrix: (Units=1/GPa)
#
#
# Indices 1 2 3 4 5 6 
#
# 1 0.014180 -0.003026 -0.002225 0.000000 -0.000624 0.000002
# 2 -0.003026 0.013253 -0.003306 0.000000 0.004283 -0.000002
# 3 -0.002225 -0.003306 0.010211 -0.000001 0.002881 0.000012
# 4 0.000000 0.000000 -0.000001 0.039905 -0.000001 -0.056066
# 5 -0.000624 0.004283 0.002881 -0.000001 0.044055 0.000031
# 6 0.000002 -0.000002 0.000012 -0.056066 0.000031 0.613462
#
#
# Mechanical properties :
#
#
# Convention : Reuss Voigt Hill
#
# Bulk Modulus (GPa) = 48.71414 53.30457 51.00935
# Shear Modulus (GPa) = 6.58741 24.52664 15.55703
#
# Velocity S-wave (km/s) = 1.69145 3.26377 2.59935
# Velocity P-wave (km/s) = 4.99718 6.11177 5.58237
#
# Compressibility (1/GPa) = 0.02052792
#
# Stress axis : x y z
#
# Youngs Moduli (GPa) = 70.52319 75.45743 97.93490
#
# Poissons Ratio (x) = 0.22833 0.21793
# Poissons Ratio (y) = 0.21340 0.32382
# Poissons Ratio (z) = 0.15693 0.24950
#
# Static dielectric constant tensor:
#      x y z
#    x 3.811150 0.000000 0.401650 
#    y 0.000000 4.284760 0.000000 
#    z 0.401650 0.000000 3.676360 
# 
# 
# High freq. dielectric constant tensor:
#      x y z
#    x 1.897230 0.000000 0.011440 
#    y 0.000000 1.921770 0.000000 
#    z 0.011440 0.000000 1.932200 
# 
# From -- ./inp_files/92222.got.cif
#   From: 2010.06.25/outbox.cif.g09.slc.cpg/sg15_47_cif.got.tgz:92222.got - 2010.06.28 07:06:18.
