data_PCOD8142576
_publ_section_title
;
Structure prediction by ZEFSAII (Michael W. Deem and Ramdas Pophale) SiO2 
 PCOD8142576
Probable space group: C 2/C
;
_chemical_formula_sum "Si O2"
_cell_formula_units_Z 56
_cell_length_a 7.883180
_cell_length_b 22.593814
_cell_length_c 18.938632
_cell_angle_alpha 90.000000
_cell_angle_beta 52.816594
_cell_angle_gamma 90.000000
_cell_volume 2687.429834
_symmetry_space_group_name_H-M "C 2/C"
_symmetry_group_IT_number 15
_symmetry_cell_setting 'monoclinic'
loop_
_space_group_symop_operation_xyz
x,y,z
-x,y,1/2-z
-x,-y,-z
x,-y,1/2+z
1/2+x,1/2+y,z
1/2-x,1/2+y,1/2-z
1/2-x,1/2-y,-z
1/2+x,1/2-y,1/2+z
loop_
_atom_site_type_symbol
_atom_site_label
_atom_site_fract_x
_atom_site_fract_y
_atom_site_fract_z
Si Si1 0.526950 0.715145 0.557093
Si Si2 0.439406 0.383543 0.339787
Si Si3 0.496428 0.947354 0.057872
Si Si4 0.722880 0.892621 0.720633
Si Si5 0.718070 0.691094 0.168639
Si Si6 0.678946 0.973135 0.253414
Si Si7 0.631238 0.647332 0.039846
O O1 0.750000 0.750000 0.500000
O O2 0.533575 0.655508 0.598912
O O3 0.389043 0.758916 0.639855
O O4 0.411368 0.694864 0.512696
O O5 0.500000 0.351159 0.250000
O O6 0.193948 0.401694 0.408250
O O7 0.599499 0.438832 0.302486
O O8 0.436157 0.981746 0.143415
O O9 0.715063 0.909396 0.014626
O O10 0.500000 0.000000 0.000000
O O11 0.500000 0.866876 0.750000
O O12 0.754296 0.869037 0.792590
O O13 0.897886 0.872457 0.621031
O O14 0.735879 0.962459 0.712002
O O15 0.500000 0.720447 0.250000
O O16 0.736653 0.679091 0.080552
O O17 0.500000 0.941477 0.250000
#
# Coordination Sequence:
#
# PCOD8142576 Si02
#       7
#     8   8   8   8   8   8   8
#     4  12  25  41  62  89 124 162 212 269 315 375
#     4  10  24  41  60  88 123 164 205 253 319 386
#     4  11  22  38  63  92 124 160 205 263 321 382
#     4  10  21  40  64  91 123 162 209 257 315 386
#     4  10  23  40  61  86 119 164 205 249 312 382
#     4  10  21  39  62  89 123 164 204 252 316 388
#     4  11  23  39  62  91 122 160 209 265 321 375
#
# _framework density 20.837752999999999
#
# number of rings (size 3 to 8) (size 9 to 14) (size 15 to 20)
#    0.000    1.429    0.000    4.714    0.000   12.000 
#    0.000    5.000    0.000    0.000    0.000    0.000 
#    0.000    0.000    0.000    0.000    0.000    0.000 
#
# Total GULP energy -346873.039268 kJ/mol
# GULP energy per Si atom -12388.322831 kJ/mol
# Density = 2.079033 g / cm^3
# Si number density = 20.837753 Si / 1000 Ang^3
#
#
#
# Elastic Constant Matrix: (Units=GPa)
#
#
# Indices 1 2 3 4 5 6 
#
# 1 106.1574 25.4055 40.2080 0.0000 -12.1305 0.0000
# 2 25.4055 65.5172 37.6296 0.0000 -10.2374 0.0000
# 3 40.2080 37.6296 97.4950 0.0000 -10.4264 0.0000
# 4 0.0000 0.0000 0.0000 8.1976 0.0000 11.2289
# 5 -12.1305 -10.2374 -10.4264 0.0000 44.4121 0.0000
# 6 0.0000 0.0000 0.0000 11.2289 0.0000 26.9332
#
#
#
# Elastic Compliance Matrix: (Units=1/GPa)
#
#
# Indices 1 2 3 4 5 6 
#
# 1 0.011544 -0.002019 -0.003789 0.000000 0.001798 0.000000
# 2 -0.002019 0.020312 -0.006735 0.000000 0.002550 0.000000
# 3 -0.003789 -0.006735 0.014506 0.000000 0.000818 0.000000
# 4 0.000000 0.000000 0.000000 0.284407 0.000000 -0.118574
# 5 0.001798 0.002550 0.000818 0.000000 0.023787 0.000000
# 6 0.000000 0.000000 0.000000 -0.118574 0.000000 0.086564
#
#
# Mechanical properties :
#
#
# Convention : Reuss Voigt Hill
#
# Bulk Modulus (GPa) = 46.99884 52.85064 49.92474
# Shear Modulus (GPa) = 10.56415 26.97034 18.76724
#
# Velocity S-wave (km/s) = 2.25405 3.60154 3.00432
# Velocity P-wave (km/s) = 5.42014 6.53550 6.00378
#
# Compressibility (1/GPa) = 0.02127712
#
# Stress axis : x y z
#
# Youngs Moduli (GPa) = 86.62632 49.23082 68.93475
#
# Poissons Ratio (x) = 0.09940 0.26121
# Poissons Ratio (y) = 0.17490 0.46424
# Poissons Ratio (z) = 0.32825 0.33155
#
# Static dielectric constant tensor:
#      x y z
#    x 4.203300 0.000000 -0.127580 
#    y 0.000000 3.609070 0.000000 
#    z -0.127580 0.000000 3.956610 
# 
# 
# High freq. dielectric constant tensor:
#      x y z
#    x 1.831960 0.000000 -0.006040 
#    y 0.000000 1.808110 0.000000 
#    z -0.006040 0.000000 1.831720 
# 
# From -- ./inp_files/233758.got.cif
#   From: 2010.06.25/outbox.cif.g09.slc.cpg/sg15_117_cif.got.tgz:233758.got - 2010.06.28 07:06:18.
