data_PCOD8142317
_publ_section_title
;
Structure prediction by ZEFSAII (Michael W. Deem and Ramdas Pophale) SiO2 
 PCOD8142317
Probable space group: C 2/C
;
_chemical_formula_sum "Si O2"
_cell_formula_units_Z 56
_cell_length_a 8.574048
_cell_length_b 23.125284
_cell_length_c 14.300993
_cell_angle_alpha 90.000000
_cell_angle_beta 110.668659
_cell_angle_gamma 90.000000
_cell_volume 2653.057607
_symmetry_space_group_name_H-M "C 2/C"
_symmetry_group_IT_number 15
_symmetry_cell_setting 'monoclinic'
loop_
_space_group_symop_operation_xyz
x,y,z
-x,y,1/2-z
-x,-y,-z
x,-y,1/2+z
1/2+x,1/2+y,z
1/2-x,1/2+y,1/2-z
1/2-x,1/2-y,-z
1/2+x,1/2-y,1/2+z
loop_
_atom_site_type_symbol
_atom_site_label
_atom_site_fract_x
_atom_site_fract_y
_atom_site_fract_z
Si Si1 0.597673 0.134596 0.467787
Si Si2 0.998954 0.994317 0.359737
Si Si3 0.897007 0.216998 0.137051
Si Si4 0.314417 0.063421 0.191697
Si Si5 0.759843 0.905996 0.616521
Si Si6 0.577877 0.369840 0.368960
Si Si7 0.533305 0.742872 0.547866
O O1 0.678549 0.109456 0.390194
O O2 0.428953 0.100636 0.461263
O O3 0.719796 0.128611 0.583361
O O4 0.565302 0.201539 0.434548
O O5 0.151895 0.038575 0.413480
O O6 0.000000 0.986218 0.250000
O O7 0.820906 0.014498 0.363696
O O8 0.023750 0.930259 0.406947
O O9 0.868587 0.149235 0.112450
O O10 0.726540 0.251695 0.113113
O O11 0.000000 0.230770 0.250000
O O12 0.997626 0.241232 0.069825
O O13 0.500000 0.037133 0.250000
O O14 0.243799 0.092672 0.271134
O O15 0.500000 0.362232 0.250000
O O16 0.526694 0.316127 0.420292
#
# Coordination Sequence:
#
# PCOD8142317 Si02
#       7
#     8   8   8   8   8   8   8
#     4  10  22  39  61  92 121 153 207 259 295 359
#     4   9  19  38  61  89 126 161 201 244 299 372
#     4  10  21  38  66  89 116 161 202 255 305 356
#     4   9  18  35  63  96 122 153 202 256 301 343
#     4   9  19  37  64  91 120 154 203 259 301 349
#     4  11  25  40  59  85 127 169 197 243 314 370
#     4  10  24  41  58  92 124 156 209 246 303 379
#
# _framework density 21.107723
#
# number of rings (size 3 to 8) (size 9 to 14) (size 15 to 20)
#    0.000    2.286    0.000    1.714    6.000    4.000 
#    0.000    0.714   12.571    0.000    0.000    0.000 
#    0.000    0.000    0.000    0.000    0.000    0.000 
#
# Total GULP energy -347061.628020 kJ/mol
# GULP energy per Si atom -12395.058144 kJ/mol
# Density = 2.105968 g / cm^3
# Si number density = 21.107723 Si / 1000 Ang^3
#
#
#
# Elastic Constant Matrix: (Units=GPa)
#
#
# Indices 1 2 3 4 5 6 
#
# 1 112.3821 72.2607 53.3109 0.0000 16.5039 0.0000
# 2 72.2607 142.7299 32.8439 0.0000 14.1037 0.0000
# 3 53.3109 32.8439 120.4683 0.0000 25.8932 0.0000
# 4 0.0000 0.0000 0.0000 -14.0706 0.0000 16.5942
# 5 16.5039 14.1037 25.8932 0.0000 26.6668 0.0000
# 6 0.0000 0.0000 0.0000 16.5942 0.0000 6.8250
#
#
#
# Elastic Compliance Matrix: (Units=1/GPa)
#
#
# Indices 1 2 3 4 5 6 
#
# 1 0.015702 -0.006696 -0.004797 0.000000 -0.001519 0.000000
# 2 -0.006696 0.010464 0.000517 0.000000 -0.001892 0.000000
# 3 -0.004797 0.000517 0.012263 0.000000 -0.009212 0.000000
# 4 0.000000 0.000000 0.000000 -0.018376 0.000000 0.044680
# 5 -0.001519 -0.001892 -0.009212 0.000000 0.048385 0.000000
# 6 0.000000 0.000000 0.000000 0.044680 0.000000 0.037885
#
#
# Mechanical properties :
#
#
# Convention : Reuss Voigt Hill
#
# Bulk Modulus (GPa) = 60.68728 76.93461 68.81094
# Shear Modulus (GPa) = 37.37865 18.36189 27.87027
#
# Velocity S-wave (km/s) = 4.21271 2.95263 3.63765
# Velocity P-wave (km/s) = 7.24405 6.93914 7.09323
#
# Compressibility (1/GPa) = 0.01647792
#
# Stress axis : x y z
#
# Youngs Moduli (GPa) = 63.68654 95.56457 81.54879
#
# Poissons Ratio (x) = 0.63987 0.39116
# Poissons Ratio (y) = 0.42642 -0.04215
# Poissons Ratio (z) = 0.30548 -0.04939
#
# Static dielectric constant tensor:
#      x y z
#    x 3.993920 0.000000 0.308980 
#    y 0.000000 4.010580 0.000000 
#    z 0.308980 0.000000 3.818550 
# 
# 
# High freq. dielectric constant tensor:
#      x y z
#    x 1.830240 0.000000 0.016280 
#    y 0.000000 1.828540 0.000000 
#    z 0.016280 0.000000 1.818400 
# 
# From -- ./inp_files/137477.got.cif
#   From: 2010.06.25/outbox.cif.g09.slc.cpg/sg15_69_cif.got.tgz:137477.got - 2010.06.28 07:06:18.
