data_PCOD8142327
_publ_section_title
;
Structure prediction by ZEFSAII (Michael W. Deem and Ramdas Pophale) SiO2 
 PCOD8142327
Probable space group: C 2/C
;
_chemical_formula_sum "Si O2"
_cell_formula_units_Z 44
_cell_length_a 7.903356
_cell_length_b 28.088426
_cell_length_c 9.206062
_cell_angle_alpha 90.000000
_cell_angle_beta 66.704838
_cell_angle_gamma 90.000000
_cell_volume 1877.078529
_symmetry_space_group_name_H-M "C 2/C"
_symmetry_group_IT_number 15
_symmetry_cell_setting 'monoclinic'
loop_
_space_group_symop_operation_xyz
x,y,z
-x,y,1/2-z
-x,-y,-z
x,-y,1/2+z
1/2+x,1/2+y,z
1/2-x,1/2+y,1/2-z
1/2-x,1/2-y,-z
1/2+x,1/2-y,1/2+z
loop_
_atom_site_type_symbol
_atom_site_label
_atom_site_fract_x
_atom_site_fract_y
_atom_site_fract_z
Si Si1 0.129416 0.508978 0.826415
Si Si2 0.012423 0.120753 0.499747
Si Si3 0.704150 0.709487 0.320659
Si Si4 0.719617 0.885407 0.331659
Si Si5 0.522661 0.797199 0.502701
Si Si6 0.000000 0.951680 0.750000
O O1 0.150198 0.565049 0.792083
O O2 0.326920 0.484637 0.773120
O O3 0.000000 0.485126 0.750000
O O4 0.000000 0.500000 0.000000
O O5 0.070249 0.164408 0.378002
O O6 0.176842 0.104433 0.551019
O O7 0.956126 0.078419 0.409738
O O8 0.847282 0.137203 0.661936
O O9 0.575754 0.756373 0.368808
O O10 0.844672 0.708890 0.405412
O O11 0.812639 0.707380 0.130112
O O12 0.552241 0.848674 0.417404
#
# Coordination Sequence:
#
# PCOD8142327 Si02
#       6
#     8   8   8   8   8   4
#     4  12  27  45  71 101 137 182 238 287 355 415
#     4  10  21  38  66  92 134 180 229 276 354 404
#     4   9  17  31  57  95 129 178 221 275 336 410
#     4  10  21  39  63  95 132 180 228 285 339 413
#     4   9  17  31  58  92 135 169 227 277 334 406
#     4  12  26  46  70 100 144 182 230 300 348 412
#
# _framework density 23.44068
#
# number of rings (size 3 to 8) (size 9 to 14) (size 15 to 20)
#    0.000    1.818    0.000    4.364    2.545    6.545 
#    0.000    0.000    2.000    2.182    0.000    0.000 
#    0.000    0.000    0.000    0.000    0.000    0.000 
#
# Total GULP energy -272723.685825 kJ/mol
# GULP energy per Si atom -12396.531174 kJ/mol
# Density = 2.338733 g / cm^3
# Si number density = 23.440680 Si / 1000 Ang^3
#
#
#
# Elastic Constant Matrix: (Units=GPa)
#
#
# Indices 1 2 3 4 5 6 
#
# 1 109.4598 50.0293 55.5821 0.0000 -8.3364 0.0000
# 2 50.0293 147.0633 67.5606 0.0000 -21.6771 0.0000
# 3 55.5821 67.5606 166.9700 0.0000 -31.3249 0.0000
# 4 0.0000 0.0000 0.0000 43.9577 0.0000 -9.2436
# 5 -8.3364 -21.6771 -31.3249 0.0000 38.3137 0.0000
# 6 0.0000 0.0000 0.0000 -9.2436 0.0000 2.0327
#
#
#
# Elastic Compliance Matrix: (Units=1/GPa)
#
#
# Indices 1 2 3 4 5 6 
#
# 1 0.011894 -0.002853 -0.003097 0.000000 -0.001559 0.000000
# 2 -0.002853 0.009215 -0.002265 0.000000 0.002741 0.000000
# 3 -0.003097 -0.002265 0.008941 0.000000 0.005355 0.000000
# 4 0.000000 0.000000 0.000000 0.520389 0.000000 2.366502
# 5 -0.001559 0.002741 0.005355 0.000000 0.031690 0.000000
# 6 0.000000 0.000000 0.000000 2.366502 0.000000 11.253789
#
#
# Mechanical properties :
#
#
# Convention : Reuss Voigt Hill
#
# Bulk Modulus (GPa) = 73.42138 85.53743 79.47940
# Shear Modulus (GPa) = 0.42170 33.54888 16.98529
#
# Velocity S-wave (km/s) = 0.42461 3.78726 2.69477
# Velocity P-wave (km/s) = 5.62411 7.46289 6.60777
#
# Compressibility (1/GPa) = 0.01362001
#
# Stress axis : x y z
#
# Youngs Moduli (GPa) = 84.07733 108.52195 111.84332
#
# Poissons Ratio (x) = 0.30961 0.34641
# Poissons Ratio (y) = 0.23987 0.25327
# Poissons Ratio (z) = 0.26041 0.24575
#
# Static dielectric constant tensor:
#      x y z
#    x 4.047160 0.000000 -0.143310 
#    y 0.000000 4.102440 0.000000 
#    z -0.143310 0.000000 4.411260 
# 
# 
# High freq. dielectric constant tensor:
#      x y z
#    x 1.920530 0.000000 -0.002250 
#    y 0.000000 1.923830 0.000000 
#    z -0.002250 0.000000 1.944310 
# 
# From -- ./inp_files/25986.got.cif
#   From: 2010.06.25/outbox.cif.g09.slc.cpg/sg15_13_cif.got.tgz:25986.got - 2010.06.28 07:06:18.
