data_PCOD8142948
_publ_section_title
;
Structure prediction by ZEFSAII (Michael W. Deem and Ramdas Pophale) SiO2 
 PCOD8142948
Probable space group: C 2/C
;
_chemical_formula_sum "Si O2"
_cell_formula_units_Z 36
_cell_length_a 16.015816
_cell_length_b 9.586744
_cell_length_c 20.154061
_cell_angle_alpha 90.000000
_cell_angle_beta 30.605300
_cell_angle_gamma 90.000000
_cell_volume 1575.447045
_symmetry_space_group_name_H-M "C 2/C"
_symmetry_group_IT_number 15
_symmetry_cell_setting 'monoclinic'
loop_
_space_group_symop_operation_xyz
x,y,z
-x,y,1/2-z
-x,-y,-z
x,-y,1/2+z
1/2+x,1/2+y,z
1/2-x,1/2+y,1/2-z
1/2-x,1/2-y,-z
1/2+x,1/2-y,1/2+z
loop_
_atom_site_type_symbol
_atom_site_label
_atom_site_fract_x
_atom_site_fract_y
_atom_site_fract_z
Si Si1 0.437759 0.031756 0.931295
Si Si2 0.041169 0.188521 0.012186
Si Si3 0.500000 0.083654 0.250000
Si Si4 0.256189 0.198569 0.627316
Si Si5 0.197934 0.041599 0.792024
O O1 0.394191 0.190292 0.983324
O O2 0.613533 0.989478 0.843947
O O3 0.446981 0.018014 0.845789
O O4 0.290015 0.933523 0.056909
O O5 0.932603 0.240990 0.025059
O O6 0.187393 0.108119 0.873759
O O7 0.928861 0.084202 0.132371
O O8 0.347347 0.182840 0.337678
O O9 0.160494 0.152098 0.759469
#
# Coordination Sequence:
#
# PCOD8142948 Si02
#       5
#     8   8   4   8   8
#     4  11  24  39  67  96 132 175 218 269 325 398
#     4  10  21  39  68  97 129 165 225 267 333 376
#     4  12  24  46  60  96 140 176 218 270 328 392
#     4  11  23  39  68  95 131 173 221 266 333 386
#     4  10  21  40  68  99 128 168 214 284 319 393
#
# _framework density 22.850657000000002
#
# number of rings (size 3 to 8) (size 9 to 14) (size 15 to 20)
#    0.000    1.333    2.222    4.667    9.333    0.000 
#    0.000    2.222    0.000    0.000    0.000    0.000 
#    0.000    0.000    0.000    0.000    0.000    0.000 
#
# Total GULP energy -223172.924669 kJ/mol
# GULP energy per Si atom -12398.495815 kJ/mol
# Density = 2.279865 g / cm^3
# Si number density = 22.850657 Si / 1000 Ang^3
#
#
#
# Elastic Constant Matrix: (Units=GPa)
#
#
# Indices 1 2 3 4 5 6 
#
# 1 77.7268 33.8901 12.3639 0.0014 21.6566 -0.0013
# 2 33.8901 122.0066 40.1787 0.0007 14.9798 -0.0011
# 3 12.3639 40.1787 93.8970 0.0051 19.6241 -0.0051
# 4 0.0014 0.0007 0.0051 26.6182 -0.0029 13.9172
# 5 21.6566 14.9798 19.6241 -0.0029 20.6846 0.0025
# 6 -0.0013 -0.0011 -0.0051 13.9172 0.0025 45.3978
#
#
#
# Elastic Compliance Matrix: (Units=1/GPa)
#
#
# Indices 1 2 3 4 5 6 
#
# 1 0.020066 -0.004129 0.003605 -0.000006 -0.021439 0.000004
# 2 -0.004129 0.010634 -0.004117 0.000001 0.000527 -0.000001
# 3 0.003605 -0.004117 0.015096 -0.000007 -0.015115 0.000005
# 4 -0.000006 0.000001 -0.000007 0.044739 0.000020 -0.013715
# 5 -0.021439 0.000527 -0.015115 0.000020 0.084749 -0.000013
# 6 0.000004 -0.000001 0.000005 -0.013715 -0.000013 0.026232
#
#
# Mechanical properties :
#
#
# Convention : Reuss Voigt Hill
#
# Bulk Modulus (GPa) = 27.38620 51.83289 39.60954
# Shear Modulus (GPa) = 22.42465 32.35331 27.38898
#
# Velocity S-wave (km/s) = 3.13606 3.76687 3.46585
# Velocity P-wave (km/s) = 5.01239 6.45381 5.77822
#
# Compressibility (1/GPa) = 0.03651474
#
# Stress axis : x y z
#
# Youngs Moduli (GPa) = 49.83640 94.03665 66.24324
#
# Poissons Ratio (x) = 0.38825 -0.23882
# Poissons Ratio (y) = 0.20576 0.27272
# Poissons Ratio (z) = -0.17967 0.38714
#
# Static dielectric constant tensor:
#      x y z
#    x 3.819350 0.000000 0.157320 
#    y 0.000000 4.318840 0.000000 
#    z 0.157320 0.000000 4.101360 
# 
# 
# High freq. dielectric constant tensor:
#      x y z
#    x 1.861370 0.000000 0.017560 
#    y 0.000000 1.910950 0.000000 
#    z 0.017560 0.000000 1.914400 
# 
# From -- ./inp_files/102530.got.cif
#   From: 2010.06.25/outbox.cif.g09.slc.cpg/sg15_52_cif.got.tgz:102530.got - 2010.06.28 07:06:18.
