data_PCOD8142412
_publ_section_title
;
Structure prediction by ZEFSAII (Michael W. Deem and Ramdas Pophale) SiO2 
 PCOD8142412
Probable space group: C 2/C
;
_chemical_formula_sum "Si O2"
_cell_formula_units_Z 36
_cell_length_a 5.248214
_cell_length_b 20.222180
_cell_length_c 15.852825
_cell_angle_alpha 90.000000
_cell_angle_beta 111.291513
_cell_angle_gamma 90.000000
_cell_volume 1567.628877
_symmetry_space_group_name_H-M "C 2/C"
_symmetry_group_IT_number 15
_symmetry_cell_setting 'monoclinic'
loop_
_space_group_symop_operation_xyz
x,y,z
-x,y,1/2-z
-x,-y,-z
x,-y,1/2+z
1/2+x,1/2+y,z
1/2-x,1/2+y,1/2-z
1/2-x,1/2-y,-z
1/2+x,1/2-y,1/2+z
loop_
_atom_site_type_symbol
_atom_site_label
_atom_site_fract_x
_atom_site_fract_y
_atom_site_fract_z
Si Si1 0.629438 0.988293 0.658201
Si Si2 0.500000 0.132201 0.250000
Si Si3 0.107880 0.192547 0.586885
Si Si4 0.625947 0.272230 0.614063
Si Si5 0.618259 0.544354 0.644000
O O1 0.325568 0.014661 0.598624
O O2 0.747024 0.032770 0.748616
O O3 0.833187 0.002369 0.604411
O O4 0.606606 0.911865 0.683827
O O5 0.766187 0.174671 0.305900
O O6 0.416972 0.220929 0.633842
O O7 0.075743 0.121227 0.623873
O O8 0.896891 0.237857 0.611411
O O9 0.034496 0.189531 0.479241
#
# Coordination Sequence:
#
# PCOD8142412 Si02
#       5
#     8   4   8   8   8
#     4   9  20  33  53  83 111 146 194 234 274 340
#     4  10  22  40  58  86 120 156 190 238 302 348
#     4  10  21  39  56  85 114 152 195 236 292 339
#     4  10  23  37  58  83 119 151 189 240 287 357
#     4   9  17  34  55  75 111 145 184 243 274 321
#
# _framework density 22.964618000000002
#
# number of rings (size 3 to 8) (size 9 to 14) (size 15 to 20)
#    0.000    2.667    0.000    1.333    0.000   13.333 
#    0.000    5.556    0.000    0.000    0.000    1.556 
#    0.000    0.000    0.000    0.000    0.000    0.000 
#
# Total GULP energy -223072.546671 kJ/mol
# GULP energy per Si atom -12392.919259 kJ/mol
# Density = 2.291235 g / cm^3
# Si number density = 22.964618 Si / 1000 Ang^3
#
#
#
# Elastic Constant Matrix: (Units=GPa)
#
#
# Indices 1 2 3 4 5 6 
#
# 1 202.0740 43.7663 15.9308 0.0000 21.6132 0.0000
# 2 43.7663 119.9160 42.5924 0.0000 14.0771 0.0000
# 3 15.9308 42.5924 39.1789 0.0000 11.3757 0.0000
# 4 0.0000 0.0000 0.0000 -5.1828 0.0000 -19.2319
# 5 21.6132 14.0771 11.3757 0.0000 14.4977 0.0000
# 6 0.0000 0.0000 0.0000 -19.2319 0.0000 16.3101
#
#
#
# Elastic Compliance Matrix: (Units=1/GPa)
#
#
# Indices 1 2 3 4 5 6 
#
# 1 0.006170 -0.002007 0.002302 0.000000 -0.009057 0.000000
# 2 -0.002007 0.014285 -0.014965 0.000000 0.000862 0.000000
# 3 0.002302 -0.014965 0.048738 0.000000 -0.027144 0.000000
# 4 0.000000 0.000000 0.000000 -0.035894 0.000000 -0.042324
# 5 -0.009057 0.000862 -0.027144 0.000000 0.102939 0.000000
# 6 0.000000 0.000000 0.000000 -0.042324 0.000000 0.011406
#
#
# Mechanical properties :
#
#
# Convention : Reuss Voigt Hill
#
# Bulk Modulus (GPa) = 25.09074 62.86087 43.97580
# Shear Modulus (GPa) = 26.27870 22.38365 24.33117
#
# Velocity S-wave (km/s) = 3.38644 3.12541 3.25854
# Velocity P-wave (km/s) = 5.12252 6.36055 5.77480
#
# Compressibility (1/GPa) = 0.03985534
#
# Stress axis : x y z
#
# Youngs Moduli (GPa) = 162.06185 70.00111 20.51803
#
# Poissons Ratio (x) = 0.14046 -0.04723
# Poissons Ratio (y) = 0.32518 0.30705
# Poissons Ratio (z) = -0.37307 1.04754
#
# Static dielectric constant tensor:
#      x y z
#    x 6.744380 0.000000 0.323180 
#    y 0.000000 3.914390 0.000000 
#    z 0.323180 0.000000 3.773590 
# 
# 
# High freq. dielectric constant tensor:
#      x y z
#    x 1.937260 0.000000 0.016340 
#    y 0.000000 1.899870 0.000000 
#    z 0.016340 0.000000 1.868840 
# 
# From -- ./inp_files/184538.got.cif
#   From: 2010.06.25/outbox.cif.g09.slc.cpg/sg15_93_cif.got.tgz:184538.got - 2010.06.28 07:06:18.
