data_PCOD8142498
_publ_section_title
;
Structure prediction by ZEFSAII (Michael W. Deem and Ramdas Pophale) SiO2 
 PCOD8142498
Probable space group: C 2/C
;
_chemical_formula_sum "Si O2"
_cell_formula_units_Z 48
_cell_length_a 13.733445
_cell_length_b 14.090165
_cell_length_c 13.858685
_cell_angle_alpha 90.000000
_cell_angle_beta 112.849604
_cell_angle_gamma 90.000000
_cell_volume 2471.301922
_symmetry_space_group_name_H-M "C 2/C"
_symmetry_group_IT_number 15
_symmetry_cell_setting 'monoclinic'
loop_
_space_group_symop_operation_xyz
x,y,z
-x,y,1/2-z
-x,-y,-z
x,-y,1/2+z
1/2+x,1/2+y,z
1/2-x,1/2+y,1/2-z
1/2-x,1/2-y,-z
1/2+x,1/2-y,1/2+z
loop_
_atom_site_type_symbol
_atom_site_label
_atom_site_fract_x
_atom_site_fract_y
_atom_site_fract_z
Si Si1 0.968752 0.026307 0.595593
Si Si2 0.124344 0.764409 0.444476
Si Si3 0.878634 0.542822 0.368330
Si Si4 0.000000 0.241806 0.250000
Si Si5 0.516577 0.147643 0.566193
Si Si6 0.361436 0.568265 0.212243
Si Si7 0.000000 0.645818 0.250000
O O1 0.915701 0.128770 0.581769
O O2 0.879098 0.956059 0.605403
O O3 0.000000 0.000000 0.500000
O O4 0.074377 0.010764 0.700736
O O5 0.250000 0.750000 0.500000
O O6 0.066415 0.727319 0.517564
O O7 0.088383 0.709513 0.335002
O O8 0.891820 0.429909 0.381735
O O9 0.758054 0.565877 0.301427
O O10 0.945829 0.577275 0.304687
O O11 0.915600 0.596222 0.479508
O O12 0.973550 0.307722 0.148577
O O13 0.098238 0.175608 0.256035
#
# Coordination Sequence:
#
# PCOD8142498 Si02
#       7
#     8   8   8   4   8   8   4
#     4  10  21  39  60  91 125 158 203 251 310 376
#     4  11  22  37  64  91 123 160 209 256 314 364
#     4  10  22  42  60  88 124 167 202 254 316 366
#     4  10  21  39  62  90 124 160 202 259 297 368
#     4  10  22  40  59  87 126 155 208 255 295 378
#     4  10  22  40  62  88 130 159 204 254 314 368
#     4  10  23  37  62  90 122 158 216 257 297 384
#
# _framework density 19.422961000000001
#
# number of rings (size 3 to 8) (size 9 to 14) (size 15 to 20)
#    0.000    2.000    0.000    4.500    4.667    0.667 
#    6.000    0.000    0.000    0.000    0.000    0.000 
#    0.000    0.000    0.000    0.000    0.000    0.000 
#
# Total GULP energy -297541.374161 kJ/mol
# GULP energy per Si atom -12397.557257 kJ/mol
# Density = 1.937875 g / cm^3
# Si number density = 19.422961 Si / 1000 Ang^3
#
#
#
# Elastic Constant Matrix: (Units=GPa)
#
#
# Indices 1 2 3 4 5 6 
#
# 1 82.3119 34.6481 44.0408 0.0000 22.8719 0.0000
# 2 34.6481 105.3202 47.0553 0.0000 4.1919 0.0000
# 3 44.0408 47.0553 110.9105 0.0000 -5.0628 0.0000
# 4 0.0000 0.0000 0.0000 32.9172 0.0000 0.2598
# 5 22.8719 4.1919 -5.0628 0.0000 42.2639 0.0000
# 6 0.0000 0.0000 0.0000 0.2598 0.0000 12.0999
#
#
#
# Elastic Compliance Matrix: (Units=1/GPa)
#
#
# Indices 1 2 3 4 5 6 
#
# 1 0.020692 -0.002994 -0.007485 0.000000 -0.011798 0.000000
# 2 -0.002994 0.012281 -0.004026 0.000000 -0.000080 0.000000
# 3 -0.007485 -0.004026 0.013976 0.000000 0.006124 0.000000
# 4 0.000000 0.000000 0.000000 0.030384 0.000000 -0.000652
# 5 -0.011798 -0.000080 0.006124 0.000000 0.030787 0.000000
# 6 0.000000 0.000000 0.000000 -0.000652 0.000000 0.082660
#
#
# Mechanical properties :
#
#
# Convention : Reuss Voigt Hill
#
# Bulk Modulus (GPa) = 55.73749 61.11454 58.42601
# Shear Modulus (GPa) = 22.14657 28.97608 25.56133
#
# Velocity S-wave (km/s) = 3.38039 3.86663 3.63166
# Velocity P-wave (km/s) = 6.63287 7.17411 6.90880
#
# Compressibility (1/GPa) = 0.01794125
#
# Stress axis : x y z
#
# Youngs Moduli (GPa) = 48.32790 81.42392 71.55190
#
# Poissons Ratio (x) = 0.24374 0.53556
# Poissons Ratio (y) = 0.14467 0.28803
# Poissons Ratio (z) = 0.36173 0.32778
#
# Static dielectric constant tensor:
#      x y z
#    x 3.324620 0.000000 -0.297070 
#    y 0.000000 3.672520 0.000000 
#    z -0.297070 0.000000 3.157200 
# 
# 
# High freq. dielectric constant tensor:
#      x y z
#    x 1.751090 0.000000 -0.011810 
#    y 0.000000 1.767640 0.000000 
#    z -0.011810 0.000000 1.761990 
# 
# From -- ./inp_files/97237.got.cif
#   From: 2010.06.25/outbox.cif.g09.slc.cpg/sg15_49_cif.got.tgz:97237.got - 2010.06.28 07:06:18.
