data_PCOD8142791
_publ_section_title
;
Structure prediction by ZEFSAII (Michael W. Deem and Ramdas Pophale) SiO2 
 PCOD8142791
Probable space group: C 2/C
;
_chemical_formula_sum "Si O2"
_cell_formula_units_Z 60
_cell_length_a 9.385810
_cell_length_b 16.271055
_cell_length_c 23.075504
_cell_angle_alpha 90.000000
_cell_angle_beta 57.516236
_cell_angle_gamma 90.000000
_cell_volume 2972.666825
_symmetry_space_group_name_H-M "C 2/C"
_symmetry_group_IT_number 15
_symmetry_cell_setting 'monoclinic'
loop_
_space_group_symop_operation_xyz
x,y,z
-x,y,1/2-z
-x,-y,-z
x,-y,1/2+z
1/2+x,1/2+y,z
1/2-x,1/2+y,1/2-z
1/2-x,1/2-y,-z
1/2+x,1/2-y,1/2+z
loop_
_atom_site_type_symbol
_atom_site_label
_atom_site_fract_x
_atom_site_fract_y
_atom_site_fract_z
Si Si1 0.849227 0.082154 0.326200
Si Si2 0.500000 0.115297 0.750000
Si Si3 0.372255 0.472227 0.945735
Si Si4 0.579511 0.258711 0.001407
Si Si5 0.218047 0.268330 0.127887
Si Si6 0.910990 0.639780 0.952167
Si Si7 0.693898 0.576622 0.436818
Si Si8 0.965802 0.499355 0.153579
O O1 0.870545 0.020778 0.376558
O O2 0.840618 0.176607 0.346314
O O3 0.000000 0.065352 0.250000
O O4 0.682417 0.061574 0.327345
O O5 0.346654 0.171180 0.807391
O O6 0.578301 0.057268 0.782113
O O7 0.563554 0.475295 0.927062
O O8 0.269619 0.388716 0.983108
O O9 0.291314 0.549290 0.998317
O O10 0.529231 0.177577 0.976375
O O11 0.626375 0.330876 0.946436
O O12 0.750000 0.250000 0.000000
O O13 0.420954 0.279400 0.078189
O O14 0.127797 0.292056 0.087517
O O15 0.006212 0.560285 0.907164
O O16 0.874553 0.558685 0.368405
#
# Coordination Sequence:
#
# PCOD8142791 Si02
#       8
#     8   4   8   8   8   8   8   8
#     4  12  25  39  63  94 125 171 214 258 312 385
#     4  10  24  46  66  84 124 182 218 244 304 406
#     4  10  21  39  65  93 125 160 216 257 315 388
#     4  12  23  35  64 101 128 153 204 277 330 364
#     4  11  21  43  68  89 122 168 223 253 311 389
#     4  10  21  42  66  89 125 170 205 264 323 376
#     4  10  22  38  64  99 121 163 205 269 324 363
#     4  10  25  43  62  91 130 167 209 265 327 371
#
# _framework density 20.183897000000002
#
# number of rings (size 3 to 8) (size 9 to 14) (size 15 to 20)
#    0.000    1.333    3.333    2.000    5.600    1.067 
#    0.000    0.000    0.000    0.000    0.000    0.000 
#    0.000    0.000    0.000    0.000    0.000    0.000 
#
# Total GULP energy -371895.810613 kJ/mol
# GULP energy per Si atom -12396.527020 kJ/mol
# Density = 2.013796 g / cm^3
# Si number density = 20.183897 Si / 1000 Ang^3
#
#
#
# Elastic Constant Matrix: (Units=GPa)
#
#
# Indices 1 2 3 4 5 6 
#
# 1 108.1308 17.6136 45.5206 0.0000 -15.0323 0.0000
# 2 17.6136 54.3577 19.8677 0.0000 -0.5064 0.0000
# 3 45.5206 19.8677 110.4887 0.0000 -4.5711 0.0000
# 4 0.0000 0.0000 0.0000 13.0423 0.0000 -6.0795
# 5 -15.0323 -0.5064 -4.5711 0.0000 30.1462 0.0000
# 6 0.0000 0.0000 0.0000 -6.0795 0.0000 31.2246
#
#
#
# Elastic Compliance Matrix: (Units=1/GPa)
#
#
# Indices 1 2 3 4 5 6 
#
# 1 0.012225 -0.002303 -0.004399 0.000000 0.005390 0.000000
# 2 -0.002303 0.020126 -0.002721 0.000000 -0.001223 0.000000
# 3 -0.004399 -0.002721 0.011331 0.000000 -0.000521 0.000000
# 4 0.000000 0.000000 0.000000 0.084327 0.000000 0.016419
# 5 0.005390 -0.001223 -0.000521 0.000000 0.035760 0.000000
# 6 0.000000 0.000000 0.000000 0.016419 0.000000 0.035223
#
#
# Mechanical properties :
#
#
# Convention : Reuss Voigt Hill
#
# Bulk Modulus (GPa) = 40.26537 48.77566 44.52051
# Shear Modulus (GPa) = 22.11262 27.54765 24.83014
#
# Velocity S-wave (km/s) = 3.31351 3.69837 3.51122
# Velocity P-wave (km/s) = 5.88487 6.51578 6.20834
#
# Compressibility (1/GPa) = 0.02483524
#
# Stress axis : x y z
#
# Youngs Moduli (GPa) = 81.80286 49.68711 88.25454
#
# Poissons Ratio (x) = 0.11443 0.38826
# Poissons Ratio (y) = 0.18839 0.24012
# Poissons Ratio (z) = 0.35988 0.13519
#
# Static dielectric constant tensor:
#      x y z
#    x 3.526380 0.000000 0.014220 
#    y 0.000000 3.780240 0.000000 
#    z 0.014220 0.000000 3.832520 
# 
# 
# High freq. dielectric constant tensor:
#      x y z
#    x 1.783710 0.000000 -0.005500 
#    y 0.000000 1.789690 0.000000 
#    z -0.005500 0.000000 1.784720 
# 
# From -- ./inp_files/289586.got.cif
#   From: 2010.06.25/outbox.cif.g09.slc.cpg/sg15_145_cif.got.tgz:289586.got - 2010.06.28 07:06:18.
