data_PCOD8142389
_publ_section_title
;
Structure prediction by ZEFSAII (Michael W. Deem and Ramdas Pophale) SiO2 
 PCOD8142389
Probable space group: C 2/C
;
_chemical_formula_sum "Si O2"
_cell_formula_units_Z 64
_cell_length_a 9.358101
_cell_length_b 18.332196
_cell_length_c 29.396021
_cell_angle_alpha 90.000000
_cell_angle_beta 140.406101
_cell_angle_gamma 90.000000
_cell_volume 3214.128731
_symmetry_space_group_name_H-M "C 2/C"
_symmetry_group_IT_number 15
_symmetry_cell_setting 'monoclinic'
loop_
_space_group_symop_operation_xyz
x,y,z
-x,y,1/2-z
-x,-y,-z
x,-y,1/2+z
1/2+x,1/2+y,z
1/2-x,1/2+y,1/2-z
1/2-x,1/2-y,-z
1/2+x,1/2-y,1/2+z
loop_
_atom_site_type_symbol
_atom_site_label
_atom_site_fract_x
_atom_site_fract_y
_atom_site_fract_z
Si Si1 0.241902 0.464976 0.698705
Si Si2 0.780557 0.439186 0.225067
Si Si3 0.321004 0.038940 0.562894
Si Si4 0.255887 0.796926 0.800221
Si Si5 0.721488 0.700364 0.775853
Si Si6 0.020623 0.950292 0.072724
Si Si7 0.682550 0.207752 0.938602
Si Si8 0.006144 0.217743 0.939076
O O1 0.500000 0.480234 0.750000
O O2 0.201742 0.487493 0.741089
O O3 0.172870 0.380758 0.675454
O O4 0.081860 0.514494 0.627335
O O5 0.755103 0.370230 0.252236
O O6 0.579612 0.454856 0.140515
O O7 0.000000 0.422697 0.250000
O O8 0.281859 0.122980 0.542536
O O9 0.218813 0.020706 0.587934
O O10 0.201323 0.996377 0.492427
O O11 0.301959 0.773334 0.759840
O O12 0.398533 0.741866 0.865519
O O13 0.000000 0.784996 0.750000
O O14 0.500000 0.686512 0.750000
O O15 0.925371 0.715904 0.860252
O O16 0.965665 0.867621 0.048596
O O17 0.844448 0.242929 0.940199
O O18 0.750000 0.250000 0.000000
O O19 0.250000 0.250000 0.000000
#
# Coordination Sequence:
#
# PCOD8142389 Si02
#       8
#     8   8   8   8   8   8   8   8
#     4  11  24  41  65  96 133 173 215 281 334 390
#     4  12  21  41  70  95 125 176 227 265 328 405
#     4  10  21  43  62  96 136 167 214 280 329 393
#     4  11  23  43  67  94 133 172 227 280 333 396
#     4  12  25  43  70 100 132 173 227 283 334 396
#     4  10  21  38  69  95 121 174 222 266 327 399
#     4  11  25  42  66  97 138 175 213 277 344 395
#     4  11  22  41  67  93 127 174 222 266 329 406
#
# _framework density 19.912084
#
# number of rings (size 3 to 8) (size 9 to 14) (size 15 to 20)
#    0.000    1.000    5.000    2.250    1.750    1.500 
#    0.000    0.625    0.000    0.000    0.000    0.000 
#    0.000    0.000    0.000    0.000    0.000    0.000 
#
# Total GULP energy -396785.462667 kJ/mol
# GULP energy per Si atom -12399.545708 kJ/mol
# Density = 1.986676 g / cm^3
# Si number density = 19.912084 Si / 1000 Ang^3
#
#
#
# Elastic Constant Matrix: (Units=GPa)
#
#
# Indices 1 2 3 4 5 6 
#
# 1 114.9189 40.2778 59.4791 0.0001 8.2823 0.0001
# 2 40.2778 87.5234 52.9216 0.0002 0.4517 0.0000
# 3 59.4791 52.9216 167.2849 0.0002 -3.4959 0.0004
# 4 0.0001 0.0002 0.0002 42.2867 0.0001 -8.1645
# 5 8.2823 0.4517 -3.4959 0.0001 37.7368 0.0002
# 6 0.0001 0.0000 0.0004 -8.1645 0.0002 19.4554
#
#
#
# Elastic Compliance Matrix: (Units=1/GPa)
#
#
# Indices 1 2 3 4 5 6 
#
# 1 0.011753 -0.003501 -0.003130 0.000000 -0.002828 0.000000
# 2 -0.003501 0.015184 -0.003553 0.000000 0.000258 0.000000
# 3 -0.003130 -0.003553 0.008246 0.000000 0.001493 0.000000
# 4 0.000000 0.000000 0.000000 0.025733 0.000000 0.010799
# 5 -0.002828 0.000258 0.001493 0.000000 0.027255 0.000000
# 6 0.000000 0.000000 0.000000 0.010799 0.000000 0.055931
#
#
# Mechanical properties :
#
#
# Convention : Reuss Voigt Hill
#
# Bulk Modulus (GPa) = 67.50661 75.00937 71.25799
# Shear Modulus (GPa) = 29.51421 34.36569 31.93995
#
# Velocity S-wave (km/s) = 3.85415 4.15887 4.00940
# Velocity P-wave (km/s) = 7.33361 7.79831 7.56953
#
# Compressibility (1/GPa) = 0.01481336
#
# Stress axis : x y z
#
# Youngs Moduli (GPa) = 85.08561 65.85895 121.26941
#
# Poissons Ratio (x) = 0.23059 0.37960
# Poissons Ratio (y) = 0.29791 0.43090
# Poissons Ratio (z) = 0.26634 0.23401
#
# Static dielectric constant tensor:
#      x y z
#    x 3.682100 -0.000010 -0.040040 
#    y -0.000010 2.792400 0.000010 
#    z -0.040040 0.000010 3.724460 
# 
# 
# High freq. dielectric constant tensor:
#      x y z
#    x 1.766840 0.000000 0.001590 
#    y 0.000000 1.780310 0.000000 
#    z 0.001590 0.000000 1.791420 
# 
# From -- ./inp_files/308801.got.cif
#   From: 2010.06.25/outbox.cif.g09.slc.cpg/sg15_155_cif.got.tgz:308801.got - 2010.06.28 07:06:18.
