data_PCOD8142998
_publ_section_title
;
Structure prediction by ZEFSAII (Michael W. Deem and Ramdas Pophale) SiO2 
 PCOD8142998
Probable space group: C 2/C
;
_chemical_formula_sum "Si O2"
_cell_formula_units_Z 56
_cell_length_a 5.004830
_cell_length_b 23.799868
_cell_length_c 24.904699
_cell_angle_alpha 90.000000
_cell_angle_beta 86.268878
_cell_angle_gamma 90.000000
_cell_volume 2960.217872
_symmetry_space_group_name_H-M "C 2/C"
_symmetry_group_IT_number 15
_symmetry_cell_setting 'monoclinic'
loop_
_space_group_symop_operation_xyz
x,y,z
-x,y,1/2-z
-x,-y,-z
x,-y,1/2+z
1/2+x,1/2+y,z
1/2-x,1/2+y,1/2-z
1/2-x,1/2-y,-z
1/2+x,1/2-y,1/2+z
loop_
_atom_site_type_symbol
_atom_site_label
_atom_site_fract_x
_atom_site_fract_y
_atom_site_fract_z
Si Si1 0.826074 0.325669 0.402501
Si Si2 0.649528 0.668814 0.196576
Si Si3 0.662833 0.149595 0.128347
Si Si4 0.726932 0.440944 0.958988
Si Si5 0.283796 0.933424 0.469616
Si Si6 0.831009 0.759936 0.438391
Si Si7 0.752187 0.201696 0.716044
O O1 0.826168 0.389890 0.421099
O O2 0.604691 0.293861 0.439965
O O3 0.732220 0.326670 0.342104
O O4 0.111032 0.294964 0.407470
O O5 0.500000 0.640477 0.250000
O O6 0.445153 0.665755 0.150339
O O7 0.730855 0.731742 0.209954
O O8 0.927827 0.639136 0.175469
O O9 0.591723 0.201283 0.090557
O O10 0.689423 0.092230 0.095164
O O11 0.446553 0.416498 0.984794
O O12 0.937419 0.434149 0.003525
O O13 0.706370 0.506756 0.943985
O O14 0.750000 0.750000 0.500000
O O15 0.500000 0.176237 0.750000
O O16 0.000000 0.185516 0.750000
#
# Coordination Sequence:
#
# PCOD8142998 Si02
#       7
#     8   8   8   8   8   8   8
#     4  12  22  37  56  83 114 150 184 232 283 335
#     4  11  22  36  56  80 115 147 191 232 277 343
#     4  12  20  37  55  85 114 148 185 230 286 336
#     4  10  22  38  61  82 113 153 193 230 271 339
#     4  10  21  40  58  84 112 152 196 227 271 339
#     4  12  23  34  52  85 121 147 174 226 290 346
#     4  11  21  36  55  79 110 148 189 230 274 334
#
# _framework density 18.917525999999999
#
# number of rings (size 3 to 8) (size 9 to 14) (size 15 to 20)
#    0.000    0.857    2.857    6.857    0.000    0.000 
#    0.000    0.000    0.000    2.571    0.000    0.000 
#    0.000    0.000    0.000    0.000    0.000    0.000 
#
# Total GULP energy -347245.340223 kJ/mol
# GULP energy per Si atom -12401.619294 kJ/mol
# Density = 1.887447 g / cm^3
# Si number density = 18.917526 Si / 1000 Ang^3
#
#
#
# Elastic Constant Matrix: (Units=GPa)
#
#
# Indices 1 2 3 4 5 6 
#
# 1 93.1257 26.3074 16.1470 0.0000 -9.1306 0.0000
# 2 26.3074 74.1621 45.7140 0.0000 -12.9580 0.0000
# 3 16.1470 45.7140 103.9776 0.0000 -10.9832 0.0000
# 4 0.0000 0.0000 0.0000 26.8522 0.0000 -1.7022
# 5 -9.1306 -12.9580 -10.9832 0.0000 38.8414 0.0000
# 6 0.0000 0.0000 0.0000 -1.7022 0.0000 14.5593
#
#
#
# Elastic Compliance Matrix: (Units=1/GPa)
#
#
# Indices 1 2 3 4 5 6 
#
# 1 0.012015 -0.004044 0.000070 0.000000 0.001495 0.000000
# 2 -0.004044 0.020478 -0.007993 0.000000 0.003621 0.000000
# 3 0.000070 -0.007993 0.013236 0.000000 0.001093 0.000000
# 4 0.000000 0.000000 0.000000 0.037519 0.000000 0.004386
# 5 0.001495 0.003621 0.001093 0.000000 0.027614 0.000000
# 6 0.000000 0.000000 0.000000 0.004386 0.000000 0.069198
#
#
# Mechanical properties :
#
#
# Convention : Reuss Voigt Hill
#
# Bulk Modulus (GPa) = 45.88072 49.73359 47.80716
# Shear Modulus (GPa) = 23.66772 28.25704 25.96238
#
# Velocity S-wave (km/s) = 3.54093 3.86903 3.70861
# Velocity P-wave (km/s) = 6.40494 6.80485 6.60792
#
# Compressibility (1/GPa) = 0.02179565
#
# Stress axis : x y z
#
# Youngs Moduli (GPa) = 83.22907 48.83308 75.55147
#
# Poissons Ratio (x) = 0.19748 -0.00529
# Poissons Ratio (y) = 0.33658 0.60386
# Poissons Ratio (z) = -0.00583 0.39031
#
# Static dielectric constant tensor:
#      x y z
#    x 3.837720 0.000000 -0.260980 
#    y 0.000000 3.372930 0.000000 
#    z -0.260980 0.000000 4.002060 
# 
# 
# High freq. dielectric constant tensor:
#      x y z
#    x 1.761470 0.000000 -0.006420 
#    y 0.000000 1.702570 0.000000 
#    z -0.006420 0.000000 1.735660 
# 
# From -- ./inp_files/227851.got.cif
#   From: 2010.06.25/outbox.cif.g09.slc.cpg/sg15_114_cif.got.tgz:227851.got - 2010.06.28 07:06:18.
