data_PCOD8142367
_publ_section_title
;
Structure prediction by ZEFSAII (Michael W. Deem and Ramdas Pophale) SiO2 
 PCOD8142367
Probable space group: C 2/C
;
_chemical_formula_sum "Si O2"
_cell_formula_units_Z 64
_cell_length_a 8.590922
_cell_length_b 18.782676
_cell_length_c 20.082232
_cell_angle_alpha 90.000000
_cell_angle_beta 114.358839
_cell_angle_gamma 90.000000
_cell_volume 2952.012279
_symmetry_space_group_name_H-M "C 2/C"
_symmetry_group_IT_number 15
_symmetry_cell_setting 'monoclinic'
loop_
_space_group_symop_operation_xyz
x,y,z
-x,y,1/2-z
-x,-y,-z
x,-y,1/2+z
1/2+x,1/2+y,z
1/2-x,1/2+y,1/2-z
1/2-x,1/2-y,-z
1/2+x,1/2-y,1/2+z
loop_
_atom_site_type_symbol
_atom_site_label
_atom_site_fract_x
_atom_site_fract_y
_atom_site_fract_z
Si Si1 0.559612 0.982942 0.907608
Si Si2 0.093940 0.009465 0.197768
Si Si3 0.835716 0.407366 0.185877
Si Si4 0.499076 0.822767 0.857411
Si Si5 0.764127 0.973819 0.566359
Si Si6 0.371148 0.708448 0.930335
Si Si7 0.234890 0.158769 0.205340
Si Si8 0.104096 0.819861 0.922173
O O1 0.555056 0.898544 0.896239
O O2 0.376926 0.004030 0.907130
O O3 0.591500 0.029603 0.847939
O O4 0.715841 0.000474 0.984393
O O5 0.217193 0.941494 0.222950
O O6 0.000000 0.027087 0.250000
O O7 0.217699 0.073542 0.196729
O O8 0.949533 0.994485 0.116561
O O9 0.709920 0.353309 0.127943
O O10 0.000000 0.370224 0.250000
O O11 0.500867 0.759558 0.912410
O O12 0.635761 0.806209 0.824433
O O13 0.306989 0.823804 0.791909
O O14 0.776808 0.887933 0.572716
O O15 0.211029 0.749876 0.930767
O O16 0.465317 0.676721 0.013098
O O17 0.048113 0.189378 0.157863
#
# Coordination Sequence:
#
# PCOD8142367 Si02
#       8
#     8   8   8   8   8   8   8   8
#     4  11  21  40  67  97 129 168 219 270 331 387
#     4  11  23  41  65  97 127 165 216 283 326 387
#     4  12  25  41  64  94 133 172 215 271 341 394
#     4  11  22  41  63  97 126 169 213 269 320 388
#     4  10  21  38  67  97 125 168 219 275 322 385
#     4  11  25  42  63  90 134 170 215 263 326 396
#     4  10  23  39  69  92 124 162 222 264 318 386
#     4  10  22  42  62  96 127 171 220 262 320 393
#
# _framework density 21.680128
#
# number of rings (size 3 to 8) (size 9 to 14) (size 15 to 20)
#    0.000    1.250    3.750    2.250    3.500    2.000 
#    2.250    1.250    0.000    0.000    0.000    0.000 
#    0.000    0.000    0.000    0.000    0.000    0.000 
#
# Total GULP energy -396643.732025 kJ/mol
# GULP energy per Si atom -12395.116626 kJ/mol
# Density = 2.163078 g / cm^3
# Si number density = 21.680128 Si / 1000 Ang^3
#
#
#
# Elastic Constant Matrix: (Units=GPa)
#
#
# Indices 1 2 3 4 5 6 
#
# 1 67.9353 26.2484 16.2650 0.0000 -8.6014 0.0000
# 2 26.2484 68.9457 14.5136 0.0000 -0.8273 0.0000
# 3 16.2650 14.5136 73.6321 0.0000 3.6686 0.0000
# 4 0.0000 0.0000 0.0000 22.7778 0.0000 -2.9110
# 5 -8.6014 -0.8273 3.6686 0.0000 29.1489 0.0000
# 6 0.0000 0.0000 0.0000 -2.9110 0.0000 30.1735
#
#
#
# Elastic Compliance Matrix: (Units=1/GPa)
#
#
# Indices 1 2 3 4 5 6 
#
# 1 0.018661 -0.006372 -0.003151 0.000000 0.005722 0.000000
# 2 -0.006372 0.017327 -0.001951 0.000000 -0.001143 0.000000
# 3 -0.003151 -0.001951 0.014804 0.000000 -0.002848 0.000000
# 4 0.000000 0.000000 0.000000 0.044451 0.000000 0.004288
# 5 0.005722 -0.001143 -0.002848 0.000000 0.036321 0.000000
# 6 0.000000 0.000000 0.000000 0.004288 0.000000 0.033555
#
#
# Mechanical properties :
#
#
# Convention : Reuss Voigt Hill
#
# Bulk Modulus (GPa) = 35.91569 36.06299 35.98934
# Shear Modulus (GPa) = 25.33588 26.65243 25.99415
#
# Velocity S-wave (km/s) = 3.42222 3.51001 3.46639
# Velocity P-wave (km/s) = 5.67605 5.75301 5.71466
#
# Compressibility (1/GPa) = 0.02784299
#
# Stress axis : x y z
#
# Youngs Moduli (GPa) = 53.58769 57.71287 67.55140
#
# Poissons Ratio (x) = 0.36777 0.21287
# Poissons Ratio (y) = 0.34148 0.13178
# Poissons Ratio (z) = 0.16886 0.11258
#
# Static dielectric constant tensor:
#      x y z
#    x 3.888010 0.000000 -0.003080 
#    y 0.000000 3.658470 0.000000 
#    z -0.003080 0.000000 4.313830 
# 
# 
# High freq. dielectric constant tensor:
#      x y z
#    x 1.850850 0.000000 0.000150 
#    y 0.000000 1.829070 0.000000 
#    z 0.000150 0.000000 1.866660 
# 
# From -- ./inp_files/233871.got.cif
#   From: 2010.06.25/outbox.cif.g09.slc.cpg/sg15_117_cif.got.tgz:233871.got - 2010.06.28 07:06:18.
