data_PCOD8142773
_publ_section_title
;
Structure prediction by ZEFSAII (Michael W. Deem and Ramdas Pophale) SiO2 
 PCOD8142773
Probable space group: C 2/C
;
_chemical_formula_sum "Si O2"
_cell_formula_units_Z 60
_cell_length_a 8.883153
_cell_length_b 26.292985
_cell_length_c 20.149333
_cell_angle_alpha 90.000000
_cell_angle_beta 41.088090
_cell_angle_gamma 90.000000
_cell_volume 3092.983115
_symmetry_space_group_name_H-M "C 2/C"
_symmetry_group_IT_number 15
_symmetry_cell_setting 'monoclinic'
loop_
_space_group_symop_operation_xyz
x,y,z
-x,y,1/2-z
-x,-y,-z
x,-y,1/2+z
1/2+x,1/2+y,z
1/2-x,1/2+y,1/2-z
1/2-x,1/2-y,-z
1/2+x,1/2-y,1/2+z
loop_
_atom_site_type_symbol
_atom_site_label
_atom_site_fract_x
_atom_site_fract_y
_atom_site_fract_z
Si Si1 0.324464 0.711182 0.391453
Si Si2 0.283913 0.500395 0.524368
Si Si3 0.473852 0.808753 0.113754
Si Si4 0.432492 0.495558 0.197141
Si Si5 0.052045 0.417090 0.310304
Si Si6 0.557859 0.922465 0.805031
Si Si7 0.308197 0.184605 0.207581
Si Si8 0.500000 0.745844 0.750000
O O1 0.378439 0.769566 0.391448
O O2 0.127064 0.682660 0.497928
O O3 0.559409 0.679995 0.325673
O O4 0.232870 0.713193 0.347408
O O5 0.500000 0.500000 0.500000
O O6 0.350022 0.495849 0.424641
O O7 0.136724 0.551165 0.585981
O O8 0.142580 0.450477 0.589568
O O9 0.441290 0.860079 0.165461
O O10 0.226376 0.788671 0.172656
O O11 0.500000 0.506591 0.250000
O O12 0.302007 0.441725 0.237115
O O13 0.274242 0.541188 0.225274
O O14 0.000000 0.418003 0.250000
O O15 0.500000 0.904860 0.750000
O O16 0.603270 0.872271 0.833025
O O17 0.489438 0.217993 0.188885
#
# Coordination Sequence:
#
# PCOD8142773 Si02
#       8
#     8   8   8   8   8   8   8   4
#     4   9  22  42  62  91 128 161 213 252 313 372
#     4  11  21  43  65  89 127 164 208 260 306 385
#     4  10  23  41  64  92 127 167 207 256 308 378
#     4  11  25  41  63  95 127 157 205 267 311 365
#     4  11  24  41  66  93 122 170 212 246 319 385
#     4  11  22  38  64  93 122 164 214 248 312 382
#     4  10  21  39  65  91 124 163 202 262 313 360
#     4  10  22  40  60  92 130 158 202 268 300 364
#
# _framework density 19.398747
#
# number of rings (size 3 to 8) (size 9 to 14) (size 15 to 20)
#    0.000    1.600    3.333    0.800    8.400    3.733 
#    2.400    0.000    0.000    0.000    0.000    0.000 
#    0.000    0.000    0.000    0.000    0.000    0.000 
#
# Total GULP energy -372002.428237 kJ/mol
# GULP energy per Si atom -12400.080941 kJ/mol
# Density = 1.935460 g / cm^3
# Si number density = 19.398747 Si / 1000 Ang^3
#
#
#
# Elastic Constant Matrix: (Units=GPa)
#
#
# Indices 1 2 3 4 5 6 
#
# 1 90.9719 32.0303 39.5211 0.0001 5.2593 -0.0001
# 2 32.0303 113.3020 44.8248 0.0000 -5.6109 0.0000
# 3 39.5211 44.8248 139.9610 0.0002 4.9328 -0.0002
# 4 0.0001 0.0000 0.0002 20.3988 -0.0001 6.6000
# 5 5.2593 -5.6109 4.9328 -0.0001 28.8071 0.0001
# 6 -0.0001 0.0000 -0.0002 6.6000 0.0001 20.2546
#
#
#
# Elastic Compliance Matrix: (Units=1/GPa)
#
#
# Indices 1 2 3 4 5 6 
#
# 1 0.013328 -0.002791 -0.002781 0.000000 -0.002501 0.000000
# 2 -0.002791 0.010879 -0.002806 0.000000 0.003109 0.000000
# 3 -0.002781 -0.002806 0.008884 0.000000 -0.001560 0.000000
# 4 0.000000 0.000000 0.000000 0.054800 0.000000 -0.017857
# 5 -0.002501 0.003109 -0.001560 0.000000 0.036043 0.000000
# 6 0.000000 0.000000 0.000000 -0.017857 0.000000 0.055190
#
#
# Mechanical properties :
#
#
# Convention : Reuss Voigt Hill
#
# Bulk Modulus (GPa) = 61.22083 64.10973 62.66528
# Shear Modulus (GPa) = 24.83544 29.08266 26.95905
#
# Velocity S-wave (km/s) = 3.58195 3.87615 3.73195
# Velocity P-wave (km/s) = 6.98104 7.29060 7.13750
#
# Compressibility (1/GPa) = 0.01633431
#
# Stress axis : x y z
#
# Youngs Moduli (GPa) = 75.02949 91.92047 112.56520
#
# Poissons Ratio (x) = 0.25658 0.31309
# Poissons Ratio (y) = 0.20943 0.31581
# Poissons Ratio (z) = 0.20869 0.25789
#
# Static dielectric constant tensor:
#      x y z
#    x 3.693960 0.000000 -0.141340 
#    y 0.000000 3.498410 0.000000 
#    z -0.141340 0.000000 3.832080 
# 
# 
# High freq. dielectric constant tensor:
#      x y z
#    x 1.762100 0.000000 -0.000770 
#    y 0.000000 1.755440 0.000000 
#    z -0.000770 0.000000 1.759250 
# 
# From -- ./inp_files/234777.got.cif
#   From: 2010.06.25/outbox.cif.g09.slc.cpg/sg15_118_cif.got.tgz:234777.got - 2010.06.28 07:06:18.
