data_PCOD8142538
_publ_section_title
;
Structure prediction by ZEFSAII (Michael W. Deem and Ramdas Pophale) SiO2 
 PCOD8142538
Probable space group: C 2/C
;
_chemical_formula_sum "Si O2"
_cell_formula_units_Z 44
_cell_length_a 17.333322
_cell_length_b 16.156652
_cell_length_c 8.780305
_cell_angle_alpha 90.000000
_cell_angle_beta 50.666929
_cell_angle_gamma 90.000000
_cell_volume 1901.904804
_symmetry_space_group_name_H-M "C 2/C"
_symmetry_group_IT_number 15
_symmetry_cell_setting 'monoclinic'
loop_
_space_group_symop_operation_xyz
x,y,z
-x,y,1/2-z
-x,-y,-z
x,-y,1/2+z
1/2+x,1/2+y,z
1/2-x,1/2+y,1/2-z
1/2-x,1/2-y,-z
1/2+x,1/2-y,1/2+z
loop_
_atom_site_type_symbol
_atom_site_label
_atom_site_fract_x
_atom_site_fract_y
_atom_site_fract_z
Si Si1 0.293064 0.972069 0.781307
Si Si2 0.000000 0.259493 0.750000
Si Si3 0.724901 0.388665 0.573507
Si Si4 0.350178 0.894399 0.004726
Si Si5 0.614975 0.762927 0.108077
Si Si6 0.324839 0.710186 0.785653
O O1 0.228770 0.914991 0.746682
O O2 0.358994 0.915834 0.813209
O O3 0.372072 0.026110 0.582534
O O4 0.219135 0.029429 0.976037
O O5 0.073579 0.318992 0.558316
O O6 0.065740 0.199415 0.775197
O O7 0.630710 0.326764 0.669102
O O8 0.823108 0.337309 0.390665
O O9 0.232342 0.874083 0.188691
O O10 0.500000 0.785881 0.250000
O O11 0.660242 0.764927 0.881856
O O12 0.250000 0.750000 0.000000
#
# Coordination Sequence:
#
# PCOD8142538 Si02
#       6
#     8   4   8   8   8   8
#     4  10  21  41  64  86 128 173 201 257 323 385
#     4  10  22  34  64  92 120 154 208 260 310 368
#     4  10  22  43  66  89 132 167 209 263 322 372
#     4  10  21  39  61  91 122 165 206 253 318 376
#     4  11  24  40  67  98 124 165 220 265 311 372
#     4  10  21  39  61  89 126 165 207 255 309 372
#
# _framework density 23.134702000000001
#
# number of rings (size 3 to 8) (size 9 to 14) (size 15 to 20)
#    0.000    1.818    1.818    2.182    2.545    3.636 
#    6.545    0.909    8.000    0.000    0.000    0.000 
#    0.000    0.000    0.000    0.000    0.000    0.000 
#
# Total GULP energy -272617.986381 kJ/mol
# GULP energy per Si atom -12391.726654 kJ/mol
# Density = 2.308205 g / cm^3
# Si number density = 23.134702 Si / 1000 Ang^3
#
#
#
# Elastic Constant Matrix: (Units=GPa)
#
#
# Indices 1 2 3 4 5 6 
#
# 1 103.3890 23.3321 27.4785 0.0000 -21.1583 0.0000
# 2 23.3321 62.1670 12.8439 0.0000 -10.1863 0.0000
# 3 27.4785 12.8439 76.8124 0.0000 5.8565 0.0000
# 4 0.0000 0.0000 0.0000 30.5523 0.0000 6.2246
# 5 -21.1583 -10.1863 5.8565 0.0000 35.9989 0.0000
# 6 0.0000 0.0000 0.0000 6.2246 0.0000 30.0070
#
#
#
# Elastic Compliance Matrix: (Units=1/GPa)
#
#
# Indices 1 2 3 4 5 6 
#
# 1 0.013152 -0.002661 -0.004852 0.000000 0.007766 0.000000
# 2 -0.002661 0.018234 -0.002401 0.000000 0.003986 0.000000
# 3 -0.004852 -0.002401 0.015619 0.000000 -0.006072 0.000000
# 4 0.000000 0.000000 0.000000 0.034175 0.000000 -0.007089
# 5 0.007766 0.003986 -0.006072 0.000000 0.034459 0.000000
# 6 0.000000 0.000000 0.000000 -0.007089 0.000000 0.034796
#
#
# Mechanical properties :
#
#
# Convention : Reuss Voigt Hill
#
# Bulk Modulus (GPa) = 36.79664 41.07527 38.93596
# Shear Modulus (GPa) = 27.88302 31.22589 29.55445
#
# Velocity S-wave (km/s) = 3.47543 3.67787 3.57808
# Velocity P-wave (km/s) = 5.66081 5.98573 5.82554
#
# Compressibility (1/GPa) = 0.02717640
#
# Stress axis : x y z
#
# Youngs Moduli (GPa) = 76.03640 54.84399 64.02522
#
# Poissons Ratio (x) = 0.14594 0.31065
# Poissons Ratio (y) = 0.20233 0.15371
# Poissons Ratio (z) = 0.36893 0.13167
#
# Static dielectric constant tensor:
#      x y z
#    x 4.484900 0.000000 0.218680 
#    y 0.000000 4.516780 0.000000 
#    z 0.218680 0.000000 3.949060 
# 
# 
# High freq. dielectric constant tensor:
#      x y z
#    x 1.908070 0.000000 0.036020 
#    y 0.000000 1.910820 0.000000 
#    z 0.036020 0.000000 1.897110 
# 
# From -- ./inp_files/39536.got.cif
#   From: 2010.06.25/outbox.cif.g09.slc.cpg/sg15_20_cif.got.tgz:39536.got - 2010.06.28 07:06:18.
