data_PCOD8142913
_publ_section_title
;
Structure prediction by ZEFSAII (Michael W. Deem and Ramdas Pophale) SiO2 
 PCOD8142913
Probable space group: C 2/C
;
_chemical_formula_sum "Si O2"
_cell_formula_units_Z 44
_cell_length_a 10.436321
_cell_length_b 13.389727
_cell_length_c 27.343013
_cell_angle_alpha 90.000000
_cell_angle_beta 32.482348
_cell_angle_gamma 90.000000
_cell_volume 2051.974450
_symmetry_space_group_name_H-M "C 2/C"
_symmetry_group_IT_number 15
_symmetry_cell_setting 'monoclinic'
loop_
_space_group_symop_operation_xyz
x,y,z
-x,y,1/2-z
-x,-y,-z
x,-y,1/2+z
1/2+x,1/2+y,z
1/2-x,1/2+y,1/2-z
1/2-x,1/2-y,-z
1/2+x,1/2-y,1/2+z
loop_
_atom_site_type_symbol
_atom_site_label
_atom_site_fract_x
_atom_site_fract_y
_atom_site_fract_z
Si Si1 0.122233 0.914304 0.022720
Si Si2 0.583225 0.988494 0.919206
Si Si3 0.216081 0.684178 0.713155
Si Si4 0.050070 0.313983 0.372214
Si Si5 0.987076 0.860440 0.961113
Si Si6 0.000000 0.127691 0.250000
O O1 0.970201 0.850498 0.110551
O O2 0.016753 0.026395 0.056909
O O3 0.119080 0.860342 0.970944
O O4 0.397719 0.918670 0.949574
O O5 0.607026 0.098544 0.890850
O O6 0.844258 0.939539 0.836478
O O7 0.500000 0.000000 0.000000
O O8 0.204457 0.660481 0.774420
O O9 0.000000 0.634688 0.750000
O O10 0.184291 0.804311 0.721482
O O11 0.115899 0.209717 0.378839
O O12 0.773770 0.313999 0.445054
#
# Coordination Sequence:
#
# PCOD8142913 Si02
#       6
#     8   8   8   8   8   4
#     4  10  21  40  69  99 132 170 229 277 333 408
#     4  11  27  43  68  97 139 180 221 281 342 413
#     4  10  22  39  68  97 132 174 219 278 334 405
#     4  10  21  39  67  96 134 177 219 273 339 402
#     4   9  19  38  67  98 128 176 221 275 334 394
#     4  10  26  46  62  94 138 176 218 268 358 384
#
# _framework density 21.442761000000001
#
# number of rings (size 3 to 8) (size 9 to 14) (size 15 to 20)
#    0.545    1.455    1.818    0.000   12.727    0.727 
#    0.000    0.000    2.000    0.000    0.000    0.000 
#    0.000    0.000    0.000    0.000    0.000    0.000 
#
# Total GULP energy -272707.578228 kJ/mol
# GULP energy per Si atom -12395.799010 kJ/mol
# Density = 2.139396 g / cm^3
# Si number density = 21.442761 Si / 1000 Ang^3
#
#
#
# Elastic Constant Matrix: (Units=GPa)
#
#
# Indices 1 2 3 4 5 6 
#
# 1 105.3319 54.7404 45.6510 0.0006 31.8816 0.0007
# 2 54.7404 103.7048 55.0286 -0.0096 8.4203 -0.0009
# 3 45.6510 55.0286 120.6021 -0.0017 26.9238 -0.0042
# 4 0.0006 -0.0096 -0.0017 36.3292 -0.0061 3.7345
# 5 31.8816 8.4203 26.9238 -0.0061 40.6008 -0.0028
# 6 0.0007 -0.0009 -0.0042 3.7345 -0.0028 31.5809
#
#
#
# Elastic Compliance Matrix: (Units=1/GPa)
#
#
# Indices 1 2 3 4 5 6 
#
# 1 0.017373 -0.008076 -0.000258 -0.000004 -0.011796 -0.000001
# 2 -0.008076 0.016547 -0.006037 0.000005 0.006913 0.000000
# 3 -0.000258 -0.006037 0.012699 -0.000002 -0.006967 0.000001
# 4 -0.000004 0.000005 -0.000002 0.027865 0.000008 -0.003295
# 5 -0.011796 0.006913 -0.006967 0.000008 0.037079 0.000002
# 6 -0.000001 0.000000 0.000001 -0.003295 0.000002 0.032054
#
#
# Mechanical properties :
#
#
# Convention : Reuss Voigt Hill
#
# Bulk Modulus (GPa) = 55.93169 71.16432 63.54801
# Shear Modulus (GPa) = 28.03987 33.31677 30.67832
#
# Velocity S-wave (km/s) = 3.62008 3.94604 3.78657
# Velocity P-wave (km/s) = 6.60410 7.34995 6.98699
#
# Compressibility (1/GPa) = 0.01787895
#
# Stress axis : x y z
#
# Youngs Moduli (GPa) = 57.56124 60.43246 78.74584
#
# Poissons Ratio (x) = 0.48803 0.02031
# Poissons Ratio (y) = 0.46484 0.47536
# Poissons Ratio (z) = 0.01484 0.36481
#
# Static dielectric constant tensor:
#      x y z
#    x 3.967160 0.000100 -0.287370 
#    y 0.000100 3.632990 -0.000170 
#    z -0.287370 -0.000170 4.148690 
# 
# 
# High freq. dielectric constant tensor:
#      x y z
#    x 1.833510 0.000000 0.013850 
#    y 0.000000 1.842820 0.000000 
#    z 0.013850 0.000000 1.829020 
# 
# From -- ./inp_files/311026.got.cif
#   From: 2010.06.25/outbox.cif.g09.slc.cpg/sg15_156_cif.got.tgz:311026.got - 2010.06.28 07:06:18.
