data_PCOD8142077
_publ_section_title
;
Structure prediction by ZEFSAII (Michael W. Deem and Ramdas Pophale) SiO2 
 PCOD8142077
Probable space group: C 2/C
;
_chemical_formula_sum "Si O2"
_cell_formula_units_Z 40
_cell_length_a 14.118419
_cell_length_b 23.746604
_cell_length_c 11.321164
_cell_angle_alpha 90.000000
_cell_angle_beta 29.699458
_cell_angle_gamma 90.000000
_cell_volume 1880.524027
_symmetry_space_group_name_H-M "C 2/C"
_symmetry_group_IT_number 15
_symmetry_cell_setting 'monoclinic'
loop_
_space_group_symop_operation_xyz
x,y,z
-x,y,1/2-z
-x,-y,-z
x,-y,1/2+z
1/2+x,1/2+y,z
1/2-x,1/2+y,1/2-z
1/2-x,1/2-y,-z
1/2+x,1/2-y,1/2+z
loop_
_atom_site_type_symbol
_atom_site_label
_atom_site_fract_x
_atom_site_fract_y
_atom_site_fract_z
Si Si1 0.781815 0.981627 0.247898
Si Si2 0.284594 0.612216 0.931677
Si Si3 0.642484 0.167560 0.305851
Si Si4 0.036499 0.211020 0.847370
Si Si5 0.490799 0.924803 0.120922
O O1 0.736764 0.944852 0.414053
O O2 0.714299 0.947119 0.204541
O O3 0.661438 0.038284 0.382978
O O4 0.000000 0.000000 0.000000
O O5 0.500000 0.607364 0.750000
O O6 0.282747 0.667212 0.845099
O O7 0.130049 0.626164 0.202873
O O8 0.564232 0.230577 0.381518
O O9 0.528465 0.138548 0.535490
O O10 0.865278 0.176522 0.094334
O O11 0.000000 0.225616 0.750000
O O12 0.500000 0.925704 0.250000
#
# Coordination Sequence:
#
# PCOD8142077 Si02
#       5
#     8   8   8   8   8
#     4  11  25  44  70  93 127 177 216 270 330 396
#     4   9  19  35  67  99 125 158 214 276 338 381
#     4  10  21  38  61  95 128 167 212 275 327 383
#     4   9  18  34  61  98 125 157 211 272 337 384
#     4  11  28  44  61  95 134 174 222 269 321 390
#
# _framework density 21.270665999999999
#
# number of rings (size 3 to 8) (size 9 to 14) (size 15 to 20)
#    0.000    2.400    0.000    4.800   14.000    0.000 
#    0.000    1.000    0.000    0.000    0.000    0.000 
#    0.000    0.000    0.000    0.000    0.000    0.000 
#
# Total GULP energy -247843.547687 kJ/mol
# GULP energy per Si atom -12392.177384 kJ/mol
# Density = 2.122225 g / cm^3
# Si number density = 21.270666 Si / 1000 Ang^3
#
#
#
# Elastic Constant Matrix: (Units=GPa)
#
#
# Indices 1 2 3 4 5 6 
#
# 1 79.1904 30.7662 29.0775 -0.0036 8.8894 0.0108
# 2 30.7662 114.8995 25.7967 -0.0018 2.7874 0.0018
# 3 29.0775 25.7967 75.5405 0.0033 -1.5783 0.0044
# 4 -0.0036 -0.0018 0.0033 29.6712 -0.0006 1.7878
# 5 8.8894 2.7874 -1.5783 -0.0006 22.3422 -0.0068
# 6 0.0108 0.0018 0.0044 1.7878 -0.0068 29.2179
#
#
#
# Elastic Compliance Matrix: (Units=1/GPa)
#
#
# Indices 1 2 3 4 5 6 
#
# 1 0.016561 -0.003046 -0.005472 0.000003 -0.006596 -0.000007
# 2 -0.003046 0.010030 -0.002257 0.000000 -0.000199 0.000001
# 3 -0.005472 -0.002257 0.016190 -0.000003 0.003603 0.000001
# 4 0.000003 0.000000 -0.000003 0.033827 -0.000001 -0.002070
# 5 -0.006596 -0.000199 0.003603 -0.000001 0.047662 0.000013
# 6 -0.000007 0.000001 0.000001 -0.002070 0.000013 0.034352
#
#
# Mechanical properties :
#
#
# Convention : Reuss Voigt Hill
#
# Bulk Modulus (GPa) = 47.10052 48.99013 48.04532
# Shear Modulus (GPa) = 26.70215 28.51228 27.60722
#
# Velocity S-wave (km/s) = 3.54694 3.66519 3.60655
# Velocity P-wave (km/s) = 6.24226 6.40260 6.32294
#
# Compressibility (1/GPa) = 0.02123119
#
# Stress axis : x y z
#
# Youngs Moduli (GPa) = 60.38327 99.69691 61.76482
#
# Poissons Ratio (x) = 0.30366 0.33800
# Poissons Ratio (y) = 0.18392 0.13941
# Poissons Ratio (z) = 0.33044 0.22502
#
# Static dielectric constant tensor:
#      x y z
#    x 3.725220 0.000020 -0.332160 
#    y 0.000020 4.181290 -0.000040 
#    z -0.332160 -0.000040 3.710750 
# 
# 
# High freq. dielectric constant tensor:
#      x y z
#    x 1.802000 0.000000 -0.030990 
#    y 0.000000 1.853390 0.000000 
#    z -0.030990 0.000000 1.821570 
# 
# From -- ./inp_files/100576.got.cif
#   From: 2010.06.25/outbox.cif.g09.slc.cpg/sg15_51_cif.got.tgz:100576.got - 2010.06.28 07:06:18.
