data_PCOD8142671
_publ_section_title
;
Structure prediction by ZEFSAII (Michael W. Deem and Ramdas Pophale) SiO2 
 PCOD8142671
Probable space group: C 2/C
;
_chemical_formula_sum "Si O2"
_cell_formula_units_Z 60
_cell_length_a 7.910083
_cell_length_b 11.753265
_cell_length_c 31.593796
_cell_angle_alpha 90.000000
_cell_angle_beta 72.948573
_cell_angle_gamma 90.000000
_cell_volume 2808.137220
_symmetry_space_group_name_H-M "C 2/C"
_symmetry_group_IT_number 15
_symmetry_cell_setting 'monoclinic'
loop_
_space_group_symop_operation_xyz
x,y,z
-x,y,1/2-z
-x,-y,-z
x,-y,1/2+z
1/2+x,1/2+y,z
1/2-x,1/2+y,1/2-z
1/2-x,1/2-y,-z
1/2+x,1/2-y,1/2+z
loop_
_atom_site_type_symbol
_atom_site_label
_atom_site_fract_x
_atom_site_fract_y
_atom_site_fract_z
Si Si1 0.000000 0.381240 0.750000
Si Si2 0.034439 0.028902 0.575833
Si Si3 0.337400 0.080559 0.002833
Si Si4 0.127448 0.233077 0.281072
Si Si5 0.651835 0.004199 0.084981
Si Si6 0.573327 0.784523 0.927845
Si Si7 0.086227 0.475624 0.320131
Si Si8 0.143769 0.103169 0.146711
O O1 0.824051 0.307720 0.755628
O O2 0.028585 0.458338 0.706488
O O3 0.846629 0.966073 0.586996
O O4 0.017689 0.164158 0.572242
O O5 0.158218 0.982506 0.529683
O O6 0.116166 0.999487 0.615514
O O7 0.364892 0.197707 0.027420
O O8 0.330760 0.095339 0.952348
O O9 0.500000 0.000000 0.000000
O O10 0.156156 0.359042 0.296073
O O11 0.000000 0.233331 0.250000
O O12 0.040442 0.154928 0.323814
O O13 0.536538 0.950505 0.130639
O O14 0.569842 0.119580 0.073088
O O15 0.740405 0.797477 0.884094
O O16 0.255041 0.551045 0.320526
#
# Coordination Sequence:
#
# PCOD8142671 Si02
#       8
#     4   8   8   8   8   8   8   8
#     4  12  26  44  68 100 124 164 220 264 330 402
#     4  11  21  38  64  94 125 173 213 257 320 377
#     4   9  20  39  59  90 130 167 213 267 309 372
#     4  12  25  45  71  95 129 169 212 271 332 388
#     4  10  21  39  63  92 129 164 217 267 311 385
#     4   9  21  40  63  90 129 170 210 262 317 373
#     4  11  24  45  67  95 130 169 212 268 331 392
#     4  10  23  42  63  94 132 162 211 267 317 382
#
# _framework density 21.366477
#
# number of rings (size 3 to 8) (size 9 to 14) (size 15 to 20)
#    0.000    1.600    2.000    2.800    0.000    6.933 
#    2.400    9.333    0.000    0.000    0.000    0.000 
#    0.000    0.000    0.000    0.000    0.000    0.000 
#
# Total GULP energy -372020.495817 kJ/mol
# GULP energy per Si atom -12400.683194 kJ/mol
# Density = 2.131785 g / cm^3
# Si number density = 21.366477 Si / 1000 Ang^3
#
#
#
# Elastic Constant Matrix: (Units=GPa)
#
#
# Indices 1 2 3 4 5 6 
#
# 1 99.6659 16.3954 31.8403 0.0000 -9.3588 0.0000
# 2 16.3954 81.6857 40.8126 0.0000 -3.4735 0.0000
# 3 31.8403 40.8126 118.3076 0.0000 7.0818 0.0000
# 4 0.0000 0.0000 0.0000 19.6674 0.0000 -2.1558
# 5 -9.3588 -3.4735 7.0818 0.0000 42.3987 0.0000
# 6 0.0000 0.0000 0.0000 -2.1558 0.0000 23.7707
#
#
#
# Elastic Compliance Matrix: (Units=1/GPa)
#
#
# Indices 1 2 3 4 5 6 
#
# 1 0.011382 -0.000652 -0.003016 0.000000 0.002963 0.000000
# 2 -0.000652 0.015014 -0.005120 0.000000 0.001941 0.000000
# 3 -0.003016 -0.005120 0.011207 0.000000 -0.002957 0.000000
# 4 0.000000 0.000000 0.000000 0.051356 0.000000 0.004658
# 5 0.002963 0.001941 -0.002957 0.000000 0.024893 0.000000
# 6 0.000000 0.000000 0.000000 0.004658 0.000000 0.042491
#
#
# Mechanical properties :
#
#
# Convention : Reuss Voigt Hill
#
# Bulk Modulus (GPa) = 49.92992 53.08400 51.50696
# Shear Modulus (GPa) = 27.68634 31.20808 29.44721
#
# Velocity S-wave (km/s) = 3.60361 3.82594 3.71643
# Velocity P-wave (km/s) = 6.38230 6.66450 6.52492
#
# Compressibility (1/GPa) = 0.02002807
#
# Stress axis : x y z
#
# Youngs Moduli (GPa) = 87.85463 66.60664 89.22621
#
# Poissons Ratio (x) = 0.04341 0.26909
# Poissons Ratio (y) = 0.05726 0.45684
# Poissons Ratio (z) = 0.26496 0.34103
#
# Static dielectric constant tensor:
#      x y z
#    x 4.032800 0.000000 0.103280 
#    y 0.000000 3.542320 0.000000 
#    z 0.103280 0.000000 4.115000 
# 
# 
# High freq. dielectric constant tensor:
#      x y z
#    x 1.850350 0.000000 0.004400 
#    y 0.000000 1.824760 0.000000 
#    z 0.004400 0.000000 1.852250 
# 
# From -- ./inp_files/307470.got.cif
#   From: 2010.06.25/outbox.cif.g09.slc.cpg/sg15_154_cif.got.tgz:307470.got - 2010.06.28 07:06:18.
