data_PCOD8142474
_publ_section_title
;
Structure prediction by ZEFSAII (Michael W. Deem and Ramdas Pophale) SiO2 
 PCOD8142474
Probable space group: C 2/C
;
_chemical_formula_sum "Si O2"
_cell_formula_units_Z 56
_cell_length_a 22.386054
_cell_length_b 21.561198
_cell_length_c 11.698954
_cell_angle_alpha 90.000000
_cell_angle_beta 149.705303
_cell_angle_gamma 90.000000
_cell_volume 2848.482943
_symmetry_space_group_name_H-M "C 2/C"
_symmetry_group_IT_number 15
_symmetry_cell_setting 'monoclinic'
loop_
_space_group_symop_operation_xyz
x,y,z
-x,y,1/2-z
-x,-y,-z
x,-y,1/2+z
1/2+x,1/2+y,z
1/2-x,1/2+y,1/2-z
1/2-x,1/2-y,-z
1/2+x,1/2-y,1/2+z
loop_
_atom_site_type_symbol
_atom_site_label
_atom_site_fract_x
_atom_site_fract_y
_atom_site_fract_z
Si Si1 0.042820 0.575328 0.450266
Si Si2 0.011707 0.919485 0.902622
Si Si3 0.335334 0.824658 0.208428
Si Si4 0.182019 0.991235 0.330382
Si Si5 0.168171 0.548937 0.235533
Si Si6 0.863166 0.416429 0.048136
Si Si7 0.928448 0.786657 0.739772
O O1 0.117871 0.636563 0.607061
O O2 0.125047 0.516381 0.611106
O O3 0.000000 0.579792 0.250000
O O4 0.931051 0.578446 0.348981
O O5 0.000000 0.935997 0.750000
O O6 0.000302 0.846173 0.905389
O O7 0.137671 0.943504 0.159706
O O8 0.909854 0.952965 0.806857
O O9 0.338346 0.860706 0.092377
O O10 0.415838 0.763523 0.320388
O O11 0.201168 0.807354 0.017461
O O12 0.206878 0.956468 0.491236
O O13 0.310401 0.019584 0.511658
O O14 0.195035 0.595231 0.173089
O O15 0.000000 0.430179 0.250000
O O16 0.000000 0.758175 0.750000
#
# Coordination Sequence:
#
# PCOD8142474 Si02
#       7
#     8   8   8   8   8   8   8
#     4  11  22  35  57  88 128 163 191 249 313 374
#     4  10  21  39  60  86 120 165 210 245 301 374
#     4  11  22  41  64  93 120 159 217 260 311 361
#     4  11  21  35  58  90 127 161 196 253 310 373
#     4  11  20  33  54  93 126 157 193 243 313 374
#     4  12  20  35  60  92 128 156 203 256 310 371
#     4  10  22  40  68  88 116 164 217 264 296 370
#
# _framework density 19.659587999999999
#
# number of rings (size 3 to 8) (size 9 to 14) (size 15 to 20)
#    0.000    1.143    4.286    3.429    0.000    3.429 
#    0.000    0.000    6.286    1.714    0.000    0.000 
#    0.000    0.000    0.000    0.000    0.000    0.000 
#
# Total GULP energy -347143.165288 kJ/mol
# GULP energy per Si atom -12397.970189 kJ/mol
# Density = 1.961484 g / cm^3
# Si number density = 19.659588 Si / 1000 Ang^3
#
#
#
# Elastic Constant Matrix: (Units=GPa)
#
#
# Indices 1 2 3 4 5 6 
#
# 1 93.1208 30.2512 38.9884 0.0000 -10.8536 0.0000
# 2 30.2512 76.6422 36.5880 0.0000 -6.9401 0.0000
# 3 38.9884 36.5880 103.1610 0.0000 -23.8634 0.0000
# 4 0.0000 0.0000 0.0000 22.8957 0.0000 -2.3811
# 5 -10.8536 -6.9401 -23.8634 0.0000 45.1579 0.0000
# 6 0.0000 0.0000 0.0000 -2.3811 0.0000 21.8305
#
#
#
# Elastic Compliance Matrix: (Units=1/GPa)
#
#
# Indices 1 2 3 4 5 6 
#
# 1 0.013509 -0.003503 -0.003687 0.000000 0.000760 0.000000
# 2 -0.003503 0.016630 -0.004760 0.000000 -0.000801 0.000000
# 3 -0.003687 -0.004760 0.014128 0.000000 0.005848 0.000000
# 4 0.000000 0.000000 0.000000 0.044177 0.000000 0.004819
# 5 0.000760 -0.000801 0.005848 0.000000 0.025294 0.000000
# 6 0.000000 0.000000 0.000000 0.004819 0.000000 0.046333
#
#
# Mechanical properties :
#
#
# Convention : Reuss Voigt Hill
#
# Bulk Modulus (GPa) = 49.09866 53.84214 51.47040
# Shear Modulus (GPa) = 26.21081 29.11658 27.66370
#
# Velocity S-wave (km/s) = 3.65531 3.85260 3.75525
# Velocity P-wave (km/s) = 6.54551 6.87290 6.71120
#
# Compressibility (1/GPa) = 0.02036715
#
# Stress axis : x y z
#
# Youngs Moduli (GPa) = 74.02370 60.13259 70.78110
#
# Poissons Ratio (x) = 0.21065 0.26100
# Poissons Ratio (y) = 0.25931 0.33689
# Poissons Ratio (z) = 0.27296 0.28620
#
# Static dielectric constant tensor:
#      x y z
#    x 3.866280 0.000000 -0.090350 
#    y 0.000000 3.511960 0.000000 
#    z -0.090350 0.000000 3.696850 
# 
# 
# High freq. dielectric constant tensor:
#      x y z
#    x 1.781350 0.000000 0.004820 
#    y 0.000000 1.743240 0.000000 
#    z 0.004820 0.000000 1.756290 
# 
# From -- ./inp_files/119871.got.cif
#   From: 2010.06.25/outbox.cif.g09.slc.cpg/sg15_60_cif.got.tgz:119871.got - 2010.06.28 07:06:18.
