data_PCOD8142705
_publ_section_title
;
Structure prediction by ZEFSAII (Michael W. Deem and Ramdas Pophale) SiO2 
 PCOD8142705
Probable space group: C 2/C
;
_chemical_formula_sum "Si O2"
_cell_formula_units_Z 44
_cell_length_a 15.323678
_cell_length_b 13.457008
_cell_length_c 13.038690
_cell_angle_alpha 90.000000
_cell_angle_beta 53.432829
_cell_angle_gamma 90.000000
_cell_volume 2159.469126
_symmetry_space_group_name_H-M "C 2/C"
_symmetry_group_IT_number 15
_symmetry_cell_setting 'monoclinic'
loop_
_space_group_symop_operation_xyz
x,y,z
-x,y,1/2-z
-x,-y,-z
x,-y,1/2+z
1/2+x,1/2+y,z
1/2-x,1/2+y,1/2-z
1/2-x,1/2-y,-z
1/2+x,1/2-y,1/2+z
loop_
_atom_site_type_symbol
_atom_site_label
_atom_site_fract_x
_atom_site_fract_y
_atom_site_fract_z
Si Si1 0.500000 0.042747 0.750000
Si Si2 0.123677 0.839691 0.118487
Si Si3 0.869429 0.377210 0.951377
Si Si4 0.126676 0.087117 0.830872
Si Si5 0.129511 0.659808 0.829098
Si Si6 0.421816 0.375736 0.579976
O O1 0.407534 0.974031 0.864505
O O2 0.558058 0.112972 0.790277
O O3 0.105340 0.721207 0.131909
O O4 0.064221 0.875057 0.267678
O O5 0.243091 0.876477 0.067164
O O6 0.112867 0.887068 0.014332
O O7 0.924887 0.374887 0.025154
O O8 0.244623 0.131305 0.770683
O O9 0.129797 0.967555 0.821769
O O10 0.053517 0.120103 0.980410
O O11 0.121540 0.779320 0.830925
#
# Coordination Sequence:
#
# PCOD8142705 Si02
#       6
#     4   8   8   8   8   8
#     4  12  22  38  60  86 122 162 190 250 300 348
#     4   9  18  37  59  88 116 149 197 246 290 348
#     4   9  20  35  60  87 117 151 195 244 295 348
#     4  10  21  39  64  87 119 158 196 247 295 351
#     4  10  23  41  57  91 120 151 204 246 293 354
#     4  10  21  40  60  90 119 159 198 238 300 361
#
# _framework density 20.375377
#
# number of rings (size 3 to 8) (size 9 to 14) (size 15 to 20)
#    0.000    2.182    0.000    3.273    5.091    0.000 
#   13.091    0.909    0.000    0.000    0.000    0.000 
#    0.000    0.000    0.000    0.000    0.000    0.000 
#
# Total GULP energy -272628.857566 kJ/mol
# GULP energy per Si atom -12392.220798 kJ/mol
# Density = 2.032900 g / cm^3
# Si number density = 20.375377 Si / 1000 Ang^3
#
#
#
# Elastic Constant Matrix: (Units=GPa)
#
#
# Indices 1 2 3 4 5 6 
#
# 1 95.8083 57.4095 37.0612 0.0000 15.6267 0.0000
# 2 57.4095 168.0499 70.3524 0.0000 5.0406 0.0000
# 3 37.0612 70.3524 69.2079 0.0000 2.3689 0.0000
# 4 0.0000 0.0000 0.0000 39.4415 0.0000 2.4517
# 5 15.6267 5.0406 2.3689 0.0000 30.5368 0.0000
# 6 0.0000 0.0000 0.0000 2.4517 0.0000 12.4647
#
#
#
# Elastic Compliance Matrix: (Units=1/GPa)
#
#
# Indices 1 2 3 4 5 6 
#
# 1 0.015234 -0.002926 -0.004947 0.000000 -0.006929 0.000000
# 2 -0.002926 0.010945 -0.009575 0.000000 0.000433 0.000000
# 3 -0.004947 -0.009575 0.026761 0.000000 0.002036 0.000000
# 4 0.000000 0.000000 0.000000 0.025668 0.000000 -0.005049
# 5 -0.006929 0.000433 0.002036 0.000000 0.036064 0.000000
# 6 0.000000 0.000000 0.000000 -0.005049 0.000000 0.081220
#
#
# Mechanical properties :
#
#
# Convention : Reuss Voigt Hill
#
# Bulk Modulus (GPa) = 55.41051 73.63469 64.52260
# Shear Modulus (GPa) = 21.11465 27.70478 24.40972
#
# Velocity S-wave (km/s) = 3.22263 3.69144 3.46497
# Velocity P-wave (km/s) = 6.41100 7.37472 6.90968
#
# Compressibility (1/GPa) = 0.01804712
#
# Stress axis : x y z
#
# Youngs Moduli (GPa) = 65.64125 91.36322 37.36713
#
# Poissons Ratio (x) = 0.26729 0.18485
# Poissons Ratio (y) = 0.19204 0.35777
# Poissons Ratio (z) = 0.32472 0.87476
#
# Static dielectric constant tensor:
#      x y z
#    x 3.882190 0.000000 -0.060390 
#    y 0.000000 3.595600 0.000000 
#    z -0.060390 0.000000 3.755820 
# 
# 
# High freq. dielectric constant tensor:
#      x y z
#    x 1.802390 0.000000 -0.007830 
#    y 0.000000 1.788560 0.000000 
#    z -0.007830 0.000000 1.805050 
# 
# From -- ./inp_files/96076.got.cif
#   From: 2010.06.25/outbox.cif.g09.slc.cpg/sg15_49_cif.got.tgz:96076.got - 2010.06.28 07:06:18.
