data_PCOD8142972
_publ_section_title
;
Structure prediction by ZEFSAII (Michael W. Deem and Ramdas Pophale) SiO2 
 PCOD8142972
Probable space group: C 2/C
;
_chemical_formula_sum "Si O2"
_cell_formula_units_Z 36
_cell_length_a 13.380207
_cell_length_b 8.245779
_cell_length_c 23.924422
_cell_angle_alpha 90.000000
_cell_angle_beta 148.661726
_cell_angle_gamma 90.000000
_cell_volume 1372.822213
_symmetry_space_group_name_H-M "C 2/C"
_symmetry_group_IT_number 15
_symmetry_cell_setting 'monoclinic'
loop_
_space_group_symop_operation_xyz
x,y,z
-x,y,1/2-z
-x,-y,-z
x,-y,1/2+z
1/2+x,1/2+y,z
1/2-x,1/2+y,1/2-z
1/2-x,1/2-y,-z
1/2+x,1/2-y,1/2+z
loop_
_atom_site_type_symbol
_atom_site_label
_atom_site_fract_x
_atom_site_fract_y
_atom_site_fract_z
Si Si1 0.329425 0.639544 0.462595
Si Si2 0.240185 0.155579 0.643569
Si Si3 0.753431 0.835201 0.187592
Si Si4 0.000000 0.935282 0.750000
Si Si5 0.049529 0.449841 0.668551
O O1 0.544271 0.684680 0.588250
O O2 0.333098 0.455647 0.441813
O O3 0.283366 0.768653 0.391994
O O4 0.161578 0.633756 0.429696
O O5 0.312606 0.322806 0.650358
O O6 0.413223 0.073251 0.761411
O O7 0.787366 0.689366 0.247447
O O8 0.576866 0.946984 0.125011
O O9 0.944826 0.948691 0.275990
#
# Coordination Sequence:
#
# PCOD8142972 Si02
#       5
#     8   8   8   4   8
#     4  10  21  44  65  98 134 178 220 287 329 405
#     4  10  21  39  70  93 131 177 225 272 348 384
#     4  11  23  40  67  94 138 181 223 271 346 387
#     4  12  20  40  62  96 132 182 216 276 330 406
#     4  11  21  44  64  99 134 178 222 282 329 410
#
# _framework density 26.223351000000001
#
# number of rings (size 3 to 8) (size 9 to 14) (size 15 to 20)
#    0.000    1.333    4.444    2.667    0.000    0.889 
#    4.000    5.556    0.000    0.000    0.000    0.000 
#    0.000    0.000    0.000    0.000    0.000    0.000 
#
# Total GULP energy -223021.676645 kJ/mol
# GULP energy per Si atom -12390.093147 kJ/mol
# Density = 2.616367 g / cm^3
# Si number density = 26.223351 Si / 1000 Ang^3
#
#
#
# Elastic Constant Matrix: (Units=GPa)
#
#
# Indices 1 2 3 4 5 6 
#
# 1 119.4124 48.4955 8.9804 0.0002 34.3284 0.0000
# 2 48.4955 132.4580 10.0574 0.0006 6.4508 0.0000
# 3 8.9804 10.0574 60.1183 0.0012 26.0410 0.0000
# 4 0.0002 0.0006 0.0012 26.2379 0.0001 13.9152
# 5 34.3284 6.4508 26.0410 0.0001 36.6991 0.0000
# 6 0.0000 0.0000 0.0000 13.9152 0.0000 63.2308
#
#
#
# Elastic Compliance Matrix: (Units=1/GPa)
#
#
# Indices 1 2 3 4 5 6 
#
# 1 0.015044 -0.005124 0.006231 0.000000 -0.017593 0.000000
# 2 -0.005124 0.009402 -0.003130 0.000000 0.005362 0.000000
# 3 0.006231 -0.003130 0.026728 -0.000001 -0.024244 0.000000
# 4 0.000000 0.000000 -0.000001 0.043149 0.000001 -0.009496
# 5 -0.017593 0.005362 -0.024244 0.000001 0.059966 0.000000
# 6 0.000000 0.000000 0.000000 -0.009496 0.000000 0.017905
#
#
# Mechanical properties :
#
#
# Convention : Reuss Voigt Hill
#
# Bulk Modulus (GPa) = 21.21901 49.67278 35.44590
# Shear Modulus (GPa) = 26.04834 41.53059 33.78947
#
# Velocity S-wave (km/s) = 3.15513 3.98392 3.59350
# Velocity P-wave (km/s) = 4.62410 6.33605 5.54652
#
# Compressibility (1/GPa) = 0.04712755
#
# Stress axis : x y z
#
# Youngs Moduli (GPa) = 66.46971 106.35775 37.41361
#
# Poissons Ratio (x) = 0.54502 -0.23311
# Poissons Ratio (y) = 0.34061 0.11710
# Poissons Ratio (z) = -0.41414 0.33289
#
# Static dielectric constant tensor:
#      x y z
#    x 4.762850 0.000000 0.655230 
#    y 0.000000 5.140770 0.000000 
#    z 0.655230 0.000000 4.365220 
# 
# 
# High freq. dielectric constant tensor:
#      x y z
#    x 2.055710 0.000000 0.037120 
#    y 0.000000 2.079040 0.000000 
#    z 0.037120 0.000000 2.001430 
# 
# From -- ./inp_files/150299.got.cif
#   From: 2010.06.25/outbox.cif.g09.slc.cpg/sg15_76_cif.got.tgz:150299.got - 2010.06.28 07:06:18.
