data_PCOD8142677
_publ_section_title
;
Structure prediction by ZEFSAII (Michael W. Deem and Ramdas Pophale) SiO2 
 PCOD8142677
Probable space group: C 2/C
;
_chemical_formula_sum "Si O2"
_cell_formula_units_Z 64
_cell_length_a 29.659369
_cell_length_b 13.655496
_cell_length_c 20.801282
_cell_angle_alpha 90.000000
_cell_angle_beta 158.194382
_cell_angle_gamma 90.000000
_cell_volume 3129.465920
_symmetry_space_group_name_H-M "C 2/C"
_symmetry_group_IT_number 15
_symmetry_cell_setting 'monoclinic'
loop_
_space_group_symop_operation_xyz
x,y,z
-x,y,1/2-z
-x,-y,-z
x,-y,1/2+z
1/2+x,1/2+y,z
1/2-x,1/2+y,1/2-z
1/2-x,1/2-y,-z
1/2+x,1/2-y,1/2+z
loop_
_atom_site_type_symbol
_atom_site_label
_atom_site_fract_x
_atom_site_fract_y
_atom_site_fract_z
Si Si1 0.518688 0.096141 0.984119
Si Si2 0.200761 0.083482 0.930889
Si Si3 0.381192 0.452897 0.313038
Si Si4 0.200019 0.608482 0.894278
Si Si5 0.357518 0.780774 0.055324
Si Si6 0.744677 0.111361 0.200655
Si Si7 0.419595 0.226704 0.202494
Si Si8 0.488346 0.731496 0.537926
O O1 0.436067 0.099045 0.811697
O O2 0.659688 0.102013 0.150583
O O3 0.471674 0.185949 0.963682
O O4 0.500000 0.000000 0.000000
O O5 0.136588 0.026288 0.786484
O O6 0.112033 0.158470 0.850103
O O7 0.309136 0.151977 0.049646
O O8 0.242990 0.999787 0.035472
O O9 0.500000 0.500000 0.500000
O O10 0.270696 0.501356 0.207159
O O11 0.398075 0.334817 0.337831
O O12 0.190334 0.643874 0.954682
O O13 0.285902 0.678766 0.966525
O O14 0.500000 0.759255 0.250000
O O15 0.327836 0.825199 0.947179
O O16 0.867847 0.165666 0.384524
O O17 0.500000 0.191812 0.250000
O O18 0.483609 0.217466 0.356728
#
# Coordination Sequence:
#
# PCOD8142677 Si02
#       8
#     8   8   8   8   8   8   8   8
#     4  12  26  40  62  97 136 170 215 278 325 378
#     4  10  21  39  63  93 125 162 213 267 311 378
#     4   9  20  39  66  92 123 170 215 262 318 385
#     4  11  23  40  65  92 134 164 213 275 313 385
#     4  11  22  40  66  96 124 173 218 255 326 393
#     4  11  22  42  66  93 128 173 216 260 329 395
#     4  10  23  41  67  90 121 168 213 261 323 381
#     4  10  23  44  63  93 131 169 215 270 324 392
#
# _framework density 20.450775
#
# number of rings (size 3 to 8) (size 9 to 14) (size 15 to 20)
#    0.000    1.500    3.750    0.750    0.000    8.000 
#    0.000    1.250    0.000    0.000    0.000    0.000 
#    0.000    0.000    0.000    0.000    0.000    0.000 
#
# Total GULP energy -396671.185732 kJ/mol
# GULP energy per Si atom -12395.974554 kJ/mol
# Density = 2.040423 g / cm^3
# Si number density = 20.450775 Si / 1000 Ang^3
#
#
#
# Elastic Constant Matrix: (Units=GPa)
#
#
# Indices 1 2 3 4 5 6 
#
# 1 84.4222 33.2312 26.3343 0.0000 5.0705 0.0000
# 2 33.2312 99.7295 28.8583 0.0000 -0.2605 0.0000
# 3 26.3343 28.8583 96.6828 0.0000 -0.9288 0.0000
# 4 0.0000 0.0000 0.0000 30.8172 0.0000 -2.1401
# 5 5.0705 -0.2605 -0.9288 0.0000 35.7500 0.0000
# 6 0.0000 0.0000 0.0000 -2.1401 0.0000 21.6315
#
#
#
# Elastic Compliance Matrix: (Units=1/GPa)
#
#
# Indices 1 2 3 4 5 6 
#
# 1 0.014411 -0.004012 -0.002748 0.000000 -0.002145 0.000000
# 2 -0.004012 0.012092 -0.002511 0.000000 0.000592 0.000000
# 3 -0.002748 -0.002511 0.011848 0.000000 0.000679 0.000000
# 4 0.000000 0.000000 0.000000 0.032674 0.000000 0.003233
# 5 -0.002145 0.000592 0.000679 0.000000 0.028298 0.000000
# 6 0.000000 0.000000 0.000000 0.003233 0.000000 0.046549
#
#
# Mechanical properties :
#
#
# Convention : Reuss Voigt Hill
#
# Bulk Modulus (GPa) = 50.48453 50.85357 50.66905
# Shear Modulus (GPa) = 29.23702 30.46712 29.85207
#
# Velocity S-wave (km/s) = 3.78515 3.86395 3.82475
# Velocity P-wave (km/s) = 6.62137 6.69531 6.65844
#
# Compressibility (1/GPa) = 0.01980805
#
# Stress axis : x y z
#
# Youngs Moduli (GPa) = 69.39340 82.69848 84.40531
#
# Poissons Ratio (x) = 0.33180 0.23196
# Poissons Ratio (y) = 0.27842 0.21192
# Poissons Ratio (z) = 0.19070 0.20764
#
# Static dielectric constant tensor:
#      x y z
#    x 3.492730 0.000000 -0.048850 
#    y 0.000000 3.841110 0.000000 
#    z -0.048850 0.000000 3.893480 
# 
# 
# High freq. dielectric constant tensor:
#      x y z
#    x 1.782180 0.000000 -0.009340 
#    y 0.000000 1.806510 0.000000 
#    z -0.009340 0.000000 1.813690 
# 
# From -- ./inp_files/259450.got.cif
#   From: 2010.06.25/outbox.cif.g09.slc.cpg/sg15_130_cif.got.tgz:259450.got - 2010.06.28 07:06:18.
