data_PCOD8142805
_publ_section_title
;
Structure prediction by ZEFSAII (Michael W. Deem and Ramdas Pophale) SiO2 
 PCOD8142805
Probable space group: C 2/C
;
_chemical_formula_sum "Si O2"
_cell_formula_units_Z 52
_cell_length_a 12.554493
_cell_length_b 14.144869
_cell_length_c 18.143013
_cell_angle_alpha 90.000000
_cell_angle_beta 53.078225
_cell_angle_gamma 90.000000
_cell_volume 2575.741714
_symmetry_space_group_name_H-M "C 2/C"
_symmetry_group_IT_number 15
_symmetry_cell_setting 'monoclinic'
loop_
_space_group_symop_operation_xyz
x,y,z
-x,y,1/2-z
-x,-y,-z
x,-y,1/2+z
1/2+x,1/2+y,z
1/2-x,1/2+y,1/2-z
1/2-x,1/2-y,-z
1/2+x,1/2-y,1/2+z
loop_
_atom_site_type_symbol
_atom_site_label
_atom_site_fract_x
_atom_site_fract_y
_atom_site_fract_z
Si Si1 0.884841 0.042883 0.998163
Si Si2 0.500000 0.004365 0.750000
Si Si3 0.922414 0.827209 0.350106
Si Si4 0.804189 0.786457 0.615291
Si Si5 0.201581 0.379286 0.074322
Si Si6 0.398499 0.155372 0.186610
Si Si7 0.600178 0.785171 0.976562
O O1 0.783898 0.112751 0.083147
O O2 0.803094 0.956048 0.999321
O O3 0.947483 0.100699 0.905086
O O4 0.000000 0.000000 0.000000
O O5 0.560410 0.943807 0.793064
O O6 0.384923 0.074310 0.825505
O O7 0.768532 0.801878 0.395374
O O8 0.000000 0.874920 0.250000
O O9 0.983736 0.726009 0.342448
O O10 0.740929 0.802848 0.722728
O O11 0.960835 0.767892 0.546661
O O12 0.280872 0.290938 0.076098
O O13 0.111559 0.351397 0.042624
O O14 0.389937 0.150385 0.101283
#
# Coordination Sequence:
#
# PCOD8142805 Si02
#       7
#     8   4   8   8   8   8   8
#     4  12  21  41  66  92 126 167 217 267 320 380
#     4  12  24  42  70  94 134 162 226 280 328 372
#     4  10  21  39  65  96 128 166 218 268 326 382
#     4  11  21  39  69  93 127 174 214 268 324 382
#     4  11  26  46  60  99 135 177 212 277 327 398
#     4  11  21  42  67 103 127 173 219 274 325 392
#     4  11  26  45  66  92 139 178 220 256 344 400
#
# _framework density 20.188358999999998
#
# number of rings (size 3 to 8) (size 9 to 14) (size 15 to 20)
#    0.000    0.923    6.923    0.462    4.308    0.615 
#    2.769    0.000    0.000    0.000    0.000    0.000 
#    0.000    0.000    0.000    0.000    0.000    0.000 
#
# Total GULP energy -322329.894150 kJ/mol
# GULP energy per Si atom -12397.303621 kJ/mol
# Density = 2.014241 g / cm^3
# Si number density = 20.188359 Si / 1000 Ang^3
#
#
#
# Elastic Constant Matrix: (Units=GPa)
#
#
# Indices 1 2 3 4 5 6 
#
# 1 86.9035 33.1807 49.9938 0.0000 9.4764 0.0000
# 2 33.1807 92.8475 42.3157 0.0000 8.3118 0.0000
# 3 49.9938 42.3157 109.1171 0.0000 4.4340 0.0000
# 4 0.0000 0.0000 0.0000 30.5060 0.0000 11.4093
# 5 9.4764 8.3118 4.4340 0.0000 24.8301 0.0000
# 6 0.0000 0.0000 0.0000 11.4093 0.0000 25.3480
#
#
#
# Elastic Compliance Matrix: (Units=1/GPa)
#
#
# Indices 1 2 3 4 5 6 
#
# 1 0.016699 -0.002639 -0.006451 0.000000 -0.004338 0.000000
# 2 -0.002639 0.013809 -0.004028 0.000000 -0.002896 0.000000
# 3 -0.006451 -0.004028 0.013626 0.000000 0.001377 0.000000
# 4 0.000000 0.000000 0.000000 0.039416 0.000000 -0.017741
# 5 -0.004338 -0.002896 0.001377 0.000000 0.042653 0.000000
# 6 0.000000 0.000000 0.000000 -0.017741 0.000000 0.047436
#
#
# Mechanical properties :
#
#
# Convention : Reuss Voigt Hill
#
# Bulk Modulus (GPa) = 55.87559 59.98315 57.92937
# Shear Modulus (GPa) = 24.29064 27.02870 25.65967
#
# Velocity S-wave (km/s) = 3.47248 3.66297 3.56899
# Velocity P-wave (km/s) = 6.61927 6.90406 6.76316
#
# Compressibility (1/GPa) = 0.01789690
#
# Stress axis : x y z
#
# Youngs Moduli (GPa) = 59.88423 72.41876 73.38750
#
# Poissons Ratio (x) = 0.19113 0.47343
# Poissons Ratio (y) = 0.15805 0.29561
# Poissons Ratio (z) = 0.38632 0.29171
#
# Static dielectric constant tensor:
#      x y z
#    x 3.707810 0.000000 0.046000 
#    y 0.000000 3.773040 0.000000 
#    z 0.046000 0.000000 3.972460 
# 
# 
# High freq. dielectric constant tensor:
#      x y z
#    x 1.784330 0.000000 -0.007870 
#    y 0.000000 1.783830 0.000000 
#    z -0.007870 0.000000 1.797300 
# 
# From -- ./inp_files/197691.got.cif
#   From: 2010.06.25/outbox.cif.g09.slc.cpg/sg15_99_cif.got.tgz:197691.got - 2010.06.28 07:06:18.
