data_PCOD8142870
_publ_section_title
;
Structure prediction by ZEFSAII (Michael W. Deem and Ramdas Pophale) SiO2 
 PCOD8142870
Probable space group: C 2/C
;
_chemical_formula_sum "Si O2"
_cell_formula_units_Z 56
_cell_length_a 8.536770
_cell_length_b 12.305052
_cell_length_c 24.331299
_cell_angle_alpha 90.000000
_cell_angle_beta 112.523693
_cell_angle_gamma 90.000000
_cell_volume 2360.930722
_symmetry_space_group_name_H-M "C 2/C"
_symmetry_group_IT_number 15
_symmetry_cell_setting 'monoclinic'
loop_
_space_group_symop_operation_xyz
x,y,z
-x,y,1/2-z
-x,-y,-z
x,-y,1/2+z
1/2+x,1/2+y,z
1/2-x,1/2+y,1/2-z
1/2-x,1/2-y,-z
1/2+x,1/2-y,1/2+z
loop_
_atom_site_type_symbol
_atom_site_label
_atom_site_fract_x
_atom_site_fract_y
_atom_site_fract_z
Si Si1 0.643483 0.415302 0.350147
Si Si2 0.807345 0.247688 0.122951
Si Si3 0.000000 0.604064 0.250000
Si Si4 0.500000 0.758766 0.250000
Si Si5 0.959671 0.693807 0.130162
Si Si6 0.736754 0.432667 0.241762
Si Si7 0.246097 0.016111 0.577072
Si Si8 0.878202 0.066233 0.057703
O O1 0.668163 0.296939 0.382314
O O2 0.752826 0.438038 0.310180
O O3 0.449054 0.430590 0.307206
O O4 0.708504 0.501296 0.403613
O O5 0.940461 0.196059 0.186676
O O6 0.612893 0.219274 0.109643
O O7 0.821321 0.379586 0.120268
O O8 0.866350 0.193086 0.073523
O O9 0.022960 0.680433 0.200913
O O10 0.830320 0.532165 0.224175
O O11 0.327952 0.823042 0.237315
O O12 0.871793 0.585171 0.096715
O O13 0.228073 0.050608 0.511545
O O14 0.067639 0.978607 0.577514
#
# Coordination Sequence:
#
# PCOD8142870 Si02
#       8
#     8   8   4   4   8   8   8   8
#     4  11  22  43  65 105 140 179 231 286 342 425
#     4  12  26  47  70 106 139 180 234 293 343 427
#     4  11  22  38  65 100 132 188 219 279 352 414
#     4  11  22  40  67 104 136 176 223 275 358 412
#     4  12  25  43  71  99 149 177 229 291 350 415
#     4  10  21  39  66  97 145 174 221 284 343 417
#     4  11  26  50  69 102 140 185 238 294 345 412
#     4  11  25  47  74  98 138 189 239 289 349 405
#
# _framework density 23.719460000000002
#
# number of rings (size 3 to 8) (size 9 to 14) (size 15 to 20)
#    0.000    0.857    2.857    4.714    2.000    3.429 
#    0.000    0.000    0.000    0.000    0.000    0.000 
#    0.000    0.000    0.000    0.000    0.000    0.000 
#
# Total GULP energy -347151.008692 kJ/mol
# GULP energy per Si atom -12398.250310 kJ/mol
# Density = 2.366547 g / cm^3
# Si number density = 23.719460 Si / 1000 Ang^3
#
#
#
# Elastic Constant Matrix: (Units=GPa)
#
#
# Indices 1 2 3 4 5 6 
#
# 1 42.5364 25.7485 22.4577 0.0000 -13.3737 0.0000
# 2 25.7485 110.0003 14.8574 0.0000 -0.1668 0.0000
# 3 22.4577 14.8574 104.5091 0.0000 -9.3348 0.0000
# 4 0.0000 0.0000 0.0000 38.9546 0.0000 -0.1634
# 5 -13.3737 -0.1668 -9.3348 0.0000 33.0677 0.0000
# 6 0.0000 0.0000 0.0000 -0.1634 0.0000 -18.2229
#
#
#
# Elastic Compliance Matrix: (Units=1/GPa)
#
#
# Indices 1 2 3 4 5 6 
#
# 1 0.034709 -0.007391 -0.005291 0.000000 0.012506 0.000000
# 2 -0.007391 0.010846 -0.000221 0.000000 -0.002997 0.000000
# 3 -0.005291 -0.000221 0.010818 0.000000 0.000913 0.000000
# 4 0.000000 0.000000 0.000000 0.025670 0.000000 -0.000230
# 5 0.012506 -0.002997 0.000913 0.000000 0.035542 0.000000
# 6 0.000000 0.000000 0.000000 -0.000230 0.000000 -0.054874
#
#
# Mechanical properties :
#
#
# Convention : Reuss Voigt Hill
#
# Bulk Modulus (GPa) = 32.71459 42.57480 37.64469
# Shear Modulus (GPa) = 50.65537 23.69201 37.17369
#
# Velocity S-wave (km/s) = 4.62627 3.16388 3.96311
# Velocity P-wave (km/s) = 6.50836 5.59778 6.07017
#
# Compressibility (1/GPa) = 0.03056740
#
# Stress axis : x y z
#
# Youngs Moduli (GPa) = 28.81133 92.19745 92.43449
#
# Poissons Ratio (x) = 0.68142 0.48904
# Poissons Ratio (y) = 0.21294 0.02047
# Poissons Ratio (z) = 0.15243 0.02041
#
# Static dielectric constant tensor:
#      x y z
#    x 4.219060 0.000000 -0.379230 
#    y 0.000000 4.438690 0.000000 
#    z -0.379230 0.000000 4.449770 
# 
# 
# High freq. dielectric constant tensor:
#      x y z
#    x 1.936350 0.000000 -0.019920 
#    y 0.000000 1.948170 0.000000 
#    z -0.019920 0.000000 1.938130 
# 
# From -- ./inp_files/287984.got.cif
#   From: 2010.06.25/outbox.cif.g09.slc.cpg/sg15_144_cif.got.tgz:287984.got - 2010.06.28 07:06:18.
