data_PCOD8142764
_publ_section_title
;
Structure prediction by ZEFSAII (Michael W. Deem and Ramdas Pophale) SiO2 
 PCOD8142764
Probable space group: C 2/C
;
_chemical_formula_sum "Si O2"
_cell_formula_units_Z 40
_cell_length_a 21.662266
_cell_length_b 19.430457
_cell_length_c 14.223209
_cell_angle_alpha 90.000000
_cell_angle_beta 19.238571
_cell_angle_gamma 90.000000
_cell_volume 1972.617880
_symmetry_space_group_name_H-M "C 2/C"
_symmetry_group_IT_number 15
_symmetry_cell_setting 'monoclinic'
loop_
_space_group_symop_operation_xyz
x,y,z
-x,y,1/2-z
-x,-y,-z
x,-y,1/2+z
1/2+x,1/2+y,z
1/2-x,1/2+y,1/2-z
1/2-x,1/2-y,-z
1/2+x,1/2-y,1/2+z
loop_
_atom_site_type_symbol
_atom_site_label
_atom_site_fract_x
_atom_site_fract_y
_atom_site_fract_z
Si Si1 0.207172 0.883869 0.939653
Si Si2 0.434452 0.370105 0.989467
Si Si3 0.000000 0.755654 0.750000
Si Si4 0.970720 0.678713 0.402013
Si Si5 0.000000 0.984728 0.750000
Si Si6 0.166508 0.183140 0.312334
O O1 0.347938 0.858138 0.816279
O O2 0.272923 0.859511 0.741505
O O3 0.000000 0.850022 0.250000
O O4 0.186207 0.966993 0.978845
O O5 0.512875 0.302617 0.824074
O O6 0.504792 0.438538 0.836480
O O7 0.520609 0.367876 0.970250
O O8 0.209429 0.368886 0.317916
O O9 0.180686 0.707152 0.483224
O O10 0.948777 0.752457 0.481834
O O11 0.000000 0.688742 0.250000
#
# Coordination Sequence:
#
# PCOD8142764 Si02
#       6
#     8   8   4   8   4   8
#     4  10  23  41  58  86 121 158 196 245 289 348
#     4  10  21  39  65  85 119 161 192 245 291 351
#     4   9  20  36  60  98 120 143 192 248 306 351
#     4  11  22  38  63  94 119 149 195 246 305 351
#     4   9  24  44  58  80 124 159 210 234 280 353
#     4  11  21  37  64  92 120 150 193 246 305 350
#
# _framework density 20.277622000000001
#
# number of rings (size 3 to 8) (size 9 to 14) (size 15 to 20)
#    0.600    1.200    0.000    4.800    0.000    7.200 
#    0.000    0.000    0.000    0.000    0.000    0.000 
#    0.000    0.000    0.000    0.000    0.000    0.000 
#
# Total GULP energy -247973.884009 kJ/mol
# GULP energy per Si atom -12398.694200 kJ/mol
# Density = 2.023147 g / cm^3
# Si number density = 20.277622 Si / 1000 Ang^3
#
#
#
# Elastic Constant Matrix: (Units=GPa)
#
#
# Indices 1 2 3 4 5 6 
#
# 1 127.4174 46.1242 58.5123 -0.0171 -16.4497 0.0037
# 2 46.1242 114.7541 51.6303 -0.0162 -4.8817 0.0067
# 3 58.5123 51.6303 115.2066 -0.0259 -3.3255 0.0238
# 4 -0.0171 -0.0162 -0.0259 10.7933 0.0262 -0.5729
# 5 -16.4497 -4.8817 -3.3255 0.0262 36.2862 -0.0123
# 6 0.0037 0.0067 0.0238 -0.5729 -0.0123 18.4326
#
#
#
# Elastic Compliance Matrix: (Units=1/GPa)
#
#
# Indices 1 2 3 4 5 6 
#
# 1 0.011374 -0.002307 -0.004615 -0.000007 0.004423 0.000007
# 2 -0.002307 0.011421 -0.003943 0.000004 0.000129 0.000002
# 3 -0.004615 -0.003943 0.012749 0.000020 -0.001454 -0.000014
# 4 -0.000007 0.000004 0.000020 0.092804 -0.000067 0.002884
# 5 0.004423 0.000129 -0.001454 -0.000067 0.029448 0.000018
# 6 0.000007 0.000002 -0.000014 0.002884 0.000018 0.054341
#
#
# Mechanical properties :
#
#
# Convention : Reuss Voigt Hill
#
# Bulk Modulus (GPa) = 72.39120 74.43466 73.41293
# Shear Modulus (GPa) = 20.96689 26.50983 23.73836
#
# Velocity S-wave (km/s) = 3.21906 3.61964 3.42521
# Velocity P-wave (km/s) = 7.04230 7.36591 7.20592
#
# Compressibility (1/GPa) = 0.01381383
#
# Stress axis : x y z
#
# Youngs Moduli (GPa) = 87.92301 87.55736 78.43708
#
# Poissons Ratio (x) = 0.20199 0.36199
# Poissons Ratio (y) = 0.20284 0.30928
# Poissons Ratio (z) = 0.40576 0.34524
#
# Static dielectric constant tensor:
#      x y z
#    x 3.644850 -0.000030 0.155030 
#    y -0.000030 3.501860 0.000050 
#    z 0.155030 0.000050 3.681720 
# 
# 
# High freq. dielectric constant tensor:
#      x y z
#    x 1.801900 0.000000 0.008560 
#    y 0.000000 1.774060 0.000000 
#    z 0.008560 0.000000 1.787580 
# 
# From -- ./inp_files/58565.got.cif
#   From: 2010.06.25/outbox.cif.g09.slc.cpg/sg15_30_cif.got.tgz:58565.got - 2010.06.28 07:06:18.
