data_PCOD8142340
_publ_section_title
;
Structure prediction by ZEFSAII (Michael W. Deem and Ramdas Pophale) SiO2 
 PCOD8142340
Probable space group: C 2/C
;
_chemical_formula_sum "Si O2"
_cell_formula_units_Z 64
_cell_length_a 17.663543
_cell_length_b 14.757066
_cell_length_c 16.611750
_cell_angle_alpha 90.000000
_cell_angle_beta 133.786468
_cell_angle_gamma 90.000000
_cell_volume 3125.967883
_symmetry_space_group_name_H-M "C 2/C"
_symmetry_group_IT_number 15
_symmetry_cell_setting 'monoclinic'
loop_
_space_group_symop_operation_xyz
x,y,z
-x,y,1/2-z
-x,-y,-z
x,-y,1/2+z
1/2+x,1/2+y,z
1/2-x,1/2+y,1/2-z
1/2-x,1/2-y,-z
1/2+x,1/2-y,1/2+z
loop_
_atom_site_type_symbol
_atom_site_label
_atom_site_fract_x
_atom_site_fract_y
_atom_site_fract_z
Si Si1 0.328060 0.659801 0.765483
Si Si2 0.495226 0.069627 0.924302
Si Si3 0.509870 0.763195 0.965588
Si Si4 0.912575 0.073985 0.413741
Si Si5 0.294532 0.973045 0.011869
Si Si6 0.402372 0.479724 0.737110
Si Si7 0.804232 0.322181 0.484327
Si Si8 0.224256 0.453788 0.319257
O O1 0.397112 0.745767 0.842289
O O2 0.392593 0.579544 0.769254
O O3 0.239003 0.689394 0.638086
O O4 0.276717 0.629180 0.811244
O O5 0.596545 0.063033 0.942616
O O6 0.394814 0.038416 0.798985
O O7 0.492244 0.171088 0.958398
O O8 0.500000 0.000000 0.000000
O O9 0.572553 0.805972 0.936486
O O10 0.562345 0.667933 0.026081
O O11 0.918493 0.090233 0.321991
O O12 0.795238 0.042808 0.353680
O O13 0.000000 0.000000 0.500000
O O14 0.276763 0.931578 0.086886
O O15 0.289322 0.081337 0.014447
O O16 0.200203 0.943867 0.884346
O O17 0.500000 0.480165 0.750000
O O18 0.750000 0.250000 0.500000
#
# Coordination Sequence:
#
# PCOD8142340 Si02
#       8
#     8   8   8   8   8   8   8   8
#     4  10  23  41  65  99 135 174 217 289 349 399
#     4  12  24  47  65  95 142 185 227 274 340 423
#     4  12  24  41  72  99 137 177 228 278 352 408
#     4  11  21  40  68  99 131 178 220 284 351 400
#     4  11  24  43  68  96 131 188 223 278 341 405
#     4  10  21  38  66  98 134 167 220 282 343 403
#     4  11  24  42  64 106 137 166 227 285 347 412
#     4  11  22  45  69  91 139 178 232 275 340 406
#
# _framework density 20.473658
#
# number of rings (size 3 to 8) (size 9 to 14) (size 15 to 20)
#    0.000    1.000    5.000    3.375    3.500    3.000 
#    2.250    1.875    0.000    0.000    0.000    0.000 
#    0.000    0.000    0.000    0.000    0.000    0.000 
#
# Total GULP energy -396758.263569 kJ/mol
# GULP energy per Si atom -12398.695737 kJ/mol
# Density = 2.042706 g / cm^3
# Si number density = 20.473658 Si / 1000 Ang^3
#
#
#
# Elastic Constant Matrix: (Units=GPa)
#
#
# Indices 1 2 3 4 5 6 
#
# 1 155.4705 11.1737 47.5077 0.0000 -5.1213 0.0000
# 2 11.1737 56.3093 22.8088 0.0000 2.5307 0.0000
# 3 47.5077 22.8088 121.7606 0.0000 0.3719 0.0000
# 4 0.0000 0.0000 0.0000 34.4620 0.0000 2.8820
# 5 -5.1213 2.5307 0.3719 0.0000 46.5863 0.0000
# 6 0.0000 0.0000 0.0000 2.8820 0.0000 21.1087
#
#
#
# Elastic Compliance Matrix: (Units=1/GPa)
#
#
# Indices 1 2 3 4 5 6 
#
# 1 0.007341 -0.000361 -0.002799 0.000000 0.000849 0.000000
# 2 -0.000361 0.019283 -0.003468 0.000000 -0.001060 0.000000
# 3 -0.002799 -0.003468 0.009955 0.000000 -0.000199 0.000000
# 4 0.000000 0.000000 0.000000 0.029353 0.000000 -0.004007
# 5 0.000849 -0.001060 -0.000199 0.000000 0.021618 0.000000
# 6 0.000000 0.000000 0.000000 -0.004007 0.000000 0.047921
#
#
# Mechanical properties :
#
#
# Convention : Reuss Voigt Hill
#
# Bulk Modulus (GPa) = 42.87639 55.16896 49.02268
# Shear Modulus (GPa) = 31.94829 37.23474 34.59152
#
# Velocity S-wave (km/s) = 3.95455 4.26921 4.11489
# Velocity P-wave (km/s) = 6.46830 7.16284 6.82442
#
# Compressibility (1/GPa) = 0.02332286
#
# Stress axis : x y z
#
# Youngs Moduli (GPa) = 136.21339 51.85883 100.44846
#
# Poissons Ratio (x) = 0.01872 0.28119
# Poissons Ratio (y) = 0.04918 0.34837
# Poissons Ratio (z) = 0.38131 0.17985
#
# Static dielectric constant tensor:
#      x y z
#    x 3.087570 0.000000 -1.328420 
#    y 0.000000 3.761730 0.000000 
#    z -1.328420 0.000000 1.536810 
# 
# 
# High freq. dielectric constant tensor:
#      x y z
#    x 1.815130 0.000000 0.004490 
#    y 0.000000 1.776680 0.000000 
#    z 0.004490 0.000000 1.815390 
# 
# From -- ./inp_files/162582.got.cif
#   From: 2010.06.25/outbox.cif.g09.slc.cpg/sg15_82_cif.got.tgz:162582.got - 2010.06.28 07:06:18.
