data_PCOD8142329
_publ_section_title
;
Structure prediction by ZEFSAII (Michael W. Deem and Ramdas Pophale) SiO2 
 PCOD8142329
Probable space group: C 2/C
;
_chemical_formula_sum "Si O2"
_cell_formula_units_Z 60
_cell_length_a 18.173080
_cell_length_b 29.999933
_cell_length_c 8.183799
_cell_angle_alpha 90.000000
_cell_angle_beta 138.170532
_cell_angle_gamma 90.000000
_cell_volume 2975.601560
_symmetry_space_group_name_H-M "C 2/C"
_symmetry_group_IT_number 15
_symmetry_cell_setting 'monoclinic'
loop_
_space_group_symop_operation_xyz
x,y,z
-x,y,1/2-z
-x,-y,-z
x,-y,1/2+z
1/2+x,1/2+y,z
1/2-x,1/2+y,1/2-z
1/2-x,1/2-y,-z
1/2+x,1/2-y,1/2+z
loop_
_atom_site_type_symbol
_atom_site_label
_atom_site_fract_x
_atom_site_fract_y
_atom_site_fract_z
Si Si1 0.131938 0.543430 0.807635
Si Si2 0.574372 0.688427 0.717215
Si Si3 0.330784 0.789139 0.082095
Si Si4 0.500000 0.346406 0.750000
Si Si5 0.763092 0.875026 0.419014
Si Si6 0.389033 0.948280 0.844279
Si Si7 0.928851 0.716663 0.390954
Si Si8 0.701864 0.139657 0.459071
O O1 0.230616 0.575616 0.919029
O O2 0.163526 0.492434 0.822763
O O3 0.020056 0.555810 0.521831
O O4 0.118732 0.549678 0.976171
O O5 0.500000 0.675114 0.750000
O O6 0.517378 0.683036 0.443082
O O7 0.604702 0.740695 0.774400
O O8 0.682187 0.658352 0.914912
O O9 0.272504 0.837196 0.009470
O O10 0.440639 0.785158 0.369683
O O11 0.250000 0.750000 0.000000
O O12 0.358635 0.782740 0.939967
O O13 0.394325 0.377060 0.608671
O O14 0.700773 0.863909 0.150322
O O15 0.319301 0.907585 0.659801
O O16 0.898456 0.672350 0.244255
#
# Coordination Sequence:
#
# PCOD8142329 Si02
#       8
#     8   8   8   4   8   8   8   8
#     4  10  21  38  66  93 125 168 191 258 322 368
#     4  11  25  41  65  86 125 174 213 263 320 368
#     4  11  23  38  62  84 123 173 204 261 321 363
#     4  10  24  46  60  92 124 166 224 260 304 394
#     4  11  23  40  65  87 125 168 205 261 325 361
#     4  10  21  39  63  97 129 154 208 247 316 394
#     4  11  24  39  56  92 122 156 222 258 305 386
#     4  11  24  39  58  93 125 155 216 262 304 387
#
# _framework density 20.163990999999999
#
# number of rings (size 3 to 8) (size 9 to 14) (size 15 to 20)
#    0.000    1.333    0.000    6.000    7.467    4.800 
#    0.000    0.000    1.467    2.400    0.000    0.000 
#    0.000    0.000    0.000    0.000    0.000    0.000 
#
# Total GULP energy -372073.390609 kJ/mol
# GULP energy per Si atom -12402.446354 kJ/mol
# Density = 2.011810 g / cm^3
# Si number density = 20.163991 Si / 1000 Ang^3
#
#
#
# Elastic Constant Matrix: (Units=GPa)
#
#
# Indices 1 2 3 4 5 6 
#
# 1 99.4708 50.8783 39.7243 0.0000 10.3657 0.0000
# 2 50.8783 157.2021 48.7733 0.0000 25.1471 0.0000
# 3 39.7243 48.7733 88.6730 0.0000 9.9132 0.0000
# 4 0.0000 0.0000 0.0000 36.5393 0.0000 -1.4861
# 5 10.3657 25.1471 9.9132 0.0000 20.8677 0.0000
# 6 0.0000 0.0000 0.0000 -1.4861 0.0000 35.7793
#
#
#
# Elastic Compliance Matrix: (Units=1/GPa)
#
#
# Indices 1 2 3 4 5 6 
#
# 1 0.013321 -0.002781 -0.004301 0.000000 -0.001222 0.000000
# 2 -0.002781 0.009610 -0.003062 0.000000 -0.008745 0.000000
# 3 -0.004301 -0.003062 0.015036 0.000000 -0.001316 0.000000
# 4 0.000000 0.000000 0.000000 0.027414 0.000000 0.001139
# 5 -0.001222 -0.008745 -0.001316 0.000000 0.059691 0.000000
# 6 0.000000 0.000000 0.000000 0.001139 0.000000 0.027996
#
#
# Mechanical properties :
#
#
# Convention : Reuss Voigt Hill
#
# Bulk Modulus (GPa) = 56.56983 69.34419 62.95701
# Shear Modulus (GPa) = 27.89381 32.36859 30.13120
#
# Velocity S-wave (km/s) = 3.72337 4.01092 3.86982
# Velocity P-wave (km/s) = 6.82645 7.47762 7.15944
#
# Compressibility (1/GPa) = 0.01767727
#
# Stress axis : x y z
#
# Youngs Moduli (GPa) = 75.07026 104.05317 66.50800
#
# Poissons Ratio (x) = 0.28941 0.28606
# Poissons Ratio (y) = 0.20880 0.20368
# Poissons Ratio (z) = 0.32289 0.31866
#
# Static dielectric constant tensor:
#      x y z
#    x 3.937620 0.000000 -0.015990 
#    y 0.000000 3.655200 0.000000 
#    z -0.015990 0.000000 3.858230 
# 
# 
# High freq. dielectric constant tensor:
#      x y z
#    x 1.796450 0.000000 -0.008770 
#    y 0.000000 1.783850 0.000000 
#    z -0.008770 0.000000 1.790340 
# 
# From -- ./inp_files/59139.got.cif
#   From: 2010.06.25/outbox.cif.g09.slc.cpg/sg15_30_cif.got.tgz:59139.got - 2010.06.28 07:06:18.
