data_PCOD8142491
_publ_section_title
;
Structure prediction by ZEFSAII (Michael W. Deem and Ramdas Pophale) SiO2 
 PCOD8142491
Probable space group: C 2/C
;
_chemical_formula_sum "Si O2"
_cell_formula_units_Z 28
_cell_length_a 15.304329
_cell_length_b 7.700589
_cell_length_c 10.825451
_cell_angle_alpha 90.000000
_cell_angle_beta 135.839351
_cell_angle_gamma 90.000000
_cell_volume 888.818207
_symmetry_space_group_name_H-M "C 2/C"
_symmetry_group_IT_number 15
_symmetry_cell_setting 'monoclinic'
loop_
_space_group_symop_operation_xyz
x,y,z
-x,y,1/2-z
-x,-y,-z
x,-y,1/2+z
1/2+x,1/2+y,z
1/2-x,1/2+y,1/2-z
1/2-x,1/2-y,-z
1/2+x,1/2-y,1/2+z
loop_
_atom_site_type_symbol
_atom_site_label
_atom_site_fract_x
_atom_site_fract_y
_atom_site_fract_z
Si Si1 0.585287 0.654602 0.453353
Si Si2 0.674685 0.502511 0.280174
Si Si3 0.220554 0.635635 0.352098
Si Si4 0.000000 0.524333 0.750000
O O1 0.436598 0.612397 0.264719
O O2 0.594766 0.633308 0.610838
O O3 0.688500 0.518872 0.496307
O O4 0.603133 0.855664 0.428629
O O5 0.753474 0.631319 0.271164
O O6 0.755997 0.341493 0.429765
O O7 0.074989 0.592033 0.227951
#
# Coordination Sequence:
#
# PCOD8142491 Si02
#       4
#     8   8   8   4
#     4   9  22  40  62  86 119 157 194 249 282 356
#     4   9  20  41  63  84 114 157 209 226 293 347
#     4  10  21  39  60  90 114 158 193 247 286 351
#     4  12  22  38  60  90 128 150 192 240 314 330
#
# _framework density 31.502504999999999
#
# number of rings (size 3 to 8) (size 9 to 14) (size 15 to 20)
#    1.714    0.571    0.000    2.571    0.000    2.286 
#    0.000    2.857    0.000    0.000    0.000    0.000 
#    0.000    0.000    0.000    0.000    0.000    0.000 
#
# Total GULP energy -173637.977587 kJ/mol
# GULP energy per Si atom -12402.712685 kJ/mol
# Density = 3.143080 g / cm^3
# Si number density = 31.502505 Si / 1000 Ang^3
#
#
#
# Elastic Constant Matrix: (Units=GPa)
#
#
# Indices 1 2 3 4 5 6 
#
# 1 286.3090 104.4571 8.8694 0.0000 40.3752 0.0000
# 2 104.4571 186.5595 -26.7546 0.0000 2.2814 0.0000
# 3 8.8694 -26.7546 53.4737 0.0000 -17.1303 0.0000
# 4 0.0000 0.0000 0.0000 51.3318 0.0000 0.7190
# 5 40.3752 2.2814 -17.1303 0.0000 36.9587 0.0000
# 6 0.0000 0.0000 0.0000 0.7190 0.0000 84.0159
#
#
#
# Elastic Compliance Matrix: (Units=1/GPa)
#
#
# Indices 1 2 3 4 5 6 
#
# 1 0.006890 -0.004710 -0.006832 0.000000 -0.010403 0.000000
# 2 -0.004710 0.009037 0.007953 0.000000 0.008274 0.000000
# 3 -0.006832 0.007953 0.030589 0.000000 0.021150 0.000000
# 4 0.000000 0.000000 0.000000 0.019483 0.000000 -0.000167
# 5 -0.010403 0.008274 0.021150 0.000000 0.047714 0.000000
# 6 0.000000 0.000000 0.000000 -0.000167 0.000000 0.011904
#
#
# Mechanical properties :
#
#
# Convention : Reuss Voigt Hill
#
# Bulk Modulus (GPa) = 25.42067 77.72068 51.57068
# Shear Modulus (GPa) = 34.26831 63.77930 49.02381
#
# Velocity S-wave (km/s) = 3.30175 4.50441 3.94913
# Velocity P-wave (km/s) = 4.75630 7.19568 6.09919
#
# Compressibility (1/GPa) = 0.03933806
#
# Stress axis : x y z
#
# Youngs Moduli (GPa) = 145.14107 110.65637 32.69163
#
# Poissons Ratio (x) = 0.52122 0.22335
# Poissons Ratio (y) = 0.68365 -0.26001
# Poissons Ratio (z) = 0.99160 -0.88010
#
# Static dielectric constant tensor:
#      x y z
#    x 5.600750 0.000000 -0.745160 
#    y 0.000000 5.721510 0.000000 
#    z -0.745160 0.000000 6.521900 
# 
# 
# High freq. dielectric constant tensor:
#      x y z
#    x 2.337440 0.000000 -0.069330 
#    y 0.000000 2.324660 0.000000 
#    z -0.069330 0.000000 2.372890 
# 
# From -- ./inp_files/45408.got.cif
#   From: 2010.06.25/outbox.cif.g09.slc.cpg/sg15_23_cif.got.tgz:45408.got - 2010.06.28 07:06:18.
