data_PCOD8142037
_publ_section_title
;
Structure prediction by ZEFSAII (Michael W. Deem and Ramdas Pophale) SiO2 
 PCOD8142037
Probable space group: C 2/C
;
_chemical_formula_sum "Si O2"
_cell_formula_units_Z 32
_cell_length_a 26.031445
_cell_length_b 14.063643
_cell_length_c 9.372217
_cell_angle_alpha 90.000000
_cell_angle_beta 26.678526
_cell_angle_gamma 90.000000
_cell_volume 1540.527460
_symmetry_space_group_name_H-M "C 2/C"
_symmetry_group_IT_number 15
_symmetry_cell_setting 'monoclinic'
loop_
_space_group_symop_operation_xyz
x,y,z
-x,y,1/2-z
-x,-y,-z
x,-y,1/2+z
1/2+x,1/2+y,z
1/2-x,1/2+y,1/2-z
1/2-x,1/2-y,-z
1/2+x,1/2-y,1/2+z
loop_
_atom_site_type_symbol
_atom_site_label
_atom_site_fract_x
_atom_site_fract_y
_atom_site_fract_z
Si Si1 0.888807 0.444072 0.226362
Si Si2 0.523544 0.230355 0.353447
Si Si3 0.967654 0.906882 0.665997
Si Si4 0.207265 0.420778 0.335353
O O1 0.862207 0.460793 0.126978
O O2 0.784641 0.487888 0.577629
O O3 0.000000 0.500000 0.000000
O O4 0.914887 0.331835 0.180632
O O5 0.500000 0.264802 0.250000
O O6 0.537447 0.319949 0.422721
O O7 0.639625 0.168055 0.072912
O O8 0.000000 0.917706 0.750000
O O9 0.833142 0.886482 0.982160
O O10 0.000000 0.000000 0.500000
#
# Coordination Sequence:
#
# PCOD8142037 Si02
#       4
#     8   8   8   8
#     4   9  18  36  62  90 116 147 192 239 290 349
#     4   9  21  39  60  86 114 150 196 240 291 351
#     4  12  26  40  57  84 118 157 199 241 291 351
#     4  10  21  38  61  87 119 155 189 243 297 337
#
# _framework density 20.772107999999999
#
# number of rings (size 3 to 8) (size 9 to 14) (size 15 to 20)
#    0.000    2.000    0.000    4.500    0.000   11.000 
#    0.000    0.000    0.000    0.000    0.000    0.000 
#    0.000    0.000    0.000    0.000    0.000    0.000 
#
# Total GULP energy -198334.276308 kJ/mol
# GULP energy per Si atom -12395.892269 kJ/mol
# Density = 2.072483 g / cm^3
# Si number density = 20.772108 Si / 1000 Ang^3
#
#
#
# Elastic Constant Matrix: (Units=GPa)
#
#
# Indices 1 2 3 4 5 6 
#
# 1 126.1494 71.4743 40.7019 0.0000 16.3644 0.0000
# 2 71.4743 144.0926 57.8043 0.0000 27.7445 0.0000
# 3 40.7019 57.8043 108.8404 0.0000 -1.1811 0.0000
# 4 0.0000 0.0000 0.0000 37.5018 0.0000 14.5169
# 5 16.3644 27.7445 -1.1811 0.0000 31.9308 0.0000
# 6 0.0000 0.0000 0.0000 14.5169 0.0000 33.6590
#
#
#
# Elastic Compliance Matrix: (Units=1/GPa)
#
#
# Indices 1 2 3 4 5 6 
#
# 1 0.011331 -0.004488 -0.001876 0.000000 -0.001977 0.000000
# 2 -0.004488 0.013118 -0.005390 0.000000 -0.009298 0.000000
# 3 -0.001876 -0.005390 0.012818 0.000000 0.006119 0.000000
# 4 0.000000 0.000000 0.000000 0.032009 0.000000 -0.013805
# 5 -0.001977 -0.009298 0.006119 0.000000 0.040637 0.000000
# 6 0.000000 0.000000 0.000000 -0.013805 0.000000 0.035664
#
#
# Mechanical properties :
#
#
# Convention : Reuss Voigt Hill
#
# Bulk Modulus (GPa) = 72.66457 79.89370 76.27913
# Shear Modulus (GPa) = 28.79002 34.55844 31.67423
#
# Velocity S-wave (km/s) = 3.72693 4.08327 3.90916
# Velocity P-wave (km/s) = 7.31968 7.79591 7.56155
#
# Compressibility (1/GPa) = 0.01376186
#
# Stress axis : x y z
#
# Youngs Moduli (GPa) = 88.25067 76.22853 78.01471
#
# Poissons Ratio (x) = 0.34208 0.14633
# Poissons Ratio (y) = 0.39603 0.42049
# Poissons Ratio (z) = 0.16553 0.41086
#
# Static dielectric constant tensor:
#      x y z
#    x 3.791020 0.000000 0.241610 
#    y 0.000000 3.869900 0.000000 
#    z 0.241610 0.000000 4.051830 
# 
# 
# High freq. dielectric constant tensor:
#      x y z
#    x 1.813960 0.000000 0.008440 
#    y 0.000000 1.809460 0.000000 
#    z 0.008440 0.000000 1.808650 
# 
# From -- ./inp_files/28035.got.cif
#   From: 2010.06.25/outbox.cif.g09.slc.cpg/sg15_15_cif.got.tgz:28035.got - 2010.06.28 07:06:18.
