data_PCOD8142166
_publ_section_title
;
Structure prediction by ZEFSAII (Michael W. Deem and Ramdas Pophale) SiO2 
 PCOD8142166
Probable space group: C 2/C
;
_chemical_formula_sum "Si O2"
_cell_formula_units_Z 36
_cell_length_a 4.835148
_cell_length_b 13.724291
_cell_length_c 22.751679
_cell_angle_alpha 90.000000
_cell_angle_beta 81.149000
_cell_angle_gamma 90.000000
_cell_volume 1491.799452
_symmetry_space_group_name_H-M "C 2/C"
_symmetry_group_IT_number 15
_symmetry_cell_setting 'monoclinic'
loop_
_space_group_symop_operation_xyz
x,y,z
-x,y,1/2-z
-x,-y,-z
x,-y,1/2+z
1/2+x,1/2+y,z
1/2-x,1/2+y,1/2-z
1/2-x,1/2-y,-z
1/2+x,1/2-y,1/2+z
loop_
_atom_site_type_symbol
_atom_site_label
_atom_site_fract_x
_atom_site_fract_y
_atom_site_fract_z
Si Si1 0.365336 0.259908 0.431397
Si Si2 0.840989 0.409930 0.201938
Si Si3 0.089988 0.840816 0.622792
Si Si4 0.000000 0.223421 0.250000
Si Si5 0.102754 0.949941 0.371671
O O1 0.250000 0.250000 0.500000
O O2 0.609377 0.180265 0.415016
O O3 0.468941 0.369949 0.418783
O O4 0.124417 0.242173 0.391226
O O5 0.538272 0.445391 0.189557
O O6 0.000000 0.468872 0.250000
O O7 0.785616 0.297724 0.224243
O O8 0.067630 0.425365 0.141671
O O9 0.128543 0.842044 0.693104
O O10 0.967688 0.942676 0.602062
#
# Coordination Sequence:
#
# PCOD8142166 Si02
#       5
#     8   8   8   4   8
#     4  12  25  48  71  95 137 180 229 288 330 391
#     4  10  21  38  63  87 136 171 206 265 328 397
#     4  12  27  42  69 104 129 180 224 274 344 407
#     4  10  22  40  68  96 136 172 222 266 342 420
#     4  12  23  44  63  98 135 170 226 273 338 392
#
# _framework density 24.131930000000001
#
# number of rings (size 3 to 8) (size 9 to 14) (size 15 to 20)
#    0.667    0.000    4.444    2.667    3.111    4.444 
#    0.000    0.000    0.000    0.000    0.000    0.000 
#    0.000    0.000    0.000    0.000    0.000    0.000 
#
# Total GULP energy -223006.654477 kJ/mol
# GULP energy per Si atom -12389.258582 kJ/mol
# Density = 2.407700 g / cm^3
# Si number density = 24.131930 Si / 1000 Ang^3
#
#
#
# Elastic Constant Matrix: (Units=GPa)
#
#
# Indices 1 2 3 4 5 6 
#
# 1 87.7386 7.8960 11.1915 0.0000 -9.5853 0.0000
# 2 7.8960 111.3100 44.9682 0.0000 -13.6402 0.0000
# 3 11.1915 44.9682 117.8324 0.0000 -15.3476 0.0000
# 4 0.0000 0.0000 0.0000 21.0292 0.0000 1.4493
# 5 -9.5853 -13.6402 -15.3476 0.0000 29.2701 0.0000
# 6 0.0000 0.0000 0.0000 1.4493 0.0000 17.3163
#
#
#
# Elastic Compliance Matrix: (Units=1/GPa)
#
#
# Indices 1 2 3 4 5 6 
#
# 1 0.011872 -0.000169 -0.000609 0.000000 0.003490 0.000000
# 2 -0.000169 0.010881 -0.003738 0.000000 0.003055 0.000000
# 3 -0.000609 -0.003738 0.010431 0.000000 0.003528 0.000000
# 4 0.000000 0.000000 0.000000 0.047829 0.000000 -0.004003
# 5 0.003490 0.003055 0.003528 0.000000 0.038581 0.000000
# 6 0.000000 0.000000 0.000000 -0.004003 0.000000 0.058084
#
#
# Mechanical properties :
#
#
# Convention : Reuss Voigt Hill
#
# Bulk Modulus (GPa) = 41.40531 49.44360 45.42445
# Shear Modulus (GPa) = 25.67283 30.37812 28.02547
#
# Velocity S-wave (km/s) = 3.26521 3.55186 3.41155
# Velocity P-wave (km/s) = 5.60452 6.11181 5.86365
#
# Compressibility (1/GPa) = 0.02415149
#
# Stress axis : x y z
#
# Youngs Moduli (GPa) = 84.23483 91.90737 95.87173
#
# Poissons Ratio (x) = 0.01549 0.05835
# Poissons Ratio (y) = 0.01420 0.35841
# Poissons Ratio (z) = 0.05127 0.34359
#
# Static dielectric constant tensor:
#      x y z
#    x 4.282640 0.000000 0.005810 
#    y 0.000000 4.179540 0.000000 
#    z 0.005810 0.000000 4.067850 
# 
# 
# High freq. dielectric constant tensor:
#      x y z
#    x 1.959530 0.000000 -0.007240 
#    y 0.000000 1.947940 0.000000 
#    z -0.007240 0.000000 1.940010 
# 
# From -- ./inp_files/260059.got.cif
#   From: 2010.06.25/outbox.cif.g09.slc.cpg/sg15_131_cif.got.tgz:260059.got - 2010.06.28 07:06:18.
