data_PCOD8142841
_publ_section_title
;
Structure prediction by ZEFSAII (Michael W. Deem and Ramdas Pophale) SiO2 
 PCOD8142841
Probable space group: C 2/C
;
_chemical_formula_sum "Si O2"
_cell_formula_units_Z 64
_cell_length_a 17.156840
_cell_length_b 9.019883
_cell_length_c 29.903542
_cell_angle_alpha 90.000000
_cell_angle_beta 40.821196
_cell_angle_gamma 90.000000
_cell_volume 3025.099911
_symmetry_space_group_name_H-M "C 2/C"
_symmetry_group_IT_number 15
_symmetry_cell_setting 'monoclinic'
loop_
_space_group_symop_operation_xyz
x,y,z
-x,y,1/2-z
-x,-y,-z
x,-y,1/2+z
1/2+x,1/2+y,z
1/2-x,1/2+y,1/2-z
1/2-x,1/2-y,-z
1/2+x,1/2-y,1/2+z
loop_
_atom_site_type_symbol
_atom_site_label
_atom_site_fract_x
_atom_site_fract_y
_atom_site_fract_z
Si Si1 0.454962 0.840036 0.007351
Si Si2 0.654596 0.273701 0.276246
Si Si3 0.901644 0.703533 0.827458
Si Si4 0.130798 0.844735 0.872043
Si Si5 0.218915 0.174197 0.559180
Si Si6 0.486114 0.455575 0.855013
Si Si7 0.324457 0.680577 0.631313
Si Si8 0.547472 0.890845 0.679009
O O1 0.425719 0.746748 0.063700
O O2 0.340659 0.878691 0.027810
O O3 0.548121 0.743778 0.938289
O O4 0.500000 0.000000 0.000000
O O5 0.765536 0.253675 0.195156
O O6 0.591234 0.432071 0.293848
O O7 0.701100 0.265448 0.307023
O O8 0.560585 0.141274 0.308555
O O9 0.955532 0.842113 0.829428
O O10 0.776583 0.743812 0.858082
O O11 0.895445 0.551173 0.858642
O O12 0.000000 0.653243 0.750000
O O13 0.025579 0.870372 0.882255
O O14 0.180128 0.001808 0.868758
O O15 0.250000 0.250000 0.500000
O O16 0.153781 0.275726 0.624267
O O17 0.136244 0.037652 0.580973
O O18 0.500000 0.867171 0.750000
#
# Coordination Sequence:
#
# PCOD8142841 Si02
#       8
#     8   8   8   8   8   8   8   8
#     4  12  26  42  63  94 129 167 210 264 318 373
#     4  10  22  42  66  92 122 163 209 255 309 373
#     4  11  22  39  63  95 127 159 202 260 313 367
#     4  11  23  43  66  91 127 171 211 256 314 380
#     4  11  23  44  65  88 124 169 212 255 309 375
#     4  10  24  40  63  94 125 161 208 262 312 365
#     4  11  24  43  65  93 127 167 211 258 314 378
#     4  10  21  39  66  93 120 163 211 254 309 375
#
# _framework density 21.156324999999999
#
# number of rings (size 3 to 8) (size 9 to 14) (size 15 to 20)
#    0.000    1.250    0.000    7.125    0.000   10.000 
#    0.000    1.875    0.000    0.000    0.000    0.000 
#    0.000    0.000    0.000    0.000    0.000    0.000 
#
# Total GULP energy -396811.224961 kJ/mol
# GULP energy per Si atom -12400.350780 kJ/mol
# Density = 2.110817 g / cm^3
# Si number density = 21.156325 Si / 1000 Ang^3
#
#
#
# Elastic Constant Matrix: (Units=GPa)
#
#
# Indices 1 2 3 4 5 6 
#
# 1 146.1853 62.9539 22.9385 -0.0037 -14.6971 -0.0114
# 2 62.9539 90.6270 30.6916 -0.0084 6.4070 -0.0091
# 3 22.9385 30.6916 98.5944 -0.0004 -1.0999 -0.0010
# 4 -0.0037 -0.0084 -0.0004 -16.2011 0.0003 -26.6219
# 5 -14.6971 6.4070 -1.0999 0.0003 35.0597 -0.0026
# 6 -0.0114 -0.0091 -0.0010 -26.6219 -0.0026 20.4043
#
#
#
# Elastic Compliance Matrix: (Units=1/GPa)
#
#
# Indices 1 2 3 4 5 6 
#
# 1 0.010886 -0.007996 0.000024 -0.000001 0.006025 0.000002
# 2 -0.007996 0.018409 -0.003946 -0.000004 -0.006840 -0.000002
# 3 0.000024 -0.003946 0.011378 0.000001 0.001088 0.000000
# 4 -0.000001 -0.000004 0.000001 -0.019633 -0.000002 -0.025615
# 5 0.006025 -0.006840 0.001088 -0.000002 0.032333 0.000003
# 6 0.000002 -0.000002 0.000000 -0.025615 0.000003 0.015588
#
#
# Mechanical properties :
#
#
# Convention : Reuss Voigt Hill
#
# Bulk Modulus (GPa) = 59.40077 63.17497 61.28787
# Shear Modulus (GPa) = 50.80759 22.44078 36.62418
#
# Velocity S-wave (km/s) = 4.90586 3.26039 4.16519
# Velocity P-wave (km/s) = 7.76067 6.64074 7.22244
#
# Compressibility (1/GPa) = 0.01683480
#
# Stress axis : x y z
#
# Youngs Moduli (GPa) = 91.85973 54.32202 87.89115
#
# Poissons Ratio (x) = 0.43436 -0.00207
# Poissons Ratio (y) = 0.73451 0.34686
# Poissons Ratio (z) = -0.00217 0.21438
#
# Static dielectric constant tensor:
#      x y z
#    x 3.832480 0.000030 -0.029820 
#    y 0.000030 1.632710 0.000020 
#    z -0.029820 0.000020 3.724420 
# 
# 
# High freq. dielectric constant tensor:
#      x y z
#    x 1.847680 0.000000 -0.008490 
#    y 0.000000 1.835110 0.000000 
#    z -0.008490 0.000000 1.826330 
# 
# From -- ./inp_files/315710.got.cif
#   From: 2010.06.25/outbox.cif.g09.slc.cpg/sg15_158_cif.got.tgz:315710.got - 2010.06.28 07:06:18.
