data_PCOD8142490
_publ_section_title
;
Structure prediction by ZEFSAII (Michael W. Deem and Ramdas Pophale) SiO2 
 PCOD8142490
Probable space group: C 2/C
;
_chemical_formula_sum "Si O2"
_cell_formula_units_Z 56
_cell_length_a 14.921917
_cell_length_b 24.386592
_cell_length_c 8.674167
_cell_angle_alpha 90.000000
_cell_angle_beta 119.589918
_cell_angle_gamma 90.000000
_cell_volume 2744.820629
_symmetry_space_group_name_H-M "C 2/C"
_symmetry_group_IT_number 15
_symmetry_cell_setting 'monoclinic'
loop_
_space_group_symop_operation_xyz
x,y,z
-x,y,1/2-z
-x,-y,-z
x,-y,1/2+z
1/2+x,1/2+y,z
1/2-x,1/2+y,1/2-z
1/2-x,1/2-y,-z
1/2+x,1/2-y,1/2+z
loop_
_atom_site_type_symbol
_atom_site_label
_atom_site_fract_x
_atom_site_fract_y
_atom_site_fract_z
Si Si1 0.585489 0.326147 0.037047
Si Si2 0.640781 0.338017 0.733362
Si Si3 0.826670 0.938007 0.319349
Si Si4 0.383510 0.453836 0.698245
Si Si5 0.811295 0.272050 0.697058
Si Si6 0.000000 0.479071 0.250000
Si Si7 0.500000 0.844450 0.750000
Si Si8 0.098293 0.432490 0.042089
O O1 0.602379 0.384378 0.136088
O O2 0.644609 0.279344 0.176109
O O3 0.635056 0.327082 0.910269
O O4 0.463125 0.314897 0.934236
O O5 0.653449 0.404063 0.721276
O O6 0.738122 0.307628 0.744808
O O7 0.811940 0.955418 0.485326
O O8 0.719803 0.922860 0.147075
O O9 0.881857 0.988429 0.281924
O O10 0.500000 0.438742 0.750000
O O11 0.750000 0.250000 0.500000
O O12 0.905721 0.308777 0.725971
O O13 0.063320 0.440994 0.188020
O O14 0.078686 0.515215 0.417077
O O15 0.462290 0.880449 0.574002
#
# Coordination Sequence:
#
# PCOD8142490 Si02
#       8
#     8   8   8   8   8   4   4   8
#     4  10  22  43  63  94 124 161 219 263 312 400
#     4  10  22  43  68  89 128 169 209 270 326 377
#     4  11  22  37  63  92 129 166 206 259 320 386
#     4  11  22  40  61  96 135 164 211 260 321 390
#     4  12  25  43  66  93 124 170 213 269 337 378
#     4   9  20  38  62  86 124 166 212 263 308 376
#     4  11  26  44  58  92 130 160 220 271 308 396
#     4  10  21  39  60  89 125 165 212 260 317 374
#
# _framework density 20.402061
#
# number of rings (size 3 to 8) (size 9 to 14) (size 15 to 20)
#    0.000    1.429    2.857    3.429    0.000    8.000 
#    1.286    4.286    0.000    0.000    0.000    0.000 
#    0.000    0.000    0.000    0.000    0.000    0.000 
#
# Total GULP energy -347263.139428 kJ/mol
# GULP energy per Si atom -12402.254980 kJ/mol
# Density = 2.035563 g / cm^3
# Si number density = 20.402061 Si / 1000 Ang^3
#
#
#
# Elastic Constant Matrix: (Units=GPa)
#
#
# Indices 1 2 3 4 5 6 
#
# 1 100.2059 66.1609 48.0414 0.0000 2.5559 0.0000
# 2 66.1609 162.6149 60.5488 0.0000 -3.2100 0.0000
# 3 48.0414 60.5488 114.4711 0.0000 12.1536 0.0000
# 4 0.0000 0.0000 0.0000 34.4214 0.0000 2.1866
# 5 2.5559 -3.2100 12.1536 0.0000 27.5552 0.0000
# 6 0.0000 0.0000 0.0000 2.1866 0.0000 36.7350
#
#
#
# Elastic Compliance Matrix: (Units=1/GPa)
#
#
# Indices 1 2 3 4 5 6 
#
# 1 0.014855 -0.004655 -0.003743 0.000000 -0.000269 0.000000
# 2 -0.004655 0.009330 -0.003297 0.000000 0.002973 0.000000
# 3 -0.003743 -0.003297 0.012647 0.000000 -0.005615 0.000000
# 4 0.000000 0.000000 0.000000 0.029162 0.000000 -0.001736
# 5 -0.000269 0.002973 -0.005615 0.000000 0.039139 0.000000
# 6 0.000000 0.000000 0.000000 -0.001736 0.000000 0.027325
#
#
# Mechanical properties :
#
#
# Convention : Reuss Voigt Hill
#
# Bulk Modulus (GPa) = 74.40210 80.75490 77.57850
# Shear Modulus (GPa) = 31.18615 33.24505 32.21560
#
# Velocity S-wave (km/s) = 3.91395 4.04108 3.97802
# Velocity P-wave (km/s) = 7.54801 7.83846 7.69460
#
# Compressibility (1/GPa) = 0.01344048
#
# Stress axis : x y z
#
# Youngs Moduli (GPa) = 67.31962 107.18417 79.07149
#
# Poissons Ratio (x) = 0.49896 0.29598
# Poissons Ratio (y) = 0.31339 0.26069
# Poissons Ratio (z) = 0.25199 0.35337
#
# Static dielectric constant tensor:
#      x y z
#    x 3.870660 0.000000 -0.522120 
#    y 0.000000 3.846950 0.000000 
#    z -0.522120 0.000000 5.040960 
# 
# 
# High freq. dielectric constant tensor:
#      x y z
#    x 1.787400 0.000000 0.009400 
#    y 0.000000 1.805270 0.000000 
#    z 0.009400 0.000000 1.816100 
# 
# From -- ./inp_files/42790.got.cif
#   From: 2010.06.25/outbox.cif.g09.slc.cpg/sg15_22_cif.got.tgz:42790.got - 2010.06.28 07:06:18.
