data_PCOD8142039
_publ_section_title
;
Structure prediction by ZEFSAII (Michael W. Deem and Ramdas Pophale) SiO2 
 PCOD8142039
Probable space group: C 2/C
;
_chemical_formula_sum "Si O2"
_cell_formula_units_Z 56
_cell_length_a 5.155516
_cell_length_b 29.517734
_cell_length_c 19.490611
_cell_angle_alpha 90.000000
_cell_angle_beta 114.463280
_cell_angle_gamma 90.000000
_cell_volume 2699.791664
_symmetry_space_group_name_H-M "C 2/C"
_symmetry_group_IT_number 15
_symmetry_cell_setting 'monoclinic'
loop_
_space_group_symop_operation_xyz
x,y,z
-x,y,1/2-z
-x,-y,-z
x,-y,1/2+z
1/2+x,1/2+y,z
1/2-x,1/2+y,1/2-z
1/2-x,1/2-y,-z
1/2+x,1/2-y,1/2+z
loop_
_atom_site_type_symbol
_atom_site_label
_atom_site_fract_x
_atom_site_fract_y
_atom_site_fract_z
Si Si1 0.259770 0.868340 0.080801
Si Si2 0.426545 0.733360 0.956103
Si Si3 0.028520 0.070297 0.048412
Si Si4 0.871517 0.902076 0.160282
Si Si5 0.714098 0.517538 0.937665
Si Si6 0.622166 0.141499 0.337739
Si Si7 0.126590 0.197027 0.336842
O O1 0.107217 0.820087 0.055351
O O2 0.602255 0.867451 0.128806
O O3 0.117102 0.889222 0.133330
O O4 0.217319 0.894480 0.002801
O O5 0.273589 0.756485 0.874851
O O6 0.250000 0.750000 0.000000
O O7 0.750000 0.750000 0.000000
O O8 0.281804 0.096023 0.114121
O O9 0.094592 0.050778 0.981382
O O10 0.959655 0.029171 0.093018
O O11 0.762892 0.953506 0.130173
O O12 0.000000 0.902021 0.250000
O O13 0.000000 0.500000 0.000000
O O14 0.500000 0.128710 0.250000
O O15 0.371112 0.159253 0.358555
O O16 0.878495 0.178275 0.359944
O O17 0.000000 0.209022 0.250000
#
# Coordination Sequence:
#
# PCOD8142039 Si02
#       7
#     8   8   8   8   8   8   8
#     4  11  23  40  65  90 125 167 204 257 315 364
#     4  12  24  40  64  98 123 159 215 259 301 365
#     4  10  21  38  61  87 121 157 203 252 309 374
#     4  11  24  43  62  91 126 166 211 258 310 375
#     4  10  21  40  61  87 120 163 202 253 318 362
#     4  10  22  40  62  91 120 159 200 249 308 366
#     4  10  22  40  60  85 127 162 194 247 315 365
#
# _framework density 20.742343000000002
#
# number of rings (size 3 to 8) (size 9 to 14) (size 15 to 20)
#    0.000    1.429    1.429    3.857    2.000    2.286 
#    2.571    1.429    0.000    0.000    0.000    0.000 
#    0.000    0.000    0.000    0.000    0.000    0.000 
#
# Total GULP energy -346957.863287 kJ/mol
# GULP energy per Si atom -12391.352260 kJ/mol
# Density = 2.069513 g / cm^3
# Si number density = 20.742343 Si / 1000 Ang^3
#
#
#
# Elastic Constant Matrix: (Units=GPa)
#
#
# Indices 1 2 3 4 5 6 
#
# 1 100.2227 16.2223 30.8515 0.0000 14.8650 0.0000
# 2 16.2223 118.5537 57.0221 0.0000 7.5143 0.0000
# 3 30.8515 57.0221 92.6622 0.0000 14.0439 0.0000
# 4 0.0000 0.0000 0.0000 34.9367 0.0000 16.7732
# 5 14.8650 7.5143 14.0439 0.0000 29.7230 0.0000
# 6 0.0000 0.0000 0.0000 16.7732 0.0000 21.5492
#
#
#
# Elastic Compliance Matrix: (Units=1/GPa)
#
#
# Indices 1 2 3 4 5 6 
#
# 1 0.011611 0.000327 -0.003419 0.000000 -0.004274 0.000000
# 2 0.000327 0.011997 -0.007548 0.000000 0.000370 0.000000
# 3 -0.003419 -0.007548 0.017263 0.000000 -0.004538 0.000000
# 4 0.000000 0.000000 0.000000 0.045702 0.000000 -0.035573
# 5 -0.004274 0.000370 -0.004538 0.000000 0.037832 0.000000
# 6 0.000000 0.000000 0.000000 -0.035573 0.000000 0.074094
#
#
# Mechanical properties :
#
#
# Convention : Reuss Voigt Hill
#
# Bulk Modulus (GPa) = 51.04381 57.73671 54.39026
# Shear Modulus (GPa) = 22.09362 31.06463 26.57913
#
# Velocity S-wave (km/s) = 3.26720 3.87414 3.58354
# Velocity P-wave (km/s) = 6.23656 6.92153 6.58795
#
# Compressibility (1/GPa) = 0.01959101
#
# Stress axis : x y z
#
# Youngs Moduli (GPa) = 86.12252 83.35363 57.92840
#
# Poissons Ratio (x) = -0.02722 0.19807
# Poissons Ratio (y) = -0.02813 0.43722
# Poissons Ratio (z) = 0.29447 0.62911
#
# Static dielectric constant tensor:
#      x y z
#    x 3.485020 0.000000 -0.006260 
#    y 0.000000 3.377500 0.000000 
#    z -0.006260 0.000000 3.756590 
# 
# 
# High freq. dielectric constant tensor:
#      x y z
#    x 1.817050 0.000000 0.008830 
#    y 0.000000 1.816020 0.000000 
#    z 0.008830 0.000000 1.812320 
# 
# From -- ./inp_files/228543.got.cif
#   From: 2010.06.25/outbox.cif.g09.slc.cpg/sg15_115_cif.got.tgz:228543.got - 2010.06.28 07:06:18.
