data_PCOD8142436
_publ_section_title
;
Structure prediction by ZEFSAII (Michael W. Deem and Ramdas Pophale) SiO2 
 PCOD8142436
Probable space group: C 2/C
;
_chemical_formula_sum "Si O2"
_cell_formula_units_Z 52
_cell_length_a 10.875703
_cell_length_b 14.398614
_cell_length_c 17.297981
_cell_angle_alpha 90.000000
_cell_angle_beta 124.316255
_cell_angle_gamma 90.000000
_cell_volume 2237.283890
_symmetry_space_group_name_H-M "C 2/C"
_symmetry_group_IT_number 15
_symmetry_cell_setting 'monoclinic'
loop_
_space_group_symop_operation_xyz
x,y,z
-x,y,1/2-z
-x,-y,-z
x,-y,1/2+z
1/2+x,1/2+y,z
1/2-x,1/2+y,1/2-z
1/2-x,1/2-y,-z
1/2+x,1/2-y,1/2+z
loop_
_atom_site_type_symbol
_atom_site_label
_atom_site_fract_x
_atom_site_fract_y
_atom_site_fract_z
Si Si1 0.264596 0.010706 0.950860
Si Si2 0.500000 0.281875 0.250000
Si Si3 0.642905 0.977178 0.192934
Si Si4 0.441712 0.424607 0.351311
Si Si5 0.116435 0.223565 0.558178
Si Si6 0.545791 0.144188 0.387998
Si Si7 0.903060 0.338057 0.090760
O O1 0.333933 0.012032 0.890612
O O2 0.085364 0.013898 0.883128
O O3 0.316743 0.104819 0.013473
O O4 0.314498 0.918067 0.011875
O O5 0.402451 0.348709 0.270152
O O6 0.602771 0.217026 0.342400
O O7 0.792628 0.986524 0.296892
O O8 0.554613 0.880742 0.179262
O O9 0.538335 0.060293 0.184574
O O10 0.462196 0.372103 0.440683
O O11 0.057951 0.252366 0.452656
O O12 0.294873 0.203134 0.618745
O O13 0.078889 0.306376 0.603296
#
# Coordination Sequence:
#
# PCOD8142436 Si02
#       7
#     8   4   8   8   8   8   8
#     4  11  20  40  61  88 111 166 190 244 281 364
#     4  10  22  38  56  94 112 152 184 260 276 348
#     4  11  20  40  60  87 114 166 188 244 283 362
#     4  11  24  38  60  85 130 145 202 233 305 331
#     4  10  21  39  58  93 110 153 186 259 277 353
#     4  10  21  39  66  82 120 149 209 226 302 339
#     4  10  21  39  66  81 119 149 211 226 301 341
#
# _framework density 23.242469
#
# number of rings (size 3 to 8) (size 9 to 14) (size 15 to 20)
#    0.000    1.538    4.615    0.923    0.000    7.385 
#    0.000    9.231    0.000    0.000    0.000    0.000 
#    0.000    0.000    0.000    0.000    0.000    0.000 
#
# Total GULP energy -322221.069265 kJ/mol
# GULP energy per Si atom -12393.118049 kJ/mol
# Density = 2.318957 g / cm^3
# Si number density = 23.242469 Si / 1000 Ang^3
#
#
#
# Elastic Constant Matrix: (Units=GPa)
#
#
# Indices 1 2 3 4 5 6 
#
# 1 78.0790 10.2634 14.6258 0.0000 12.5046 0.0000
# 2 10.2634 43.2638 19.4441 0.0000 8.2259 0.0000
# 3 14.6258 19.4441 61.9586 0.0000 22.0919 0.0000
# 4 0.0000 0.0000 0.0000 26.7742 0.0000 -0.9795
# 5 12.5046 8.2259 22.0919 0.0000 41.3892 0.0000
# 6 0.0000 0.0000 0.0000 -0.9795 0.0000 34.3310
#
#
#
# Elastic Compliance Matrix: (Units=1/GPa)
#
#
# Indices 1 2 3 4 5 6 
#
# 1 0.013839 -0.002011 -0.001590 0.000000 -0.002933 0.000000
# 2 -0.002011 0.027238 -0.007854 0.000000 -0.000613 0.000000
# 3 -0.001590 -0.007854 0.022542 0.000000 -0.009991 0.000000
# 4 0.000000 0.000000 0.000000 0.037388 0.000000 0.001067
# 5 -0.002933 -0.000613 -0.009991 0.000000 0.030502 0.000000
# 6 0.000000 0.000000 0.000000 0.001067 0.000000 0.029159
#
#
# Mechanical properties :
#
#
# Convention : Reuss Voigt Hill
#
# Bulk Modulus (GPa) = 24.56473 30.21865 27.39169
# Shear Modulus (GPa) = 25.36159 29.76342 27.56250
#
# Velocity S-wave (km/s) = 3.30688 3.58238 3.44738
# Velocity P-wave (km/s) = 5.01721 5.49008 5.25896
#
# Compressibility (1/GPa) = 0.04070877
#
# Stress axis : x y z
#
# Youngs Moduli (GPa) = 72.25732 36.71383 44.36085
#
# Poissons Ratio (x) = 0.07382 0.07054
# Poissons Ratio (y) = 0.14530 0.34843
# Poissons Ratio (z) = 0.11490 0.28837
#
# Static dielectric constant tensor:
#      x y z
#    x 4.276300 0.000000 -0.219480 
#    y 0.000000 4.287030 0.000000 
#    z -0.219480 0.000000 3.878110 
# 
# 
# High freq. dielectric constant tensor:
#      x y z
#    x 1.923210 0.000000 -0.014820 
#    y 0.000000 1.918020 0.000000 
#    z -0.014820 0.000000 1.886500 
# 
# From -- ./inp_files/238833.got.cif
#   From: 2010.06.25/outbox.cif.g09.slc.cpg/sg15_120_cif.got.tgz:238833.got - 2010.06.28 07:06:18.
