data_PCOD8142074
_publ_section_title
;
Structure prediction by ZEFSAII (Michael W. Deem and Ramdas Pophale) SiO2 
 PCOD8142074
Probable space group: C 2/C
;
_chemical_formula_sum "Si O2"
_cell_formula_units_Z 48
_cell_length_a 18.220055
_cell_length_b 8.627299
_cell_length_c 22.236614
_cell_angle_alpha 90.000000
_cell_angle_beta 136.077971
_cell_angle_gamma 90.000000
_cell_volume 2424.664317
_symmetry_space_group_name_H-M "C 2/C"
_symmetry_group_IT_number 15
_symmetry_cell_setting 'monoclinic'
loop_
_space_group_symop_operation_xyz
x,y,z
-x,y,1/2-z
-x,-y,-z
x,-y,1/2+z
1/2+x,1/2+y,z
1/2-x,1/2+y,1/2-z
1/2-x,1/2-y,-z
1/2+x,1/2-y,1/2+z
loop_
_atom_site_type_symbol
_atom_site_label
_atom_site_fract_x
_atom_site_fract_y
_atom_site_fract_z
Si Si1 0.792327 0.686702 0.086829
Si Si2 0.785924 0.151048 0.705094
Si Si3 0.579143 0.669629 0.401926
Si Si4 0.170090 0.795519 0.746345
Si Si5 0.235999 0.330303 0.406291
Si Si6 0.015716 0.856782 0.323527
O O1 0.751059 0.795512 0.117485
O O2 0.767826 0.509931 0.081673
O O3 0.918571 0.702997 0.153236
O O4 0.750000 0.750000 0.000000
O O5 0.708882 0.238073 0.704834
O O6 0.907079 0.202159 0.789363
O O7 0.785478 0.966018 0.712841
O O8 0.457129 0.724094 0.330238
O O9 0.648222 0.725818 0.500727
O O10 0.639951 0.735379 0.379578
O O11 0.577732 0.481240 0.401362
O O12 0.224687 0.686979 0.828343
O O13 0.000000 0.946245 0.250000
#
# Coordination Sequence:
#
# PCOD8142074 Si02
#       6
#     8   8   8   8   8   8
#     4  11  21  37  62  94 122 153 205 251 297 359
#     4  10  23  40  62  85 124 165 201 248 308 362
#     4  10  21  38  61  93 121 160 202 251 304 357
#     4  11  23  43  62  89 127 162 203 249 309 364
#     4  11  22  36  65  92 122 157 206 250 302 360
#     4   9  18  37  60  85 118 163 200 245 303 356
#
# _framework density 19.796555000000001
#
# number of rings (size 3 to 8) (size 9 to 14) (size 15 to 20)
#    0.000    1.667    1.667    4.500    2.333    5.333 
#    3.000    3.333    0.000    0.000    0.000    0.000 
#    0.000    0.000    0.000    0.000    0.000    0.000 
#
# Total GULP energy -297372.139730 kJ/mol
# GULP energy per Si atom -12390.505822 kJ/mol
# Density = 1.975150 g / cm^3
# Si number density = 19.796555 Si / 1000 Ang^3
#
#
#
# Elastic Constant Matrix: (Units=GPa)
#
#
# Indices 1 2 3 4 5 6 
#
# 1 96.7835 19.6129 52.2924 0.0000 -4.2604 0.0000
# 2 19.6129 68.3828 32.3394 0.0000 -1.9972 0.0000
# 3 52.2924 32.3394 120.6449 0.0000 -8.9225 0.0000
# 4 0.0000 0.0000 0.0000 26.0496 0.0000 -1.9775
# 5 -4.2604 -1.9972 -8.9225 0.0000 28.8324 0.0000
# 6 0.0000 0.0000 0.0000 -1.9775 0.0000 31.1253
#
#
#
# Elastic Compliance Matrix: (Units=1/GPa)
#
#
# Indices 1 2 3 4 5 6 
#
# 1 0.013589 -0.001275 -0.005533 0.000000 0.000207 0.000000
# 2 -0.001275 0.016868 -0.003988 0.000000 -0.000254 0.000000
# 3 -0.005533 -0.003988 0.011949 0.000000 0.002604 0.000000
# 4 0.000000 0.000000 0.000000 0.038574 0.000000 0.002451
# 5 0.000207 -0.000254 0.002604 0.000000 0.035502 0.000000
# 6 0.000000 0.000000 0.000000 0.002451 0.000000 0.032284
#
#
# Mechanical properties :
#
#
# Convention : Reuss Voigt Hill
#
# Bulk Modulus (GPa) = 48.04382 54.92228 51.48305
# Shear Modulus (GPa) = 28.20156 29.30589 28.75372
#
# Velocity S-wave (km/s) = 3.77844 3.85171 3.81525
# Velocity P-wave (km/s) = 6.58460 6.89815 6.74320
#
# Compressibility (1/GPa) = 0.02081433
#
# Stress axis : x y z
#
# Youngs Moduli (GPa) = 73.58689 59.28523 83.69210
#
# Poissons Ratio (x) = 0.07558 0.46308
# Poissons Ratio (y) = 0.09381 0.33374
# Poissons Ratio (z) = 0.40717 0.23641
#
# Static dielectric constant tensor:
#      x y z
#    x 1.326780 0.000000 -2.580780 
#    y 0.000000 3.717110 0.000000 
#    z -2.580780 0.000000 0.842990 
# 
# 
# High freq. dielectric constant tensor:
#      x y z
#    x 1.761640 0.000000 0.005080 
#    y 0.000000 1.766920 0.000000 
#    z 0.005080 0.000000 1.781950 
# 
# From -- ./inp_files/247646.got.cif
#   From: 2010.06.25/outbox.cif.g09.slc.cpg/sg15_124_cif.got.tgz:247646.got - 2010.06.28 07:06:18.
