data_PCOD8142655
_publ_section_title
;
Structure prediction by ZEFSAII (Michael W. Deem and Ramdas Pophale) SiO2 
 PCOD8142655
Probable space group: C 2/C
;
_chemical_formula_sum "Si O2"
_cell_formula_units_Z 56
_cell_length_a 22.328970
_cell_length_b 13.556208
_cell_length_c 25.050629
_cell_angle_alpha 90.000000
_cell_angle_beta 20.623443
_cell_angle_gamma 90.000000
_cell_volume 2670.823888
_symmetry_space_group_name_H-M "C 2/C"
_symmetry_group_IT_number 15
_symmetry_cell_setting 'monoclinic'
loop_
_space_group_symop_operation_xyz
x,y,z
-x,y,1/2-z
-x,-y,-z
x,-y,1/2+z
1/2+x,1/2+y,z
1/2-x,1/2+y,1/2-z
1/2-x,1/2-y,-z
1/2+x,1/2-y,1/2+z
loop_
_atom_site_type_symbol
_atom_site_label
_atom_site_fract_x
_atom_site_fract_y
_atom_site_fract_z
Si Si1 0.048170 0.512543 0.050253
Si Si2 0.125898 0.198276 0.562309
Si Si3 0.570237 0.510207 0.744392
Si Si4 0.918668 0.974982 0.647379
Si Si5 0.065671 0.371481 0.948176
Si Si6 0.332360 0.846997 0.787438
Si Si7 0.991739 0.153573 0.518919
O O1 0.066298 0.594792 0.987594
O O2 0.902291 0.543033 0.214369
O O3 0.227349 0.514736 0.931078
O O4 0.006731 0.405470 0.057248
O O5 0.250000 0.250000 0.500000
O O6 0.248479 0.150410 0.415512
O O7 0.016205 0.117478 0.684746
O O8 0.993143 0.274636 0.646854
O O9 0.500000 0.453281 0.750000
O O10 0.521141 0.458758 0.841626
O O11 0.730783 0.935412 0.796600
O O12 0.041119 0.913857 0.505876
O O13 0.925919 0.091901 0.625578
O O14 0.106605 0.255596 0.909838
O O15 0.190721 0.818821 0.861426
#
# Coordination Sequence:
#
# PCOD8142655 Si02
#       7
#     8   8   8   8   8   8   8
#     4  10  22  38  59  92 124 168 214 250 319 380
#     4  12  24  37  58  91 129 177 218 245 315 397
#     4  11  22  40  60  85 126 169 210 264 315 384
#     4  10  23  40  62  96 124 168 215 263 327 395
#     4  10  21  39  63  89 129 166 208 266 321 383
#     4  12  22  38  58  89 131 169 209 260 308 377
#     4  11  22  40  64  94 130 165 210 273 330 375
#
# _framework density 20.967313000000001
#
# number of rings (size 3 to 8) (size 9 to 14) (size 15 to 20)
#    0.000    1.143    2.857    4.714    0.000    3.429 
#    0.000    0.000    0.000    3.429    0.000    2.000 
#    0.000    0.000    0.000    0.000    0.000    0.000 
#
# Total GULP energy -347013.351870 kJ/mol
# GULP energy per Si atom -12393.333995 kJ/mol
# Density = 2.091959 g / cm^3
# Si number density = 20.967313 Si / 1000 Ang^3
#
#
#
# Elastic Constant Matrix: (Units=GPa)
#
#
# Indices 1 2 3 4 5 6 
#
# 1 148.4217 39.1615 48.8311 0.0176 6.3364 -0.0019
# 2 39.1615 114.0335 34.5300 -0.0199 3.6437 0.0142
# 3 48.8311 34.5300 81.4935 0.0028 2.5502 -0.0024
# 4 0.0176 -0.0199 0.0028 29.1423 -0.0014 6.4938
# 5 6.3364 3.6437 2.5502 -0.0014 41.2768 -0.0030
# 6 -0.0019 0.0142 -0.0024 6.4938 -0.0030 23.2292
#
#
#
# Elastic Compliance Matrix: (Units=1/GPa)
#
#
# Indices 1 2 3 4 5 6 
#
# 1 0.008675 -0.001588 -0.004496 -0.000007 -0.000914 0.000003
# 2 -0.001588 0.010367 -0.003427 0.000011 -0.000460 -0.000010
# 3 -0.004496 -0.003427 0.016418 -0.000002 -0.000022 0.000004
# 4 -0.000007 0.000011 -0.000002 0.036594 0.000001 -0.010230
# 5 -0.000914 -0.000460 -0.000022 0.000001 0.024409 0.000003
# 6 0.000003 -0.000010 0.000004 -0.010230 0.000003 0.045909
#
#
# Mechanical properties :
#
#
# Convention : Reuss Voigt Hill
#
# Bulk Modulus (GPa) = 60.83815 65.44376 63.14095
# Shear Modulus (GPa) = 29.96275 33.49138 31.72707
#
# Velocity S-wave (km/s) = 3.78434 4.00098 3.89417
# Velocity P-wave (km/s) = 6.94073 7.25423 7.09921
#
# Compressibility (1/GPa) = 0.01643706
#
# Stress axis : x y z
#
# Youngs Moduli (GPa) = 115.27340 96.45885 60.90970
#
# Poissons Ratio (x) = 0.15322 0.27388
# Poissons Ratio (y) = 0.18311 0.20871
# Poissons Ratio (z) = 0.51832 0.33052
#
# Static dielectric constant tensor:
#      x y z
#    x 4.061960 0.000010 0.082330 
#    y 0.000010 3.760150 0.000060 
#    z 0.082330 0.000060 3.862340 
# 
# 
# High freq. dielectric constant tensor:
#      x y z
#    x 1.820770 0.000000 0.006110 
#    y 0.000000 1.785510 0.000010 
#    z 0.006110 0.000010 1.827930 
# 
# From -- ./inp_files/302296.got.cif
#   From: 2010.06.25/outbox.cif.g09.slc.cpg/sg15_152_cif.got.tgz:302296.got - 2010.06.28 07:06:18.
