data_PCOD8142741
_publ_section_title
;
Structure prediction by ZEFSAII (Michael W. Deem and Ramdas Pophale) SiO2 
 PCOD8142741
Probable space group: C 2/C
;
_chemical_formula_sum "Si O2"
_cell_formula_units_Z 40
_cell_length_a 10.333045
_cell_length_b 23.660976
_cell_length_c 11.749485
_cell_angle_alpha 90.000000
_cell_angle_beta 140.699585
_cell_angle_gamma 90.000000
_cell_volume 1819.485480
_symmetry_space_group_name_H-M "C 2/C"
_symmetry_group_IT_number 15
_symmetry_cell_setting 'monoclinic'
loop_
_space_group_symop_operation_xyz
x,y,z
-x,y,1/2-z
-x,-y,-z
x,-y,1/2+z
1/2+x,1/2+y,z
1/2-x,1/2+y,1/2-z
1/2-x,1/2-y,-z
1/2+x,1/2-y,1/2+z
loop_
_atom_site_type_symbol
_atom_site_label
_atom_site_fract_x
_atom_site_fract_y
_atom_site_fract_z
Si Si1 0.206892 0.302258 0.129860
Si Si2 0.739889 0.434085 0.687617
Si Si3 0.711633 0.546981 0.566181
Si Si4 0.152742 0.183430 0.021201
Si Si5 0.505154 0.092940 0.934187
O O1 0.174645 0.235111 0.126905
O O2 0.417701 0.323366 0.327207
O O3 0.026063 0.339941 0.062229
O O4 0.204204 0.308815 0.991437
O O5 0.767432 0.479800 0.604354
O O6 0.529012 0.445500 0.611521
O O7 0.738361 0.371823 0.638082
O O8 0.925282 0.438971 0.903742
O O9 0.823019 0.583010 0.544931
O O10 0.789156 0.568175 0.743464
#
# Coordination Sequence:
#
# PCOD8142741 Si02
#       5
#     8   8   8   8   8
#     4  10  21  39  64  94 129 161 208 274 311 383
#     4  11  22  41  64  91 127 170 208 262 311 378
#     4  10  24  41  61  94 131 165 214 258 313 385
#     4  10  21  39  64  95 124 164 214 260 326 371
#     4  11  22  41  65  92 130 167 211 260 321 375
#
# _framework density 21.984238000000001
#
# number of rings (size 3 to 8) (size 9 to 14) (size 15 to 20)
#    0.000    1.600    2.000    2.400    0.000    7.200 
#    3.600    1.000    4.400    0.000    0.000    0.000 
#    0.000    0.000    0.000    0.000    0.000    0.000 
#
# Total GULP energy -247934.185514 kJ/mol
# GULP energy per Si atom -12396.709276 kJ/mol
# Density = 2.193420 g / cm^3
# Si number density = 21.984238 Si / 1000 Ang^3
#
#
#
# Elastic Constant Matrix: (Units=GPa)
#
#
# Indices 1 2 3 4 5 6 
#
# 1 86.6173 54.9035 9.8658 0.0000 1.0973 0.0000
# 2 54.9035 173.9301 30.0868 0.0000 -9.9162 0.0000
# 3 9.8658 30.0868 84.5216 0.0000 -8.5062 0.0000
# 4 0.0000 0.0000 0.0000 33.1985 0.0000 0.6341
# 5 1.0973 -9.9162 -8.5062 0.0000 18.4168 0.0000
# 6 0.0000 0.0000 0.0000 0.6341 0.0000 39.7728
#
#
#
# Elastic Compliance Matrix: (Units=1/GPa)
#
#
# Indices 1 2 3 4 5 6 
#
# 1 0.014655 -0.004767 -0.000378 0.000000 -0.003614 0.000000
# 2 -0.004767 0.007780 -0.001849 0.000000 0.003619 0.000000
# 3 -0.000378 -0.001849 0.013042 0.000000 0.005051 0.000000
# 4 0.000000 0.000000 0.000000 0.030131 0.000000 -0.000480
# 5 -0.003614 0.003619 0.005051 0.000000 0.058795 0.000000
# 6 0.000000 0.000000 0.000000 -0.000480 0.000000 0.025150
#
#
# Mechanical properties :
#
#
# Convention : Reuss Voigt Hill
#
# Bulk Modulus (GPa) = 46.53138 59.42013 52.97576
# Shear Modulus (GPa) = 29.29038 34.95847 32.12442
#
# Velocity S-wave (km/s) = 3.65408 3.99201 3.82677
# Velocity P-wave (km/s) = 6.24618 6.95236 6.60871
#
# Compressibility (1/GPa) = 0.02149087
#
# Stress axis : x y z
#
# Youngs Moduli (GPa) = 68.23411 128.52877 76.67663
#
# Poissons Ratio (x) = 0.61269 0.02895
# Poissons Ratio (y) = 0.32527 0.14177
# Poissons Ratio (z) = 0.02576 0.23763
#
# Static dielectric constant tensor:
#      x y z
#    x 3.604930 0.000000 0.130790 
#    y 0.000000 4.162050 0.000000 
#    z 0.130790 0.000000 4.164040 
# 
# 
# High freq. dielectric constant tensor:
#      x y z
#    x 1.828650 0.000000 0.015250 
#    y 0.000000 1.876080 0.000000 
#    z 0.015250 0.000000 1.878620 
# 
# From -- ./inp_files/91022.got.cif
#   From: 2010.06.25/outbox.cif.g09.slc.cpg/sg15_46_cif.got.tgz:91022.got - 2010.06.28 07:06:18.
