data_PCOD8142214
_publ_section_title
;
Structure prediction by ZEFSAII (Michael W. Deem and Ramdas Pophale) SiO2 
 PCOD8142214
Probable space group: C 2/C
;
_chemical_formula_sum "Si O2"
_cell_formula_units_Z 36
_cell_length_a 13.871320
_cell_length_b 27.272484
_cell_length_c 4.995416
_cell_angle_alpha 90.000000
_cell_angle_beta 117.170157
_cell_angle_gamma 90.000000
_cell_volume 1681.262192
_symmetry_space_group_name_H-M "C 2/C"
_symmetry_group_IT_number 15
_symmetry_cell_setting 'monoclinic'
loop_
_space_group_symop_operation_xyz
x,y,z
-x,y,1/2-z
-x,-y,-z
x,-y,1/2+z
1/2+x,1/2+y,z
1/2-x,1/2+y,1/2-z
1/2-x,1/2-y,-z
1/2+x,1/2-y,1/2+z
loop_
_atom_site_type_symbol
_atom_site_label
_atom_site_fract_x
_atom_site_fract_y
_atom_site_fract_z
Si Si1 0.500000 0.586197 0.250000
Si Si2 0.000000 0.693449 0.750000
Si Si3 0.353244 0.658316 0.768352
Si Si4 0.284047 0.136975 0.414769
Si Si5 0.000000 0.241868 0.750000
Si Si6 0.784703 0.966658 0.594840
O O1 0.548841 0.620500 0.547152
O O2 0.591358 0.552019 0.236558
O O3 0.901778 0.659735 0.527690
O O4 0.040071 0.725642 0.549906
O O5 0.275572 0.636161 0.445612
O O6 0.399240 0.709938 0.725558
O O7 0.286101 0.667218 0.956381
O O8 0.294476 0.080378 0.519182
O O9 0.758893 0.999916 0.311473
#
# Coordination Sequence:
#
# PCOD8142214 Si02
#       6
#     4   4   8   8   4   8
#     4  10  21  38  63  96 132 160 185 244 319 382
#     4  12  27  44  64  87 122 167 224 262 293 350
#     4  11  23  41  65  94 133 162 194 247 319 377
#     4  11  25  44  62  89 128 168 203 260 312 350
#     4  12  24  40  67  99 120 161 209 248 308 386
#     4  11  22  37  61  92 122 158 204 248 305 378
#
# _framework density 21.412483000000002
#
# number of rings (size 3 to 8) (size 9 to 14) (size 15 to 20)
#    0.000    0.889    0.000    9.333    0.000    8.889 
#    0.000    1.111    0.000    0.000    0.000    0.000 
#    0.000    0.000    0.000    0.000    0.000    0.000 
#
# Total GULP energy -223289.408572 kJ/mol
# GULP energy per Si atom -12404.967143 kJ/mol
# Density = 2.136375 g / cm^3
# Si number density = 21.412483 Si / 1000 Ang^3
#
#
#
# Elastic Constant Matrix: (Units=GPa)
#
#
# Indices 1 2 3 4 5 6 
#
# 1 69.3639 44.6570 41.6544 0.0000 -2.9199 0.0000
# 2 44.6570 129.3537 58.0101 0.0000 5.5868 0.0000
# 3 41.6544 58.0101 144.9068 0.0000 -17.4920 0.0000
# 4 0.0000 0.0000 0.0000 28.0722 0.0000 -7.9931
# 5 -2.9199 5.5868 -17.4920 0.0000 32.1666 0.0000
# 6 0.0000 0.0000 0.0000 -7.9931 0.0000 15.0852
#
#
#
# Elastic Compliance Matrix: (Units=1/GPa)
#
#
# Indices 1 2 3 4 5 6 
#
# 1 0.020015 -0.005378 -0.003498 0.000000 0.000849 0.000000
# 2 -0.005378 0.011360 -0.003531 0.000000 -0.004381 0.000000
# 3 -0.003498 -0.003531 0.010013 0.000000 0.005741 0.000000
# 4 0.000000 0.000000 0.000000 0.041952 0.000000 0.022229
# 5 0.000849 -0.004381 0.005741 0.000000 0.035048 0.000000
# 6 0.000000 0.000000 0.000000 0.022229 0.000000 0.078068
#
#
# Mechanical properties :
#
#
# Convention : Reuss Voigt Hill
#
# Bulk Modulus (GPa) = 60.33208 70.25193 65.29200
# Shear Modulus (GPa) = 22.04638 28.35165 25.19902
#
# Velocity S-wave (km/s) = 3.21223 3.64273 3.43423
# Velocity P-wave (km/s) = 6.48037 7.11145 6.80323
#
# Compressibility (1/GPa) = 0.01657493
#
# Stress axis : x y z
#
# Youngs Moduli (GPa) = 49.96131 88.02892 99.87044
#
# Poissons Ratio (x) = 0.47340 0.34937
# Poissons Ratio (y) = 0.26868 0.35261
# Poissons Ratio (z) = 0.17478 0.31080
#
# Static dielectric constant tensor:
#      x y z
#    x 3.740160 0.000000 -0.238360 
#    y 0.000000 4.040700 0.000000 
#    z -0.238360 0.000000 3.873830 
# 
# 
# High freq. dielectric constant tensor:
#      x y z
#    x 1.824480 0.000000 -0.023910 
#    y 0.000000 1.847700 0.000000 
#    z -0.023910 0.000000 1.848680 
# 
# From -- ./inp_files/5323.got.cif
#   From: 2010.06.25/outbox.cif.g09.slc.cpg/sg15_3_cif.got.tgz:5323.got - 2010.06.28 07:06:18.
