data_PCOD8142431
_publ_section_title
;
Structure prediction by ZEFSAII (Michael W. Deem and Ramdas Pophale) SiO2 
 PCOD8142431
Probable space group: C 2/C
;
_chemical_formula_sum "Si O2"
_cell_formula_units_Z 52
_cell_length_a 8.003571
_cell_length_b 28.749729
_cell_length_c 13.014025
_cell_angle_alpha 90.000000
_cell_angle_beta 60.665842
_cell_angle_gamma 90.000000
_cell_volume 2610.566625
_symmetry_space_group_name_H-M "C 2/C"
_symmetry_group_IT_number 15
_symmetry_cell_setting 'monoclinic'
loop_
_space_group_symop_operation_xyz
x,y,z
-x,y,1/2-z
-x,-y,-z
x,-y,1/2+z
1/2+x,1/2+y,z
1/2-x,1/2+y,1/2-z
1/2-x,1/2-y,-z
1/2+x,1/2-y,1/2+z
loop_
_atom_site_type_symbol
_atom_site_label
_atom_site_fract_x
_atom_site_fract_y
_atom_site_fract_z
Si Si1 0.373214 0.190202 0.140051
Si Si2 0.374579 0.183212 0.628760
Si Si3 0.886961 0.419871 0.146406
Si Si4 0.000000 0.232489 0.750000
Si Si5 0.275877 0.452110 0.097964
Si Si6 0.288999 0.557357 0.022846
Si Si7 0.500000 0.114513 0.250000
Si Si8 0.000000 0.758813 0.750000
O O1 0.458116 0.236566 0.164113
O O2 0.366724 0.147003 0.219488
O O3 0.163927 0.205290 0.167072
O O4 0.499535 0.173261 0.008193
O O5 0.353968 0.133663 0.691498
O O6 0.164990 0.198958 0.659596
O O7 0.464117 0.225164 0.665715
O O8 0.793685 0.452423 0.262301
O O9 0.785251 0.432677 0.069995
O O10 0.118549 0.426160 0.073810
O O11 0.486861 0.427738 0.030195
O O12 0.280419 0.503441 0.051001
O O13 0.151249 0.584037 0.142262
#
# Coordination Sequence:
#
# PCOD8142431 Si02
#       8
#     8   8   8   4   8   8   4   4
#     4  10  21  39  58  86 122 160 203 249 306 365
#     4  11  21  38  60  89 119 160 199 255 306 360
#     4  11  22  41  66  95 126 157 215 260 310 369
#     4   9  22  36  60  86 114 158 204 240 302 369
#     4  10  24  41  64  95 123 164 207 257 319 386
#     4  11  23  43  65  89 128 167 204 261 319 368
#     4  11  22  40  61  90 122 162 217 254 308 381
#     4  10  22  38  59  88 126 160 203 252 310 374
#
# _framework density 19.919046999999999
#
# number of rings (size 3 to 8) (size 9 to 14) (size 15 to 20)
#    0.000    1.538    1.538    3.692    2.154    1.231 
#    0.000    1.538    0.000    0.000    0.000    0.000 
#    0.000    0.000    0.000    0.000    0.000    0.000 
#
# Total GULP energy -322276.635141 kJ/mol
# GULP energy per Si atom -12395.255198 kJ/mol
# Density = 1.987371 g / cm^3
# Si number density = 19.919047 Si / 1000 Ang^3
#
#
#
# Elastic Constant Matrix: (Units=GPa)
#
#
# Indices 1 2 3 4 5 6 
#
# 1 139.0823 43.2909 48.0936 0.0000 -25.2673 0.0000
# 2 43.2909 81.5976 22.1278 0.0000 -13.9055 0.0000
# 3 48.0936 22.1278 88.7866 0.0000 -9.8232 0.0000
# 4 0.0000 0.0000 0.0000 26.1434 0.0000 -18.6597
# 5 -25.2673 -13.9055 -9.8232 0.0000 33.3228 0.0000
# 6 0.0000 0.0000 0.0000 -18.6597 0.0000 -1.2994
#
#
#
# Elastic Compliance Matrix: (Units=1/GPa)
#
#
# Indices 1 2 3 4 5 6 
#
# 1 0.010805 -0.003634 -0.004351 0.000000 0.005395 0.000000
# 2 -0.003634 0.015109 -0.001452 0.000000 0.003122 0.000000
# 3 -0.004351 -0.001452 0.014006 0.000000 0.000224 0.000000
# 4 0.000000 0.000000 0.000000 0.003400 0.000000 -0.048827
# 5 0.005395 0.003122 0.000224 0.000000 0.035469 0.000000
# 6 0.000000 0.000000 0.000000 -0.048827 0.000000 -0.068410
#
#
# Mechanical properties :
#
#
# Convention : Reuss Voigt Hill
#
# Bulk Modulus (GPa) = 47.50996 59.61010 53.56003
# Shear Modulus (GPa) = 137.86459 24.69697 81.28078
#
# Velocity S-wave (km/s) = 8.32843 3.52499 6.39485
# Velocity P-wave (km/s) = 10.78828 6.82339 9.02623
#
# Compressibility (1/GPa) = 0.02104822
#
# Stress axis : x y z
#
# Youngs Moduli (GPa) = 92.54604 66.18696 71.39677
#
# Poissons Ratio (x) = 0.24050 0.31062
# Poissons Ratio (y) = 0.33628 0.10366
# Poissons Ratio (z) = 0.40263 0.09609
#
# Static dielectric constant tensor:
#      x y z
#    x 19.645970 0.000000 11.208020 
#    y 0.000000 3.652430 0.000000 
#    z 11.208020 0.000000 12.006720 
# 
# 
# High freq. dielectric constant tensor:
#      x y z
#    x 1.788860 0.000000 -0.007500 
#    y 0.000000 1.785440 0.000000 
#    z -0.007500 0.000000 1.775020 
# 
# From -- ./inp_files/138475.got.cif
#   From: 2010.06.25/outbox.cif.g09.slc.cpg/sg15_70_cif.got.tgz:138475.got - 2010.06.28 07:06:18.
