data_PCOD8142935
_publ_section_title
;
Structure prediction by ZEFSAII (Michael W. Deem and Ramdas Pophale) SiO2 
 PCOD8142935
Probable space group: C 2/C
;
_chemical_formula_sum "Si O2"
_cell_formula_units_Z 64
_cell_length_a 22.222917
_cell_length_b 14.801544
_cell_length_c 14.003807
_cell_angle_alpha 90.000000
_cell_angle_beta 139.448083
_cell_angle_gamma 90.000000
_cell_volume 2994.738822
_symmetry_space_group_name_H-M "C 2/C"
_symmetry_group_IT_number 15
_symmetry_cell_setting 'monoclinic'
loop_
_space_group_symop_operation_xyz
x,y,z
-x,y,1/2-z
-x,-y,-z
x,-y,1/2+z
1/2+x,1/2+y,z
1/2-x,1/2+y,1/2-z
1/2-x,1/2-y,-z
1/2+x,1/2-y,1/2+z
loop_
_atom_site_type_symbol
_atom_site_label
_atom_site_fract_x
_atom_site_fract_y
_atom_site_fract_z
Si Si1 0.549388 0.796892 0.540461
Si Si2 0.636838 0.545228 0.989190
Si Si3 0.930266 0.756453 0.075041
Si Si4 0.024841 0.896654 0.967829
Si Si5 0.159674 0.425846 0.782581
Si Si6 0.821307 0.586634 0.970132
Si Si7 0.485913 0.031057 0.619903
Si Si8 0.878347 0.977695 0.250711
O O1 0.475069 0.780223 0.532777
O O2 0.557097 0.705380 0.486938
O O3 0.643014 0.830211 0.707620
O O4 0.521402 0.868283 0.426765
O O5 0.604099 0.642712 0.985344
O O6 0.615749 0.545644 0.851916
O O7 0.585391 0.462321 0.974974
O O8 0.745692 0.530834 0.142520
O O9 0.000000 0.745585 0.250000
O O10 0.838894 0.693156 0.974603
O O11 0.045170 0.915276 0.104446
O O12 0.915067 0.918793 0.814664
O O13 0.067685 0.486045 0.654692
O O14 0.166702 0.420202 0.903290
O O15 0.720288 0.547085 0.821365
O O16 0.892272 0.526896 0.993087
O O17 0.500000 0.034576 0.750000
#
# Coordination Sequence:
#
# PCOD8142935 Si02
#       8
#     8   8   8   8   8   8   8   8
#     4  12  24  39  67  92 129 169 214 264 319 384
#     4  11  25  41  67  91 132 172 212 263 321 383
#     4  12  21  38  65 100 130 166 208 268 330 379
#     4  11  24  43  60  93 131 172 215 259 318 390
#     4  10  22  42  63  98 123 163 218 264 323 377
#     4  10  21  39  68  94 126 160 209 268 322 378
#     4  10  22  44  64  92 126 166 210 266 315 378
#     4  10  23  42  64  90 130 169 210 263 314 378
#
# _framework density 21.370812000000001
#
# number of rings (size 3 to 8) (size 9 to 14) (size 15 to 20)
#    0.000    1.250    2.500    4.125    3.500    2.000 
#    0.000    0.000    0.000    4.500    0.000    0.000 
#    0.000    0.000    0.000    0.000    0.000    0.000 
#
# Total GULP energy -396460.232652 kJ/mol
# GULP energy per Si atom -12389.382270 kJ/mol
# Density = 2.132217 g / cm^3
# Si number density = 21.370812 Si / 1000 Ang^3
#
#
#
# Elastic Constant Matrix: (Units=GPa)
#
#
# Indices 1 2 3 4 5 6 
#
# 1 94.4062 53.5303 39.9522 0.0000 23.6067 0.0000
# 2 53.5303 144.4506 31.9093 0.0000 20.5671 0.0000
# 3 39.9522 31.9093 78.7856 0.0000 34.4290 0.0000
# 4 0.0000 0.0000 0.0000 35.1179 0.0000 -5.1004
# 5 23.6067 20.5671 34.4290 0.0000 28.0895 0.0000
# 6 0.0000 0.0000 0.0000 -5.1004 0.0000 21.1138
#
#
#
# Elastic Compliance Matrix: (Units=1/GPa)
#
#
# Indices 1 2 3 4 5 6 
#
# 1 0.016101 -0.004300 -0.004061 0.000000 -0.005405 0.000000
# 2 -0.004300 0.008951 -0.000344 0.000000 -0.002518 0.000000
# 3 -0.004061 -0.000344 0.028619 0.000000 -0.031413 0.000000
# 4 0.000000 0.000000 0.000000 0.029511 0.000000 0.007129
# 5 -0.005405 -0.002518 -0.031413 0.000000 0.080489 0.000000
# 6 0.000000 0.000000 0.000000 0.007129 0.000000 0.049084
#
#
# Mechanical properties :
#
#
# Convention : Reuss Voigt Hill
#
# Bulk Modulus (GPa) = 27.57889 63.15845 45.36867
# Shear Modulus (GPa) = 20.63961 29.68094 25.16028
#
# Velocity S-wave (km/s) = 3.11108 3.73078 3.43493
# Velocity P-wave (km/s) = 5.08311 6.94089 6.08334
#
# Compressibility (1/GPa) = 0.03625962
#
# Stress axis : x y z
#
# Youngs Moduli (GPa) = 62.10810 111.72135 34.94202
#
# Poissons Ratio (x) = 0.48040 0.14191
# Poissons Ratio (y) = 0.26706 0.01203
# Poissons Ratio (z) = 0.25224 0.03847
#
# Static dielectric constant tensor:
#      x y z
#    x 4.077380 0.000000 0.274910 
#    y 0.000000 4.036130 0.000000 
#    z 0.274910 0.000000 4.241040 
# 
# 
# High freq. dielectric constant tensor:
#      x y z
#    x 1.850150 0.000000 -0.003350 
#    y 0.000000 1.829910 0.000000 
#    z -0.003350 0.000000 1.838050 
# 
# From -- ./inp_files/173697.got.cif
#   From: 2010.06.25/outbox.cif.g09.slc.cpg/sg15_87_cif.got.tgz:173697.got - 2010.06.28 07:06:18.
