data_PCOD8142722
_publ_section_title
;
Structure prediction by ZEFSAII (Michael W. Deem and Ramdas Pophale) SiO2 
 PCOD8142722
Probable space group: C 2/C
;
_chemical_formula_sum "Si O2"
_cell_formula_units_Z 52
_cell_length_a 14.836919
_cell_length_b 31.668345
_cell_length_c 5.104636
_cell_angle_alpha 90.000000
_cell_angle_beta 108.107222
_cell_angle_gamma 90.000000
_cell_volume 2279.687328
_symmetry_space_group_name_H-M "C 2/C"
_symmetry_group_IT_number 15
_symmetry_cell_setting 'monoclinic'
loop_
_space_group_symop_operation_xyz
x,y,z
-x,y,1/2-z
-x,-y,-z
x,-y,1/2+z
1/2+x,1/2+y,z
1/2-x,1/2+y,1/2-z
1/2-x,1/2-y,-z
1/2+x,1/2-y,1/2+z
loop_
_atom_site_type_symbol
_atom_site_label
_atom_site_fract_x
_atom_site_fract_y
_atom_site_fract_z
Si Si1 0.205447 0.528814 0.444669
Si Si2 0.561026 0.207490 0.064767
Si Si3 0.500000 0.359552 0.250000
Si Si4 0.648262 0.296997 0.257685
Si Si5 0.000000 0.029230 0.250000
Si Si6 0.247414 0.170739 0.367149
Si Si7 0.849436 0.087345 0.309967
Si Si8 0.500000 0.028730 0.250000
O O1 0.216136 0.508673 0.741442
O O2 0.287153 0.562958 0.470484
O O3 0.101859 0.553012 0.335059
O O4 0.500000 0.189218 0.250000
O O5 0.610920 0.249671 0.215716
O O6 0.640255 0.172243 0.078570
O O7 0.500000 0.216543 0.750000
O O8 0.562392 0.329316 0.117772
O O9 0.564086 0.389676 0.476380
O O10 0.689514 0.307232 0.580831
O O11 0.728711 0.302736 0.112849
O O12 0.901704 0.056221 0.152102
O O13 0.000000 0.000000 0.500000
O O14 0.217822 0.121960 0.389279
O O15 0.500000 0.000000 0.500000
#
# Coordination Sequence:
#
# PCOD8142722 Si02
#       8
#     8   8   4   8   4   8   8   4
#     4  10  21  39  64  91 123 166 217 266 323 387
#     4  12  24  42  69  97 132 170 229 284 338 389
#     4  10  23  40  66  97 136 180 224 274 332 411
#     4  11  22  42  66  93 129 176 228 272 332 396
#     4  12  25  42  66  98 134 172 222 268 326 404
#     4  11  25  42  65  96 133 177 220 276 337 410
#     4  11  24  42  64  97 137 174 216 270 339 393
#     4   8  16  34  60  85 110 146 208 260 302 371
#
# _framework density 22.810146
#
# number of rings (size 3 to 8) (size 9 to 14) (size 15 to 20)
#    0.000    1.231    0.769    5.077    2.154    4.923 
#    1.385    0.000    6.769    0.000    0.000    0.000 
#    0.000    0.000    0.000    0.000    0.000    0.000 
#
# Total GULP energy -322326.005916 kJ/mol
# GULP energy per Si atom -12397.154074 kJ/mol
# Density = 2.275823 g / cm^3
# Si number density = 22.810146 Si / 1000 Ang^3
#
#
#
# Elastic Constant Matrix: (Units=GPa)
#
#
# Indices 1 2 3 4 5 6 
#
# 1 164.1438 49.5496 16.3102 0.0000 -13.1510 0.0000
# 2 49.5496 90.5256 21.0807 0.0000 3.9329 0.0000
# 3 16.3102 21.0807 73.2307 0.0000 -21.4549 0.0000
# 4 0.0000 0.0000 0.0000 11.6475 0.0000 1.4987
# 5 -13.1510 3.9329 -21.4549 0.0000 35.4867 0.0000
# 6 0.0000 0.0000 0.0000 1.4987 0.0000 39.0064
#
#
#
# Elastic Compliance Matrix: (Units=1/GPa)
#
#
# Indices 1 2 3 4 5 6 
#
# 1 0.007696 -0.004539 0.000700 0.000000 0.003778 0.000000
# 2 -0.004539 0.015030 -0.005221 0.000000 -0.006505 0.000000
# 3 0.000700 -0.005221 0.018531 0.000000 0.012041 0.000000
# 4 0.000000 0.000000 0.000000 0.086282 0.000000 -0.003315
# 5 0.003778 -0.006505 0.012041 0.000000 0.037581 0.000000
# 6 0.000000 0.000000 0.000000 -0.003315 0.000000 0.025764
#
#
# Mechanical properties :
#
#
# Convention : Reuss Voigt Hill
#
# Bulk Modulus (GPa) = 43.22662 55.75344 49.49003
# Shear Modulus (GPa) = 23.07173 33.29210 28.18191
#
# Velocity S-wave (km/s) = 3.18381 3.82452 3.51878
# Velocity P-wave (km/s) = 5.70151 6.63311 6.18488
#
# Compressibility (1/GPa) = 0.02313389
#
# Stress axis : x y z
#
# Youngs Moduli (GPa) = 129.94353 66.53514 53.96505
#
# Poissons Ratio (x) = 0.30202 -0.03775
# Poissons Ratio (y) = 0.58985 0.28176
# Poissons Ratio (z) = -0.09090 0.34740
#
# Static dielectric constant tensor:
#      x y z
#    x 5.120000 0.000000 0.016470 
#    y 0.000000 4.166410 0.000000 
#    z 0.016470 0.000000 3.999990 
# 
# 
# High freq. dielectric constant tensor:
#      x y z
#    x 1.932120 0.000000 -0.004820 
#    y 0.000000 1.877550 0.000000 
#    z -0.004820 0.000000 1.896580 
# 
# From -- ./inp_files/9137.got.cif
#   From: 2010.06.25/outbox.cif.g09.slc.cpg/sg15_5_cif.got.tgz:9137.got - 2010.06.28 07:06:18.
