data_PCOD8142417
_publ_section_title
;
Structure prediction by ZEFSAII (Michael W. Deem and Ramdas Pophale) SiO2 
 PCOD8142417
Probable space group: C 2/C
;
_chemical_formula_sum "Si O2"
_cell_formula_units_Z 44
_cell_length_a 21.120909
_cell_length_b 13.870786
_cell_length_c 11.657926
_cell_angle_alpha 90.000000
_cell_angle_beta 143.120000
_cell_angle_gamma 90.000000
_cell_volume 2049.690565
_symmetry_space_group_name_H-M "C 2/C"
_symmetry_group_IT_number 15
_symmetry_cell_setting 'monoclinic'
loop_
_space_group_symop_operation_xyz
x,y,z
-x,y,1/2-z
-x,-y,-z
x,-y,1/2+z
1/2+x,1/2+y,z
1/2-x,1/2+y,1/2-z
1/2-x,1/2-y,-z
1/2+x,1/2-y,1/2+z
loop_
_atom_site_type_symbol
_atom_site_label
_atom_site_fract_x
_atom_site_fract_y
_atom_site_fract_z
Si Si1 0.059670 0.687640 0.564542
Si Si2 0.500000 0.077763 0.250000
Si Si3 0.668089 0.921474 0.420434
Si Si4 0.427147 0.442374 0.540398
Si Si5 0.096697 0.738012 0.976618
Si Si6 0.623534 0.396490 0.681482
O O1 0.037367 0.644970 0.407686
O O2 0.126166 0.612709 0.737590
O O3 0.131410 0.783831 0.657478
O O4 0.946320 0.704588 0.461675
O O5 0.600105 0.013418 0.359092
O O6 0.670427 0.842751 0.528197
O O7 0.794978 0.935263 0.600907
O O8 0.500000 0.475098 0.750000
O O9 0.353169 0.346455 0.451128
O O10 0.504637 0.409370 0.550715
O O11 0.357328 0.534221 0.401498
O O12 0.000000 0.748522 0.750000
#
# Coordination Sequence:
#
# PCOD8142417 Si02
#       6
#     8   4   8   8   8   8
#     4  10  21  39  57  84 118 152 191 239 290 349
#     4  12  24  36  62  86 126 152 186 248 304 326
#     4  11  21  37  60  89 111 157 199 235 281 357
#     4   9  19  38  59  82 116 153 187 240 285 345
#     4   8  16  35  61  78 111 151 186 229 282 336
#     4  10  22  36  61  87 113 151 200 234 290 343
#
# _framework density 21.466654999999999
#
# number of rings (size 3 to 8) (size 9 to 14) (size 15 to 20)
#    0.000    2.182    2.727    2.182    1.273    2.909 
#    0.000    0.000    0.000    4.364    0.000    0.000 
#    0.000    0.000    0.000    0.000    0.000    0.000 
#
# Total GULP energy -272545.056317 kJ/mol
# GULP energy per Si atom -12388.411651 kJ/mol
# Density = 2.141780 g / cm^3
# Si number density = 21.466655 Si / 1000 Ang^3
#
#
#
# Elastic Constant Matrix: (Units=GPa)
#
#
# Indices 1 2 3 4 5 6 
#
# 1 29.6107 23.4817 25.8929 0.0000 -17.2370 0.0000
# 2 23.4817 96.8869 48.7626 0.0000 -24.6303 0.0000
# 3 25.8929 48.7626 108.6783 0.0000 -29.2980 0.0000
# 4 0.0000 0.0000 0.0000 32.7593 0.0000 -9.2935
# 5 -17.2370 -24.6303 -29.2980 0.0000 37.8580 0.0000
# 6 0.0000 0.0000 0.0000 -9.2935 0.0000 17.5888
#
#
#
# Elastic Compliance Matrix: (Units=1/GPa)
#
#
# Indices 1 2 3 4 5 6 
#
# 1 0.052523 -0.005901 -0.005629 0.000000 0.015719 0.000000
# 2 -0.005901 0.014826 -0.004259 0.000000 0.003663 0.000000
# 3 -0.005629 -0.004259 0.013920 0.000000 0.005439 0.000000
# 4 0.000000 0.000000 0.000000 0.035908 0.000000 0.018973
# 5 0.015719 0.003663 0.005439 0.000000 0.040164 0.000000
# 6 0.000000 0.000000 0.000000 0.018973 0.000000 0.066879
#
#
# Mechanical properties :
#
#
# Convention : Reuss Voigt Hill
#
# Bulk Modulus (GPa) = 20.12365 47.93891 34.03128
# Shear Modulus (GPa) = 18.35801 26.77714 22.56758
#
# Velocity S-wave (km/s) = 2.92753 3.53566 3.24587
# Velocity P-wave (km/s) = 4.56311 6.24885 5.47130
#
# Compressibility (1/GPa) = 0.04969277
#
# Stress axis : x y z
#
# Youngs Moduli (GPa) = 19.03916 67.44827 71.84122
#
# Poissons Ratio (x) = 0.39799 0.40436
# Poissons Ratio (y) = 0.11235 0.30596
# Poissons Ratio (z) = 0.10716 0.28725
#
# Static dielectric constant tensor:
#      x y z
#    x 4.299900 0.000000 -0.064500 
#    y 0.000000 4.726730 0.000000 
#    z -0.064500 0.000000 3.625610 
# 
# 
# High freq. dielectric constant tensor:
#      x y z
#    x 1.828620 0.000000 -0.003230 
#    y 0.000000 1.851580 0.000000 
#    z -0.003230 0.000000 1.820820 
# 
# From -- ./inp_files/118108.got.cif
#   From: 2010.06.25/outbox.cif.g09.slc.cpg/sg15_60_cif.got.tgz:118108.got - 2010.06.28 07:06:18.
