data_PCOD8142326
_publ_section_title
;
Structure prediction by ZEFSAII (Michael W. Deem and Ramdas Pophale) SiO2 
 PCOD8142326
Probable space group: C 2/C
;
_chemical_formula_sum "Si O2"
_cell_formula_units_Z 56
_cell_length_a 15.479539
_cell_length_b 9.446114
_cell_length_c 20.468361
_cell_angle_alpha 90.000000
_cell_angle_beta 66.395356
_cell_angle_gamma 90.000000
_cell_volume 2742.497939
_symmetry_space_group_name_H-M "C 2/C"
_symmetry_group_IT_number 15
_symmetry_cell_setting 'monoclinic'
loop_
_space_group_symop_operation_xyz
x,y,z
-x,y,1/2-z
-x,-y,-z
x,-y,1/2+z
1/2+x,1/2+y,z
1/2-x,1/2+y,1/2-z
1/2-x,1/2-y,-z
1/2+x,1/2-y,1/2+z
loop_
_atom_site_type_symbol
_atom_site_label
_atom_site_fract_x
_atom_site_fract_y
_atom_site_fract_z
Si Si1 0.394625 0.088915 0.987469
Si Si2 0.430833 0.461708 0.121262
Si Si3 0.266752 0.107551 0.458588
Si Si4 0.723665 0.684560 0.326791
Si Si5 0.892104 0.895373 0.984281
Si Si6 0.570949 0.808212 0.790365
Si Si7 0.403339 0.044105 0.614487
O O1 0.352891 0.239990 0.978505
O O2 0.366560 0.963862 0.945780
O O3 0.507271 0.112355 0.949805
O O4 0.356817 0.053659 0.072153
O O5 0.344197 0.555948 0.176298
O O6 0.518783 0.567729 0.088015
O O7 0.456663 0.333164 0.161667
O O8 0.412855 0.397714 0.055271
O O9 0.250000 0.250000 0.500000
O O10 0.262143 0.137974 0.384626
O O11 0.188312 0.003672 0.510390
O O12 0.817105 0.703140 0.256183
O O13 0.667971 0.832770 0.342360
O O14 0.500000 0.818634 0.750000
O O15 0.561070 0.951785 0.835076
#
# Coordination Sequence:
#
# PCOD8142326 Si02
#       7
#     8   8   8   8   8   8   8
#     4  11  21  39  63  98 128 160 208 264 319 369
#     4  10  22  41  65  92 123 171 215 257 317 378
#     4  11  23  36  65 101 127 157 208 267 317 367
#     4  11  23  44  62  93 129 172 209 257 316 386
#     4  10  21  38  66  92 130 161 208 264 319 375
#     4  12  26  42  65  91 129 171 216 262 313 379
#     4  11  23  39  67  91 125 169 211 256 318 377
#
# _framework density 20.419340999999999
#
# number of rings (size 3 to 8) (size 9 to 14) (size 15 to 20)
#    0.000    1.143    4.286    2.143    4.000    0.000 
#    0.000    0.714    0.000    0.000    0.000    0.000 
#    0.000    0.000    0.000    0.000    0.000    0.000 
#
# Total GULP energy -347093.740876 kJ/mol
# GULP energy per Si atom -12396.205031 kJ/mol
# Density = 2.037287 g / cm^3
# Si number density = 20.419341 Si / 1000 Ang^3
#
#
#
# Elastic Constant Matrix: (Units=GPa)
#
#
# Indices 1 2 3 4 5 6 
#
# 1 74.3594 31.1621 30.2393 0.0000 4.3619 0.0000
# 2 31.1621 143.0711 38.3887 0.0000 9.9275 0.0000
# 3 30.2393 38.3887 71.5022 0.0000 -2.2037 0.0000
# 4 0.0000 0.0000 0.0000 31.7174 0.0000 2.7192
# 5 4.3619 9.9275 -2.2037 0.0000 32.0925 0.0000
# 6 0.0000 0.0000 0.0000 2.7192 0.0000 39.0480
#
#
#
# Elastic Compliance Matrix: (Units=1/GPa)
#
#
# Indices 1 2 3 4 5 6 
#
# 1 0.016877 -0.001863 -0.006204 0.000000 -0.002144 0.000000
# 2 -0.001863 0.008637 -0.003932 0.000000 -0.002689 0.000000
# 3 -0.006204 -0.003932 0.018824 0.000000 0.003352 0.000000
# 4 0.000000 0.000000 0.000000 0.031718 0.000000 -0.002209
# 5 -0.002144 -0.002689 0.003352 0.000000 0.032513 0.000000
# 6 0.000000 0.000000 0.000000 -0.002209 0.000000 0.025763
#
#
# Mechanical properties :
#
#
# Convention : Reuss Voigt Hill
#
# Bulk Modulus (GPa) = 49.16223 54.27923 51.72073
# Shear Modulus (GPa) = 30.28296 33.18111 31.73204
#
# Velocity S-wave (km/s) = 3.85522 4.03548 3.94638
# Velocity P-wave (km/s) = 6.62914 6.95367 6.79334
#
# Compressibility (1/GPa) = 0.02034082
#
# Stress axis : x y z
#
# Youngs Moduli (GPa) = 59.25092 115.78270 53.12474
#
# Poissons Ratio (x) = 0.21567 0.32957
# Poissons Ratio (y) = 0.11037 0.20889
# Poissons Ratio (z) = 0.36757 0.45527
#
# Static dielectric constant tensor:
#      x y z
#    x 3.766980 0.000000 -0.126240 
#    y 0.000000 3.843430 0.000000 
#    z -0.126240 0.000000 3.542060 
# 
# 
# High freq. dielectric constant tensor:
#      x y z
#    x 1.798500 0.000000 -0.011340 
#    y 0.000000 1.817470 0.000000 
#    z -0.011340 0.000000 1.782930 
# 
# From -- ./inp_files/247347.got.cif
#   From: 2010.06.25/outbox.cif.g09.slc.cpg/sg15_124_cif.got.tgz:247347.got - 2010.06.28 07:06:18.
