data_PCOD8142419
_publ_section_title
;
Structure prediction by ZEFSAII (Michael W. Deem and Ramdas Pophale) SiO2 
 PCOD8142419
Probable space group: C 2/C
;
_chemical_formula_sum "Si O2"
_cell_formula_units_Z 60
_cell_length_a 19.888821
_cell_length_b 28.560013
_cell_length_c 14.185094
_cell_angle_alpha 90.000000
_cell_angle_beta 158.357608
_cell_angle_gamma 90.000000
_cell_volume 2971.701220
_symmetry_space_group_name_H-M "C 2/C"
_symmetry_group_IT_number 15
_symmetry_cell_setting 'monoclinic'
loop_
_space_group_symop_operation_xyz
x,y,z
-x,y,1/2-z
-x,-y,-z
x,-y,1/2+z
1/2+x,1/2+y,z
1/2-x,1/2+y,1/2-z
1/2-x,1/2-y,-z
1/2+x,1/2-y,1/2+z
loop_
_atom_site_type_symbol
_atom_site_label
_atom_site_fract_x
_atom_site_fract_y
_atom_site_fract_z
Si Si1 0.600523 0.549247 0.132041
Si Si2 0.689877 0.697400 0.943668
Si Si3 0.666238 0.314588 0.829788
Si Si4 0.324760 0.907063 0.085329
Si Si5 0.510235 0.126630 0.149328
Si Si6 0.119073 0.138581 0.668452
Si Si7 0.549810 0.052548 0.043074
Si Si8 0.500000 0.756738 0.250000
O O1 0.683510 0.559215 0.344784
O O2 0.758893 0.553453 0.261411
O O3 0.500000 0.500000 0.000000
O O4 0.442349 0.585255 0.895914
O O5 0.500000 0.698964 0.750000
O O6 0.659076 0.665186 0.815178
O O7 0.750000 0.750000 0.000000
O O8 0.858683 0.669735 0.212847
O O9 0.548541 0.334628 0.593469
O O10 0.549170 0.275398 0.727211
O O11 0.728991 0.356828 0.980475
O O12 0.837028 0.289713 0.003212
O O13 0.500000 0.897799 0.250000
O O14 0.384049 0.927882 0.262809
O O15 0.500000 0.116138 0.250000
O O16 0.304650 0.139751 0.848775
O O17 0.569853 0.080957 0.167358
O O18 0.500000 0.000000 0.000000
#
# Coordination Sequence:
#
# PCOD8142419 Si02
#       8
#     8   8   8   8   8   8   8   4
#     4  10  21  41  64  93 126 163 206 259 318 383
#     4  11  23  42  63  91 123 165 215 263 315 374
#     4  10  21  39  57  89 120 157 199 247 307 362
#     4   9  20  39  62  84 125 157 197 255 306 370
#     4  10  23  42  63  90 127 165 212 268 309 375
#     4  10  22  40  62  88 124 164 203 259 315 368
#     4  11  23  39  64  94 119 167 212 255 324 375
#     4  10  22  36  58  86 122 154 202 246 292 374
#
# _framework density 20.190455
#
# number of rings (size 3 to 8) (size 9 to 14) (size 15 to 20)
#    0.000    1.867    0.667    2.800    1.867    5.867 
#    2.400    2.667    0.000    0.000    0.000    0.000 
#    0.000    0.000    0.000    0.000    0.000    0.000 
#
# Total GULP energy -371808.733433 kJ/mol
# GULP energy per Si atom -12393.624448 kJ/mol
# Density = 2.014450 g / cm^3
# Si number density = 20.190455 Si / 1000 Ang^3
#
#
#
# Elastic Constant Matrix: (Units=GPa)
#
#
# Indices 1 2 3 4 5 6 
#
# 1 81.8090 48.8672 46.3108 -0.0003 18.4764 0.0001
# 2 48.8672 171.6840 90.6995 -0.0003 13.8221 0.0002
# 3 46.3108 90.6995 115.2421 -0.0004 23.7553 -0.0001
# 4 -0.0003 -0.0003 -0.0004 28.1790 -0.0002 26.4460
# 5 18.4764 13.8221 23.7553 -0.0002 36.0666 0.0000
# 6 0.0001 0.0002 -0.0001 26.4460 0.0000 22.0610
#
#
#
# Elastic Compliance Matrix: (Units=1/GPa)
#
#
# Indices 1 2 3 4 5 6 
#
# 1 0.017029 -0.002364 -0.003901 -0.000001 -0.005248 0.000001
# 2 -0.002364 0.010374 -0.007689 -0.000001 0.002299 0.000001
# 3 -0.003901 -0.007689 0.017677 0.000000 -0.006698 0.000000
# 4 -0.000001 -0.000001 0.000000 -0.283795 -0.000001 0.340205
# 5 -0.005248 0.002299 -0.006698 -0.000001 0.033946 0.000001
# 6 0.000001 0.000001 0.000000 0.340205 0.000001 -0.362498
#
#
# Mechanical properties :
#
#
# Convention : Reuss Voigt Hill
#
# Bulk Modulus (GPa) = 58.23052 82.27670 70.25361
# Shear Modulus (GPa) = -9.36972 29.45182 10.04105
#
# Velocity S-wave (km/s) = -2.15656 3.82344 2.23248
# Velocity P-wave (km/s) = 4.76469 7.76726 6.44331
#
# Compressibility (1/GPa) = 0.01717312
#
# Stress axis : x y z
#
# Youngs Moduli (GPa) = 58.72270 96.39071 56.56919
#
# Poissons Ratio (x) = 0.22783 0.22069
# Poissons Ratio (y) = 0.13880 0.43497
# Poissons Ratio (z) = 0.22909 0.74117
#
# Static dielectric constant tensor:
#      x y z
#    x 0.433650 -0.000010 -11.575760 
#    y -0.000010 3.905600 -0.000020 
#    z -11.575760 -0.000020 -39.250850 
# 
# 
# High freq. dielectric constant tensor:
#      x y z
#    x 1.771590 0.000000 0.017140 
#    y 0.000000 1.803250 0.000000 
#    z 0.017140 0.000000 1.808690 
# 
# From -- ./inp_files/169959.got.cif
#   From: 2010.06.25/outbox.cif.g09.slc.cpg/sg15_85_cif.got.tgz:169959.got - 2010.06.28 07:06:18.
