data_PCOD8142620
_publ_section_title
;
Structure prediction by ZEFSAII (Michael W. Deem and Ramdas Pophale) SiO2 
 PCOD8142620
Probable space group: C 2/C
;
_chemical_formula_sum "Si O2"
_cell_formula_units_Z 56
_cell_length_a 17.875364
_cell_length_b 16.842244
_cell_length_c 12.454504
_cell_angle_alpha 90.000000
_cell_angle_beta 129.272006
_cell_angle_gamma 90.000000
_cell_volume 2902.726833
_symmetry_space_group_name_H-M "C 2/C"
_symmetry_group_IT_number 15
_symmetry_cell_setting 'monoclinic'
loop_
_space_group_symop_operation_xyz
x,y,z
-x,y,1/2-z
-x,-y,-z
x,-y,1/2+z
1/2+x,1/2+y,z
1/2-x,1/2+y,1/2-z
1/2-x,1/2-y,-z
1/2+x,1/2-y,1/2+z
loop_
_atom_site_type_symbol
_atom_site_label
_atom_site_fract_x
_atom_site_fract_y
_atom_site_fract_z
Si Si1 0.483749 0.338865 0.118187
Si Si2 0.809212 0.922077 0.508158
Si Si3 0.500000 0.492154 0.250000
Si Si4 0.349358 0.718447 0.880785
Si Si5 0.672585 0.950954 0.780953
Si Si6 0.768371 0.211034 0.403640
Si Si7 0.500000 0.975351 0.250000
Si Si8 0.647683 0.108184 0.029923
O O1 0.500000 0.297917 0.250000
O O2 0.504349 0.433991 0.149145
O O3 0.554560 0.304686 0.094722
O O4 0.376175 0.319725 0.981189
O O5 0.907220 0.952285 0.652652
O O6 0.826373 0.846958 0.448278
O O7 0.743793 0.895309 0.547121
O O8 0.758527 0.990039 0.391804
O O9 0.259479 0.727132 0.716339
O O10 0.371166 0.801537 0.956216
O O11 0.696546 0.862580 0.838160
O O12 0.660091 0.951979 0.641233
O O13 0.572976 0.970313 0.749656
O O14 0.750000 0.250000 0.500000
O O15 0.554209 0.918363 0.380926
#
# Coordination Sequence:
#
# PCOD8142620 Si02
#       8
#     8   8   4   8   8   8   4   8
#     4  10  21  39  62  96 124 158 217 264 321 379
#     4  11  24  41  65  93 130 174 218 267 325 397
#     4  10  22  41  65  96 128 164 218 280 316 381
#     4  11  25  39  64  94 131 178 208 266 334 386
#     4  10  22  39  64  94 120 169 211 274 317 382
#     4  11  21  40  64  93 132 161 211 269 325 391
#     4  10  22  41  67  90 128 164 218 268 324 397
#     4  10  24  42  61  93 131 166 222 261 324 395
#
# _framework density 19.292204000000002
#
# number of rings (size 3 to 8) (size 9 to 14) (size 15 to 20)
#    0.429    1.143    2.857    0.857    2.000    9.143 
#    0.000    0.000    0.000    0.000    0.000    0.000 
#    0.000    0.000    0.000    0.000    0.000    0.000 
#
# Total GULP energy -347185.219900 kJ/mol
# GULP energy per Si atom -12399.472139 kJ/mol
# Density = 1.924829 g / cm^3
# Si number density = 19.292204 Si / 1000 Ang^3
#
#
#
# Elastic Constant Matrix: (Units=GPa)
#
#
# Indices 1 2 3 4 5 6 
#
# 1 128.8321 55.4564 83.2524 0.0000 4.4434 0.0000
# 2 55.4564 94.0561 58.4091 0.0000 2.0925 0.0000
# 3 83.2524 58.4091 140.8546 0.0000 9.7753 0.0000
# 4 0.0000 0.0000 0.0000 44.8957 0.0000 -13.1464
# 5 4.4434 2.0925 9.7753 0.0000 37.7317 0.0000
# 6 0.0000 0.0000 0.0000 -13.1464 0.0000 27.6244
#
#
#
# Elastic Compliance Matrix: (Units=1/GPa)
#
#
# Indices 1 2 3 4 5 6 
#
# 1 0.013636 -0.004080 -0.006387 0.000000 0.000275 0.000000
# 2 -0.004080 0.015561 -0.004089 0.000000 0.000677 0.000000
# 3 -0.006387 -0.004089 0.012731 0.000000 -0.002319 0.000000
# 4 0.000000 0.000000 0.000000 0.025880 0.000000 0.012316
# 5 0.000275 0.000677 -0.002319 0.000000 0.027034 0.000000
# 6 0.000000 0.000000 0.000000 0.012316 0.000000 0.042061
#
#
# Mechanical properties :
#
#
# Convention : Reuss Voigt Hill
#
# Bulk Modulus (GPa) = 78.01618 84.21983 81.11800
# Shear Modulus (GPa) = 29.36226 33.15869 31.26047
#
# Velocity S-wave (km/s) = 3.90548 4.15029 4.02975
# Velocity P-wave (km/s) = 7.80154 8.16800 7.98687
#
# Compressibility (1/GPa) = 0.01281785
#
# Stress axis : x y z
#
# Youngs Moduli (GPa) = 73.33564 64.26181 78.54924
#
# Poissons Ratio (x) = 0.26217 0.50168
# Poissons Ratio (y) = 0.29919 0.32115
# Poissons Ratio (z) = 0.46838 0.26274
#
# Static dielectric constant tensor:
#      x y z
#    x 3.466380 0.000000 -0.034540 
#    y 0.000000 3.532910 0.000000 
#    z -0.034540 0.000000 3.790010 
# 
# 
# High freq. dielectric constant tensor:
#      x y z
#    x 1.755230 0.000000 0.002320 
#    y 0.000000 1.754000 0.000000 
#    z 0.002320 0.000000 1.764440 
# 
# From -- ./inp_files/106765.got.cif
#   From: 2010.06.25/outbox.cif.g09.slc.cpg/sg15_54_cif.got.tgz:106765.got - 2010.06.28 07:06:18.
