data_PCOD8142746
_publ_section_title
;
Structure prediction by ZEFSAII (Michael W. Deem and Ramdas Pophale) SiO2 
 PCOD8142746
Probable space group: C 2/C
;
_chemical_formula_sum "Si O2"
_cell_formula_units_Z 64
_cell_length_a 14.996279
_cell_length_b 8.698323
_cell_length_c 29.598624
_cell_angle_alpha 90.000000
_cell_angle_beta 48.412109
_cell_angle_gamma 90.000000
_cell_volume 2887.728697
_symmetry_space_group_name_H-M "C 2/C"
_symmetry_group_IT_number 15
_symmetry_cell_setting 'monoclinic'
loop_
_space_group_symop_operation_xyz
x,y,z
-x,y,1/2-z
-x,-y,-z
x,-y,1/2+z
1/2+x,1/2+y,z
1/2-x,1/2+y,1/2-z
1/2-x,1/2-y,-z
1/2+x,1/2-y,1/2+z
loop_
_atom_site_type_symbol
_atom_site_label
_atom_site_fract_x
_atom_site_fract_y
_atom_site_fract_z
Si Si1 0.955472 0.108799 0.714287
Si Si2 0.184135 0.391660 0.322101
Si Si3 0.905406 0.360021 0.980688
Si Si4 0.167184 0.568014 0.418713
Si Si5 0.025750 0.582755 0.143271
Si Si6 0.693169 0.168268 0.592289
Si Si7 0.588994 0.519558 0.510915
Si Si8 0.005269 0.129571 0.373475
O O1 0.813813 0.123839 0.756890
O O2 0.000000 0.089370 0.750000
O O3 0.017839 0.257831 0.671922
O O4 0.994852 0.956742 0.674402
O O5 0.197223 0.449376 0.369035
O O6 0.105838 0.510458 0.318760
O O7 0.127101 0.222417 0.340964
O O8 0.908772 0.402663 0.927138
O O9 0.853497 0.189252 0.005605
O O10 0.037097 0.359691 0.957567
O O11 0.822840 0.479527 0.036341
O O12 0.261304 0.708641 0.385876
O O13 0.113810 0.468405 0.142039
O O14 0.604123 0.251087 0.587181
O O15 0.805500 0.103208 0.527333
O O16 0.500000 0.500000 0.500000
O O17 0.509722 0.494880 0.582205
#
# Coordination Sequence:
#
# PCOD8142746 Si02
#       8
#     8   8   8   8   8   8   8   8
#     4  12  25  47  69  97 134 180 232 289 339 399
#     4  10  23  45  72  95 132 180 230 283 342 402
#     4  10  21  39  64  95 138 172 220 275 339 404
#     4  10  21  40  67 101 134 174 221 276 338 409
#     4  10  24  44  64 100 132 178 233 281 338 409
#     4  11  25  40  66  99 140 178 221 275 342 408
#     4  12  23  39  65 102 136 177 217 274 340 414
#     4  11  25  44  67  99 133 177 227 277 341 407
#
# _framework density 22.162747
#
# number of rings (size 3 to 8) (size 9 to 14) (size 15 to 20)
#    0.000    1.250    2.500    2.625    7.000    3.500 
#    0.000    6.250    0.000    0.000    0.000    0.000 
#    0.000    0.000    0.000    0.000    0.000    0.000 
#
# Total GULP energy -396879.879093 kJ/mol
# GULP energy per Si atom -12402.496222 kJ/mol
# Density = 2.211230 g / cm^3
# Si number density = 22.162747 Si / 1000 Ang^3
#
#
#
# Elastic Constant Matrix: (Units=GPa)
#
#
# Indices 1 2 3 4 5 6 
#
# 1 91.4500 53.9755 49.8121 -0.0001 -0.6642 0.0004
# 2 53.9755 155.8705 59.3039 -0.0001 5.2918 0.0006
# 3 49.8121 59.3039 98.9276 0.0000 5.9489 -0.0001
# 4 -0.0001 -0.0001 0.0000 37.2886 0.0000 -6.6204
# 5 -0.6642 5.2918 5.9489 0.0000 36.6571 0.0000
# 6 0.0004 0.0006 -0.0001 -6.6204 0.0000 37.1494
#
#
#
# Elastic Compliance Matrix: (Units=1/GPa)
#
#
# Indices 1 2 3 4 5 6 
#
# 1 0.016368 -0.003307 -0.006368 0.000000 0.001807 0.000000
# 2 -0.003307 0.008985 -0.003675 0.000000 -0.000760 0.000000
# 3 -0.006368 -0.003675 0.015646 0.000000 -0.002124 0.000000
# 4 0.000000 0.000000 0.000000 0.027694 0.000000 0.004935
# 5 0.001807 -0.000760 -0.002124 0.000000 0.027767 0.000000
# 6 0.000000 0.000000 0.000000 0.004935 0.000000 0.027798
#
#
# Mechanical properties :
#
#
# Convention : Reuss Voigt Hill
#
# Bulk Modulus (GPa) = 69.93714 74.71459 72.32587
# Shear Modulus (GPa) = 32.10782 34.42945 33.26863
#
# Velocity S-wave (km/s) = 3.81035 3.94570 3.87861
# Velocity P-wave (km/s) = 7.14024 7.38533 7.26382
#
# Compressibility (1/GPa) = 0.01429855
#
# Stress axis : x y z
#
# Youngs Moduli (GPa) = 61.09317 111.29911 63.91385
#
# Poissons Ratio (x) = 0.36801 0.40703
# Poissons Ratio (y) = 0.20201 0.23491
# Poissons Ratio (z) = 0.38907 0.40908
#
# Static dielectric constant tensor:
#      x y z
#    x 4.013930 0.000000 -0.196750 
#    y 0.000000 4.246570 0.000000 
#    z -0.196750 0.000000 3.798620 
# 
# 
# High freq. dielectric constant tensor:
#      x y z
#    x 1.875210 0.000000 -0.014250 
#    y 0.000000 1.890220 0.000000 
#    z -0.014250 0.000000 1.852200 
# 
# From -- ./inp_files/313125.got.cif
#   From: 2010.06.25/outbox.cif.g09.slc.cpg/sg15_157_cif.got.tgz:313125.got - 2010.06.28 07:06:18.
