data_PCOD8142688
_publ_section_title
;
Structure prediction by ZEFSAII (Michael W. Deem and Ramdas Pophale) SiO2 
 PCOD8142688
Probable space group: C 2/C
;
_chemical_formula_sum "Si O2"
_cell_formula_units_Z 48
_cell_length_a 8.588653
_cell_length_b 9.084095
_cell_length_c 27.867370
_cell_angle_alpha 90.000000
_cell_angle_beta 98.845193
_cell_angle_gamma 90.000000
_cell_volume 2148.359029
_symmetry_space_group_name_H-M "C 2/C"
_symmetry_group_IT_number 15
_symmetry_cell_setting 'monoclinic'
loop_
_space_group_symop_operation_xyz
x,y,z
-x,y,1/2-z
-x,-y,-z
x,-y,1/2+z
1/2+x,1/2+y,z
1/2-x,1/2+y,1/2-z
1/2-x,1/2-y,-z
1/2+x,1/2-y,1/2+z
loop_
_atom_site_type_symbol
_atom_site_label
_atom_site_fract_x
_atom_site_fract_y
_atom_site_fract_z
Si Si1 0.161151 0.965348 0.728396
Si Si2 0.619371 0.120984 0.441444
Si Si3 0.369999 0.443738 0.029076
Si Si4 0.798494 0.468612 0.890859
Si Si5 0.133873 0.711286 0.193324
Si Si6 0.272508 0.215867 0.150763
O O1 0.307789 0.914168 0.767560
O O2 0.149052 0.862837 0.680491
O O3 0.000000 0.951026 0.750000
O O4 0.197395 0.131447 0.713722
O O5 0.567807 0.287975 0.449373
O O6 0.708229 0.059553 0.491760
O O7 0.467704 0.020187 0.425026
O O8 0.730670 0.126067 0.399459
O O9 0.336674 0.544921 0.074492
O O10 0.500000 0.500000 0.000000
O O11 0.795230 0.326296 0.856116
O O12 0.777170 0.615342 0.858381
O O13 0.945203 0.711314 0.183100
#
# Coordination Sequence:
#
# PCOD8142688 Si02
#       6
#     8   8   8   8   8   8
#     4  12  25  41  65  93 124 161 209 260 314 376
#     4   9  21  39  62  92 128 166 208 255 307 368
#     4  10  21  39  63  94 130 165 207 260 308 363
#     4  10  21  42  67  91 127 169 208 257 314 371
#     4  11  24  43  63  90 126 163 206 259 312 373
#     4  10  23  44  64  89 127 164 205 259 313 371
#
# _framework density 22.342635000000001
#
# number of rings (size 3 to 8) (size 9 to 14) (size 15 to 20)
#    0.000    1.667    0.000    4.000    0.000   10.000 
#    0.000    9.167    0.000    0.000    0.000    0.000 
#    0.000    0.000    0.000    0.000    0.000    0.000 
#
# Total GULP energy -297593.554913 kJ/mol
# GULP energy per Si atom -12399.731455 kJ/mol
# Density = 2.229178 g / cm^3
# Si number density = 22.342635 Si / 1000 Ang^3
#
#
#
# Elastic Constant Matrix: (Units=GPa)
#
#
# Indices 1 2 3 4 5 6 
#
# 1 87.0606 68.7238 55.9204 0.0000 -23.3033 0.0000
# 2 68.7238 113.4312 76.8206 0.0000 -12.8101 0.0000
# 3 55.9204 76.8206 140.4540 0.0000 -30.3040 0.0000
# 4 0.0000 0.0000 0.0000 41.4754 0.0000 -1.6157
# 5 -23.3033 -12.8101 -30.3040 0.0000 52.0894 0.0000
# 6 0.0000 0.0000 0.0000 -1.6157 0.0000 21.0905
#
#
#
# Elastic Compliance Matrix: (Units=1/GPa)
#
#
# Indices 1 2 3 4 5 6 
#
# 1 0.024656 -0.013547 -0.000853 0.000000 0.007202 0.000000
# 2 -0.013547 0.021507 -0.007474 0.000000 -0.005120 0.000000
# 3 -0.000853 -0.007474 0.012657 0.000000 0.005144 0.000000
# 4 0.000000 0.000000 0.000000 0.024183 0.000000 0.001853
# 5 0.007202 -0.005120 0.005144 0.000000 0.024153 0.000000
# 6 0.000000 0.000000 0.000000 0.001853 0.000000 0.047557
#
#
# Mechanical properties :
#
#
# Convention : Reuss Voigt Hill
#
# Bulk Modulus (GPa) = 66.34947 82.65284 74.50115
# Shear Modulus (GPa) = 24.57176 32.22977 28.40077
#
# Velocity S-wave (km/s) = 3.31988 3.80218 3.56918
# Velocity P-wave (km/s) = 6.66755 7.50660 7.09948
#
# Compressibility (1/GPa) = 0.01507171
#
# Stress axis : x y z
#
# Youngs Moduli (GPa) = 40.55863 46.49594 79.00594
#
# Poissons Ratio (x) = 0.62987 0.06739
# Poissons Ratio (y) = 0.54944 0.59052
# Poissons Ratio (z) = 0.03460 0.34753
#
# Static dielectric constant tensor:
#      x y z
#    x 3.851980 0.000000 0.076680 
#    y 0.000000 3.923930 0.000000 
#    z 0.076680 0.000000 4.655480 
# 
# 
# High freq. dielectric constant tensor:
#      x y z
#    x 1.865100 0.000000 -0.000900 
#    y 0.000000 1.864450 0.000000 
#    z -0.000900 0.000000 1.915050 
# 
# From -- ./inp_files/306643.got.cif
#   From: 2010.06.25/outbox.cif.g09.slc.cpg/sg15_154_cif.got.tgz:306643.got - 2010.06.28 07:06:18.
