data_PCOD8142590
_publ_section_title
;
Structure prediction by ZEFSAII (Michael W. Deem and Ramdas Pophale) SiO2 
 PCOD8142590
Probable space group: C 2/C
;
_chemical_formula_sum "Si O2"
_cell_formula_units_Z 40
_cell_length_a 7.945186
_cell_length_b 14.773680
_cell_length_c 15.697720
_cell_angle_alpha 90.000000
_cell_angle_beta 64.192787
_cell_angle_gamma 90.000000
_cell_volume 1658.819781
_symmetry_space_group_name_H-M "C 2/C"
_symmetry_group_IT_number 15
_symmetry_cell_setting 'monoclinic'
loop_
_space_group_symop_operation_xyz
x,y,z
-x,y,1/2-z
-x,-y,-z
x,-y,1/2+z
1/2+x,1/2+y,z
1/2-x,1/2+y,1/2-z
1/2-x,1/2-y,-z
1/2+x,1/2-y,1/2+z
loop_
_atom_site_type_symbol
_atom_site_label
_atom_site_fract_x
_atom_site_fract_y
_atom_site_fract_z
Si Si1 0.338270 0.653949 0.464917
Si Si2 0.263851 0.171799 0.370223
Si Si3 0.459618 0.649517 0.856232
Si Si4 0.821817 0.474224 0.983601
Si Si5 0.711097 0.725550 0.195498
O O1 0.250000 0.750000 0.500000
O O2 0.552744 0.653633 0.443196
O O3 0.247031 0.571236 0.536526
O O4 0.301152 0.644874 0.371108
O O5 0.314404 0.268496 0.397059
O O6 0.379106 0.091102 0.391796
O O7 0.295506 0.176641 0.261344
O O8 0.500000 0.621277 0.750000
O O9 0.355399 0.566157 0.924326
O O10 0.653520 0.687885 0.857149
O O11 0.000000 0.500000 0.000000
O O12 0.500000 0.765486 0.250000
#
# Coordination Sequence:
#
# PCOD8142590 Si02
#       5
#     8   8   8   8   8
#     4  11  22  39  62  91 127 170 219 274 333 402
#     4  10  21  39  62  90 126 169 217 274 336 399
#     4  10  21  40  64  93 129 173 222 278 338 405
#     4  12  24  39  64  98 133 177 225 277 338 407
#     4   9  20  39  65  92 128 177 224 279 344 403
#
# _framework density 24.113529
#
# number of rings (size 3 to 8) (size 9 to 14) (size 15 to 20)
#    0.000    1.600    0.000    4.800    0.000    2.400 
#    0.000    2.000    0.000    8.400    0.000    0.000 
#    0.000    0.000    0.000    0.000    0.000    0.000 
#
# Total GULP energy -247811.558060 kJ/mol
# GULP energy per Si atom -12390.577903 kJ/mol
# Density = 2.405865 g / cm^3
# Si number density = 24.113529 Si / 1000 Ang^3
#
#
#
# Elastic Constant Matrix: (Units=GPa)
#
#
# Indices 1 2 3 4 5 6 
#
# 1 126.0138 32.1899 21.4957 0.0000 16.6437 0.0000
# 2 32.1899 145.0225 39.0546 0.0000 3.6959 0.0000
# 3 21.4957 39.0546 58.5870 0.0000 -5.1339 0.0000
# 4 0.0000 0.0000 0.0000 35.4373 0.0000 -9.2158
# 5 16.6437 3.6959 -5.1339 0.0000 25.9233 0.0000
# 6 0.0000 0.0000 0.0000 -9.2158 0.0000 41.5767
#
#
#
# Elastic Compliance Matrix: (Units=1/GPa)
#
#
# Indices 1 2 3 4 5 6 
#
# 1 0.009683 -0.001050 -0.003444 0.000000 -0.006749 0.000000
# 2 -0.001050 0.008661 -0.005533 0.000000 -0.001657 0.000000
# 3 -0.003444 -0.005533 0.022677 0.000000 0.007491 0.000000
# 4 0.000000 0.000000 0.000000 0.029945 0.000000 0.006638
# 5 -0.006749 -0.001657 0.007491 0.000000 0.044628 0.000000
# 6 0.000000 0.000000 0.000000 0.006638 0.000000 0.025523
#
#
# Mechanical properties :
#
#
# Convention : Reuss Voigt Hill
#
# Bulk Modulus (GPa) = 47.69583 57.23373 52.46478
# Shear Modulus (GPa) = 29.73336 36.37966 33.05651
#
# Velocity S-wave (km/s) = 3.51530 3.88839 3.70654
# Velocity P-wave (km/s) = 6.02487 6.62918 6.33424
#
# Compressibility (1/GPa) = 0.02096619
#
# Stress axis : x y z
#
# Youngs Moduli (GPa) = 103.27665 115.46203 44.09659
#
# Poissons Ratio (x) = 0.12120 0.15188
# Poissons Ratio (y) = 0.10841 0.24401
# Poissons Ratio (z) = 0.35572 0.63890
#
# Static dielectric constant tensor:
#      x y z
#    x 4.840720 0.000000 0.422400 
#    y 0.000000 3.013260 0.000000 
#    z 0.422400 0.000000 4.880550 
# 
# 
# High freq. dielectric constant tensor:
#      x y z
#    x 1.983300 0.000000 0.011660 
#    y 0.000000 1.936060 0.000000 
#    z 0.011660 0.000000 1.962230 
# 
# From -- ./inp_files/133070.got.cif
#   From: 2010.06.25/outbox.cif.g09.slc.cpg/sg15_67_cif.got.tgz:133070.got - 2010.06.28 07:06:18.
