data_PCOD8142869
_publ_section_title
;
Structure prediction by ZEFSAII (Michael W. Deem and Ramdas Pophale) SiO2 
 PCOD8142869
Probable space group: C 2/C
;
_chemical_formula_sum "Si O2"
_cell_formula_units_Z 52
_cell_length_a 21.990457
_cell_length_b 21.688788
_cell_length_c 5.336631
_cell_angle_alpha 90.000000
_cell_angle_beta 59.337161
_cell_angle_gamma 90.000000
_cell_volume 2189.412934
_symmetry_space_group_name_H-M "C 2/C"
_symmetry_group_IT_number 15
_symmetry_cell_setting 'monoclinic'
loop_
_space_group_symop_operation_xyz
x,y,z
-x,y,1/2-z
-x,-y,-z
x,-y,1/2+z
1/2+x,1/2+y,z
1/2-x,1/2+y,1/2-z
1/2-x,1/2-y,-z
1/2+x,1/2-y,1/2+z
loop_
_atom_site_type_symbol
_atom_site_label
_atom_site_fract_x
_atom_site_fract_y
_atom_site_fract_z
Si Si1 0.381096 0.464505 0.118907
Si Si2 0.919944 0.771557 0.402653
Si Si3 0.256301 0.322971 0.977270
Si Si4 0.237699 0.116896 0.541576
Si Si5 0.124895 0.635185 0.996824
Si Si6 0.000000 0.540035 0.250000
Si Si7 0.918787 0.171137 0.415595
O O1 0.402939 0.489187 0.348857
O O2 0.296667 0.450804 0.342405
O O3 0.420054 0.402120 0.956870
O O4 0.917596 0.698144 0.377747
O O5 0.882348 0.801115 0.732150
O O6 0.000000 0.794573 0.250000
O O7 0.881715 0.798164 0.236635
O O8 0.296851 0.344623 0.148140
O O9 0.177467 0.353965 0.151599
O O10 0.250000 0.250000 0.000000
O O11 0.289843 0.351103 0.655128
O O12 0.323136 0.117602 0.377742
O O13 0.070137 0.580549 0.076816
O O14 0.000000 0.500000 0.500000
O O15 0.000000 0.194458 0.250000
#
# Coordination Sequence:
#
# PCOD8142869 Si02
#       7
#     8   8   8   8   8   4   8
#     4  12  26  43  65  91 130 180 225 273 317 391
#     4  10  21  39  66  97 133 159 205 274 333 397
#     4  10  23  40  66 101 131 173 213 284 346 407
#     4  10  25  40  62  95 132 170 228 269 338 396
#     4  10  26  43  71  98 136 176 223 277 349 395
#     4  12  30  48  70 100 140 190 240 280 326 414
#     4  10  24  41  65 100 128 169 213 269 339 399
#
# _framework density 23.750658000000001
#
# number of rings (size 3 to 8) (size 9 to 14) (size 15 to 20)
#    0.923    0.615    0.769    2.308    8.615    1.846 
#    0.000    0.000    0.000    0.000    0.000    0.000 
#    0.000    0.000    0.000    0.000    0.000    0.000 
#
# Total GULP energy -322095.322693 kJ/mol
# GULP energy per Si atom -12388.281642 kJ/mol
# Density = 2.369660 g / cm^3
# Si number density = 23.750658 Si / 1000 Ang^3
#
#
#
# Elastic Constant Matrix: (Units=GPa)
#
#
# Indices 1 2 3 4 5 6 
#
# 1 83.4437 24.8575 62.3094 0.0000 27.7395 0.0000
# 2 24.8575 114.6766 53.7259 0.0000 14.6049 0.0000
# 3 62.3094 53.7259 153.6384 0.0000 31.7927 0.0000
# 4 0.0000 0.0000 0.0000 34.3233 0.0000 -4.0147
# 5 27.7395 14.6049 31.7927 0.0000 42.7654 0.0000
# 6 0.0000 0.0000 0.0000 -4.0147 0.0000 43.2746
#
#
#
# Elastic Compliance Matrix: (Units=1/GPa)
#
#
# Indices 1 2 3 4 5 6 
#
# 1 0.019210 -0.000329 -0.006052 0.000000 -0.007849 0.000000
# 2 -0.000329 0.010471 -0.003347 0.000000 -0.000874 0.000000
# 3 -0.006052 -0.003347 0.010736 0.000000 -0.002913 0.000000
# 4 0.000000 0.000000 0.000000 0.029454 0.000000 0.002733
# 5 -0.007849 -0.000874 -0.002913 0.000000 0.030939 0.000000
# 6 0.000000 0.000000 0.000000 0.002733 0.000000 0.023362
#
#
# Mechanical properties :
#
#
# Convention : Reuss Voigt Hill
#
# Bulk Modulus (GPa) = 47.70572 70.39381 59.04976
# Shear Modulus (GPa) = 33.19691 38.13039 35.66365
#
# Velocity S-wave (km/s) = 3.74267 4.01115 3.87923
# Velocity P-wave (km/s) = 6.22948 7.15230 6.70678
#
# Compressibility (1/GPa) = 0.02096185
#
# Stress axis : x y z
#
# Youngs Moduli (GPa) = 52.05496 95.50162 93.14137
#
# Poissons Ratio (x) = 0.03145 0.56365
# Poissons Ratio (y) = 0.01714 0.31176
# Poissons Ratio (z) = 0.31501 0.31967
#
# Static dielectric constant tensor:
#      x y z
#    x 4.546860 0.000000 -0.007680 
#    y 0.000000 4.002510 0.000000 
#    z -0.007680 0.000000 4.738880 
# 
# 
# High freq. dielectric constant tensor:
#      x y z
#    x 1.961570 0.000000 -0.008870 
#    y 0.000000 1.925160 0.000000 
#    z -0.008870 0.000000 1.965800 
# 
# From -- ./inp_files/17396.got.cif
#   From: 2010.06.25/outbox.cif.g09.slc.cpg/sg15_9_cif.got.tgz:17396.got - 2010.06.28 07:06:18.
