data_PCOD8142929
_publ_section_title
;
Structure prediction by ZEFSAII (Michael W. Deem and Ramdas Pophale) SiO2 
 PCOD8142929
Probable space group: C 2/C
;
_chemical_formula_sum "Si O2"
_cell_formula_units_Z 64
_cell_length_a 14.650840
_cell_length_b 12.013910
_cell_length_c 28.438019
_cell_angle_alpha 90.000000
_cell_angle_beta 141.884885
_cell_angle_gamma 90.000000
_cell_volume 3089.603379
_symmetry_space_group_name_H-M "C 2/C"
_symmetry_group_IT_number 15
_symmetry_cell_setting 'monoclinic'
loop_
_space_group_symop_operation_xyz
x,y,z
-x,y,1/2-z
-x,-y,-z
x,-y,1/2+z
1/2+x,1/2+y,z
1/2-x,1/2+y,1/2-z
1/2-x,1/2-y,-z
1/2+x,1/2-y,1/2+z
loop_
_atom_site_type_symbol
_atom_site_label
_atom_site_fract_x
_atom_site_fract_y
_atom_site_fract_z
Si Si1 0.315324 0.486775 0.458337
Si Si2 0.695280 0.631523 0.961768
Si Si3 0.146072 0.958484 0.623914
Si Si4 0.672484 0.982701 0.563923
Si Si5 0.846044 0.849492 0.307999
Si Si6 0.885320 0.176332 0.299684
Si Si7 0.790891 0.752805 0.570311
Si Si8 0.864053 0.029789 0.726496
O O1 0.241153 0.544872 0.473390
O O2 0.485989 0.495739 0.541320
O O3 0.270293 0.556226 0.392466
O O4 0.268638 0.359429 0.429827
O O5 0.759231 0.584344 0.938808
O O6 0.520598 0.650534 0.886567
O O7 0.750000 0.750000 0.000000
O O8 0.140269 0.850106 0.655003
O O9 0.222031 0.057386 0.684869
O O10 0.714244 0.861325 0.561330
O O11 0.731190 0.988776 0.640665
O O12 0.500000 0.000000 0.500000
O O13 0.758739 0.734507 0.281836
O O14 0.808285 0.872019 0.237796
O O15 0.921016 0.065432 0.285184
O O16 0.031788 0.250048 0.352950
O O17 0.750000 0.750000 0.500000
O O18 0.000000 0.070807 0.750000
#
# Coordination Sequence:
#
# PCOD8142929 Si02
#       8
#     8   8   8   8   8   8   8   8
#     4  10  21  39  68  89 129 170 214 266 330 379
#     4  11  24  44  62  95 136 171 217 277 325 389
#     4   9  20  40  61  92 122 168 212 256 320 395
#     4  12  27  42  69 103 128 172 229 276 332 395
#     4  10  23  41  65  91 127 175 213 260 328 396
#     4  11  23  40  67  94 130 172 216 267 328 387
#     4  12  22  42  67  98 133 163 221 281 319 383
#     4  11  22  44  64  88 134 176 217 266 330 388
#
# _framework density 20.714632999999999
#
# number of rings (size 3 to 8) (size 9 to 14) (size 15 to 20)
#    0.000    1.250    5.000    0.750    5.250    3.000 
#    2.250    0.000    0.000    0.000    0.000    0.000 
#    0.000    0.000    0.000    0.000    0.000    0.000 
#
# Total GULP energy -396534.634209 kJ/mol
# GULP energy per Si atom -12391.707319 kJ/mol
# Density = 2.066749 g / cm^3
# Si number density = 20.714633 Si / 1000 Ang^3
#
#
#
# Elastic Constant Matrix: (Units=GPa)
#
#
# Indices 1 2 3 4 5 6 
#
# 1 80.8305 24.4186 41.9415 0.0000 -8.0165 0.0000
# 2 24.4186 94.6437 24.7859 0.0000 -2.9742 0.0000
# 3 41.9415 24.7859 98.2855 0.0000 -9.7731 0.0000
# 4 0.0000 0.0000 0.0000 34.6380 0.0000 2.5568
# 5 -8.0165 -2.9742 -9.7731 0.0000 37.3479 0.0000
# 6 0.0000 0.0000 0.0000 2.5568 0.0000 27.6610
#
#
#
# Elastic Compliance Matrix: (Units=1/GPa)
#
#
# Indices 1 2 3 4 5 6 
#
# 1 0.016563 -0.002584 -0.006246 0.000000 0.001715 0.000000
# 2 -0.002584 0.011717 -0.001863 0.000000 -0.000109 0.000000
# 3 -0.006246 -0.001863 0.013513 0.000000 0.002047 0.000000
# 4 0.000000 0.000000 0.000000 0.029068 0.000000 -0.002687
# 5 0.001715 -0.000109 0.002047 0.000000 0.027670 0.000000
# 6 0.000000 0.000000 0.000000 -0.002687 0.000000 0.036400
#
#
# Mechanical properties :
#
#
# Convention : Reuss Voigt Hill
#
# Bulk Modulus (GPa) = 49.00087 50.67241 49.83664
# Shear Modulus (GPa) = 30.65222 32.10364 31.37793
#
# Velocity S-wave (km/s) = 3.85091 3.94103 3.89623
# Velocity P-wave (km/s) = 6.59388 6.72489 6.65971
#
# Compressibility (1/GPa) = 0.02040780
#
# Stress axis : x y z
#
# Youngs Moduli (GPa) = 60.37536 85.34565 74.00209
#
# Poissons Ratio (x) = 0.22051 0.46221
# Poissons Ratio (y) = 0.15600 0.13787
# Poissons Ratio (z) = 0.37710 0.15901
#
# Static dielectric constant tensor:
#      x y z
#    x 4.111770 0.000000 -0.434640 
#    y 0.000000 3.103350 0.000000 
#    z -0.434640 0.000000 3.975930 
# 
# 
# High freq. dielectric constant tensor:
#      x y z
#    x 1.808400 0.000000 -0.021990 
#    y 0.000000 1.800910 0.000000 
#    z -0.021990 0.000000 1.816020 
# 
# From -- ./inp_files/296171.got.cif
#   From: 2010.06.25/outbox.cif.g09.slc.cpg/sg15_149_cif.got.tgz:296171.got - 2010.06.28 07:06:18.
