data_PCOD8142274
_publ_section_title
;
Structure prediction by ZEFSAII (Michael W. Deem and Ramdas Pophale) SiO2 
 PCOD8142274
Probable space group: C 2/C
;
_chemical_formula_sum "Si O2"
_cell_formula_units_Z 56
_cell_length_a 24.579197
_cell_length_b 15.578912
_cell_length_c 9.572785
_cell_angle_alpha 90.000000
_cell_angle_beta 51.104489
_cell_angle_gamma 90.000000
_cell_volume 2852.895598
_symmetry_space_group_name_H-M "C 2/C"
_symmetry_group_IT_number 15
_symmetry_cell_setting 'monoclinic'
loop_
_space_group_symop_operation_xyz
x,y,z
-x,y,1/2-z
-x,-y,-z
x,-y,1/2+z
1/2+x,1/2+y,z
1/2-x,1/2+y,1/2-z
1/2-x,1/2-y,-z
1/2+x,1/2-y,1/2+z
loop_
_atom_site_type_symbol
_atom_site_label
_atom_site_fract_x
_atom_site_fract_y
_atom_site_fract_z
Si Si1 0.922497 0.754789 0.330541
Si Si2 0.500000 0.190233 0.750000
Si Si3 0.301499 0.556773 0.777737
Si Si4 0.639064 0.076213 0.999920
Si Si5 0.500000 0.535666 0.250000
Si Si6 0.420609 0.326721 0.028715
Si Si7 0.865476 0.070695 0.970852
Si Si8 0.435706 0.950128 0.165823
O O1 0.876549 0.669297 0.411168
O O2 0.884494 0.830591 0.479446
O O3 0.000000 0.729646 0.250000
O O4 0.930308 0.790313 0.164664
O O5 0.434300 0.248959 0.900791
O O6 0.531775 0.136534 0.825500
O O7 0.342226 0.635783 0.636534
O O8 0.311984 0.561446 0.927574
O O9 0.331078 0.468094 0.665620
O O10 0.220925 0.562201 0.873110
O O11 0.600721 0.003214 0.151781
O O12 0.617757 0.071278 0.871994
O O13 0.523360 0.596280 0.083219
O O14 0.564217 0.476745 0.194257
O O15 0.500000 0.000000 0.000000
#
# Coordination Sequence:
#
# PCOD8142274 Si02
#       8
#     8   4   8   8   4   8   8   8
#     4  11  22  36  61  94 118 151 206 259 295 342
#     4  11  20  40  63  92 114 152 209 252 304 337
#     4  10  23  42  58  89 125 168 194 234 309 373
#     4  12  25  42  62  89 127 157 202 247 307 367
#     4   9  18  36  61  92 122 156 203 250 298 345
#     4   9  21  36  61  88 124 160 192 250 300 358
#     4  10  21  38  65  88 123 161 203 246 295 360
#     4  12  23  42  67  89 114 159 206 262 296 349
#
# _framework density 19.629179000000001
#
# number of rings (size 3 to 8) (size 9 to 14) (size 15 to 20)
#    0.000    1.429    2.143    3.429    2.000    4.000 
#    5.143    0.714    0.000    0.000    0.000    0.000 
#    0.000    0.000    0.000    0.000    0.000    0.000 
#
# Total GULP energy -347173.221230 kJ/mol
# GULP energy per Si atom -12399.043615 kJ/mol
# Density = 1.958450 g / cm^3
# Si number density = 19.629179 Si / 1000 Ang^3
#
#
#
# Elastic Constant Matrix: (Units=GPa)
#
#
# Indices 1 2 3 4 5 6 
#
# 1 91.3865 2.0746 9.7913 0.0000 -13.5876 0.0000
# 2 2.0746 88.4529 16.7395 0.0000 -9.1278 0.0000
# 3 9.7913 16.7395 57.7223 0.0000 -12.3535 0.0000
# 4 0.0000 0.0000 0.0000 18.4660 0.0000 0.9599
# 5 -13.5876 -9.1278 -12.3535 0.0000 35.3919 0.0000
# 6 0.0000 0.0000 0.0000 0.9599 0.0000 18.7532
#
#
#
# Elastic Compliance Matrix: (Units=1/GPa)
#
#
# Indices 1 2 3 4 5 6 
#
# 1 0.011682 0.000383 -0.001201 0.000000 0.004164 0.000000
# 2 0.000383 0.012110 -0.003109 0.000000 0.002185 0.000000
# 3 -0.001201 -0.003109 0.019626 0.000000 0.005587 0.000000
# 4 0.000000 0.000000 0.000000 0.054298 0.000000 -0.002779
# 5 0.004164 0.002185 0.005587 0.000000 0.032368 0.000000
# 6 0.000000 0.000000 0.000000 -0.002779 0.000000 0.053466
#
#
# Mechanical properties :
#
#
# Convention : Reuss Voigt Hill
#
# Bulk Modulus (GPa) = 28.11967 32.75251 30.43609
# Shear Modulus (GPa) = 24.59913 28.45263 26.52588
#
# Velocity S-wave (km/s) = 3.54389 3.81137 3.68006
# Velocity P-wave (km/s) = 5.57692 6.00754 5.79623
#
# Compressibility (1/GPa) = 0.03556230
#
# Stress axis : x y z
#
# Youngs Moduli (GPa) = 85.60390 82.57367 50.95392
#
# Poissons Ratio (x) = -0.03163 0.06122
# Poissons Ratio (y) = -0.03279 0.15843
# Poissons Ratio (z) = 0.10285 0.25675
#
# Static dielectric constant tensor:
#      x y z
#    x 3.402030 0.000000 -0.000950 
#    y 0.000000 4.255240 0.000000 
#    z -0.000950 0.000000 3.782180 
# 
# 
# High freq. dielectric constant tensor:
#      x y z
#    x 1.756020 0.000000 0.000410 
#    y 0.000000 1.778170 0.000000 
#    z 0.000410 0.000000 1.768870 
# 
# From -- ./inp_files/61841.got.cif
#   From: 2010.06.25/outbox.cif.g09.slc.cpg/sg15_31_cif.got.tgz:61841.got - 2010.06.28 07:06:18.
