data_PCOD8142912
_publ_section_title
;
Structure prediction by ZEFSAII (Michael W. Deem and Ramdas Pophale) SiO2 
 PCOD8142912
Probable space group: C 2/C
;
_chemical_formula_sum "Si O2"
_cell_formula_units_Z 52
_cell_length_a 8.494568
_cell_length_b 17.057430
_cell_length_c 19.502354
_cell_angle_alpha 90.000000
_cell_angle_beta 64.988853
_cell_angle_gamma 90.000000
_cell_volume 2560.815160
_symmetry_space_group_name_H-M "C 2/C"
_symmetry_group_IT_number 15
_symmetry_cell_setting 'monoclinic'
loop_
_space_group_symop_operation_xyz
x,y,z
-x,y,1/2-z
-x,-y,-z
x,-y,1/2+z
1/2+x,1/2+y,z
1/2-x,1/2+y,1/2-z
1/2-x,1/2-y,-z
1/2+x,1/2-y,1/2+z
loop_
_atom_site_type_symbol
_atom_site_label
_atom_site_fract_x
_atom_site_fract_y
_atom_site_fract_z
Si Si1 0.797329 0.877456 0.611271
Si Si2 0.500000 0.329620 0.250000
Si Si3 0.318918 0.051066 0.870768
Si Si4 0.716837 0.052115 0.781819
Si Si5 0.689799 0.621257 0.232658
Si Si6 0.985683 0.278706 0.623557
Si Si7 0.629315 0.687876 0.984020
O O1 0.754927 0.863049 0.699006
O O2 0.666675 0.824690 0.591407
O O3 0.994308 0.851484 0.561420
O O4 0.769370 0.967853 0.595054
O O5 0.670409 0.381408 0.201603
O O6 0.537153 0.279197 0.309328
O O7 0.523968 0.048357 0.847807
O O8 0.283458 0.071623 0.798599
O O9 0.244576 0.118431 0.932368
O O10 0.810503 0.970888 0.781359
O O11 0.500000 0.655516 0.250000
O O12 0.825954 0.660881 0.156441
O O13 0.979763 0.231236 0.554399
O O14 0.750000 0.750000 0.000000
#
# Coordination Sequence:
#
# PCOD8142912 Si02
#       7
#     8   4   8   8   8   8   8
#     4  11  23  44  66  91 134 175 212 262 326 393
#     4  12  22  38  68 102 128 154 216 272 326 364
#     4  10  22  43  67  90 128 176 216 259 321 386
#     4  10  21  39  67  96 125 164 219 268 314 382
#     4  11  21  39  69  97 125 166 220 267 315 382
#     4  12  24  43  66  98 129 173 212 269 325 378
#     4  12  27  44  62  98 135 171 215 268 327 381
#
# _framework density 20.306034
#
# number of rings (size 3 to 8) (size 9 to 14) (size 15 to 20)
#    0.000    0.923    5.385    1.846    2.154    1.231 
#    0.000    0.769    0.000    0.000    0.000    0.000 
#    0.000    0.000    0.000    0.000    0.000    0.000 
#
# Total GULP energy -322535.460690 kJ/mol
# GULP energy per Si atom -12405.210027 kJ/mol
# Density = 2.025982 g / cm^3
# Si number density = 20.306034 Si / 1000 Ang^3
#
#
#
# Elastic Constant Matrix: (Units=GPa)
#
#
# Indices 1 2 3 4 5 6 
#
# 1 102.6208 41.2271 11.1768 0.0000 -19.4951 0.0000
# 2 41.2271 107.0632 37.8265 0.0000 -7.0635 0.0000
# 3 11.1768 37.8265 55.7305 0.0000 -17.7294 0.0000
# 4 0.0000 0.0000 0.0000 29.2067 0.0000 -1.1248
# 5 -19.4951 -7.0635 -17.7294 0.0000 40.4244 0.0000
# 6 0.0000 0.0000 0.0000 -1.1248 0.0000 2.9107
#
#
#
# Elastic Compliance Matrix: (Units=1/GPa)
#
#
# Indices 1 2 3 4 5 6 
#
# 1 0.012973 -0.005776 0.003472 0.000000 0.006770 0.000000
# 2 -0.005776 0.014966 -0.010522 0.000000 -0.004785 0.000000
# 3 0.003472 -0.010522 0.028283 0.000000 0.012240 0.000000
# 4 0.000000 0.000000 0.000000 0.034756 0.000000 0.013431
# 5 0.006770 -0.004785 0.012240 0.000000 0.032535 0.000000
# 6 0.000000 0.000000 0.000000 0.013431 0.000000 0.348752
#
#
# Mechanical properties :
#
#
# Convention : Reuss Voigt Hill
#
# Bulk Modulus (GPa) = 32.71101 49.54170 41.12635
# Shear Modulus (GPa) = 9.84047 26.18730 18.01388
#
# Velocity S-wave (km/s) = 2.20377 3.59504 2.98169
# Velocity P-wave (km/s) = 4.75599 6.45623 5.67020
#
# Compressibility (1/GPa) = 0.03057075
#
# Stress axis : x y z
#
# Youngs Moduli (GPa) = 77.08425 66.81746 35.35707
#
# Poissons Ratio (x) = 0.38591 -0.12276
# Poissons Ratio (y) = 0.44520 0.37203
# Poissons Ratio (z) = -0.26764 0.70306
#
# Static dielectric constant tensor:
#      x y z
#    x 3.685280 0.000000 -0.059260 
#    y 0.000000 3.806380 0.000000 
#    z -0.059260 0.000000 3.390690 
# 
# 
# High freq. dielectric constant tensor:
#      x y z
#    x 1.805970 0.000000 -0.010210 
#    y 0.000000 1.808740 0.000000 
#    z -0.010210 0.000000 1.774720 
# 
# From -- ./inp_files/190354.got.cif
#   From: 2010.06.25/outbox.cif.g09.slc.cpg/sg15_96_cif.got.tgz:190354.got - 2010.06.28 07:06:18.
