data_PCOD8142408
_publ_section_title
;
Structure prediction by ZEFSAII (Michael W. Deem and Ramdas Pophale) SiO2 
 PCOD8142408
Probable space group: C 2/C
;
_chemical_formula_sum "Si O2"
_cell_formula_units_Z 60
_cell_length_a 21.601300
_cell_length_b 13.923973
_cell_length_c 17.887102
_cell_angle_alpha 90.000000
_cell_angle_beta 32.648559
_cell_angle_gamma 90.000000
_cell_volume 2902.432189
_symmetry_space_group_name_H-M "C 2/C"
_symmetry_group_IT_number 15
_symmetry_cell_setting 'monoclinic'
loop_
_space_group_symop_operation_xyz
x,y,z
-x,y,1/2-z
-x,-y,-z
x,-y,1/2+z
1/2+x,1/2+y,z
1/2-x,1/2+y,1/2-z
1/2-x,1/2-y,-z
1/2+x,1/2-y,1/2+z
loop_
_atom_site_type_symbol
_atom_site_label
_atom_site_fract_x
_atom_site_fract_y
_atom_site_fract_z
Si Si1 0.298261 0.565875 0.273899
Si Si2 0.306656 0.435858 0.122496
Si Si3 0.560589 0.902731 0.961860
Si Si4 0.500000 0.154677 0.250000
Si Si5 0.355657 0.227242 0.669771
Si Si6 0.990455 0.010073 0.671687
Si Si7 0.336979 0.090742 0.295183
Si Si8 0.615397 0.296808 0.024929
O O1 0.330552 0.507205 0.166981
O O2 0.159425 0.573837 0.423133
O O3 0.350153 0.672212 0.216949
O O4 0.358709 0.512807 0.282182
O O5 0.262650 0.331669 0.193934
O O6 0.205425 0.482064 0.175054
O O7 0.424744 0.433119 0.955283
O O8 0.620266 0.860768 0.826082
O O9 0.467136 0.828561 0.088560
O O10 0.500000 0.000000 0.000000
O O11 0.434854 0.086330 0.258046
O O12 0.588306 0.221261 0.116366
O O13 0.372390 0.239758 0.564591
O O14 0.000000 0.996887 0.750000
O O15 0.019428 0.119133 0.617413
O O16 0.233923 0.155769 0.429735
#
# Coordination Sequence:
#
# PCOD8142408 Si02
#       8
#     8   8   8   4   8   8   8   8
#     4  11  24  40  71  99 124 183 226 272 348 388
#     4  10  23  44  64  97 137 173 227 283 326 398
#     4  11  21  42  60  93 131 166 224 276 326 390
#     4  12  22  36  62  94 138 176 216 264 358 410
#     4  12  22  40  72  95 133 174 233 287 323 402
#     4  11  24  46  66  97 141 170 224 286 336 407
#     4  10  21  39  54  89 137 167 217 263 331 405
#     4  11  23  39  62 101 131 175 217 281 337 403
#
# _framework density 20.672318000000001
#
# number of rings (size 3 to 8) (size 9 to 14) (size 15 to 20)
#    0.000    1.067    8.667    0.800    1.867    1.067 
#    9.600    0.667    1.467    0.000    0.000    0.000 
#    0.000    0.000    0.000    0.000    0.000    0.000 
#
# Total GULP energy -371948.305928 kJ/mol
# GULP energy per Si atom -12398.276864 kJ/mol
# Density = 2.062527 g / cm^3
# Si number density = 20.672318 Si / 1000 Ang^3
#
#
#
# Elastic Constant Matrix: (Units=GPa)
#
#
# Indices 1 2 3 4 5 6 
#
# 1 128.5663 40.3246 37.8664 0.0000 -21.4606 0.0000
# 2 40.3246 87.0545 26.9396 0.0000 -4.2950 0.0000
# 3 37.8664 26.9396 73.7802 0.0000 -8.5589 0.0000
# 4 0.0000 0.0000 0.0000 30.1805 0.0000 -8.5355
# 5 -21.4606 -4.2950 -8.5589 0.0000 35.1628 0.0000
# 6 0.0000 0.0000 0.0000 -8.5355 0.0000 18.5171
#
#
#
# Elastic Compliance Matrix: (Units=1/GPa)
#
#
# Indices 1 2 3 4 5 6 
#
# 1 0.010881 -0.003653 -0.003634 0.000000 0.005310 0.000000
# 2 -0.003653 0.014184 -0.003459 0.000000 -0.001339 0.000000
# 3 -0.003634 -0.003459 0.016852 0.000000 0.001461 0.000000
# 4 0.000000 0.000000 0.000000 0.038101 0.000000 0.017563
# 5 0.005310 -0.001339 0.001461 0.000000 0.031872 0.000000
# 6 0.000000 0.000000 0.000000 0.017563 0.000000 0.062100
#
#
# Mechanical properties :
#
#
# Convention : Reuss Voigt Hill
#
# Bulk Modulus (GPa) = 48.96681 55.51804 52.24242
# Shear Modulus (GPa) = 24.71699 29.05678 26.88689
#
# Velocity S-wave (km/s) = 3.46158 3.75319 3.61033
# Velocity P-wave (km/s) = 6.30200 6.75991 6.53497
#
# Compressibility (1/GPa) = 0.02042200
#
# Stress axis : x y z
#
# Youngs Moduli (GPa) = 91.90555 70.50308 59.34140
#
# Poissons Ratio (x) = 0.25758 0.21567
# Poissons Ratio (y) = 0.33577 0.20528
# Poissons Ratio (z) = 0.33402 0.24389
#
# Static dielectric constant tensor:
#      x y z
#    x 3.562730 0.000000 -0.197690 
#    y 0.000000 3.731480 0.000000 
#    z -0.197690 0.000000 4.135210 
# 
# 
# High freq. dielectric constant tensor:
#      x y z
#    x 1.786970 0.000000 -0.020030 
#    y 0.000000 1.800190 0.000000 
#    z -0.020030 0.000000 1.813920 
# 
# From -- ./inp_files/255559.got.cif
#   From: 2010.06.25/outbox.cif.g09.slc.cpg/sg15_128_cif.got.tgz:255559.got - 2010.06.28 07:06:18.
