data_PCOD8142868
_publ_section_title
;
Structure prediction by ZEFSAII (Michael W. Deem and Ramdas Pophale) SiO2 
 PCOD8142868
Probable space group: C 2/C
;
_chemical_formula_sum "Si O2"
_cell_formula_units_Z 52
_cell_length_a 16.564149
_cell_length_b 10.974079
_cell_length_c 20.133219
_cell_angle_alpha 90.000000
_cell_angle_beta 42.390793
_cell_angle_gamma 90.000000
_cell_volume 2467.338219
_symmetry_space_group_name_H-M "C 2/C"
_symmetry_group_IT_number 15
_symmetry_cell_setting 'monoclinic'
loop_
_space_group_symop_operation_xyz
x,y,z
-x,y,1/2-z
-x,-y,-z
x,-y,1/2+z
1/2+x,1/2+y,z
1/2-x,1/2+y,1/2-z
1/2-x,1/2-y,-z
1/2+x,1/2-y,1/2+z
loop_
_atom_site_type_symbol
_atom_site_label
_atom_site_fract_x
_atom_site_fract_y
_atom_site_fract_z
Si Si1 0.813743 0.879981 0.953772
Si Si2 0.816544 0.461067 0.074548
Si Si3 0.657048 0.144602 0.752596
Si Si4 0.138990 0.003944 0.933558
Si Si5 0.070160 0.418466 0.872839
Si Si6 0.755078 0.732087 0.312152
Si Si7 0.500000 0.719662 0.250000
O O1 0.943398 0.863171 0.841561
O O2 0.735315 0.969379 0.956544
O O3 0.750000 0.750000 0.000000
O O4 0.838761 0.945813 0.007095
O O5 0.841746 0.559390 0.117573
O O6 0.726782 0.355919 0.156136
O O7 0.937744 0.390023 0.979567
O O8 0.790837 0.091521 0.660448
O O9 0.662970 0.244042 0.807460
O O10 0.606489 0.199050 0.715339
O O11 0.565037 0.040240 0.831509
O O12 0.197335 0.870442 0.893851
O O13 0.000000 0.000000 0.000000
O O14 0.118370 0.308887 0.797224
#
# Coordination Sequence:
#
# PCOD8142868 Si02
#       7
#     8   8   8   8   8   8   4
#     4  12  25  43  69 101 135 173 228 286 340 408
#     4  10  22  40  66  95 134 174 226 276 345 403
#     4  10  21  39  66  97 130 170 227 273 336 401
#     4  11  25  42  67  97 136 177 224 277 341 412
#     4   9  20  38  64  95 130 176 219 274 330 411
#     4  10  22  41  64  95 132 180 220 272 338 411
#     4  12  22  40  70  98 132 170 218 296 338 390
#
# _framework density 21.075343
#
# number of rings (size 3 to 8) (size 9 to 14) (size 15 to 20)
#    0.000    1.538    1.538    2.769    2.154    4.308 
#    0.000    0.000    3.385    0.000    0.000    0.000 
#    0.000    0.000    0.000    0.000    0.000    0.000 
#
# Total GULP energy -322413.729110 kJ/mol
# GULP energy per Si atom -12400.528043 kJ/mol
# Density = 2.102737 g / cm^3
# Si number density = 21.075343 Si / 1000 Ang^3
#
#
#
# Elastic Constant Matrix: (Units=GPa)
#
#
# Indices 1 2 3 4 5 6 
#
# 1 112.5508 59.2978 35.0709 0.0000 17.9377 0.0000
# 2 59.2978 108.6251 52.1047 0.0000 11.3879 0.0000
# 3 35.0709 52.1047 126.9353 0.0000 5.4724 0.0000
# 4 0.0000 0.0000 0.0000 34.7152 0.0000 7.9132
# 5 17.9377 11.3879 5.4724 0.0000 35.1581 0.0000
# 6 0.0000 0.0000 0.0000 7.9132 0.0000 26.2268
#
#
#
# Elastic Compliance Matrix: (Units=1/GPa)
#
#
# Indices 1 2 3 4 5 6 
#
# 1 0.013209 -0.006321 -0.000858 0.000000 -0.004558 0.000000
# 2 -0.006321 0.014811 -0.004294 0.000000 -0.000904 0.000000
# 3 -0.000858 -0.004294 0.009865 0.000000 0.000293 0.000000
# 4 0.000000 0.000000 0.000000 0.030933 0.000000 -0.009333
# 5 -0.004558 -0.000904 0.000293 0.000000 0.031016 0.000000
# 6 0.000000 0.000000 0.000000 -0.009333 0.000000 0.040945
#
#
# Mechanical properties :
#
#
# Convention : Reuss Voigt Hill
#
# Bulk Modulus (GPa) = 66.94301 71.22865 69.08583
# Shear Modulus (GPa) = 29.63720 32.66254 31.14987
#
# Velocity S-wave (km/s) = 3.75407 3.94102 3.84868
# Velocity P-wave (km/s) = 7.11501 7.38778 7.25268
#
# Compressibility (1/GPa) = 0.01493808
#
# Stress axis : x y z
#
# Youngs Moduli (GPa) = 75.70508 67.51578 101.36579
#
# Poissons Ratio (x) = 0.42678 0.08700
# Poissons Ratio (y) = 0.47855 0.43530
# Poissons Ratio (z) = 0.06498 0.28994
#
# Static dielectric constant tensor:
#      x y z
#    x 3.566160 0.000000 0.170220 
#    y 0.000000 3.814100 0.000000 
#    z 0.170220 0.000000 4.133170 
# 
# 
# High freq. dielectric constant tensor:
#      x y z
#    x 1.802480 0.000000 0.015360 
#    y 0.000000 1.824090 0.000000 
#    z 0.015360 0.000000 1.848270 
# 
# From -- ./inp_files/248557.got.cif
#   From: 2010.06.25/outbox.cif.g09.slc.cpg/sg15_125_cif.got.tgz:248557.got - 2010.06.28 07:06:18.
