data_PCOD8142890
_publ_section_title
;
Structure prediction by ZEFSAII (Michael W. Deem and Ramdas Pophale) SiO2 
 PCOD8142890
Probable space group: C 2/C
;
_chemical_formula_sum "Si O2"
_cell_formula_units_Z 64
_cell_length_a 17.075653
_cell_length_b 11.717560
_cell_length_c 29.118176
_cell_angle_alpha 90.000000
_cell_angle_beta 147.781374
_cell_angle_gamma 90.000000
_cell_volume 3106.198264
_symmetry_space_group_name_H-M "C 2/C"
_symmetry_group_IT_number 15
_symmetry_cell_setting 'monoclinic'
loop_
_space_group_symop_operation_xyz
x,y,z
-x,y,1/2-z
-x,-y,-z
x,-y,1/2+z
1/2+x,1/2+y,z
1/2-x,1/2+y,1/2-z
1/2-x,1/2-y,-z
1/2+x,1/2-y,1/2+z
loop_
_atom_site_type_symbol
_atom_site_label
_atom_site_fract_x
_atom_site_fract_y
_atom_site_fract_z
Si Si1 0.682327 0.768475 0.171130
Si Si2 0.127073 0.361318 0.280321
Si Si3 0.064788 0.264318 0.387394
Si Si4 0.666765 0.880965 0.830997
Si Si5 0.178344 0.845601 0.496127
Si Si6 0.464875 0.007881 0.929803
Si Si7 0.371290 0.761247 0.855279
Si Si8 0.736446 0.565679 0.471731
O O1 0.521486 0.725956 0.108692
O O2 0.734332 0.693796 0.153754
O O3 0.658943 0.897673 0.141750
O O4 0.804234 0.760685 0.271640
O O5 0.170514 0.489180 0.314990
O O6 0.271478 0.282301 0.348611
O O7 0.000000 0.310011 0.250000
O O8 0.053612 0.349746 0.194051
O O9 0.208663 0.344183 0.462470
O O10 0.111898 0.145619 0.384604
O O11 0.500000 0.835001 0.750000
O O12 0.723494 0.872980 0.911003
O O13 0.250000 0.750000 0.500000
O O14 0.020075 0.808426 0.434542
O O15 0.159303 0.957768 0.455893
O O16 0.399337 0.894389 0.875226
O O17 0.625313 0.031687 0.989430
O O18 0.500000 0.000000 0.000000
#
# Coordination Sequence:
#
# PCOD8142890 Si02
#       8
#     8   8   8   8   8   8   8   8
#     4  10  24  42  68  93 131 179 229 271 345 403
#     4  10  23  41  65  92 130 168 225 279 334 383
#     4   9  21  41  64  95 123 178 219 278 326 403
#     4  11  24  43  68  96 134 174 224 281 336 409
#     4  12  24  42  67 102 136 178 220 278 345 410
#     4  11  24  44  67  98 138 180 221 284 344 404
#     4  11  25  41  69  96 140 176 226 280 341 409
#     4  10  21  39  67  90 135 171 223 267 343 394
#
# _framework density 20.603964000000001
#
# number of rings (size 3 to 8) (size 9 to 14) (size 15 to 20)
#    0.000    1.500    1.250    3.000    8.750    1.500 
#    4.500    0.625    0.000    0.000    0.000    0.000 
#    0.000    0.000    0.000    0.000    0.000    0.000 
#
# Total GULP energy -396482.179850 kJ/mol
# GULP energy per Si atom -12390.068120 kJ/mol
# Density = 2.055707 g / cm^3
# Si number density = 20.603964 Si / 1000 Ang^3
#
#
#
# Elastic Constant Matrix: (Units=GPa)
#
#
# Indices 1 2 3 4 5 6 
#
# 1 116.2160 70.0313 29.8816 0.0000 13.8396 0.0000
# 2 70.0313 167.9104 60.4628 0.0000 1.3847 0.0000
# 3 29.8816 60.4628 94.1105 0.0000 -3.7511 0.0000
# 4 0.0000 0.0000 0.0000 37.4022 0.0000 5.1706
# 5 13.8396 1.3847 -3.7511 0.0000 40.6582 0.0000
# 6 0.0000 0.0000 0.0000 5.1706 0.0000 37.8973
#
#
#
# Elastic Compliance Matrix: (Units=1/GPa)
#
#
# Indices 1 2 3 4 5 6 
#
# 1 0.012170 -0.004673 -0.001024 0.000000 -0.004078 0.000000
# 2 -0.004673 0.009564 -0.004627 0.000000 0.000838 0.000000
# 3 -0.001024 -0.004627 0.013996 0.000000 0.001797 0.000000
# 4 0.000000 0.000000 0.000000 0.027250 0.000000 -0.003718
# 5 -0.004078 0.000838 0.001797 0.000000 0.026121 0.000000
# 6 0.000000 0.000000 0.000000 -0.003718 0.000000 0.026894
#
#
# Mechanical properties :
#
#
# Convention : Reuss Voigt Hill
#
# Bulk Modulus (GPa) = 66.31429 77.66536 71.98983
# Shear Modulus (GPa) = 35.29312 37.71561 36.50436
#
# Velocity S-wave (km/s) = 4.14324 4.28308 4.21374
# Velocity P-wave (km/s) = 7.42588 7.88897 7.66093
#
# Compressibility (1/GPa) = 0.01507971
#
# Stress axis : x y z
#
# Youngs Moduli (GPa) = 82.17134 104.55893 71.45138
#
# Poissons Ratio (x) = 0.48863 0.07318
# Poissons Ratio (y) = 0.38401 0.33063
# Poissons Ratio (z) = 0.08416 0.48383
#
# Static dielectric constant tensor:
#      x y z
#    x 4.139950 0.000000 0.227510 
#    y 0.000000 4.054700 0.000000 
#    z 0.227510 0.000000 3.906480 
# 
# 
# High freq. dielectric constant tensor:
#      x y z
#    x 1.815900 0.000000 0.015490 
#    y 0.000000 1.814410 0.000000 
#    z 0.015490 0.000000 1.804420 
# 
# From -- ./inp_files/316225.got.cif
#   From: 2010.06.25/outbox.cif.g09.slc.cpg/sg15_159_cif.got.tgz:316225.got - 2010.06.28 07:06:18.
