data_PCOD8142985
_publ_section_title
;
Structure prediction by ZEFSAII (Michael W. Deem and Ramdas Pophale) SiO2 
 PCOD8142985
Probable space group: C 2/C
;
_chemical_formula_sum "Si O2"
_cell_formula_units_Z 56
_cell_length_a 14.076104
_cell_length_b 13.262739
_cell_length_c 13.703442
_cell_angle_alpha 90.000000
_cell_angle_beta 88.858671
_cell_angle_gamma 90.000000
_cell_volume 2557.756431
_symmetry_space_group_name_H-M "C 2/C"
_symmetry_group_IT_number 15
_symmetry_cell_setting 'monoclinic'
loop_
_space_group_symop_operation_xyz
x,y,z
-x,y,1/2-z
-x,-y,-z
x,-y,1/2+z
1/2+x,1/2+y,z
1/2-x,1/2+y,1/2-z
1/2-x,1/2-y,-z
1/2+x,1/2-y,1/2+z
loop_
_atom_site_type_symbol
_atom_site_label
_atom_site_fract_x
_atom_site_fract_y
_atom_site_fract_z
Si Si1 0.434818 0.359189 0.052549
Si Si2 0.910120 0.509457 0.932517
Si Si3 0.345971 0.228017 0.888268
Si Si4 0.000000 0.813447 0.750000
Si Si5 0.092077 0.912286 0.921874
Si Si6 0.000000 0.429553 0.750000
Si Si7 0.854260 0.732866 0.208706
Si Si8 0.714387 0.821704 0.584775
O O1 0.399389 0.472957 0.047016
O O2 0.422015 0.321248 0.164289
O O3 0.368334 0.297807 0.979935
O O4 0.545986 0.351448 0.015924
O O5 0.851272 0.614314 0.933734
O O6 0.944586 0.502910 0.821684
O O7 0.849119 0.410202 0.959981
O O8 0.000000 0.500000 0.000000
O O9 0.417803 0.240992 0.795133
O O10 0.242582 0.261316 0.851316
O O11 0.976744 0.892935 0.666434
O O12 0.191301 0.874359 0.878040
O O13 0.919431 0.366320 0.692037
O O14 0.834561 0.740402 0.325591
O O15 0.750000 0.750000 0.500000
#
# Coordination Sequence:
#
# PCOD8142985 Si02
#       8
#     8   8   8   4   8   4   8   8
#     4  10  23  40  70  97 136 176 227 289 341 427
#     4  11  25  43  68 101 138 182 232 291 349 414
#     4  11  22  42  72  99 136 184 232 285 350 424
#     4  10  21  39  72  96 136 182 229 287 348 424
#     4  10  22  44  63 101 137 176 229 282 356 417
#     4  10  25  41  64 100 138 174 229 291 346 408
#     4  11  23  43  67  97 134 184 232 286 350 416
#     4  11  26  44  66  97 139 182 232 290 351 417
#
# _framework density 21.894186999999999
#
# number of rings (size 3 to 8) (size 9 to 14) (size 15 to 20)
#    0.000    1.429    1.429    2.571    8.000    2.857 
#    5.143    1.429    0.000    0.000    0.000    0.000 
#    0.000    0.000    0.000    0.000    0.000    0.000 
#
# Total GULP energy -346874.051951 kJ/mol
# GULP energy per Si atom -12388.358998 kJ/mol
# Density = 2.184436 g / cm^3
# Si number density = 21.894187 Si / 1000 Ang^3
#
#
#
# Elastic Constant Matrix: (Units=GPa)
#
#
# Indices 1 2 3 4 5 6 
#
# 1 104.9601 43.7099 42.1903 0.0000 -2.8188 0.0000
# 2 43.7099 126.8585 68.2088 0.0000 2.5360 0.0000
# 3 42.1903 68.2088 96.4038 0.0000 -20.6355 0.0000
# 4 0.0000 0.0000 0.0000 38.6550 0.0000 -5.9686
# 5 -2.8188 2.5360 -20.6355 0.0000 43.5840 0.0000
# 6 0.0000 0.0000 0.0000 -5.9686 0.0000 26.7330
#
#
#
# Elastic Compliance Matrix: (Units=1/GPa)
#
#
# Indices 1 2 3 4 5 6 
#
# 1 0.011938 -0.001871 -0.004131 0.000000 -0.001075 0.000000
# 2 -0.001871 0.014358 -0.010621 0.000000 -0.005985 0.000000
# 3 -0.004131 -0.010621 0.022000 0.000000 0.010767 0.000000
# 4 0.000000 0.000000 0.000000 0.026794 0.000000 0.005982
# 5 -0.001075 -0.005985 0.010767 0.000000 0.028321 0.000000
# 6 0.000000 0.000000 0.000000 0.005982 0.000000 0.038743
#
#
# Mechanical properties :
#
#
# Convention : Reuss Voigt Hill
#
# Bulk Modulus (GPa) = 66.44221 70.71560 68.57891
# Shear Modulus (GPa) = 27.71379 33.40196 30.55787
#
# Velocity S-wave (km/s) = 3.56168 3.91014 3.73997
# Velocity P-wave (km/s) = 6.87945 7.26323 7.07395
#
# Compressibility (1/GPa) = 0.01505067
#
# Stress axis : x y z
#
# Youngs Moduli (GPa) = 83.76489 69.64949 45.45360
#
# Poissons Ratio (x) = 0.13029 0.18778
# Poissons Ratio (y) = 0.15669 0.48276
# Poissons Ratio (z) = 0.34605 0.73974
#
# Static dielectric constant tensor:
#      x y z
#    x 3.442020 0.000000 -2.864170 
#    y 0.000000 4.766480 0.000000 
#    z -2.864170 0.000000 -0.473550 
# 
# 
# High freq. dielectric constant tensor:
#      x y z
#    x 1.875550 0.000000 -0.018720 
#    y 0.000000 1.853720 0.000000 
#    z -0.018720 0.000000 1.865610 
# 
# From -- ./inp_files/152634.got.cif
#   From: 2010.06.25/outbox.cif.g09.slc.cpg/sg15_77_cif.got.tgz:152634.got - 2010.06.28 07:06:18.
