data_PCOD8142000
_publ_section_title
;
Structure prediction by ZEFSAII (Michael W. Deem and Ramdas Pophale) SiO2 
 PCOD8142000
Probable space group: C 2/C
;
_chemical_formula_sum "Si O2"
_cell_formula_units_Z 56
_cell_length_a 11.344630
_cell_length_b 13.089654
_cell_length_c 17.683967
_cell_angle_alpha 90.000000
_cell_angle_beta 94.230084
_cell_angle_gamma 90.000000
_cell_volume 2618.867441
_symmetry_space_group_name_H-M "C 2/C"
_symmetry_group_IT_number 15
_symmetry_cell_setting 'monoclinic'
loop_
_space_group_symop_operation_xyz
x,y,z
-x,y,1/2-z
-x,-y,-z
x,-y,1/2+z
1/2+x,1/2+y,z
1/2-x,1/2+y,1/2-z
1/2-x,1/2-y,-z
1/2+x,1/2-y,1/2+z
loop_
_atom_site_type_symbol
_atom_site_label
_atom_site_fract_x
_atom_site_fract_y
_atom_site_fract_z
Si Si1 0.867528 0.846888 0.213382
Si Si2 0.191034 0.361074 0.856441
Si Si3 0.942294 0.657309 0.004592
Si Si4 0.867405 0.010032 0.572971
Si Si5 0.633215 0.953972 0.255783
Si Si6 0.121216 0.532489 0.093935
Si Si7 0.431145 0.629643 0.428867
O O1 0.861365 0.725397 0.200963
O O2 0.751459 0.880905 0.258764
O O3 0.000000 0.874482 0.250000
O O4 0.853863 0.897778 0.131170
O O5 0.171162 0.339181 0.945471
O O6 0.141706 0.472363 0.829766
O O7 0.333310 0.357750 0.858779
O O8 0.045825 0.631438 0.068929
O O9 0.935460 0.573342 0.938571
O O10 0.970183 0.762958 0.965569
O O11 0.745594 0.949375 0.559807
O O12 0.959689 0.925594 0.606785
O O13 0.892291 0.052764 0.492099
O O14 0.500000 0.900411 0.250000
O O15 0.637147 0.028816 0.184382
#
# Coordination Sequence:
#
# PCOD8142000 Si02
#       7
#     8   8   8   8   8   8   8
#     4  11  24  42  65  92 124 168 214 256 309 376
#     4  12  22  40  66  90 120 171 211 249 311 385
#     4  11  21  38  65  91 123 160 214 251 313 373
#     4  10  21  38  60  90 128 156 201 259 313 361
#     4  11  23  42  64  92 128 166 210 258 312 369
#     4  10  22  40  62  92 123 166 205 261 306 374
#     4  11  21  36  61  94 122 159 202 257 312 369
#
# _framework density 21.383289000000001
#
# number of rings (size 3 to 8) (size 9 to 14) (size 15 to 20)
#    0.000    1.143    4.286    3.429    0.000    0.571 
#    0.000    6.429    0.000    0.000    0.000    0.000 
#    0.000    0.000    0.000    0.000    0.000    0.000 
#
# Total GULP energy -347010.100109 kJ/mol
# GULP energy per Si atom -12393.217861 kJ/mol
# Density = 2.133462 g / cm^3
# Si number density = 21.383289 Si / 1000 Ang^3
#
#
#
# Elastic Constant Matrix: (Units=GPa)
#
#
# Indices 1 2 3 4 5 6 
#
# 1 131.7478 34.3869 -7.2785 0.0000 10.5734 0.0000
# 2 34.3869 66.3705 7.3463 0.0000 -4.3666 0.0000
# 3 -7.2785 7.3463 40.1791 0.0000 5.7298 0.0000
# 4 0.0000 0.0000 0.0000 24.8599 0.0000 2.0469
# 5 10.5734 -4.3666 5.7298 0.0000 29.9220 0.0000
# 6 0.0000 0.0000 0.0000 2.0469 0.0000 25.6482
#
#
#
# Elastic Compliance Matrix: (Units=1/GPa)
#
#
# Indices 1 2 3 4 5 6 
#
# 1 0.009672 -0.005723 0.003501 0.000000 -0.004923 0.000000
# 2 -0.005723 0.019006 -0.005342 0.000000 0.005819 0.000000
# 3 0.003501 -0.005342 0.027539 0.000000 -0.007290 0.000000
# 4 0.000000 0.000000 0.000000 0.040492 0.000000 -0.003231
# 5 -0.004923 0.005819 -0.007290 0.000000 0.037405 0.000000
# 6 0.000000 0.000000 0.000000 -0.003231 0.000000 0.039247
#
#
# Mechanical properties :
#
#
# Convention : Reuss Voigt Hill
#
# Bulk Modulus (GPa) = 24.33673 34.13410 29.23542
# Shear Modulus (GPa) = 24.72985 29.67554 27.20269
#
# Velocity S-wave (km/s) = 3.40443 3.72935 3.57059
# Velocity P-wave (km/s) = 5.18261 5.87722 5.54081
#
# Compressibility (1/GPa) = 0.04109015
#
# Stress axis : x y z
#
# Youngs Moduli (GPa) = 103.38660 52.61509 36.31216
#
# Poissons Ratio (x) = 0.30110 -0.12712
# Poissons Ratio (y) = 0.59165 0.19396
# Poissons Ratio (z) = -0.36192 0.28104
#
# Static dielectric constant tensor:
#      x y z
#    x 4.437230 0.000000 -0.041940 
#    y 0.000000 3.654870 0.000000 
#    z -0.041940 0.000000 3.690660 
# 
# 
# High freq. dielectric constant tensor:
#      x y z
#    x 1.858580 0.000000 0.007640 
#    y 0.000000 1.817830 0.000000 
#    z 0.007640 0.000000 1.827030 
# 
# From -- ./inp_files/237036.got.cif
#   From: 2010.06.25/outbox.cif.g09.slc.cpg/sg15_119_cif.got.tgz:237036.got - 2010.06.28 07:06:18.
