data_PCOD8142605
_publ_section_title
;
Structure prediction by ZEFSAII (Michael W. Deem and Ramdas Pophale) SiO2 
 PCOD8142605
Probable space group: C 2/C
;
_chemical_formula_sum "Si O2"
_cell_formula_units_Z 52
_cell_length_a 24.356178
_cell_length_b 9.929448
_cell_length_c 25.646836
_cell_angle_alpha 90.000000
_cell_angle_beta 157.782239
_cell_angle_gamma 90.000000
_cell_volume 2345.344380
_symmetry_space_group_name_H-M "C 2/C"
_symmetry_group_IT_number 15
_symmetry_cell_setting 'monoclinic'
loop_
_space_group_symop_operation_xyz
x,y,z
-x,y,1/2-z
-x,-y,-z
x,-y,1/2+z
1/2+x,1/2+y,z
1/2-x,1/2+y,1/2-z
1/2-x,1/2-y,-z
1/2+x,1/2-y,1/2+z
loop_
_atom_site_type_symbol
_atom_site_label
_atom_site_fract_x
_atom_site_fract_y
_atom_site_fract_z
Si Si1 0.214088 0.391085 0.791663
Si Si2 0.324000 0.278370 0.336757
Si Si3 0.080218 0.498767 0.921508
Si Si4 0.500000 0.144842 0.250000
Si Si5 0.503683 0.531766 0.588966
Si Si6 0.478559 0.229115 0.894338
Si Si7 0.840383 0.834714 0.186358
O O1 0.223740 0.351450 0.739561
O O2 0.048989 0.425284 0.661116
O O3 0.257554 0.255448 0.861544
O O4 0.340253 0.492600 0.922677
O O5 0.404904 0.394732 0.375774
O O6 0.423346 0.214714 0.468521
O O7 0.176312 0.346042 0.230454
O O8 0.074895 0.457914 0.856302
O O9 0.056919 0.657723 0.913497
O O10 0.239588 0.458657 0.081137
O O11 0.385603 0.244095 0.176790
O O12 0.560538 0.383052 0.652508
O O13 0.518493 0.612049 0.656918
#
# Coordination Sequence:
#
# PCOD8142605 Si02
#       7
#     8   8   8   4   8   8   8
#     4  10  21  39  62  92 130 173 212 267 309 367
#     4  11  23  38  61  90 131 182 223 251 307 370
#     4  11  24  40  66  97 127 163 220 267 326 384
#     4  10  22  44  74  94 124 154 210 288 336 366
#     4  11  23  42  60  92 139 175 215 259 316 373
#     4  12  25  39  60  93 137 177 209 262 317 382
#     4  10  21  41  70  99 120 161 219 274 317 380
#
# _framework density 22.171585
#
# number of rings (size 3 to 8) (size 9 to 14) (size 15 to 20)
#    0.000    1.231    1.538    5.538    4.308    1.846 
#    0.000    0.769    0.000   10.154    0.000    0.000 
#    0.000    0.000    0.000    0.000    0.000    0.000 
#
# Total GULP energy -322299.687639 kJ/mol
# GULP energy per Si atom -12396.141832 kJ/mol
# Density = 2.212112 g / cm^3
# Si number density = 22.171585 Si / 1000 Ang^3
#
#
#
# Elastic Constant Matrix: (Units=GPa)
#
#
# Indices 1 2 3 4 5 6 
#
# 1 102.3949 41.2363 45.4411 -0.0004 -14.8809 -0.0002
# 2 41.2363 90.3494 35.0171 0.0018 -9.8954 0.0011
# 3 45.4411 35.0171 139.3371 0.0023 -6.0088 0.0016
# 4 -0.0004 0.0018 0.0023 28.7117 0.0005 2.0780
# 5 -14.8809 -9.8954 -6.0088 0.0005 24.3653 0.0004
# 6 -0.0002 0.0011 0.0016 2.0780 0.0004 42.0323
#
#
#
# Elastic Compliance Matrix: (Units=1/GPa)
#
#
# Indices 1 2 3 4 5 6 
#
# 1 0.013794 -0.004442 -0.003130 0.000001 0.005849 0.000000
# 2 -0.004442 0.014148 -0.001997 -0.000001 0.002540 0.000000
# 3 -0.003130 -0.001997 0.008674 -0.000001 -0.000584 0.000000
# 4 0.000001 -0.000001 -0.000001 0.034954 -0.000001 -0.001728
# 5 0.005849 0.002540 -0.000584 -0.000001 0.045502 0.000000
# 6 0.000000 0.000000 0.000000 -0.001728 0.000000 0.023877
#
#
# Mechanical properties :
#
#
# Convention : Reuss Voigt Hill
#
# Bulk Modulus (GPa) = 57.21627 63.94117 60.57872
# Shear Modulus (GPa) = 30.13620 33.04765 31.59193
#
# Velocity S-wave (km/s) = 3.69077 3.86494 3.77886
# Velocity P-wave (km/s) = 6.63510 6.98705 6.81335
#
# Compressibility (1/GPa) = 0.01747755
#
# Stress axis : x y z
#
# Youngs Moduli (GPa) = 72.49516 70.68203 115.28188
#
# Poissons Ratio (x) = 0.31397 0.36083
# Poissons Ratio (y) = 0.32203 0.23026
# Poissons Ratio (z) = 0.22691 0.14117
#
# Static dielectric constant tensor:
#      x y z
#    x 3.939080 0.000000 -0.180100 
#    y 0.000000 4.057980 0.000000 
#    z -0.180100 0.000000 3.977810 
# 
# 
# High freq. dielectric constant tensor:
#      x y z
#    x 1.848140 0.000000 -0.007770 
#    y 0.000000 1.876470 0.000000 
#    z -0.007770 0.000000 1.886740 
# 
# From -- ./inp_files/320202.got.cif
#   From: 2010.06.25/outbox.cif.g09.slc.cpg/sg15_161_cif.got.tgz:320202.got - 2010.06.28 07:06:18.
