data_PCOD8142481
_publ_section_title
;
Structure prediction by ZEFSAII (Michael W. Deem and Ramdas Pophale) SiO2 
 PCOD8142481
Probable space group: C 2/C
;
_chemical_formula_sum "Si O2"
_cell_formula_units_Z 36
_cell_length_a 8.413492
_cell_length_b 24.421683
_cell_length_c 12.314479
_cell_angle_alpha 90.000000
_cell_angle_beta 45.681229
_cell_angle_gamma 90.000000
_cell_volume 1810.321185
_symmetry_space_group_name_H-M "C 2/C"
_symmetry_group_IT_number 15
_symmetry_cell_setting 'monoclinic'
loop_
_space_group_symop_operation_xyz
x,y,z
-x,y,1/2-z
-x,-y,-z
x,-y,1/2+z
1/2+x,1/2+y,z
1/2-x,1/2+y,1/2-z
1/2-x,1/2-y,-z
1/2+x,1/2-y,1/2+z
loop_
_atom_site_type_symbol
_atom_site_label
_atom_site_fract_x
_atom_site_fract_y
_atom_site_fract_z
Si Si1 0.462592 0.079306 0.431873
Si Si2 0.881433 0.458271 0.416607
Si Si3 0.350293 0.674444 0.011025
Si Si4 0.500000 0.259501 0.250000
Si Si5 0.044115 0.106675 0.348409
O O1 0.481299 0.071616 0.552809
O O2 0.306482 0.130461 0.476258
O O3 0.702301 0.087250 0.262147
O O4 0.367541 0.023580 0.428556
O O5 0.622582 0.443066 0.549588
O O6 0.000000 0.438520 0.250000
O O7 0.501002 0.649658 0.034385
O O8 0.214280 0.721909 0.135989
O O9 0.520632 0.701293 0.844897
O O10 0.000000 0.132485 0.250000
#
# Coordination Sequence:
#
# PCOD8142481 Si02
#       5
#     8   8   8   4   8
#     4  10  21  39  60  87 125 160 186 242 299 351
#     4  10  22  36  58  93 124 154 198 231 292 367
#     4  11  21  42  63  87 115 154 202 249 293 353
#     4  10  24  38  66  86 110 152 214 248 292 342
#     4  10  21  39  61  86 126 159 185 243 304 345
#
# _framework density 19.885974000000001
#
# number of rings (size 3 to 8) (size 9 to 14) (size 15 to 20)
#    0.000    1.778    2.222    1.333    3.111    3.556 
#    6.000    1.111    0.000    0.000    0.000    0.000 
#    0.000    0.000    0.000    0.000    0.000    0.000 
#
# Total GULP energy -223148.680017 kJ/mol
# GULP energy per Si atom -12397.148890 kJ/mol
# Density = 1.984071 g / cm^3
# Si number density = 19.885974 Si / 1000 Ang^3
#
#
#
# Elastic Constant Matrix: (Units=GPa)
#
#
# Indices 1 2 3 4 5 6 
#
# 1 78.6633 61.2257 37.9043 0.0000 14.0228 0.0000
# 2 61.2257 120.3690 54.7930 0.0000 18.2938 0.0000
# 3 37.9043 54.7930 118.2915 0.0000 31.0551 0.0000
# 4 0.0000 0.0000 0.0000 28.1720 0.0000 10.3043
# 5 14.0228 18.2938 31.0551 0.0000 27.1059 0.0000
# 6 0.0000 0.0000 0.0000 10.3043 0.0000 15.5550
#
#
#
# Elastic Compliance Matrix: (Units=1/GPa)
#
#
# Indices 1 2 3 4 5 6 
#
# 1 0.021661 -0.009850 -0.001690 0.000000 -0.002622 0.000000
# 2 -0.009850 0.015097 -0.003575 0.000000 -0.000998 0.000000
# 3 -0.001690 -0.003575 0.013999 0.000000 -0.012751 0.000000
# 4 0.000000 0.000000 0.000000 0.046847 0.000000 -0.031034
# 5 -0.002622 -0.000998 -0.012751 0.000000 0.053531 0.000000
# 6 0.000000 0.000000 0.000000 -0.031034 0.000000 0.084846
#
#
# Mechanical properties :
#
#
# Convention : Reuss Voigt Hill
#
# Bulk Modulus (GPa) = 48.71663 69.46331 59.08997
# Shear Modulus (GPa) = 18.31154 25.05997 21.68576
#
# Velocity S-wave (km/s) = 3.03781 3.55376 3.30586
# Velocity P-wave (km/s) = 6.07087 7.20039 6.65962
#
# Compressibility (1/GPa) = 0.02052687
#
# Stress axis : x y z
#
# Youngs Moduli (GPa) = 46.16697 66.23915 71.43557
#
# Poissons Ratio (x) = 0.65245 0.12072
# Poissons Ratio (y) = 0.45474 0.25537
# Poissons Ratio (z) = 0.07802 0.23679
#
# Static dielectric constant tensor:
#      x y z
#    x 3.535140 0.000000 0.304680 
#    y 0.000000 3.661050 0.000000 
#    z 0.304680 0.000000 3.934170 
# 
# 
# High freq. dielectric constant tensor:
#      x y z
#    x 1.763950 0.000000 0.019990 
#    y 0.000000 1.769140 0.000000 
#    z 0.019990 0.000000 1.794150 
# 
# From -- ./inp_files/22546.got.cif
#   From: 2010.06.25/outbox.cif.g09.slc.cpg/sg15_12_cif.got.tgz:22546.got - 2010.06.28 07:06:18.
