data_PCOD8142478
_publ_section_title
;
Structure prediction by ZEFSAII (Michael W. Deem and Ramdas Pophale) SiO2 
 PCOD8142478
Probable space group: C 2/C
;
_chemical_formula_sum "Si O2"
_cell_formula_units_Z 44
_cell_length_a 24.289744
_cell_length_b 8.048318
_cell_length_c 13.406974
_cell_angle_alpha 90.000000
_cell_angle_beta 124.270261
_cell_angle_gamma 90.000000
_cell_volume 2165.929128
_symmetry_space_group_name_H-M "C 2/C"
_symmetry_group_IT_number 15
_symmetry_cell_setting 'monoclinic'
loop_
_space_group_symop_operation_xyz
x,y,z
-x,y,1/2-z
-x,-y,-z
x,-y,1/2+z
1/2+x,1/2+y,z
1/2-x,1/2+y,1/2-z
1/2-x,1/2-y,-z
1/2+x,1/2-y,1/2+z
loop_
_atom_site_type_symbol
_atom_site_label
_atom_site_fract_x
_atom_site_fract_y
_atom_site_fract_z
Si Si1 0.819894 0.511450 0.242034
Si Si2 0.443958 0.461665 0.019125
Si Si3 0.000000 0.173163 0.250000
Si Si4 0.561858 0.917205 0.006126
Si Si5 0.681661 0.673260 0.624206
Si Si6 0.119292 0.379458 0.388397
O O1 0.874869 0.410220 0.357886
O O2 0.750853 0.420861 0.190020
O O3 0.817868 0.700475 0.280669
O O4 0.838735 0.498335 0.143300
O O5 0.462290 0.557915 0.135855
O O6 0.448065 0.267367 0.043306
O O7 0.500000 0.500000 0.000000
O O8 0.373097 0.531701 0.908991
O O9 0.062205 0.279366 0.267652
O O10 0.574668 0.020147 0.920304
O O11 0.500000 0.000000 0.000000
O O12 0.669546 0.766037 0.505852
#
# Coordination Sequence:
#
# PCOD8142478 Si02
#       6
#     8   8   4   8   8   8
#     4  11  21  40  62  85 122 161 196 251 306 351
#     4  11  22  39  59  87 119 154 199 247 298 357
#     4  10  22  36  58  86 118 154 196 250 302 346
#     4  11  23  39  62  91 121 156 203 248 295 361
#     4  10  23  39  60  89 119 157 203 249 299 359
#     4  10  21  39  60  87 119 159 203 248 302 359
#
# _framework density 20.314608
#
# number of rings (size 3 to 8) (size 9 to 14) (size 15 to 20)
#    0.000    1.455    0.000    7.091    0.000    3.636 
#    0.000   11.818    0.000    0.000    0.000    0.000 
#    0.000    0.000    0.000    0.000    0.000    0.000 
#
# Total GULP energy -272657.892317 kJ/mol
# GULP energy per Si atom -12393.540560 kJ/mol
# Density = 2.026837 g / cm^3
# Si number density = 20.314608 Si / 1000 Ang^3
#
#
#
# Elastic Constant Matrix: (Units=GPa)
#
#
# Indices 1 2 3 4 5 6 
#
# 1 162.5405 58.8618 60.7819 0.0000 11.4597 0.0000
# 2 58.8618 119.6764 40.7931 0.0000 11.0362 0.0000
# 3 60.7819 40.7931 78.2685 0.0000 16.8505 0.0000
# 4 0.0000 0.0000 0.0000 12.4427 0.0000 7.8183
# 5 11.4597 11.0362 16.8505 0.0000 39.9622 0.0000
# 6 0.0000 0.0000 0.0000 7.8183 0.0000 34.8376
#
#
#
# Elastic Compliance Matrix: (Units=1/GPa)
#
#
# Indices 1 2 3 4 5 6 
#
# 1 0.009286 -0.002578 -0.005991 0.000000 0.000575 0.000000
# 2 -0.002578 0.010891 -0.003504 0.000000 -0.000791 0.000000
# 3 -0.005991 -0.003504 0.020542 0.000000 -0.005976 0.000000
# 4 0.000000 0.000000 0.000000 0.093562 0.000000 -0.020997
# 5 0.000575 -0.000791 -0.005976 0.000000 0.027597 0.000000
# 6 0.000000 0.000000 0.000000 -0.020997 0.000000 0.033417
#
#
# Mechanical properties :
#
#
# Convention : Reuss Voigt Hill
#
# Bulk Modulus (GPa) = 60.34207 75.70656 68.02432
# Shear Modulus (GPa) = 22.22559 30.78508 26.50533
#
# Velocity S-wave (km/s) = 3.31126 3.89706 3.61604
# Velocity P-wave (km/s) = 6.66240 7.58929 7.14090
#
# Compressibility (1/GPa) = 0.01657219
#
# Stress axis : x y z
#
# Youngs Moduli (GPa) = 107.69102 91.81743 48.67988
#
# Poissons Ratio (x) = 0.23670 0.29167
# Poissons Ratio (y) = 0.27762 0.17058
# Poissons Ratio (z) = 0.64523 0.32174
#
# Static dielectric constant tensor:
#      x y z
#    x 4.003590 0.000000 0.146230 
#    y 0.000000 4.070580 0.000000 
#    z 0.146230 0.000000 3.725210 
# 
# 
# High freq. dielectric constant tensor:
#      x y z
#    x 1.804980 0.000000 0.011670 
#    y 0.000000 1.798910 0.000000 
#    z 0.011670 0.000000 1.797400 
# 
# From -- ./inp_files/116849.got.cif
#   From: 2010.06.25/outbox.cif.g09.slc.cpg/sg15_59_cif.got.tgz:116849.got - 2010.06.28 07:06:18.
