data_PCOD8142020
_publ_section_title
;
Structure prediction by ZEFSAII (Michael W. Deem and Ramdas Pophale) SiO2 
 PCOD8142020
Probable space group: C 2/C
;
_chemical_formula_sum "Si O2"
_cell_formula_units_Z 52
_cell_length_a 11.547771
_cell_length_b 29.446110
_cell_length_c 9.161065
_cell_angle_alpha 90.000000
_cell_angle_beta 121.126117
_cell_angle_gamma 90.000000
_cell_volume 2666.624265
_symmetry_space_group_name_H-M "C 2/C"
_symmetry_group_IT_number 15
_symmetry_cell_setting 'monoclinic'
loop_
_space_group_symop_operation_xyz
x,y,z
-x,y,1/2-z
-x,-y,-z
x,-y,1/2+z
1/2+x,1/2+y,z
1/2-x,1/2+y,1/2-z
1/2-x,1/2-y,-z
1/2+x,1/2-y,1/2+z
loop_
_atom_site_type_symbol
_atom_site_label
_atom_site_fract_x
_atom_site_fract_y
_atom_site_fract_z
Si Si1 0.994314 0.068819 0.912558
Si Si2 0.132367 0.214189 0.256030
Si Si3 0.000000 0.612276 0.750000
Si Si4 0.722154 0.503301 0.161943
Si Si5 0.286942 0.188667 0.624998
Si Si6 0.494219 0.669079 0.920772
Si Si7 0.603743 0.029354 0.976509
O O1 0.875517 0.038190 0.479107
O O2 0.002927 0.117925 0.993165
O O3 0.000000 0.081503 0.750000
O O4 0.855201 0.044235 0.866226
O O5 0.260877 0.194900 0.432572
O O6 0.130529 0.268775 0.257280
O O7 0.000000 0.195019 0.250000
O O8 0.119541 0.196242 0.080016
O O9 0.873215 0.643355 0.713321
O O10 0.954704 0.580039 0.584992
O O11 0.759467 0.528110 0.338216
O O12 0.857689 0.492554 0.155893
O O13 0.149072 0.189192 0.625393
O O14 0.500000 0.673945 0.750000
O O15 0.500000 0.000000 0.000000
#
# Coordination Sequence:
#
# PCOD8142020 Si02
#       7
#     8   8   4   8   8   8   8
#     4  10  21  38  61  85 120 154 201 253 296 343
#     4   9  19  40  63  89 115 154 195 252 304 340
#     4  12  24  38  66  90 112 166 206 240 294 352
#     4  11  22  40  58  84 118 162 200 249 295 344
#     4  10  21  39  64  86 120 150 204 249 288 364
#     4  10  22  37  60  92 121 155 193 247 304 358
#     4  12  24  39  58  84 123 161 199 241 294 357
#
# _framework density 19.500309000000001
#
# number of rings (size 3 to 8) (size 9 to 14) (size 15 to 20)
#    0.000    1.538    3.846    0.923    2.154    0.615 
#    2.769    0.000    0.000    0.000    0.000    0.000 
#    0.000    0.000    0.000    0.000    0.000    0.000 
#
# Total GULP energy -322253.447326 kJ/mol
# GULP energy per Si atom -12394.363359 kJ/mol
# Density = 1.945593 g / cm^3
# Si number density = 19.500309 Si / 1000 Ang^3
#
#
#
# Elastic Constant Matrix: (Units=GPa)
#
#
# Indices 1 2 3 4 5 6 
#
# 1 67.2496 34.0519 33.7260 0.0000 -3.1385 0.0000
# 2 34.0519 138.8079 73.5791 0.0000 6.0569 0.0000
# 3 33.7260 73.5791 119.3017 0.0000 -2.9667 0.0000
# 4 0.0000 0.0000 0.0000 43.5474 0.0000 13.6724
# 5 -3.1385 6.0569 -2.9667 0.0000 25.8108 0.0000
# 6 0.0000 0.0000 0.0000 13.6724 0.0000 34.8103
#
#
#
# Elastic Compliance Matrix: (Units=1/GPa)
#
#
# Indices 1 2 3 4 5 6 
#
# 1 0.018060 -0.002769 -0.003336 0.000000 0.002463 0.000000
# 2 -0.002769 0.011412 -0.006349 0.000000 -0.003745 0.000000
# 3 -0.003336 -0.006349 0.013306 0.000000 0.002614 0.000000
# 4 0.000000 0.000000 0.000000 0.026194 0.000000 -0.010288
# 5 0.002463 -0.003745 0.002614 0.000000 0.040222 0.000000
# 6 0.000000 0.000000 0.000000 -0.010288 0.000000 0.032768
#
#
# Mechanical properties :
#
#
# Convention : Reuss Voigt Hill
#
# Bulk Modulus (GPa) = 55.96107 67.56368 61.76237
# Shear Modulus (GPa) = 28.93057 33.10052 31.01555
#
# Velocity S-wave (km/s) = 3.85593 4.12446 3.99245
# Velocity P-wave (km/s) = 6.97023 7.57656 7.27971
#
# Compressibility (1/GPa) = 0.01786957
#
# Stress axis : x y z
#
# Youngs Moduli (GPa) = 55.36979 87.62468 75.15514
#
# Poissons Ratio (x) = 0.24267 0.25074
# Poissons Ratio (y) = 0.15335 0.47714
# Poissons Ratio (z) = 0.18473 0.55630
#
# Static dielectric constant tensor:
#      x y z
#    x 3.348520 0.000000 0.171960 
#    y 0.000000 3.587590 0.000000 
#    z 0.171960 0.000000 3.705070 
# 
# 
# High freq. dielectric constant tensor:
#      x y z
#    x 1.745520 0.000000 0.014070 
#    y 0.000000 1.762010 0.000000 
#    z 0.014070 0.000000 1.769750 
# 
# From -- ./inp_files/35370.got.cif
#   From: 2010.06.25/outbox.cif.g09.slc.cpg/sg15_18_cif.got.tgz:35370.got - 2010.06.28 07:06:18.
