data_PCOD8142844
_publ_section_title
;
Structure prediction by ZEFSAII (Michael W. Deem and Ramdas Pophale) SiO2 
 PCOD8142844
Probable space group: C 2/C
;
_chemical_formula_sum "Si O2"
_cell_formula_units_Z 64
_cell_length_a 11.801790
_cell_length_b 22.238848
_cell_length_c 12.312158
_cell_angle_alpha 90.000000
_cell_angle_beta 110.094148
_cell_angle_gamma 90.000000
_cell_volume 3034.727928
_symmetry_space_group_name_H-M "C 2/C"
_symmetry_group_IT_number 15
_symmetry_cell_setting 'monoclinic'
loop_
_space_group_symop_operation_xyz
x,y,z
-x,y,1/2-z
-x,-y,-z
x,-y,1/2+z
1/2+x,1/2+y,z
1/2-x,1/2+y,1/2-z
1/2-x,1/2-y,-z
1/2+x,1/2-y,1/2+z
loop_
_atom_site_type_symbol
_atom_site_label
_atom_site_fract_x
_atom_site_fract_y
_atom_site_fract_z
Si Si1 0.730479 0.557017 0.226225
Si Si2 0.715714 0.569440 0.457599
Si Si3 0.201531 0.769754 0.601015
Si Si4 0.400691 0.441496 0.129369
Si Si5 0.023543 0.121276 0.055788
Si Si6 0.382833 0.135648 0.143115
Si Si7 0.132808 0.446982 0.286624
Si Si8 0.177973 0.639131 0.619664
O O1 0.771776 0.583385 0.356891
O O2 0.592714 0.576885 0.162948
O O3 0.802835 0.577336 0.142565
O O4 0.760156 0.485917 0.235587
O O5 0.661668 0.501905 0.436282
O O6 0.615285 0.620549 0.451014
O O7 0.822585 0.574263 0.580513
O O8 0.250000 0.750000 0.500000
O O9 0.079662 0.810979 0.566571
O O10 0.311992 0.810011 0.679482
O O11 0.187834 0.708421 0.663904
O O12 0.500000 0.460627 0.250000
O O13 0.306676 0.391622 0.141654
O O14 0.475511 0.408910 0.060807
O O15 0.500000 0.127894 0.250000
O O16 0.399834 0.139136 0.018751
O O17 0.108807 0.392018 0.196018
O O18 0.000000 0.478854 0.250000
#
# Coordination Sequence:
#
# PCOD8142844 Si02
#       8
#     8   8   8   8   8   8   8   8
#     4  11  22  40  64  93 128 169 212 263 331 398
#     4  12  25  40  62 101 139 173 216 269 347 409
#     4   9  19  41  65  95 128 172 223 276 327 382
#     4  12  21  36  65  99 138 169 208 277 340 402
#     4  11  21  40  64  96 135 166 218 275 331 398
#     4  10  21  39  66  93 122 166 223 275 319 391
#     4  12  27  43  63  92 134 180 217 270 337 411
#     4  11  22  44  63  93 133 171 219 282 330 388
#
# _framework density 21.089203999999999
#
# number of rings (size 3 to 8) (size 9 to 14) (size 15 to 20)
#    0.000    1.000    6.250    2.625    1.750    1.000 
#    4.500    2.500    0.000    3.750    0.000    0.000 
#    0.000    0.000    0.000    0.000    0.000    0.000 
#
# Total GULP energy -396433.308013 kJ/mol
# GULP energy per Si atom -12388.540875 kJ/mol
# Density = 2.104120 g / cm^3
# Si number density = 21.089204 Si / 1000 Ang^3
#
#
#
# Elastic Constant Matrix: (Units=GPa)
#
#
# Indices 1 2 3 4 5 6 
#
# 1 501.4287 206.0570 494.1478 0.0000 317.3929 0.0000
# 2 206.0570 190.3770 220.3424 0.0000 127.9056 0.0000
# 3 494.1478 220.3424 626.3052 0.0000 329.9897 0.0000
# 4 0.0000 0.0000 0.0000 17.8439 0.0000 -6.2328
# 5 317.3929 127.9056 329.9897 0.0000 245.1848 0.0000
# 6 0.0000 0.0000 0.0000 -6.2328 0.0000 22.9121
#
#
#
# Elastic Compliance Matrix: (Units=1/GPa)
#
#
# Indices 1 2 3 4 5 6 
#
# 1 0.016322 -0.003350 -0.005114 0.000000 -0.012498 0.000000
# 2 -0.003350 0.009705 -0.001336 0.000000 0.001072 0.000000
# 3 -0.005114 -0.001336 0.007723 0.000000 -0.003077 0.000000
# 4 0.000000 0.000000 0.000000 0.061926 0.000000 0.016846
# 5 -0.012498 0.001072 -0.003077 0.000000 0.023839 0.000000
# 6 0.000000 0.000000 0.000000 0.016846 0.000000 0.048228
#
#
# Mechanical properties :
#
#
# Convention : Reuss Voigt Hill
#
# Bulk Modulus (GPa) = 70.67701 351.02283 210.84992
# Shear Modulus (GPa) = 26.03382 83.69241 54.86311
#
# Velocity S-wave (km/s) = 3.51730 6.30643 5.10600
# Velocity P-wave (km/s) = 7.07682 14.82687 11.61718
#
# Compressibility (1/GPa) = 0.01414887
#
# Stress axis : x y z
#
# Youngs Moduli (GPa) = 61.26744 103.04304 129.48951
#
# Poissons Ratio (x) = 0.34522 0.66222
# Poissons Ratio (y) = 0.20526 0.17297
# Poissons Ratio (z) = 0.31333 0.13764
#
# Static dielectric constant tensor:
#      x y z
#    x 3.760460 0.000000 0.037890 
#    y 0.000000 4.295410 0.000000 
#    z 0.037890 0.000000 4.105930 
# 
# 
# High freq. dielectric constant tensor:
#      x y z
#    x 1.813050 0.000000 -0.003630 
#    y 0.000000 1.814660 0.000000 
#    z -0.003630 0.000000 1.829830 
# 
# From -- ./inp_files/90840.got.cif
#   From: 2010.06.25/outbox.cif.g09.slc.cpg/sg15_46_cif.got.tgz:90840.got - 2010.06.28 07:06:18.
