data_PCOD8142867
_publ_section_title
;
Structure prediction by ZEFSAII (Michael W. Deem and Ramdas Pophale) SiO2 
 PCOD8142867
Probable space group: C 2/C
;
_chemical_formula_sum "Si O2"
_cell_formula_units_Z 48
_cell_length_a 17.676894
_cell_length_b 11.635876
_cell_length_c 11.455336
_cell_angle_alpha 90.000000
_cell_angle_beta 105.514704
_cell_angle_gamma 90.000000
_cell_volume 2270.348183
_symmetry_space_group_name_H-M "C 2/C"
_symmetry_group_IT_number 15
_symmetry_cell_setting 'monoclinic'
loop_
_space_group_symop_operation_xyz
x,y,z
-x,y,1/2-z
-x,-y,-z
x,-y,1/2+z
1/2+x,1/2+y,z
1/2-x,1/2+y,1/2-z
1/2-x,1/2-y,-z
1/2+x,1/2-y,1/2+z
loop_
_atom_site_type_symbol
_atom_site_label
_atom_site_fract_x
_atom_site_fract_y
_atom_site_fract_z
Si Si1 0.916366 0.709421 0.277338
Si Si2 0.328549 0.332511 0.664734
Si Si3 0.814866 0.405013 0.556770
Si Si4 0.151412 0.822206 0.559847
Si Si5 0.416228 0.560500 0.668594
Si Si6 0.346757 0.154593 0.478630
O O1 0.859284 0.617068 0.195750
O O2 0.884741 0.840131 0.244196
O O3 0.916819 0.678720 0.414941
O O4 0.000000 0.699176 0.250000
O O5 0.362903 0.319800 0.808644
O O6 0.353716 0.458652 0.633560
O O7 0.365639 0.235922 0.596510
O O8 0.234908 0.315658 0.620347
O O9 0.834389 0.308984 0.469201
O O10 0.723256 0.404265 0.550626
O O11 0.845146 0.524412 0.519073
O O12 0.077764 0.878119 0.457832
O O13 0.500000 0.514838 0.750000
#
# Coordination Sequence:
#
# PCOD8142867 Si02
#       6
#     8   8   8   8   8   8
#     4  10  23  44  66  92 133 181 223 272 335 394
#     4  11  24  38  64 101 133 167 223 280 328 396
#     4  10  21  40  65  93 127 175 222 270 327 400
#     4  10  21  39  66  97 127 172 222 269 335 397
#     4  10  23  44  66  94 131 175 218 278 337 394
#     4  11  24  39  66  99 133 175 222 277 327 395
#
# _framework density 21.142130999999999
#
# number of rings (size 3 to 8) (size 9 to 14) (size 15 to 20)
#    0.000    1.667    3.333    0.000    4.667    1.333 
#    6.000    0.833    0.000    0.000    0.000    0.000 
#    0.000    0.000    0.000    0.000    0.000    0.000 
#
# Total GULP energy -297528.940842 kJ/mol
# GULP energy per Si atom -12397.039202 kJ/mol
# Density = 2.109401 g / cm^3
# Si number density = 21.142131 Si / 1000 Ang^3
#
#
#
# Elastic Constant Matrix: (Units=GPa)
#
#
# Indices 1 2 3 4 5 6 
#
# 1 65.9297 40.0391 38.5921 0.0000 -12.1973 0.0000
# 2 40.0391 138.7444 60.7669 0.0000 -22.2175 0.0000
# 3 38.5921 60.7669 152.6634 0.0000 -20.2885 0.0000
# 4 0.0000 0.0000 0.0000 24.5691 0.0000 -0.1105
# 5 -12.1973 -22.2175 -20.2885 0.0000 36.8296 0.0000
# 6 0.0000 0.0000 0.0000 -0.1105 0.0000 18.5462
#
#
#
# Elastic Compliance Matrix: (Units=1/GPa)
#
#
# Indices 1 2 3 4 5 6 
#
# 1 0.019858 -0.003973 -0.003111 0.000000 0.002466 0.000000
# 2 -0.003973 0.009995 -0.002533 0.000000 0.003318 0.000000
# 3 -0.003111 -0.002533 0.008637 0.000000 0.002200 0.000000
# 4 0.000000 0.000000 0.000000 0.040703 0.000000 0.000242
# 5 0.002466 0.003318 0.002200 0.000000 0.031182 0.000000
# 6 0.000000 0.000000 0.000000 0.000242 0.000000 0.053921
#
#
# Mechanical properties :
#
#
# Convention : Reuss Voigt Hill
#
# Bulk Modulus (GPa) = 51.93170 70.68154 61.30662
# Shear Modulus (GPa) = 26.32296 30.51826 28.42061
#
# Velocity S-wave (km/s) = 3.53235 3.80344 3.67040
# Velocity P-wave (km/s) = 6.42286 7.26584 6.85731
#
# Compressibility (1/GPa) = 0.01925606
#
# Stress axis : x y z
#
# Youngs Moduli (GPa) = 50.35831 100.05131 115.77696
#
# Poissons Ratio (x) = 0.39753 0.36013
# Poissons Ratio (y) = 0.20009 0.29327
# Poissons Ratio (z) = 0.15664 0.25343
#
# Static dielectric constant tensor:
#      x y z
#    x 3.528550 0.000000 0.155600 
#    y 0.000000 3.797510 0.000000 
#    z 0.155600 0.000000 3.952750 
# 
# 
# High freq. dielectric constant tensor:
#      x y z
#    x 1.800270 0.000000 0.007950 
#    y 0.000000 1.832090 0.000000 
#    z 0.007950 0.000000 1.838680 
# 
# From -- ./inp_files/103807.got.cif
#   From: 2010.06.25/outbox.cif.g09.slc.cpg/sg15_52_cif.got.tgz:103807.got - 2010.06.28 07:06:18.
