data_PCOD8142238
_publ_section_title
;
Structure prediction by ZEFSAII (Michael W. Deem and Ramdas Pophale) SiO2 
 PCOD8142238
Probable space group: C 2/C
;
_chemical_formula_sum "Si O2"
_cell_formula_units_Z 48
_cell_length_a 21.705648
_cell_length_b 22.375851
_cell_length_c 13.620463
_cell_angle_alpha 90.000000
_cell_angle_beta 158.491524
_cell_angle_gamma 90.000000
_cell_volume 2425.396160
_symmetry_space_group_name_H-M "C 2/C"
_symmetry_group_IT_number 15
_symmetry_cell_setting 'monoclinic'
loop_
_space_group_symop_operation_xyz
x,y,z
-x,y,1/2-z
-x,-y,-z
x,-y,1/2+z
1/2+x,1/2+y,z
1/2-x,1/2+y,1/2-z
1/2-x,1/2-y,-z
1/2+x,1/2-y,1/2+z
loop_
_atom_site_type_symbol
_atom_site_label
_atom_site_fract_x
_atom_site_fract_y
_atom_site_fract_z
Si Si1 0.189440 0.055666 0.504628
Si Si2 0.552105 0.244648 0.223227
Si Si3 0.710119 0.065890 0.264852
Si Si4 0.000000 0.856129 0.250000
Si Si5 0.063312 0.633250 0.541698
Si Si6 0.690072 0.476248 0.790417
Si Si7 0.000000 0.566090 0.250000
O O1 0.208945 0.062604 0.416961
O O2 0.000000 0.039890 0.250000
O O3 0.304983 0.001408 0.716390
O O4 0.244822 0.116262 0.644960
O O5 0.500000 0.213469 0.250000
O O6 0.750000 0.250000 0.500000
O O7 0.483009 0.313144 0.127590
O O8 0.466324 0.205078 0.009129
O O9 0.839384 0.102266 0.524577
O O10 0.535956 0.101586 0.015528
O O11 0.771097 0.067138 0.242929
O O12 0.997455 0.606255 0.342694
O O13 0.500000 0.500000 0.500000
O O14 0.828257 0.528425 0.995902
#
# Coordination Sequence:
#
# PCOD8142238 Si02
#       7
#     8   8   8   4   8   8   4
#     4  12  23  39  57  94 130 167 210 253 330 389
#     4  10  21  39  61  93 118 158 215 272 319 370
#     4  12  21  37  61  90 126 171 204 262 314 387
#     4  10  21  38  64  90 120 161 216 262 318 372
#     4  12  22  38  63  89 128 165 211 272 315 380
#     4  12  23  36  56  87 132 171 208 248 319 398
#     4  12  21  34  56  90 120 161 208 246 314 380
#
# _framework density 19.790581
#
# number of rings (size 3 to 8) (size 9 to 14) (size 15 to 20)
#    0.500    0.000    8.333    1.500    0.000    0.000 
#    3.000    0.000    0.000    1.000    2.167    0.000 
#    0.000    0.000    0.000    0.000    0.000    0.000 
#
# Total GULP energy -297412.500833 kJ/mol
# GULP energy per Si atom -12392.187535 kJ/mol
# Density = 1.974554 g / cm^3
# Si number density = 19.790581 Si / 1000 Ang^3
#
#
#
# Elastic Constant Matrix: (Units=GPa)
#
#
# Indices 1 2 3 4 5 6 
#
# 1 122.2206 21.5957 16.6946 0.0000 -4.4323 0.0000
# 2 21.5957 77.2980 23.1981 0.0000 -12.9326 0.0000
# 3 16.6946 23.1981 71.6827 0.0000 -0.5591 0.0000
# 4 0.0000 0.0000 0.0000 35.2965 0.0000 -2.8928
# 5 -4.4323 -12.9326 -0.5591 0.0000 33.1312 0.0000
# 6 0.0000 0.0000 0.0000 -2.8928 0.0000 15.3457
#
#
#
# Elastic Compliance Matrix: (Units=1/GPa)
#
#
# Indices 1 2 3 4 5 6 
#
# 1 0.008732 -0.001956 -0.001398 0.000000 0.000381 0.000000
# 2 -0.001956 0.015851 -0.004628 0.000000 0.005848 0.000000
# 3 -0.001398 -0.004628 0.015760 0.000000 -0.001728 0.000000
# 4 0.000000 0.000000 0.000000 0.028776 0.000000 0.005425
# 5 0.000381 0.005848 -0.001728 0.000000 0.032487 0.000000
# 6 0.000000 0.000000 0.000000 0.005425 0.000000 0.066188
#
#
# Mechanical properties :
#
#
# Convention : Reuss Voigt Hill
#
# Bulk Modulus (GPa) = 41.01981 43.79758 42.40869
# Shear Modulus (GPa) = 26.05717 30.73553 28.39635
#
# Velocity S-wave (km/s) = 3.63250 3.94514 3.79204
# Velocity P-wave (km/s) = 6.19397 6.55215 6.37558
#
# Compressibility (1/GPa) = 0.02437846
#
# Stress axis : x y z
#
# Youngs Moduli (GPa) = 114.51678 63.08769 63.45073
#
# Poissons Ratio (x) = 0.12343 0.08868
# Poissons Ratio (y) = 0.22405 0.29368
# Poissons Ratio (z) = 0.16005 0.29200
#
# Static dielectric constant tensor:
#      x y z
#    x 3.830420 0.000000 0.131390 
#    y 0.000000 3.502850 0.000000 
#    z 0.131390 0.000000 3.990060 
# 
# 
# High freq. dielectric constant tensor:
#      x y z
#    x 1.778120 0.000000 0.019820 
#    y 0.000000 1.748170 0.000000 
#    z 0.019820 0.000000 1.763200 
# 
# From -- ./inp_files/174685.got.cif
#   From: 2010.06.25/outbox.cif.g09.slc.cpg/sg15_88_cif.got.tgz:174685.got - 2010.06.28 07:06:18.
