data_PCOD8142031
_publ_section_title
;
Structure prediction by ZEFSAII (Michael W. Deem and Ramdas Pophale) SiO2 
 PCOD8142031
Probable space group: C 2/C
;
_chemical_formula_sum "Si O2"
_cell_formula_units_Z 44
_cell_length_a 13.283964
_cell_length_b 25.969584
_cell_length_c 9.409517
_cell_angle_alpha 90.000000
_cell_angle_beta 46.491679
_cell_angle_gamma 90.000000
_cell_volume 2354.303017
_symmetry_space_group_name_H-M "C 2/C"
_symmetry_group_IT_number 15
_symmetry_cell_setting 'monoclinic'
loop_
_space_group_symop_operation_xyz
x,y,z
-x,y,1/2-z
-x,-y,-z
x,-y,1/2+z
1/2+x,1/2+y,z
1/2-x,1/2+y,1/2-z
1/2-x,1/2-y,-z
1/2+x,1/2-y,1/2+z
loop_
_atom_site_type_symbol
_atom_site_label
_atom_site_fract_x
_atom_site_fract_y
_atom_site_fract_z
Si Si1 0.517883 0.148442 0.036757
Si Si2 0.500000 0.376093 0.250000
Si Si3 0.113549 0.968648 0.309517
Si Si4 0.273241 0.189948 0.466587
Si Si5 0.500000 0.109015 0.750000
Si Si6 0.000000 0.442651 0.750000
Si Si7 0.780739 0.525346 0.916899
O O1 0.379210 0.174374 0.237277
O O2 0.656681 0.178317 0.948843
O O3 0.543179 0.091308 0.073263
O O4 0.508314 0.146826 0.876566
O O5 0.552625 0.413217 0.324792
O O6 0.371075 0.340093 0.421331
O O7 0.237424 0.958529 0.300173
O O8 0.000000 0.000000 0.500000
O O9 0.155551 0.005856 0.137890
O O10 0.250000 0.250000 0.500000
O O11 0.363468 0.073581 0.902784
O O12 0.875512 0.475582 0.810339
#
# Coordination Sequence:
#
# PCOD8142031 Si02
#       7
#     8   4   8   8   4   4   8
#     4  10  21  38  61  87 117 143 206 244 310 349
#     4  12  22  37  62  87 121 158 197 254 314 352
#     4  12  23  34  50  82 125 167 192 235 286 373
#     4  10  22  42  68  87 108 150 211 265 306 359
#     4  11  22  34  60  85 117 160 186 254 287 366
#     4   9  18  35  58  78 104 162 201 252 251 340
#     4  11  21  35  52  79 121 158 211 222 285 336
#
# _framework density 18.689181999999999
#
# number of rings (size 3 to 8) (size 9 to 14) (size 15 to 20)
#    0.000    1.455    1.818    6.545    2.545    2.909 
#    0.000    0.909    0.000    0.000    0.000    0.000 
#    0.000    0.000    0.000    0.000    0.000    0.000 
#
# Total GULP energy -272700.903314 kJ/mol
# GULP energy per Si atom -12395.495605 kJ/mol
# Density = 1.864664 g / cm^3
# Si number density = 18.689182 Si / 1000 Ang^3
#
#
#
# Elastic Constant Matrix: (Units=GPa)
#
#
# Indices 1 2 3 4 5 6 
#
# 1 137.0259 66.6355 60.3594 0.0000 12.2871 0.0000
# 2 66.6355 132.5137 56.1469 0.0000 -3.1757 0.0000
# 3 60.3594 56.1469 84.9454 0.0000 -0.4864 0.0000
# 4 0.0000 0.0000 0.0000 17.0789 0.0000 -6.6143
# 5 12.2871 -3.1757 -0.4864 0.0000 42.9688 0.0000
# 6 0.0000 0.0000 0.0000 -6.6143 0.0000 23.7020
#
#
#
# Elastic Compliance Matrix: (Units=1/GPa)
#
#
# Indices 1 2 3 4 5 6 
#
# 1 0.012131 -0.003514 -0.006319 0.000000 -0.003800 0.000000
# 2 -0.003514 0.011521 -0.005108 0.000000 0.001798 0.000000
# 3 -0.006319 -0.005108 0.019648 0.000000 0.001652 0.000000
# 4 0.000000 0.000000 0.000000 0.065647 0.000000 0.018319
# 5 -0.003800 0.001798 0.001652 0.000000 0.024511 0.000000
# 6 0.000000 0.000000 0.000000 0.018319 0.000000 0.047303
#
#
# Mechanical properties :
#
#
# Convention : Reuss Voigt Hill
#
# Bulk Modulus (GPa) = 74.52534 80.08538 77.30536
# Shear Modulus (GPa) = 23.24353 28.17282 25.70818
#
# Velocity S-wave (km/s) = 3.53042 3.88679 3.71288
# Velocity P-wave (km/s) = 7.52205 7.94274 7.73525
#
# Compressibility (1/GPa) = 0.01341826
#
# Stress axis : x y z
#
# Youngs Moduli (GPa) = 82.43411 86.80090 50.89581
#
# Poissons Ratio (x) = 0.30500 0.32161
# Poissons Ratio (y) = 0.28965 0.25997
# Poissons Ratio (z) = 0.52091 0.44336
#
# Static dielectric constant tensor:
#      x y z
#    x 4.600730 0.000000 0.499260 
#    y 0.000000 3.123790 0.000000 
#    z 0.499260 0.000000 3.699120 
# 
# 
# High freq. dielectric constant tensor:
#      x y z
#    x 1.742490 0.000000 -0.013540 
#    y 0.000000 1.712580 0.000000 
#    z -0.013540 0.000000 1.719470 
# 
# From -- ./inp_files/34043.got.cif
#   From: 2010.06.25/outbox.cif.g09.slc.cpg/sg15_18_cif.got.tgz:34043.got - 2010.06.28 07:06:18.
