data_PCOD8142277
_publ_section_title
;
Structure prediction by ZEFSAII (Michael W. Deem and Ramdas Pophale) SiO2 
 PCOD8142277
Probable space group: C 2/C
;
_chemical_formula_sum "Si O2"
_cell_formula_units_Z 40
_cell_length_a 17.354450
_cell_length_b 9.470375
_cell_length_c 24.010113
_cell_angle_alpha 90.000000
_cell_angle_beta 26.645704
_cell_angle_gamma 90.000000
_cell_volume 1769.733047
_symmetry_space_group_name_H-M "C 2/C"
_symmetry_group_IT_number 15
_symmetry_cell_setting 'monoclinic'
loop_
_space_group_symop_operation_xyz
x,y,z
-x,y,1/2-z
-x,-y,-z
x,-y,1/2+z
1/2+x,1/2+y,z
1/2-x,1/2+y,1/2-z
1/2-x,1/2-y,-z
1/2+x,1/2-y,1/2+z
loop_
_atom_site_type_symbol
_atom_site_label
_atom_site_fract_x
_atom_site_fract_y
_atom_site_fract_z
Si Si1 0.406579 0.611119 0.411753
Si Si2 0.725976 0.548437 0.668247
Si Si3 0.000000 0.236037 0.750000
Si Si4 0.482765 0.863174 0.444742
Si Si5 0.465375 0.988277 0.849227
Si Si6 0.500000 0.212624 0.750000
O O1 0.557384 0.496110 0.311680
O O2 0.451614 0.718728 0.432350
O O3 0.229160 0.535975 0.539401
O O4 0.382869 0.688868 0.366219
O O5 0.667046 0.637249 0.651643
O O6 0.821382 0.403675 0.588463
O O7 0.846466 0.647936 0.628189
O O8 0.015738 0.328542 0.683725
O O9 0.508677 0.997235 0.386256
O O10 0.590435 0.099452 0.734567
#
# Coordination Sequence:
#
# PCOD8142277 Si02
#       6
#     8   8   4   8   8   4
#     4  11  20  38  66  89 118 163 213 253 302 370
#     4  11  24  40  61  91 128 163 201 261 309 364
#     4  11  25  42  62  94 131 163 206 252 314 371
#     4  10  23  41  62  91 125 163 208 255 310 362
#     4  10  21  38  65  90 121 165 208 253 308 368
#     4   9  17  34  62  90 115 151 208 256 292 359
#
# _framework density 22.60228
#
# number of rings (size 3 to 8) (size 9 to 14) (size 15 to 20)
#    0.000    1.600    0.000    6.600    2.800    3.200 
#    3.600    1.000    0.000    0.000    0.000    0.000 
#    0.000    0.000    0.000    0.000    0.000    0.000 
#
# Total GULP energy -247790.054457 kJ/mol
# GULP energy per Si atom -12389.502723 kJ/mol
# Density = 2.255084 g / cm^3
# Si number density = 22.602280 Si / 1000 Ang^3
#
#
#
# Elastic Constant Matrix: (Units=GPa)
#
#
# Indices 1 2 3 4 5 6 
#
# 1 115.7619 16.2943 23.4688 -0.0009 -17.5937 0.0006
# 2 16.2943 79.5051 17.6751 0.0000 -13.0631 -0.0002
# 3 23.4688 17.6751 69.9230 0.0012 -5.1265 -0.0013
# 4 -0.0009 0.0000 0.0012 27.0335 0.0019 8.0201
# 5 -17.5937 -13.0631 -5.1265 0.0019 32.7937 -0.0009
# 6 0.0006 -0.0002 -0.0013 8.0201 -0.0009 26.3885
#
#
#
# Elastic Compliance Matrix: (Units=1/GPa)
#
#
# Indices 1 2 3 4 5 6 
#
# 1 0.010019 -0.000651 -0.002856 0.000000 0.004669 0.000000
# 2 -0.000651 0.014173 -0.003010 0.000000 0.004826 0.000000
# 3 -0.002856 -0.003010 0.016004 -0.000001 -0.000229 0.000001
# 4 0.000000 0.000000 -0.000001 0.040657 -0.000003 -0.012357
# 5 0.004669 0.004826 -0.000229 -0.000003 0.034885 0.000002
# 6 0.000000 0.000000 0.000001 -0.012357 0.000002 0.041651
#
#
# Mechanical properties :
#
#
# Convention : Reuss Voigt Hill
#
# Bulk Modulus (GPa) = 36.81675 42.22961 39.52318
# Shear Modulus (GPa) = 27.85864 31.09326 29.47595
#
# Velocity S-wave (km/s) = 3.51459 3.71303 3.61517
# Velocity P-wave (km/s) = 5.72661 6.09150 5.91187
#
# Compressibility (1/GPa) = 0.02716155
#
# Stress axis : x y z
#
# Youngs Moduli (GPa) = 99.81381 70.55448 62.48411
#
# Poissons Ratio (x) = 0.04595 0.17843
# Poissons Ratio (y) = 0.06501 0.18810
# Poissons Ratio (z) = 0.28504 0.21239
#
# Static dielectric constant tensor:
#      x y z
#    x 4.059410 0.000000 0.206670 
#    y 0.000000 4.056870 0.000000 
#    z 0.206670 0.000000 4.185600 
# 
# 
# High freq. dielectric constant tensor:
#      x y z
#    x 1.880540 0.000000 0.015190 
#    y 0.000000 1.887370 0.000000 
#    z 0.015190 0.000000 1.887330 
# 
# From -- ./inp_files/102873.got.cif
#   From: 2010.06.25/outbox.cif.g09.slc.cpg/sg15_52_cif.got.tgz:102873.got - 2010.06.28 07:06:18.
