data_PCOD8142012
_publ_section_title
;
Structure prediction by ZEFSAII (Michael W. Deem and Ramdas Pophale) SiO2 
 PCOD8142012
Probable space group: C 2/C
;
_chemical_formula_sum "Si O2"
_cell_formula_units_Z 56
_cell_length_a 18.319268
_cell_length_b 21.347204
_cell_length_c 16.175861
_cell_angle_alpha 90.000000
_cell_angle_beta 23.969254
_cell_angle_gamma 90.000000
_cell_volume 2569.839524
_symmetry_space_group_name_H-M "C 2/C"
_symmetry_group_IT_number 15
_symmetry_cell_setting 'monoclinic'
loop_
_space_group_symop_operation_xyz
x,y,z
-x,y,1/2-z
-x,-y,-z
x,-y,1/2+z
1/2+x,1/2+y,z
1/2-x,1/2+y,1/2-z
1/2-x,1/2-y,-z
1/2+x,1/2-y,1/2+z
loop_
_atom_site_type_symbol
_atom_site_label
_atom_site_fract_x
_atom_site_fract_y
_atom_site_fract_z
Si Si1 0.710817 0.676356 0.030029
Si Si2 0.348140 0.688855 0.745509
Si Si3 0.267156 0.827693 0.806205
Si Si4 0.722131 0.621630 0.185453
Si Si5 0.183804 0.873922 0.386667
Si Si6 0.562768 0.106024 0.097600
Si Si7 0.309081 0.012662 0.660883
O O1 0.500000 0.664153 0.250000
O O2 0.805200 0.637201 0.008565
O O3 0.750000 0.750000 0.000000
O O4 0.788728 0.647600 0.862247
O O5 0.348577 0.762920 0.753224
O O6 0.552715 0.663964 0.545030
O O7 0.254311 0.667710 0.755889
O O8 0.207225 0.662891 0.959707
O O9 0.314121 0.835109 0.660218
O O10 0.378850 0.880233 0.738470
O O11 0.519575 0.643749 0.386858
O O12 0.717427 0.551017 0.225350
O O13 0.206035 0.947750 0.339513
O O14 0.500000 0.080746 0.250000
O O15 0.677666 0.052115 0.936073
O O16 0.500000 0.000000 0.500000
#
# Coordination Sequence:
#
# PCOD8142012 Si02
#       7
#     8   8   8   8   8   8   8
#     4  10  21  38  60  97 129 158 200 259 316 370
#     4  10  21  38  64  90 122 165 197 249 316 371
#     4  11  20  39  63  90 122 162 203 248 310 374
#     4  10  21  38  63  87 123 165 206 249 308 372
#     4   9  21  38  60  89 124 160 205 250 310 373
#     4  11  25  42  60  90 123 154 207 261 304 365
#     4  11  22  40  63  84 116 161 210 249 304 370
#
# _framework density 21.791243999999999
#
# number of rings (size 3 to 8) (size 9 to 14) (size 15 to 20)
#    0.000    1.714    2.857    1.286    0.000    3.429 
#    0.000    0.000    0.000    0.000    0.000    0.000 
#    0.000    0.000    0.000    0.000    0.000    0.000 
#
# Total GULP energy -346925.605788 kJ/mol
# GULP energy per Si atom -12390.200207 kJ/mol
# Density = 2.174165 g / cm^3
# Si number density = 21.791244 Si / 1000 Ang^3
#
#
#
# Elastic Constant Matrix: (Units=GPa)
#
#
# Indices 1 2 3 4 5 6 
#
# 1 79.2579 5.8076 22.3102 0.1588 4.9622 -0.0153
# 2 5.8076 83.3566 -2.1418 0.3372 11.9624 -0.1368
# 3 22.3102 -2.1418 54.2596 0.2290 6.6213 -0.0900
# 4 0.1588 0.3372 0.2290 27.9285 -0.0449 -0.9183
# 5 4.9622 11.9624 6.6213 -0.0449 36.3575 -0.0012
# 6 -0.0153 -0.1368 -0.0900 -0.9183 -0.0012 33.4564
#
#
#
# Elastic Compliance Matrix: (Units=1/GPa)
#
#
# Indices 1 2 3 4 5 6 
#
# 1 0.014388 -0.001077 -0.005893 -0.000022 -0.000536 -0.000014
# 2 -0.001077 0.012729 0.001472 -0.000165 -0.004309 0.000051
# 3 -0.005893 0.001472 0.021347 -0.000163 -0.003568 0.000056
# 4 -0.000022 -0.000165 -0.000163 0.035842 0.000131 0.000983
# 5 -0.000536 -0.004309 -0.003568 0.000131 0.029646 -0.000023
# 6 -0.000014 0.000051 0.000056 0.000983 -0.000023 0.029917
#
#
# Mechanical properties :
#
#
# Convention : Reuss Voigt Hill
#
# Bulk Modulus (GPa) = 26.68940 29.86957 28.27949
# Shear Modulus (GPa) = 29.87671 32.27500 31.07586
#
# Velocity S-wave (km/s) = 3.70678 3.85268 3.78043
# Velocity P-wave (km/s) = 5.53124 5.79032 5.66226
#
# Compressibility (1/GPa) = 0.03746806
#
# Stress axis : x y z
#
# Youngs Moduli (GPa) = 69.50029 78.56279 46.84430
#
# Poissons Ratio (x) = 0.08460 0.27606
# Poissons Ratio (y) = 0.07484 -0.06895
# Poissons Ratio (z) = 0.40958 -0.11563
#
# Static dielectric constant tensor:
#      x y z
#    x 4.209290 0.002340 0.285590 
#    y 0.002340 3.782170 0.005290 
#    z 0.285590 0.005290 3.980410 
# 
# 
# High freq. dielectric constant tensor:
#      x y z
#    x 1.857340 -0.000020 -0.001900 
#    y -0.000020 1.847320 0.000030 
#    z -0.001900 0.000030 1.851960 
# 
# From -- ./inp_files/163764.got.cif
#   From: 2010.06.25/outbox.cif.g09.slc.cpg/sg15_82_cif.got.tgz:163764.got - 2010.06.28 07:06:18.
