data_PCOD8142940
_publ_section_title
;
Structure prediction by ZEFSAII (Michael W. Deem and Ramdas Pophale) SiO2 
 PCOD8142940
Probable space group: C 2/C
;
_chemical_formula_sum "Si O2"
_cell_formula_units_Z 56
_cell_length_a 12.213488
_cell_length_b 15.328504
_cell_length_c 15.892697
_cell_angle_alpha 90.000000
_cell_angle_beta 121.408471
_cell_angle_gamma 90.000000
_cell_volume 2539.377443
_symmetry_space_group_name_H-M "C 2/C"
_symmetry_group_IT_number 15
_symmetry_cell_setting 'monoclinic'
loop_
_space_group_symop_operation_xyz
x,y,z
-x,y,1/2-z
-x,-y,-z
x,-y,1/2+z
1/2+x,1/2+y,z
1/2-x,1/2+y,1/2-z
1/2-x,1/2-y,-z
1/2+x,1/2-y,1/2+z
loop_
_atom_site_type_symbol
_atom_site_label
_atom_site_fract_x
_atom_site_fract_y
_atom_site_fract_z
Si Si1 0.261586 0.174802 0.186201
Si Si2 0.887477 0.766679 0.093342
Si Si3 0.950469 0.610675 0.392671
Si Si4 0.044121 0.901460 0.501881
Si Si5 0.106376 0.294898 0.230621
Si Si6 0.929779 0.434651 0.076264
Si Si7 0.286079 0.674425 0.948110
O O1 0.370149 0.238453 0.185063
O O2 0.324431 0.116419 0.284122
O O3 0.187935 0.108134 0.095540
O O4 0.142141 0.232128 0.169426
O O5 0.982583 0.703407 0.081980
O O6 0.750000 0.750000 0.000000
O O7 0.940135 0.864731 0.089741
O O8 0.912947 0.586940 0.471725
O O9 0.045032 0.536120 0.395348
O O10 0.937533 0.842722 0.507614
O O11 0.000000 0.000000 0.500000
O O12 0.239689 0.304486 0.334908
O O13 0.000000 0.252480 0.250000
O O14 0.046954 0.382940 0.167248
O O15 0.792360 0.412895 0.060352
O O16 0.250000 0.750000 0.000000
#
# Coordination Sequence:
#
# PCOD8142940 Si02
#       7
#     8   8   8   8   8   8   8
#     4  11  23  40  68  93 133 180 225 272 346 413
#     4  10  22  40  65  92 132 171 219 267 340 413
#     4  11  23  41  65  95 133 175 227 277 343 403
#     4  11  25  41  65  99 136 174 219 278 339 406
#     4  10  21  39  68  95 129 168 223 280 337 412
#     4  10  23  39  65  98 127 169 229 292 330 406
#     4  11  22  40  68  94 130 172 222 272 348 403
#
# _framework density 22.052648999999999
#
# number of rings (size 3 to 8) (size 9 to 14) (size 15 to 20)
#    0.000    1.429    0.000    6.429    6.000    2.286 
#    0.000    0.000    0.000    0.000    0.000    0.000 
#    0.000    0.000    0.000    0.000    0.000    0.000 
#
# Total GULP energy -346874.784437 kJ/mol
# GULP energy per Si atom -12388.385158 kJ/mol
# Density = 2.200246 g / cm^3
# Si number density = 22.052649 Si / 1000 Ang^3
#
#
#
# Elastic Constant Matrix: (Units=GPa)
#
#
# Indices 1 2 3 4 5 6 
#
# 1 90.6176 46.0383 24.0407 0.0000 1.9981 0.0000
# 2 46.0383 112.6095 29.8769 0.0000 -11.2174 0.0000
# 3 24.0407 29.8769 112.5660 0.0000 5.6925 0.0000
# 4 0.0000 0.0000 0.0000 25.8576 0.0000 -1.7355
# 5 1.9981 -11.2174 5.6925 0.0000 33.6700 0.0000
# 6 0.0000 0.0000 0.0000 -1.7355 0.0000 37.3790
#
#
#
# Elastic Compliance Matrix: (Units=1/GPa)
#
#
# Indices 1 2 3 4 5 6 
#
# 1 0.014394 -0.005761 -0.001417 0.000000 -0.002534 0.000000
# 2 -0.005761 0.012323 -0.002285 0.000000 0.004834 0.000000
# 3 -0.001417 -0.002285 0.009912 0.000000 -0.002353 0.000000
# 4 0.000000 0.000000 0.000000 0.038794 0.000000 0.001801
# 5 -0.002534 0.004834 -0.002353 0.000000 0.031859 0.000000
# 6 0.000000 0.000000 0.000000 0.001801 0.000000 0.026837
#
#
# Mechanical properties :
#
#
# Convention : Reuss Voigt Hill
#
# Bulk Modulus (GPa) = 56.48689 57.30056 56.89373
# Shear Modulus (GPa) = 31.45729 33.77049 32.61389
#
# Velocity S-wave (km/s) = 3.78095 3.91750 3.84983
# Velocity P-wave (km/s) = 6.68812 6.81926 6.75401
#
# Compressibility (1/GPa) = 0.01770322
#
# Stress axis : x y z
#
# Youngs Moduli (GPa) = 69.47247 81.14671 100.89095
#
# Poissons Ratio (x) = 0.46751 0.14295
# Poissons Ratio (y) = 0.40025 0.23052
# Poissons Ratio (z) = 0.09843 0.18541
#
# Static dielectric constant tensor:
#      x y z
#    x 3.964240 0.000000 -0.191740 
#    y 0.000000 4.046420 0.000000 
#    z -0.191740 0.000000 4.190700 
# 
# 
# High freq. dielectric constant tensor:
#      x y z
#    x 1.880070 0.000000 0.004590 
#    y 0.000000 1.849780 0.000000 
#    z 0.004590 0.000000 1.873520 
# 
# From -- ./inp_files/198444.got.cif
#   From: 2010.06.25/outbox.cif.g09.slc.cpg/sg15_100_cif.got.tgz:198444.got - 2010.06.28 07:06:18.
