data_PCOD8142376
_publ_section_title
;
Structure prediction by ZEFSAII (Michael W. Deem and Ramdas Pophale) SiO2 
 PCOD8142376
Probable space group: C 2/C
;
_chemical_formula_sum "Si O2"
_cell_formula_units_Z 48
_cell_length_a 12.472028
_cell_length_b 15.050373
_cell_length_c 12.093087
_cell_angle_alpha 90.000000
_cell_angle_beta 81.489603
_cell_angle_gamma 90.000000
_cell_volume 2244.982656
_symmetry_space_group_name_H-M "C 2/C"
_symmetry_group_IT_number 15
_symmetry_cell_setting 'monoclinic'
loop_
_space_group_symop_operation_xyz
x,y,z
-x,y,1/2-z
-x,-y,-z
x,-y,1/2+z
1/2+x,1/2+y,z
1/2-x,1/2+y,1/2-z
1/2-x,1/2-y,-z
1/2+x,1/2-y,1/2+z
loop_
_atom_site_type_symbol
_atom_site_label
_atom_site_fract_x
_atom_site_fract_y
_atom_site_fract_z
Si Si1 0.765956 0.333636 0.802108
Si Si2 0.891222 0.312618 0.110025
Si Si3 0.000000 0.737612 0.250000
Si Si4 0.500000 0.940017 0.250000
Si Si5 0.253318 0.125243 0.062083
Si Si6 0.849429 0.541549 0.442595
Si Si7 0.925040 0.221375 0.527520
O O1 0.720686 0.240263 0.854703
O O2 0.712842 0.359434 0.693414
O O3 0.750354 0.419429 0.883410
O O4 0.896471 0.325550 0.779523
O O5 0.908975 0.374901 0.213484
O O6 0.895770 0.373782 0.000969
O O7 0.980536 0.235477 0.077306
O O8 0.974720 0.795965 0.143001
O O9 0.445315 0.998187 0.354838
O O10 0.352143 0.191096 0.025552
O O11 0.151380 0.139002 0.995247
O O12 0.298568 0.026638 0.037540
#
# Coordination Sequence:
#
# PCOD8142376 Si02
#       7
#     8   8   4   4   8   8   8
#     4  11  24  42  66  98 133 178 219 271 335 398
#     4  12  24  41  68  96 130 175 224 270 332 399
#     4  10  21  38  68  91 126 172 222 261 324 398
#     4  12  25  38  66 101 130 170 220 279 336 384
#     4  10  23  43  63  95 138 170 216 270 332 393
#     4  12  24  40  64 103 133 168 218 288 327 382
#     4  10  21  41  65  94 128 177 213 268 328 398
#
# _framework density 21.381011000000001
#
# number of rings (size 3 to 8) (size 9 to 14) (size 15 to 20)
#    0.000    1.000    3.333    3.500    7.000    0.000 
#    0.000    0.833    0.000    1.000    0.000    0.000 
#    0.000    0.000    0.000    0.000    0.000    0.000 
#
# Total GULP energy -297503.095725 kJ/mol
# GULP energy per Si atom -12395.962322 kJ/mol
# Density = 2.133235 g / cm^3
# Si number density = 21.381011 Si / 1000 Ang^3
#
#
#
# Elastic Constant Matrix: (Units=GPa)
#
#
# Indices 1 2 3 4 5 6 
#
# 1 85.5664 44.3058 41.9772 0.0000 10.2526 0.0000
# 2 44.3058 92.6676 36.5717 0.0000 -7.4736 0.0000
# 3 41.9772 36.5717 110.4328 0.0000 10.5295 0.0000
# 4 0.0000 0.0000 0.0000 33.4642 0.0000 4.3315
# 5 10.2526 -7.4736 10.5295 0.0000 37.9347 0.0000
# 6 0.0000 0.0000 0.0000 4.3315 0.0000 24.2891
#
#
#
# Elastic Compliance Matrix: (Units=1/GPa)
#
#
# Indices 1 2 3 4 5 6 
#
# 1 0.018152 -0.007575 -0.003884 0.000000 -0.005320 0.000000
# 2 -0.007575 0.016097 -0.003029 0.000000 0.006059 0.000000
# 3 -0.003884 -0.003029 0.011804 0.000000 -0.002823 0.000000
# 4 0.000000 0.000000 0.000000 0.030589 0.000000 -0.005455
# 5 -0.005320 0.006059 -0.002823 0.000000 0.029777 0.000000
# 6 0.000000 0.000000 0.000000 -0.005455 0.000000 0.042144
#
#
# Mechanical properties :
#
#
# Convention : Reuss Voigt Hill
#
# Bulk Modulus (GPa) = 58.55904 59.37510 58.96707
# Shear Modulus (GPa) = 27.28799 30.19173 28.73986
#
# Velocity S-wave (km/s) = 3.57637 3.76184 3.67028
# Velocity P-wave (km/s) = 6.67096 6.83366 6.75280
#
# Compressibility (1/GPa) = 0.01707678
#
# Stress axis : x y z
#
# Youngs Moduli (GPa) = 55.09032 62.12273 84.71672
#
# Poissons Ratio (x) = 0.47058 0.32904
# Poissons Ratio (y) = 0.41731 0.25663
# Poissons Ratio (z) = 0.21397 0.18818
#
# Static dielectric constant tensor:
#      x y z
#    x 3.787840 0.000000 0.286180 
#    y 0.000000 3.685160 0.000000 
#    z 0.286180 0.000000 4.164210 
# 
# 
# High freq. dielectric constant tensor:
#      x y z
#    x 1.823450 0.000000 0.014480 
#    y 0.000000 1.815490 0.000000 
#    z 0.014480 0.000000 1.857070 
# 
# From -- ./inp_files/96355.got.cif
#   From: 2010.06.25/outbox.cif.g09.slc.cpg/sg15_49_cif.got.tgz:96355.got - 2010.06.28 07:06:18.
