data_PCOD8142281
_publ_section_title
;
Structure prediction by ZEFSAII (Michael W. Deem and Ramdas Pophale) SiO2 
 PCOD8142281
Probable space group: C 2/C
;
_chemical_formula_sum "Si O2"
_cell_formula_units_Z 40
_cell_length_a 19.044986
_cell_length_b 17.638935
_cell_length_c 8.406757
_cell_angle_alpha 90.000000
_cell_angle_beta 43.080167
_cell_angle_gamma 90.000000
_cell_volume 1928.925967
_symmetry_space_group_name_H-M "C 2/C"
_symmetry_group_IT_number 15
_symmetry_cell_setting 'monoclinic'
loop_
_space_group_symop_operation_xyz
x,y,z
-x,y,1/2-z
-x,-y,-z
x,-y,1/2+z
1/2+x,1/2+y,z
1/2-x,1/2+y,1/2-z
1/2-x,1/2-y,-z
1/2+x,1/2-y,1/2+z
loop_
_atom_site_type_symbol
_atom_site_label
_atom_site_fract_x
_atom_site_fract_y
_atom_site_fract_z
Si Si1 0.500000 0.486400 0.250000
Si Si2 0.114604 0.908216 0.341061
Si Si3 0.658497 0.951571 0.559302
Si Si4 0.640506 0.240369 0.266674
Si Si5 0.605563 0.905433 0.983787
Si Si6 0.000000 0.657643 0.250000
O O1 0.539940 0.431942 0.321822
O O2 0.409372 0.541341 0.463996
O O3 0.100410 0.819530 0.405030
O O4 0.230363 0.917909 0.091714
O O5 0.593516 0.944233 0.830276
O O6 0.594357 0.898903 0.539452
O O7 0.674509 0.037798 0.475579
O O8 0.655767 0.178370 0.382621
O O9 0.546919 0.210762 0.310154
O O10 0.750000 0.250000 0.000000
O O11 0.500000 0.897326 0.250000
#
# Coordination Sequence:
#
# PCOD8142281 Si02
#       6
#     4   8   8   8   8   4
#     4  10  25  42  69  88 120 174 218 270 291 392
#     4  11  22  45  65  91 125 168 219 257 324 369
#     4  11  22  40  68  93 130 168 216 261 323 385
#     4  11  23  41  62  91 130 172 202 262 321 377
#     4  11  23  38  64  96 131 166 209 263 318 378
#     4  10  21  38  65  90 126 170 210 252 323 374
#
# _framework density 20.736930000000001
#
# number of rings (size 3 to 8) (size 9 to 14) (size 15 to 20)
#    0.000    1.200    5.000    2.400    4.200    0.000 
#    0.000    0.000    0.000    8.400    0.000    0.000 
#    0.000    0.000    0.000    0.000    0.000    0.000 
#
# Total GULP energy -247793.402893 kJ/mol
# GULP energy per Si atom -12389.670145 kJ/mol
# Density = 2.068973 g / cm^3
# Si number density = 20.736930 Si / 1000 Ang^3
#
#
#
# Elastic Constant Matrix: (Units=GPa)
#
#
# Indices 1 2 3 4 5 6 
#
# 1 50.4846 36.0149 29.2162 0.0000 -11.3887 0.0000
# 2 36.0149 198.4389 45.2636 0.0000 8.1657 0.0000
# 3 29.2162 45.2636 100.2012 0.0000 0.4238 0.0000
# 4 0.0000 0.0000 0.0000 39.0750 0.0000 6.1048
# 5 -11.3887 8.1657 0.4238 0.0000 30.0743 0.0000
# 6 0.0000 0.0000 0.0000 6.1048 0.0000 20.1759
#
#
#
# Elastic Compliance Matrix: (Units=1/GPa)
#
#
# Indices 1 2 3 4 5 6 
#
# 1 0.029626 -0.004358 -0.006723 0.000000 0.012497 0.000000
# 2 -0.004358 0.006327 -0.001573 0.000000 -0.003346 0.000000
# 3 -0.006723 -0.001573 0.012660 0.000000 -0.002297 0.000000
# 4 0.000000 0.000000 0.000000 0.026862 0.000000 -0.008128
# 5 0.012497 -0.003346 -0.002297 0.000000 0.038924 0.000000
# 6 0.000000 0.000000 0.000000 -0.008128 0.000000 0.052023
#
#
# Mechanical properties :
#
#
# Convention : Reuss Voigt Hill
#
# Bulk Modulus (GPa) = 42.90669 63.34602 53.12636
# Shear Modulus (GPa) = 25.06280 33.77371 29.41825
#
# Velocity S-wave (km/s) = 3.48027 4.04006 3.77057
# Velocity P-wave (km/s) = 6.07335 7.23717 6.68065
#
# Compressibility (1/GPa) = 0.02330639
#
# Stress axis : x y z
#
# Youngs Moduli (GPa) = 33.75365 158.05888 78.98610
#
# Poissons Ratio (x) = 0.68878 0.53100
# Poissons Ratio (y) = 0.14709 0.12426
# Poissons Ratio (z) = 0.22691 0.24866
#
# Static dielectric constant tensor:
#      x y z
#    x 3.550230 0.000000 -0.013780 
#    y 0.000000 4.356050 0.000000 
#    z -0.013780 0.000000 3.687310 
# 
# 
# High freq. dielectric constant tensor:
#      x y z
#    x 1.789480 0.000000 -0.011150 
#    y 0.000000 1.835560 0.000000 
#    z -0.011150 0.000000 1.800980 
# 
# From -- ./inp_files/29393.got.cif
#   From: 2010.06.25/outbox.cif.g09.slc.cpg/sg15_15_cif.got.tgz:29393.got - 2010.06.28 07:06:18.
