data_PCOD8142204
_publ_section_title
;
Structure prediction by ZEFSAII (Michael W. Deem and Ramdas Pophale) SiO2 
 PCOD8142204
Probable space group: C 2/C
;
_chemical_formula_sum "Si O2"
_cell_formula_units_Z 56
_cell_length_a 10.475815
_cell_length_b 17.442853
_cell_length_c 15.972635
_cell_angle_alpha 90.000000
_cell_angle_beta 111.495594
_cell_angle_gamma 90.000000
_cell_volume 2715.644799
_symmetry_space_group_name_H-M "C 2/C"
_symmetry_group_IT_number 15
_symmetry_cell_setting 'monoclinic'
loop_
_space_group_symop_operation_xyz
x,y,z
-x,y,1/2-z
-x,-y,-z
x,-y,1/2+z
1/2+x,1/2+y,z
1/2-x,1/2+y,1/2-z
1/2-x,1/2-y,-z
1/2+x,1/2-y,1/2+z
loop_
_atom_site_type_symbol
_atom_site_label
_atom_site_fract_x
_atom_site_fract_y
_atom_site_fract_z
Si Si1 0.781357 0.990025 0.809607
Si Si2 0.665354 0.303979 0.374940
Si Si3 0.500000 0.411251 0.750000
Si Si4 0.162378 0.331426 0.400157
Si Si5 0.586073 0.327914 0.934336
Si Si6 0.000000 0.555216 0.750000
Si Si7 0.142819 0.843247 0.188055
Si Si8 0.302759 0.353777 0.940038
O O1 0.872531 0.959174 0.755316
O O2 0.766360 0.933764 0.886284
O O3 0.624317 0.004404 0.742798
O O4 0.854262 0.070686 0.851305
O O5 0.698280 0.348337 0.296891
O O6 0.501901 0.300833 0.349809
O O7 0.732227 0.351147 0.468784
O O8 0.721425 0.217328 0.378978
O O9 0.563016 0.360835 0.837633
O O10 0.273063 0.362840 0.494579
O O11 0.081413 0.263780 0.425499
O O12 0.248662 0.295909 0.342014
O O13 0.056549 0.395284 0.342087
O O14 0.465892 0.345934 0.970413
#
# Coordination Sequence:
#
# PCOD8142204 Si02
#       8
#     8   8   4   8   8   4   8   8
#     4  10  23  42  62  91 131 168 221 267 335 400
#     4  10  21  38  63  97 127 168 220 271 334 394
#     4  10  21  40  62  91 124 164 214 266 324 395
#     4  10  21  39  62  89 125 160 219 262 325 398
#     4  10  21  38  63  94 119 168 209 275 324 389
#     4  10  23  42  62  89 126 180 208 268 334 393
#     4  10  21  39  61  91 122 175 212 263 329 408
#     4  10  22  40  62  98 131 165 219 282 336 393
#
# _framework density 20.621255000000001
#
# number of rings (size 3 to 8) (size 9 to 14) (size 15 to 20)
#    0.000    2.000    1.429    1.286    8.000    1.714 
#    7.714    0.714    0.000    0.000    0.000    0.000 
#    0.000    0.000    0.000    0.000    0.000    0.000 
#
# Total GULP energy -346949.296317 kJ/mol
# GULP energy per Si atom -12391.046297 kJ/mol
# Density = 2.057432 g / cm^3
# Si number density = 20.621255 Si / 1000 Ang^3
#
#
#
# Elastic Constant Matrix: (Units=GPa)
#
#
# Indices 1 2 3 4 5 6 
#
# 1 90.2706 29.4481 29.9818 0.0000 25.1981 0.0000
# 2 29.4481 95.0917 47.0327 0.0000 16.9130 0.0000
# 3 29.9818 47.0327 138.9494 0.0000 5.4010 0.0000
# 4 0.0000 0.0000 0.0000 22.4051 0.0000 4.3389
# 5 25.1981 16.9130 5.4010 0.0000 34.7609 0.0000
# 6 0.0000 0.0000 0.0000 4.3389 0.0000 36.7608
#
#
#
# Elastic Compliance Matrix: (Units=1/GPa)
#
#
# Indices 1 2 3 4 5 6 
#
# 1 0.015148 -0.001838 -0.002268 0.000000 -0.009734 0.000000
# 2 -0.001838 0.014000 -0.004154 0.000000 -0.004834 0.000000
# 3 -0.002268 -0.004154 0.009004 0.000000 0.002266 0.000000
# 4 0.000000 0.000000 0.000000 0.045677 0.000000 -0.005391
# 5 -0.009734 -0.004834 0.002266 0.000000 0.037824 0.000000
# 6 0.000000 0.000000 0.000000 -0.005391 0.000000 0.027839
#
#
# Mechanical properties :
#
#
# Convention : Reuss Voigt Hill
#
# Bulk Modulus (GPa) = 46.22906 59.69298 52.96102
# Shear Modulus (GPa) = 28.86460 33.30865 31.08662
#
# Velocity S-wave (km/s) = 3.74538 4.02339 3.88687
# Velocity P-wave (km/s) = 6.41644 7.11292 6.77364
#
# Compressibility (1/GPa) = 0.02163142
#
# Stress axis : x y z
#
# Youngs Moduli (GPa) = 66.01624 71.42957 111.05773
#
# Poissons Ratio (x) = 0.13128 0.25188
# Poissons Ratio (y) = 0.12133 0.46137
# Poissons Ratio (z) = 0.14973 0.29674
#
# Static dielectric constant tensor:
#      x y z
#    x 3.976550 0.000000 -0.139850 
#    y 0.000000 3.627950 0.000000 
#    z -0.139850 0.000000 3.975420 
# 
# 
# High freq. dielectric constant tensor:
#      x y z
#    x 1.812380 0.000000 -0.001380 
#    y 0.000000 1.786430 0.000000 
#    z -0.001380 0.000000 1.813990 
# 
# From -- ./inp_files/145769.got.cif
#   From: 2010.06.25/outbox.cif.g09.slc.cpg/sg15_73_cif.got.tgz:145769.got - 2010.06.28 07:06:18.
