data_PCOD8142783
_publ_section_title
;
Structure prediction by ZEFSAII (Michael W. Deem and Ramdas Pophale) SiO2 
 PCOD8142783
Probable space group: C 2/C
;
_chemical_formula_sum "Si O2"
_cell_formula_units_Z 52
_cell_length_a 16.817862
_cell_length_b 14.294921
_cell_length_c 12.010159
_cell_angle_alpha 90.000000
_cell_angle_beta 65.362894
_cell_angle_gamma 90.000000
_cell_volume 2624.515219
_symmetry_space_group_name_H-M "C 2/C"
_symmetry_group_IT_number 15
_symmetry_cell_setting 'monoclinic'
loop_
_space_group_symop_operation_xyz
x,y,z
-x,y,1/2-z
-x,-y,-z
x,-y,1/2+z
1/2+x,1/2+y,z
1/2-x,1/2+y,1/2-z
1/2-x,1/2-y,-z
1/2+x,1/2-y,1/2+z
loop_
_atom_site_type_symbol
_atom_site_label
_atom_site_fract_x
_atom_site_fract_y
_atom_site_fract_z
Si Si1 0.000000 0.607269 0.750000
Si Si2 0.201512 0.677267 0.951615
Si Si3 0.708090 0.571097 0.794409
Si Si4 0.828568 0.480731 0.422499
Si Si5 0.087448 0.761700 0.840419
Si Si6 0.552134 0.417555 0.530183
Si Si7 0.823895 0.088422 0.344898
O O1 0.069252 0.545997 0.639108
O O2 0.053796 0.667412 0.805945
O O3 0.262936 0.643921 0.815453
O O4 0.122546 0.734388 0.941595
O O5 0.250000 0.750000 0.000000
O O6 0.172711 0.589737 0.043487
O O7 0.788504 0.538041 0.824348
O O8 0.667799 0.477471 0.766431
O O9 0.630084 0.621052 0.906822
O O10 0.773006 0.419213 0.544273
O O11 0.158506 0.806975 0.712867
O O12 0.008894 0.832447 0.903372
O O13 0.500000 0.500000 0.500000
O O14 0.601060 0.449616 0.614789
#
# Coordination Sequence:
#
# PCOD8142783 Si02
#       7
#     4   8   8   8   8   8   8
#     4  12  24  44  66  90 136 170 224 266 320 394
#     4  11  25  45  67  94 127 171 221 268 322 390
#     4  10  21  41  65  93 129 170 207 264 331 381
#     4  10  24  45  66  91 128 180 217 263 333 385
#     4  12  23  41  65 101 131 165 222 273 315 395
#     4  11  22  36  64  99 131 165 208 270 332 378
#     4  10  21  39  65  92 127 170 212 264 328 382
#
# _framework density 19.813182000000001
#
# number of rings (size 3 to 8) (size 9 to 14) (size 15 to 20)
#    0.000    1.231    4.615    0.923    4.308    2.462 
#    2.769    0.000    0.000    0.000    0.000    0.000 
#    0.000    0.000    0.000    0.000    0.000    0.000 
#
# Total GULP energy -322357.079984 kJ/mol
# GULP energy per Si atom -12398.349230 kJ/mol
# Density = 1.976809 g / cm^3
# Si number density = 19.813182 Si / 1000 Ang^3
#
#
#
# Elastic Constant Matrix: (Units=GPa)
#
#
# Indices 1 2 3 4 5 6 
#
# 1 93.7432 39.1528 51.1287 0.0000 -4.4079 0.0000
# 2 39.1528 97.3476 55.2602 0.0000 -10.1996 0.0000
# 3 51.1287 55.2602 106.1189 0.0000 -6.3665 0.0000
# 4 0.0000 0.0000 0.0000 39.0260 0.0000 6.8123
# 5 -4.4079 -10.1996 -6.3665 0.0000 44.1081 0.0000
# 6 0.0000 0.0000 0.0000 6.8123 0.0000 36.3213
#
#
#
# Elastic Compliance Matrix: (Units=1/GPa)
#
#
# Indices 1 2 3 4 5 6 
#
# 1 0.014966 -0.002731 -0.005786 0.000000 0.000029 0.000000
# 2 -0.002731 0.015316 -0.006520 0.000000 0.002328 0.000000
# 3 -0.005786 -0.006520 0.015617 0.000000 0.000168 0.000000
# 4 0.000000 0.000000 0.000000 0.026491 0.000000 -0.004969
# 5 0.000029 0.002328 0.000168 0.000000 0.023237 0.000000
# 6 0.000000 0.000000 0.000000 -0.004969 0.000000 0.028464
#
#
# Mechanical properties :
#
#
# Convention : Reuss Voigt Hill
#
# Bulk Modulus (GPa) = 63.20070 65.36588 64.28329
# Shear Modulus (GPa) = 31.35970 34.00228 32.68099
#
# Velocity S-wave (km/s) = 3.98272 4.14713 4.06576
# Velocity P-wave (km/s) = 7.28814 7.48294 7.38618
#
# Compressibility (1/GPa) = 0.01582261
#
# Stress axis : x y z
#
# Youngs Moduli (GPa) = 66.82009 65.29106 64.03423
#
# Poissons Ratio (x) = 0.17833 0.37053
# Poissons Ratio (y) = 0.18251 0.41750
# Poissons Ratio (z) = 0.38665 0.42570
#
# Static dielectric constant tensor:
#      x y z
#    x 3.717430 0.000000 0.139690 
#    y 0.000000 3.648040 0.000000 
#    z 0.139690 0.000000 3.636260 
# 
# 
# High freq. dielectric constant tensor:
#      x y z
#    x 1.781100 0.000000 0.005610 
#    y 0.000000 1.764020 0.000000 
#    z 0.005610 0.000000 1.782870 
# 
# From -- ./inp_files/96941.got.cif
#   From: 2010.06.25/outbox.cif.g09.slc.cpg/sg15_49_cif.got.tgz:96941.got - 2010.06.28 07:06:18.
