data_PCOD8142366
_publ_section_title
;
Structure prediction by ZEFSAII (Michael W. Deem and Ramdas Pophale) SiO2 
 PCOD8142366
Probable space group: C 2/C
;
_chemical_formula_sum "Si O2"
_cell_formula_units_Z 32
_cell_length_a 4.952785
_cell_length_b 17.333786
_cell_length_c 17.333186
_cell_angle_alpha 90.000000
_cell_angle_beta 86.558585
_cell_angle_gamma 90.000000
_cell_volume 1485.379524
_symmetry_space_group_name_H-M "C 2/C"
_symmetry_group_IT_number 15
_symmetry_cell_setting 'monoclinic'
loop_
_space_group_symop_operation_xyz
x,y,z
-x,y,1/2-z
-x,-y,-z
x,-y,1/2+z
1/2+x,1/2+y,z
1/2-x,1/2+y,1/2-z
1/2-x,1/2-y,-z
1/2+x,1/2-y,1/2+z
loop_
_atom_site_type_symbol
_atom_site_label
_atom_site_fract_x
_atom_site_fract_y
_atom_site_fract_z
Si Si1 0.972000 0.178999 0.567569
Si Si2 0.227766 0.091543 0.300745
Si Si3 0.956383 0.230972 0.101276
Si Si4 0.755973 0.516028 0.945660
O O1 0.770233 0.246197 0.598636
O O2 0.797954 0.102001 0.585966
O O3 0.074677 0.183535 0.477746
O O4 0.251020 0.194844 0.609965
O O5 0.500000 0.105725 0.250000
O O6 0.107922 0.173831 0.328114
O O7 0.000000 0.052220 0.250000
O O8 0.294792 0.037680 0.371605
O O9 0.500000 0.500000 0.000000
O O10 0.000000 0.500000 0.000000
#
# Coordination Sequence:
#
# PCOD8142366 Si02
#       4
#     8   8   8   8
#     4  10  21  38  67  97 122 158 227 276 314 369
#     4  12  26  44  64  96 138 179 214 272 352 409
#     4  10  21  39  64  95 125 165 215 275 320 392
#     4  12  24  42  68  99 131 176 226 280 327 399
#
# _framework density 21.543315
#
# number of rings (size 3 to 8) (size 9 to 14) (size 15 to 20)
#    0.000    1.000    2.500    4.500    7.000    0.000 
#    0.000    7.500    0.000    0.000    0.000    0.000 
#    0.000    0.000    0.000    0.000    0.000    0.000 
#
# Total GULP energy -198269.335463 kJ/mol
# GULP energy per Si atom -12391.833466 kJ/mol
# Density = 2.149428 g / cm^3
# Si number density = 21.543315 Si / 1000 Ang^3
#
#
#
# Elastic Constant Matrix: (Units=GPa)
#
#
# Indices 1 2 3 4 5 6 
#
# 1 145.0323 18.5220 57.7031 0.0000 -3.3423 0.0000
# 2 18.5220 85.7658 40.5529 0.0000 -6.0919 0.0000
# 3 57.7031 40.5529 118.0495 0.0000 -9.4544 0.0000
# 4 0.0000 0.0000 0.0000 5.4969 0.0000 6.6526
# 5 -3.3423 -6.0919 -9.4544 0.0000 45.7238 0.0000
# 6 0.0000 0.0000 0.0000 6.6526 0.0000 33.0702
#
#
#
# Elastic Compliance Matrix: (Units=1/GPa)
#
#
# Indices 1 2 3 4 5 6 
#
# 1 0.008564 0.000146 -0.004255 0.000000 -0.000234 0.000000
# 2 0.000146 0.013958 -0.004796 0.000000 0.000879 0.000000
# 3 -0.004255 -0.004796 0.012326 0.000000 0.001599 0.000000
# 4 0.000000 0.000000 0.000000 0.240464 0.000000 -0.048373
# 5 -0.000234 0.000879 0.001599 0.000000 0.022301 0.000000
# 6 0.000000 0.000000 0.000000 -0.048373 0.000000 0.039970
#
#
# Mechanical properties :
#
#
# Convention : Reuss Voigt Hill
#
# Bulk Modulus (GPa) = 58.69074 64.71150 61.70112
# Shear Modulus (GPa) = 13.84763 32.32949 23.08856
#
# Velocity S-wave (km/s) = 2.53806 3.87806 3.27728
# Velocity P-wave (km/s) = 5.99093 7.08205 6.55922
#
# Compressibility (1/GPa) = 0.01703846
#
# Stress axis : x y z
#
# Youngs Moduli (GPa) = 116.76961 71.64227 81.12682
#
# Poissons Ratio (x) = -0.01044 0.34519
# Poissons Ratio (y) = -0.01702 0.38907
# Poissons Ratio (z) = 0.49684 0.34359
#
# Static dielectric constant tensor:
#      x y z
#    x 4.021890 0.000000 0.020760 
#    y 0.000000 3.484760 0.000000 
#    z 0.020760 0.000000 3.733620 
# 
# 
# High freq. dielectric constant tensor:
#      x y z
#    x 1.873260 0.000000 -0.009670 
#    y 0.000000 1.837260 0.000000 
#    z -0.009670 0.000000 1.827120 
# 
# From -- ./inp_files/128333.got.cif
#   From: 2010.06.25/outbox.cif.g09.slc.cpg/sg15_65_cif.got.tgz:128333.got - 2010.06.28 07:06:18.
