data_PCOD8142159
_publ_section_title
;
Structure prediction by ZEFSAII (Michael W. Deem and Ramdas Pophale) SiO2 
 PCOD8142159
Probable space group: C 2/C
;
_chemical_formula_sum "Si O2"
_cell_formula_units_Z 56
_cell_length_a 16.546553
_cell_length_b 17.245604
_cell_length_c 15.222469
_cell_angle_alpha 90.000000
_cell_angle_beta 34.087678
_cell_angle_gamma 90.000000
_cell_volume 2434.536902
_symmetry_space_group_name_H-M "C 2/C"
_symmetry_group_IT_number 15
_symmetry_cell_setting 'monoclinic'
loop_
_space_group_symop_operation_xyz
x,y,z
-x,y,1/2-z
-x,-y,-z
x,-y,1/2+z
1/2+x,1/2+y,z
1/2-x,1/2+y,1/2-z
1/2-x,1/2-y,-z
1/2+x,1/2-y,1/2+z
loop_
_atom_site_type_symbol
_atom_site_label
_atom_site_fract_x
_atom_site_fract_y
_atom_site_fract_z
Si Si1 0.177537 0.788248 0.880059
Si Si2 0.101171 0.575394 0.315028
Si Si3 0.356272 0.340561 0.136212
Si Si4 0.241859 0.465562 0.525637
Si Si5 0.969328 0.919432 0.872917
Si Si6 0.122376 0.322848 0.570992
Si Si7 0.739991 0.502952 0.683772
O O1 0.263099 0.867226 0.800860
O O2 0.236208 0.726711 0.754436
O O3 0.200549 0.749378 0.955736
O O4 0.008459 0.802010 0.022437
O O5 0.121318 0.521822 0.383101
O O6 0.951689 0.622765 0.440690
O O7 0.121143 0.521105 0.210006
O O8 0.321592 0.413638 0.230508
O O9 0.363640 0.366539 0.026971
O O10 0.394931 0.497701 0.419318
O O11 0.247429 0.372386 0.506093
O O12 0.197975 0.501513 0.471156
O O13 0.000000 0.878986 0.750000
O O14 0.110858 0.939209 0.802954
O O15 0.000000 0.297348 0.750000
#
# Coordination Sequence:
#
# PCOD8142159 Si02
#       7
#     8   8   8   8   8   8   8
#     4  12  24  40  65  96 138 179 215 271 340 414
#     4  11  22  40  65  93 137 174 223 280 331 399
#     4  12  23  42  66  99 131 177 225 271 340 396
#     4  10  21  38  62  98 128 169 221 277 335 385
#     4  10  21  39  68  96 124 170 233 289 314 390
#     4  10  23  40  59  96 140 176 213 268 346 411
#     4  11  21  39  68  96 126 172 232 278 327 392
#
# _framework density 23.002320000000001
#
# number of rings (size 3 to 8) (size 9 to 14) (size 15 to 20)
#    0.000    1.143    5.714    1.286    0.000    4.000 
#    0.000    0.714    0.000    0.000    0.000    0.000 
#    0.000    0.000    0.000    0.000    0.000    0.000 
#
# Total GULP energy -346921.394124 kJ/mol
# GULP energy per Si atom -12390.049790 kJ/mol
# Density = 2.294997 g / cm^3
# Si number density = 23.002320 Si / 1000 Ang^3
#
#
#
# Elastic Constant Matrix: (Units=GPa)
#
#
# Indices 1 2 3 4 5 6 
#
# 1 76.0365 20.5603 30.4571 0.0016 16.7316 -0.0013
# 2 20.5603 51.1977 26.8290 0.0008 0.3101 -0.0005
# 3 30.4571 26.8290 101.7267 0.0020 12.5183 -0.0022
# 4 0.0016 0.0008 0.0020 27.1640 -0.0013 -0.7049
# 5 16.7316 0.3101 12.5183 -0.0013 40.5043 0.0019
# 6 -0.0013 -0.0005 -0.0022 -0.7049 0.0019 31.4866
#
#
#
# Elastic Compliance Matrix: (Units=1/GPa)
#
#
# Indices 1 2 3 4 5 6 
#
# 1 0.017116 -0.005274 -0.002982 -0.000001 -0.006108 0.000001
# 2 -0.005274 0.024408 -0.005305 0.000000 0.003631 0.000000
# 3 -0.002982 -0.005305 0.012439 -0.000001 -0.002572 0.000001
# 4 -0.000001 0.000000 -0.000001 0.036835 0.000002 0.000825
# 5 -0.006108 0.003631 -0.002572 0.000002 0.027979 -0.000002
# 6 0.000001 0.000000 0.000001 0.000825 -0.000002 0.031778
#
#
# Mechanical properties :
#
#
# Convention : Reuss Voigt Hill
#
# Bulk Modulus (GPa) = 37.25661 42.73928 39.99794
# Shear Modulus (GPa) = 26.79181 29.90528 28.34855
#
# Velocity S-wave (km/s) = 3.41654 3.60960 3.51439
# Velocity P-wave (km/s) = 5.63877 5.99942 5.82189
#
# Compressibility (1/GPa) = 0.02684088
#
# Stress axis : x y z
#
# Youngs Moduli (GPa) = 58.42394 40.96997 80.39411
#
# Poissons Ratio (x) = 0.21608 0.23974
# Poissons Ratio (y) = 0.30813 0.42650
# Poissons Ratio (z) = 0.17422 0.21735
#
# Static dielectric constant tensor:
#      x y z
#    x 4.258090 0.000000 0.212330 
#    y 0.000000 4.079670 0.000000 
#    z 0.212330 0.000000 4.437040 
# 
# 
# High freq. dielectric constant tensor:
#      x y z
#    x 1.905980 0.000000 0.006990 
#    y 0.000000 1.886160 0.000000 
#    z 0.006990 0.000000 1.923600 
# 
# From -- ./inp_files/163066.got.cif
#   From: 2010.06.25/outbox.cif.g09.slc.cpg/sg15_82_cif.got.tgz:163066.got - 2010.06.28 07:06:18.
