data_PCOD8142380
_publ_section_title
;
Structure prediction by ZEFSAII (Michael W. Deem and Ramdas Pophale) SiO2 
 PCOD8142380
Probable space group: C 2/C
;
_chemical_formula_sum "Si O2"
_cell_formula_units_Z 52
_cell_length_a 18.348946
_cell_length_b 8.962030
_cell_length_c 14.476617
_cell_angle_alpha 90.000000
_cell_angle_beta 86.750404
_cell_angle_gamma 90.000000
_cell_volume 2376.762155
_symmetry_space_group_name_H-M "C 2/C"
_symmetry_group_IT_number 15
_symmetry_cell_setting 'monoclinic'
loop_
_space_group_symop_operation_xyz
x,y,z
-x,y,1/2-z
-x,-y,-z
x,-y,1/2+z
1/2+x,1/2+y,z
1/2-x,1/2+y,1/2-z
1/2-x,1/2-y,-z
1/2+x,1/2-y,1/2+z
loop_
_atom_site_type_symbol
_atom_site_label
_atom_site_fract_x
_atom_site_fract_y
_atom_site_fract_z
Si Si1 0.614424 0.813919 0.612718
Si Si2 0.187566 0.102962 0.976852
Si Si3 0.336811 0.148467 0.893694
Si Si4 0.436937 0.605724 0.044891
Si Si5 0.500000 0.929442 0.750000
Si Si6 0.748736 0.645529 0.589601
Si Si7 0.897875 0.674619 0.690360
O O1 0.582762 0.734694 0.525114
O O2 0.550394 0.816420 0.690945
O O3 0.682089 0.720635 0.652739
O O4 0.637065 0.982164 0.583880
O O5 0.141461 0.240783 0.023865
O O6 0.228421 0.021729 0.060342
O O7 0.247985 0.152991 0.897229
O O8 0.132607 0.996034 0.928460
O O9 0.372740 0.209297 0.796881
O O10 0.447426 0.691242 0.142574
O O11 0.500000 0.500000 0.000000
O O12 0.450397 0.030917 0.685987
O O13 0.750000 0.750000 0.500000
O O14 0.824705 0.643695 0.637630
#
# Coordination Sequence:
#
# PCOD8142380 Si02
#       7
#     8   8   8   8   4   8   8
#     4  10  21  46  65  91 137 173 222 279 345 405
#     4  10  21  41  63 100 130 171 223 275 337 410
#     4  10  21  38  68  95 132 164 222 282 338 408
#     4  11  24  43  66  93 133 187 223 272 345 414
#     4  10  26  42  64 108 136 176 222 288 348 414
#     4  11  19  42  71  90 129 181 219 281 340 407
#     4  11  23  42  69  96 134 178 224 286 345 409
#
# _framework density 21.878502999999998
#
# number of rings (size 3 to 8) (size 9 to 14) (size 15 to 20)
#    0.000    1.538    4.615    0.000    4.308    4.308 
#   13.846    0.000    0.000    0.000    0.000    0.000 
#    0.000    0.000    0.000    0.000    0.000    0.000 
#
# Total GULP energy -322158.264521 kJ/mol
# GULP energy per Si atom -12390.702482 kJ/mol
# Density = 2.182871 g / cm^3
# Si number density = 21.878503 Si / 1000 Ang^3
#
#
#
# Elastic Constant Matrix: (Units=GPa)
#
#
# Indices 1 2 3 4 5 6 
#
# 1 112.4250 31.2266 49.7967 0.0000 -16.7754 0.0000
# 2 31.2266 89.6732 35.6736 0.0000 -10.4672 0.0000
# 3 49.7967 35.6736 73.3239 0.0000 -23.9263 0.0000
# 4 0.0000 0.0000 0.0000 28.8307 0.0000 -19.4228
# 5 -16.7754 -10.4672 -23.9263 0.0000 42.7884 0.0000
# 6 0.0000 0.0000 0.0000 -19.4228 0.0000 34.3280
#
#
#
# Elastic Compliance Matrix: (Units=1/GPa)
#
#
# Indices 1 2 3 4 5 6 
#
# 1 0.012834 -0.001246 -0.008033 0.000000 0.000235 0.000000
# 2 -0.001246 0.013956 -0.006103 0.000000 -0.000487 0.000000
# 3 -0.008033 -0.006103 0.025134 0.000000 0.009412 0.000000
# 4 0.000000 0.000000 0.000000 0.056050 0.000000 0.031713
# 5 0.000235 -0.000487 0.009412 0.000000 0.028607 0.000000
# 6 0.000000 0.000000 0.000000 0.031713 0.000000 0.047074
#
#
# Mechanical properties :
#
#
# Convention : Reuss Voigt Hill
#
# Bulk Modulus (GPa) = 47.25748 56.53507 51.89628
# Shear Modulus (GPa) = 22.57611 31.77109 27.17360
#
# Velocity S-wave (km/s) = 3.21578 3.81486 3.52806
# Velocity P-wave (km/s) = 5.95275 6.73058 6.35358
#
# Compressibility (1/GPa) = 0.02116067
#
# Stress axis : x y z
#
# Youngs Moduli (GPa) = 77.91720 71.65140 39.78653
#
# Poissons Ratio (x) = 0.08928 0.31961
# Poissons Ratio (y) = 0.09709 0.24281
# Poissons Ratio (z) = 0.62593 0.43727
#
# Static dielectric constant tensor:
#      x y z
#    x 4.595950 0.000000 -0.417860 
#    y 0.000000 4.240400 0.000000 
#    z -0.417860 0.000000 3.930510 
# 
# 
# High freq. dielectric constant tensor:
#      x y z
#    x 1.868240 0.000000 -0.031620 
#    y 0.000000 1.869570 0.000000 
#    z -0.031620 0.000000 1.835210 
# 
# From -- ./inp_files/166213.got.cif
#   From: 2010.06.25/outbox.cif.g09.slc.cpg/sg15_84_cif.got.tgz:166213.got - 2010.06.28 07:06:18.
