data_PCOD8142541
_publ_section_title
;
Structure prediction by ZEFSAII (Michael W. Deem and Ramdas Pophale) SiO2 
 PCOD8142541
Probable space group: C 2/C
;
_chemical_formula_sum "Si O2"
_cell_formula_units_Z 56
_cell_length_a 33.970503
_cell_length_b 14.306997
_cell_length_c 12.387560
_cell_angle_alpha 90.000000
_cell_angle_beta 25.468047
_cell_angle_gamma 90.000000
_cell_volume 2588.883087
_symmetry_space_group_name_H-M "C 2/C"
_symmetry_group_IT_number 15
_symmetry_cell_setting 'monoclinic'
loop_
_space_group_symop_operation_xyz
x,y,z
-x,y,1/2-z
-x,-y,-z
x,-y,1/2+z
1/2+x,1/2+y,z
1/2-x,1/2+y,1/2-z
1/2-x,1/2-y,-z
1/2+x,1/2-y,1/2+z
loop_
_atom_site_type_symbol
_atom_site_label
_atom_site_fract_x
_atom_site_fract_y
_atom_site_fract_z
Si Si1 0.397846 0.616335 0.467250
Si Si2 0.440021 0.591077 0.127930
Si Si3 0.076607 0.623395 0.304719
Si Si4 0.313947 0.571471 0.244249
Si Si5 0.393331 0.179905 0.036367
Si Si6 0.379175 0.083524 0.855613
Si Si7 0.566035 0.718328 0.678850
O O1 0.500000 0.585203 0.250000
O O2 0.398735 0.635377 0.337885
O O3 0.327681 0.532749 0.663893
O O4 0.362118 0.711165 0.613165
O O5 0.353330 0.571125 0.266789
O O6 0.500000 0.500000 0.000000
O O7 0.506647 0.666100 0.913873
O O8 0.128117 0.635282 0.292953
O O9 0.095186 0.525069 0.202765
O O10 0.114903 0.698221 0.123281
O O11 0.966985 0.639178 0.592332
O O12 0.206585 0.596757 0.512604
O O13 0.361600 0.647322 0.050124
O O14 0.500000 0.177883 0.750000
O O15 0.348099 0.118750 0.052296
O O16 0.500000 0.760119 0.750000
#
# Coordination Sequence:
#
# PCOD8142541 Si02
#       7
#     8   8   8   8   8   8   8
#     4  11  19  35  61  88 121 156 198 256 308 366
#     4  11  19  35  60  87 123 164 194 237 321 370
#     4  10  22  43  67  82 117 176 207 242 307 366
#     4  11  23  36  58  96 127 154 200 258 306 363
#     4   9  20  38  63  87 109 155 215 249 297 357
#     4  10  23  42  59  88 122 157 213 257 299 356
#     4  10  21  39  61  90 121 160 203 247 308 373
#
# _framework density 21.630951
#
# number of rings (size 3 to 8) (size 9 to 14) (size 15 to 20)
#    0.000    1.714    2.857    3.000    0.000    5.143 
#    0.000    7.857    0.000    0.000    0.000    0.000 
#    0.000    0.000    0.000    0.000    0.000    0.000 
#
# Total GULP energy -347188.731976 kJ/mol
# GULP energy per Si atom -12399.597571 kJ/mol
# Density = 2.158172 g / cm^3
# Si number density = 21.630951 Si / 1000 Ang^3
#
#
#
# Elastic Constant Matrix: (Units=GPa)
#
#
# Indices 1 2 3 4 5 6 
#
# 1 130.1431 38.7120 31.8494 0.0000 -2.7786 0.0000
# 2 38.7120 95.4243 7.8084 0.0000 5.2905 0.0000
# 3 31.8494 7.8084 40.8779 0.0000 -11.7368 0.0000
# 4 0.0000 0.0000 0.0000 14.5071 0.0000 -8.3793
# 5 -2.7786 5.2905 -11.7368 0.0000 33.3759 0.0000
# 6 0.0000 0.0000 0.0000 -8.3793 0.0000 55.9353
#
#
#
# Elastic Compliance Matrix: (Units=1/GPa)
#
#
# Indices 1 2 3 4 5 6 
#
# 1 0.010693 -0.003605 -0.008034 0.000000 -0.001364 0.000000
# 2 -0.003605 0.012080 -0.000150 0.000000 -0.002268 0.000000
# 3 -0.008034 -0.000150 0.033999 0.000000 0.011311 0.000000
# 4 0.000000 0.000000 0.000000 0.075461 0.000000 0.011304
# 5 -0.001364 -0.002268 0.011311 0.000000 0.034185 0.000000
# 6 0.000000 0.000000 0.000000 0.011304 0.000000 0.019571
#
#
# Mechanical properties :
#
#
# Convention : Reuss Voigt Hill
#
# Bulk Modulus (GPa) = 30.12592 47.02056 38.57324
# Shear Modulus (GPa) = 22.66202 33.30202 27.98202
#
# Velocity S-wave (km/s) = 3.24028 3.92797 3.60058
# Velocity P-wave (km/s) = 5.28741 6.50821 5.92931
#
# Compressibility (1/GPa) = 0.03319401
#
# Stress axis : x y z
#
# Youngs Moduli (GPa) = 93.51635 82.78153 29.41246
#
# Poissons Ratio (x) = 0.29843 0.23631
# Poissons Ratio (y) = 0.33713 0.00440
# Poissons Ratio (z) = 0.75135 0.01240
#
# Static dielectric constant tensor:
#      x y z
#    x 4.178600 0.000000 0.060360 
#    y 0.000000 3.965220 0.000000 
#    z 0.060360 0.000000 3.587770 
# 
# 
# High freq. dielectric constant tensor:
#      x y z
#    x 1.859400 0.000000 0.004210 
#    y 0.000000 1.857270 0.000000 
#    z 0.004210 0.000000 1.815460 
# 
# From -- ./inp_files/126982.got.cif
#   From: 2010.06.25/outbox.cif.g09.slc.cpg/sg15_64_cif.got.tgz:126982.got - 2010.06.28 07:06:18.
