data_PCOD8142875
_publ_section_title
;
Structure prediction by ZEFSAII (Michael W. Deem and Ramdas Pophale) SiO2 
 PCOD8142875
Probable space group: C 2/C
;
_chemical_formula_sum "Si O2"
_cell_formula_units_Z 52
_cell_length_a 17.747628
_cell_length_b 12.155597
_cell_length_c 19.334616
_cell_angle_alpha 90.000000
_cell_angle_beta 34.091515
_cell_angle_gamma 90.000000
_cell_volume 2337.978184
_symmetry_space_group_name_H-M "C 2/C"
_symmetry_group_IT_number 15
_symmetry_cell_setting 'monoclinic'
loop_
_space_group_symop_operation_xyz
x,y,z
-x,y,1/2-z
-x,-y,-z
x,-y,1/2+z
1/2+x,1/2+y,z
1/2-x,1/2+y,1/2-z
1/2-x,1/2-y,-z
1/2+x,1/2-y,1/2+z
loop_
_atom_site_type_symbol
_atom_site_label
_atom_site_fract_x
_atom_site_fract_y
_atom_site_fract_z
Si Si1 0.500000 0.532399 0.750000
Si Si2 0.075869 0.226537 0.042253
Si Si3 0.340220 0.652587 0.306168
Si Si4 0.958336 0.657601 0.497957
Si Si5 0.301349 0.994018 0.689308
Si Si6 0.135021 0.004107 0.941781
Si Si7 0.638895 0.312938 0.038503
O O1 0.622417 0.452285 0.675967
O O2 0.461272 0.612887 0.841343
O O3 0.967365 0.234332 0.189184
O O4 0.218037 0.291224 0.942233
O O5 0.009623 0.263767 0.020566
O O6 0.115689 0.098549 0.013160
O O7 0.292763 0.602521 0.268963
O O8 0.816590 0.601342 0.628274
O O9 0.946153 0.720218 0.435241
O O10 0.053355 0.556274 0.407397
O O11 0.250046 0.039324 0.801086
O O12 0.188969 0.893521 0.938750
O O13 0.000000 0.000000 0.000000
O O14 0.750000 0.250000 0.000000
#
# Coordination Sequence:
#
# PCOD8142875 Si02
#       7
#     4   8   8   8   8   8   8
#     4  12  26  46  66  94 146 196 226 280 358 452
#     4  11  22  42  69 100 126 181 241 307 349 408
#     4  11  23  42  68  98 136 181 238 291 360 416
#     4  10  22  40  67 101 135 175 227 297 360 412
#     4  10  21  39  67 100 133 170 229 299 347 419
#     4  12  21  40  67  98 131 173 241 286 348 420
#     4  12  26  42  67 102 144 189 230 281 365 438
#
# _framework density 22.241439
#
# number of rings (size 3 to 8) (size 9 to 14) (size 15 to 20)
#    0.000    0.923    4.615    1.846    2.154    1.846 
#    0.000    0.000    0.000    0.000    0.000    0.000 
#    0.000    0.000    0.000    0.000    0.000    0.000 
#
# Total GULP energy -322145.464216 kJ/mol
# GULP energy per Si atom -12390.210162 kJ/mol
# Density = 2.219082 g / cm^3
# Si number density = 22.241439 Si / 1000 Ang^3
#
#
#
# Elastic Constant Matrix: (Units=GPa)
#
#
# Indices 1 2 3 4 5 6 
#
# 1 77.3314 51.5757 43.6971 -0.0001 1.3244 0.0000
# 2 51.5757 113.5983 49.3352 -0.0002 -10.4660 0.0001
# 3 43.6971 49.3352 140.6685 -0.0003 -1.4998 0.0001
# 4 -0.0001 -0.0002 -0.0003 36.2940 0.0001 7.1845
# 5 1.3244 -10.4660 -1.4998 0.0001 24.8731 0.0000
# 6 0.0000 0.0001 0.0001 7.1845 0.0000 49.4578
#
#
#
# Elastic Compliance Matrix: (Units=1/GPa)
#
#
# Indices 1 2 3 4 5 6 
#
# 1 0.020481 -0.008201 -0.003537 0.000000 -0.004754 0.000000
# 2 -0.008201 0.014115 -0.002337 0.000000 0.006235 0.000000
# 3 -0.003537 -0.002337 0.009024 0.000000 -0.000251 0.000000
# 4 0.000000 0.000000 0.000000 0.028369 0.000000 -0.004121
# 5 -0.004754 0.006235 -0.000251 0.000000 0.043066 0.000000
# 6 0.000000 0.000000 0.000000 -0.004121 0.000000 0.020818
#
#
# Mechanical properties :
#
#
# Convention : Reuss Voigt Hill
#
# Bulk Modulus (GPa) = 64.63063 68.97936 66.80499
# Shear Modulus (GPa) = 29.55472 34.59100 32.07286
#
# Velocity S-wave (km/s) = 3.64924 3.94794 3.80153
# Velocity P-wave (km/s) = 6.84673 7.20159 7.02640
#
# Compressibility (1/GPa) = 0.01547254
#
# Stress axis : x y z
#
# Youngs Moduli (GPa) = 48.82680 70.84448 110.81122
#
# Poissons Ratio (x) = 0.58097 0.39190
# Poissons Ratio (y) = 0.40041 0.25893
# Poissons Ratio (z) = 0.17268 0.16554
#
# Static dielectric constant tensor:
#      x y z
#    x 3.901690 0.000000 -0.065690 
#    y 0.000000 4.246100 0.000000 
#    z -0.065690 0.000000 4.454350 
# 
# 
# High freq. dielectric constant tensor:
#      x y z
#    x 1.857490 0.000000 0.003150 
#    y 0.000000 1.884760 0.000000 
#    z 0.003150 0.000000 1.880650 
# 
# From -- ./inp_files/252718.got.cif
#   From: 2010.06.25/outbox.cif.g09.slc.cpg/sg15_127_cif.got.tgz:252718.got - 2010.06.28 07:06:18.
