data_PCOD8142580
_publ_section_title
;
Structure prediction by ZEFSAII (Michael W. Deem and Ramdas Pophale) SiO2 
 PCOD8142580
Probable space group: C 2/C
;
_chemical_formula_sum "Si O2"
_cell_formula_units_Z 44
_cell_length_a 22.151234
_cell_length_b 11.358078
_cell_length_c 9.660636
_cell_angle_alpha 90.000000
_cell_angle_beta 60.851549
_cell_angle_gamma 90.000000
_cell_volume 2122.765944
_symmetry_space_group_name_H-M "C 2/C"
_symmetry_group_IT_number 15
_symmetry_cell_setting 'monoclinic'
loop_
_space_group_symop_operation_xyz
x,y,z
-x,y,1/2-z
-x,-y,-z
x,-y,1/2+z
1/2+x,1/2+y,z
1/2-x,1/2+y,1/2-z
1/2-x,1/2-y,-z
1/2+x,1/2-y,1/2+z
loop_
_atom_site_type_symbol
_atom_site_label
_atom_site_fract_x
_atom_site_fract_y
_atom_site_fract_z
Si Si1 0.608077 0.514668 0.994069
Si Si2 0.965839 0.422385 0.655410
Si Si3 0.160002 0.650817 0.055538
Si Si4 0.310391 0.595984 0.857283
Si Si5 0.559476 0.739139 0.457247
Si Si6 0.000000 0.180985 0.250000
O O1 0.658482 0.573794 0.827571
O O2 0.573227 0.395879 0.977037
O O3 0.654244 0.494808 0.077677
O O4 0.546141 0.602491 0.096656
O O5 0.883927 0.422065 0.779341
O O6 0.000000 0.479895 0.750000
O O7 0.000000 0.500000 0.500000
O O8 0.988448 0.285194 0.607580
O O9 0.178079 0.771834 0.109067
O O10 0.227693 0.574304 0.944537
O O11 0.119758 0.677167 0.955076
O O12 0.549472 0.755517 0.300550
#
# Coordination Sequence:
#
# PCOD8142580 Si02
#       6
#     8   8   8   8   8   4
#     4  11  22  37  63  99 127 162 203 267 331 388
#     4  10  22  39  62  85 117 164 213 261 307 361
#     4   9  21  41  62  82 128 173 205 252 316 390
#     4  10  21  39  62  89 126 167 205 246 330 388
#     4  10  22  37  61  95 127 159 211 268 322 371
#     4  12  22  34  66 100 130 158 208 276 322 386
#
# _framework density 20.727674
#
# number of rings (size 3 to 8) (size 9 to 14) (size 15 to 20)
#    0.000    1.818    1.818    1.636    7.636    2.909 
#    0.000    0.909    4.000    0.000    0.000    0.000 
#    0.000    0.000    0.000    0.000    0.000    0.000 
#
# Total GULP energy -272552.896659 kJ/mol
# GULP energy per Si atom -12388.768030 kJ/mol
# Density = 2.068050 g / cm^3
# Si number density = 20.727674 Si / 1000 Ang^3
#
#
#
# Elastic Constant Matrix: (Units=GPa)
#
#
# Indices 1 2 3 4 5 6 
#
# 1 113.0760 20.5564 64.3185 0.0000 -9.6658 0.0000
# 2 20.5564 36.3384 33.2865 0.0000 -7.3887 0.0000
# 3 64.3185 33.2865 154.2699 0.0000 -14.2216 0.0000
# 4 0.0000 0.0000 0.0000 32.3512 0.0000 -3.3839
# 5 -9.6658 -7.3887 -14.2216 0.0000 49.9492 0.0000
# 6 0.0000 0.0000 0.0000 -3.3839 0.0000 17.5680
#
#
#
# Elastic Compliance Matrix: (Units=1/GPa)
#
#
# Indices 1 2 3 4 5 6 
#
# 1 0.011824 -0.002608 -0.004305 0.000000 0.000677 0.000000
# 2 -0.002608 0.035331 -0.006265 0.000000 0.002938 0.000000
# 3 -0.004305 -0.006265 0.009722 0.000000 0.001008 0.000000
# 4 0.000000 0.000000 0.000000 0.031546 0.000000 0.006076
# 5 0.000677 0.002938 0.001008 0.000000 0.020873 0.000000
# 6 0.000000 0.000000 0.000000 0.006076 0.000000 0.058092
#
#
# Mechanical properties :
#
#
# Convention : Reuss Voigt Hill
#
# Bulk Modulus (GPa) = 32.76449 60.00077 46.38263
# Shear Modulus (GPa) = 24.51981 32.34188 28.43084
#
# Velocity S-wave (km/s) = 3.44314 3.95438 3.70758
# Velocity P-wave (km/s) = 5.62569 7.06113 6.38388
#
# Compressibility (1/GPa) = 0.03052085
#
# Stress axis : x y z
#
# Youngs Moduli (GPa) = 84.57325 28.30401 102.86434
#
# Poissons Ratio (x) = 0.07382 0.44279
# Poissons Ratio (y) = 0.22058 0.64445
# Poissons Ratio (z) = 0.36405 0.17732
#
# Static dielectric constant tensor:
#      x y z
#    x 4.339360 0.000000 0.248430 
#    y 0.000000 3.564570 0.000000 
#    z 0.248430 0.000000 4.325480 
# 
# 
# High freq. dielectric constant tensor:
#      x y z
#    x 1.818380 0.000000 0.005810 
#    y 0.000000 1.791540 0.000000 
#    z 0.005810 0.000000 1.816790 
# 
# From -- ./inp_files/47184.got.cif
#   From: 2010.06.25/outbox.cif.g09.slc.cpg/sg15_24_cif.got.tgz:47184.got - 2010.06.28 07:06:18.
