data_PCOD8142397
_publ_section_title
;
Structure prediction by ZEFSAII (Michael W. Deem and Ramdas Pophale) SiO2 
 PCOD8142397
Probable space group: C 2/C
;
_chemical_formula_sum "Si O2"
_cell_formula_units_Z 56
_cell_length_a 28.451754
_cell_length_b 18.225726
_cell_length_c 5.431491
_cell_angle_alpha 90.000000
_cell_angle_beta 115.670333
_cell_angle_gamma 90.000000
_cell_volume 2538.534165
_symmetry_space_group_name_H-M "C 2/C"
_symmetry_group_IT_number 15
_symmetry_cell_setting 'monoclinic'
loop_
_space_group_symop_operation_xyz
x,y,z
-x,y,1/2-z
-x,-y,-z
x,-y,1/2+z
1/2+x,1/2+y,z
1/2-x,1/2+y,1/2-z
1/2-x,1/2-y,-z
1/2+x,1/2-y,1/2+z
loop_
_atom_site_type_symbol
_atom_site_label
_atom_site_fract_x
_atom_site_fract_y
_atom_site_fract_z
Si Si1 0.067815 0.177528 0.278276
Si Si2 0.765431 0.308855 0.730422
Si Si3 0.000000 0.744400 0.250000
Si Si4 0.277405 0.969959 0.624681
Si Si5 0.103878 0.467989 0.605529
Si Si6 0.165497 0.768848 0.754501
Si Si7 0.000000 0.952057 0.750000
Si Si8 0.903388 0.303288 0.780560
O O1 0.118721 0.174477 0.214714
O O2 0.083241 0.236324 0.514486
O O3 0.052651 0.098445 0.358912
O O4 0.016254 0.203137 0.013790
O O5 0.750000 0.250000 0.500000
O O6 0.774546 0.383107 0.606666
O O7 0.717175 0.316265 0.812300
O O8 0.819516 0.285936 0.986758
O O9 0.951846 0.691019 0.201951
O O10 0.336963 0.997909 0.759777
O O11 0.249878 0.000469 0.313261
O O12 0.076870 0.500078 0.294707
O O13 0.101829 0.379868 0.590037
O O14 0.149048 0.716350 0.489287
O O15 0.000000 0.000000 0.500000
#
# Coordination Sequence:
#
# PCOD8142397 Si02
#       8
#     8   8   4   8   8   8   4   8
#     4  11  22  44  69 100 130 178 225 280 344 418
#     4  11  23  42  64 100 132 178 230 289 334 403
#     4  10  21  38  70  95 126 166 230 262 327 394
#     4  10  23  39  63  89 128 175 219 267 333 399
#     4  10  23  38  60  95 133 174 219 270 325 384
#     4  10  24  37  70  96 133 170 240 279 341 401
#     4  12  27  46  74 107 140 176 228 298 365 432
#     4  11  22  40  68  95 127 178 225 277 329 408
#
# _framework density 22.059972999999999
#
# number of rings (size 3 to 8) (size 9 to 14) (size 15 to 20)
#    0.000    1.429    1.429    3.000   16.000    0.000 
#    0.000    2.143    0.000    0.000    0.000    0.000 
#    0.000    0.000    0.000    0.000    0.000    0.000 
#
# Total GULP energy -347130.455580 kJ/mol
# GULP energy per Si atom -12397.516271 kJ/mol
# Density = 2.200976 g / cm^3
# Si number density = 22.059973 Si / 1000 Ang^3
#
#
#
# Elastic Constant Matrix: (Units=GPa)
#
#
# Indices 1 2 3 4 5 6 
#
# 1 74.0480 30.3676 21.7997 0.0000 2.8787 0.0000
# 2 30.3676 133.3717 67.0046 0.0000 -18.4140 0.0000
# 3 21.7997 67.0046 166.7940 0.0000 -22.1217 0.0000
# 4 0.0000 0.0000 0.0000 37.9805 0.0000 -10.2177
# 5 2.8787 -18.4140 -22.1217 0.0000 40.4549 0.0000
# 6 0.0000 0.0000 0.0000 -10.2177 0.0000 35.1839
#
#
#
# Elastic Compliance Matrix: (Units=1/GPa)
#
#
# Indices 1 2 3 4 5 6 
#
# 1 0.015339 -0.003402 -0.001065 0.000000 -0.003223 0.000000
# 2 -0.003402 0.010367 -0.003301 0.000000 0.003155 0.000000
# 3 -0.001065 -0.003301 0.007840 0.000000 0.002860 0.000000
# 4 0.000000 0.000000 0.000000 0.028561 0.000000 0.008294
# 5 -0.003223 0.003155 0.002860 0.000000 0.027949 0.000000
# 6 0.000000 0.000000 0.000000 0.008294 0.000000 0.030831
#
#
# Mechanical properties :
#
#
# Convention : Reuss Voigt Hill
#
# Bulk Modulus (GPa) = 55.53119 68.06195 61.79657
# Shear Modulus (GPa) = 35.10573 39.72663 37.41618
#
# Velocity S-wave (km/s) = 3.99353 4.24824 4.12286
# Velocity P-wave (km/s) = 6.81850 7.41509 7.12304
#
# Compressibility (1/GPa) = 0.01800790
#
# Stress axis : x y z
#
# Youngs Moduli (GPa) = 65.19330 96.46234 127.54666
#
# Poissons Ratio (x) = 0.32819 0.13590
# Poissons Ratio (y) = 0.22180 0.42108
# Poissons Ratio (z) = 0.06946 0.31846
#
# Static dielectric constant tensor:
#      x y z
#    x 3.771340 0.000000 0.224950 
#    y 0.000000 3.701480 0.000000 
#    z 0.224950 0.000000 3.818890 
# 
# 
# High freq. dielectric constant tensor:
#      x y z
#    x 1.872620 0.000000 -0.025510 
#    y 0.000000 1.844390 0.000000 
#    z -0.025510 0.000000 1.871740 
# 
# From -- ./inp_files/18498.got.cif
#   From: 2010.06.25/outbox.cif.g09.slc.cpg/sg15_10_cif.got.tgz:18498.got - 2010.06.28 07:06:18.
