data_PCOD8142054
_publ_section_title
;
Structure prediction by ZEFSAII (Michael W. Deem and Ramdas Pophale) SiO2 
 PCOD8142054
Probable space group: C 2/C
;
_chemical_formula_sum "Si O2"
_cell_formula_units_Z 40
_cell_length_a 24.952823
_cell_length_b 6.206631
_cell_length_c 17.324131
_cell_angle_alpha 90.000000
_cell_angle_beta 139.936064
_cell_angle_gamma 90.000000
_cell_volume 1726.917019
_symmetry_space_group_name_H-M "C 2/C"
_symmetry_group_IT_number 15
_symmetry_cell_setting 'monoclinic'
loop_
_space_group_symop_operation_xyz
x,y,z
-x,y,1/2-z
-x,-y,-z
x,-y,1/2+z
1/2+x,1/2+y,z
1/2-x,1/2+y,1/2-z
1/2-x,1/2-y,-z
1/2+x,1/2-y,1/2+z
loop_
_atom_site_type_symbol
_atom_site_label
_atom_site_fract_x
_atom_site_fract_y
_atom_site_fract_z
Si Si1 0.381850 0.419522 0.093479
Si Si2 0.375908 0.682500 0.369824
Si Si3 0.785993 0.856438 0.376324
Si Si4 0.526918 0.636674 0.170650
Si Si5 0.088415 0.484393 0.952604
O O1 0.445774 0.494353 0.096175
O O2 0.400268 0.547014 0.192597
O O3 0.393230 0.160126 0.104999
O O4 0.292082 0.489767 0.959915
O O5 0.310490 0.822597 0.247603
O O6 0.328325 0.474355 0.349970
O O7 0.446639 0.603751 0.388255
O O8 0.419313 0.831559 0.481396
O O9 0.831860 0.633866 0.446071
O O10 0.498192 0.884530 0.154999
#
# Coordination Sequence:
#
# PCOD8142054 Si02
#       5
#     8   8   8   8   8
#     4   9  22  40  57  89 126 159 208 254 302 367
#     4  11  21  38  64  94 125 161 206 253 308 371
#     4  10  21  38  61  89 127 162 205 252 302 366
#     4  10  22  39  63  93 124 160 208 252 310 369
#     4  10  21  40  64  88 126 165 201 258 311 360
#
# _framework density 23.162666000000002
#
# number of rings (size 3 to 8) (size 9 to 14) (size 15 to 20)
#    0.000    2.000    2.000    0.600    0.000   16.000 
#    0.000    1.000    0.000    0.000    0.000    0.000 
#    0.000    0.000    0.000    0.000    0.000    0.000 
#
# Total GULP energy -247792.888894 kJ/mol
# GULP energy per Si atom -12389.644445 kJ/mol
# Density = 2.310995 g / cm^3
# Si number density = 23.162666 Si / 1000 Ang^3
#
#
#
# Elastic Constant Matrix: (Units=GPa)
#
#
# Indices 1 2 3 4 5 6 
#
# 1 31.8198 9.0027 -2.5733 0.0000 -5.4057 0.0000
# 2 9.0027 127.0832 43.6235 0.0002 -13.5545 0.0001
# 3 -2.5733 43.6235 112.4255 0.0000 -19.3695 0.0000
# 4 0.0000 0.0002 0.0000 41.1123 0.0000 -3.0411
# 5 -5.4057 -13.5545 -19.3695 0.0000 11.3273 0.0000
# 6 0.0000 0.0001 0.0000 -3.0411 0.0000 19.4955
#
#
#
# Elastic Compliance Matrix: (Units=1/GPa)
#
#
# Indices 1 2 3 4 5 6 
#
# 1 0.036786 -0.001944 0.005983 0.000000 0.025459 0.000000
# 2 -0.001944 0.009573 -0.002758 0.000000 0.005812 0.000000
# 3 0.005983 -0.002758 0.014212 0.000000 0.023858 0.000000
# 4 0.000000 0.000000 0.000000 0.024608 0.000000 0.003839
# 5 0.025459 0.005812 0.023858 0.000000 0.148183 0.000000
# 6 0.000000 0.000000 0.000000 0.003839 0.000000 0.051893
#
#
# Mechanical properties :
#
#
# Convention : Reuss Voigt Hill
#
# Bulk Modulus (GPa) = 15.83971 41.27049 28.55510
# Shear Modulus (GPa) = 16.46161 29.13872 22.80017
#
# Velocity S-wave (km/s) = 2.66878 3.55068 3.14084
# Velocity P-wave (km/s) = 4.04349 5.88780 5.05054
#
# Compressibility (1/GPa) = 0.06313245
#
# Stress axis : x y z
#
# Youngs Moduli (GPa) = 27.18437 104.45912 70.36240
#
# Poissons Ratio (x) = 0.20309 -0.42095
# Poissons Ratio (y) = 0.05285 0.19404
# Poissons Ratio (z) = -0.16263 0.28807
#
# Static dielectric constant tensor:
#      x y z
#    x 3.620490 0.000000 -0.042560 
#    y 0.000000 4.508790 0.000000 
#    z -0.042560 0.000000 4.477930 
# 
# 
# High freq. dielectric constant tensor:
#      x y z
#    x 1.861500 0.000000 -0.008940 
#    y 0.000000 1.928560 0.000000 
#    z -0.008940 0.000000 1.935790 
# 
# From -- ./inp_files/223737.got.cif
#   From: 2010.06.25/outbox.cif.g09.slc.cpg/sg15_112_cif.got.tgz:223737.got - 2010.06.28 07:06:18.
