data_PCOD8142807
_publ_section_title
;
Structure prediction by ZEFSAII (Michael W. Deem and Ramdas Pophale) SiO2 
 PCOD8142807
Probable space group: C 2/C
;
_chemical_formula_sum "Si O2"
_cell_formula_units_Z 60
_cell_length_a 13.810414
_cell_length_b 11.368474
_cell_length_c 17.164677
_cell_angle_alpha 90.000000
_cell_angle_beta 89.424341
_cell_angle_gamma 90.000000
_cell_volume 2694.775472
_symmetry_space_group_name_H-M "C 2/C"
_symmetry_group_IT_number 15
_symmetry_cell_setting 'monoclinic'
loop_
_space_group_symop_operation_xyz
x,y,z
-x,y,1/2-z
-x,-y,-z
x,-y,1/2+z
1/2+x,1/2+y,z
1/2-x,1/2+y,1/2-z
1/2-x,1/2-y,-z
1/2+x,1/2-y,1/2+z
loop_
_atom_site_type_symbol
_atom_site_label
_atom_site_fract_x
_atom_site_fract_y
_atom_site_fract_z
Si Si1 0.387204 0.011612 0.010593
Si Si2 0.876690 0.520596 0.337642
Si Si3 0.632142 0.355405 0.347656
Si Si4 0.650314 0.765953 0.158049
Si Si5 0.000000 0.307294 0.750000
Si Si6 0.558789 0.739171 0.998386
Si Si7 0.677771 0.392164 0.801053
Si Si8 0.157937 0.724783 0.947418
O O1 0.340141 0.978471 0.927408
O O2 0.376797 0.148105 0.033171
O O3 0.500000 0.000000 0.000000
O O4 0.342985 0.917094 0.072223
O O5 0.907728 0.385622 0.317306
O O6 0.965982 0.608231 0.321175
O O7 0.789010 0.571208 0.286696
O O8 0.741381 0.312084 0.356831
O O9 0.584205 0.273261 0.283200
O O10 0.579042 0.357186 0.432175
O O11 0.619237 0.489301 0.319337
O O12 0.603345 0.706097 0.081938
O O13 0.638464 0.666667 0.223016
O O14 0.442472 0.752193 0.005283
O O15 0.664183 0.296441 0.868606
O O16 0.250000 0.750000 0.000000
#
# Coordination Sequence:
#
# PCOD8142807 Si02
#       8
#     8   8   8   8   4   8   8   8
#     4   9  18  37  62  97 126 163 218 278 319 388
#     4  10  21  39  65  96 133 170 228 284 326 401
#     4  11  25  43  69  98 141 177 221 283 335 413
#     4  10  23  45  67  96 136 179 226 282 336 399
#     4  12  22  40  70 100 128 180 224 278 350 394
#     4  10  23  42  69  97 130 179 232 270 337 400
#     4  11  24  44  64  99 143 176 220 278 346 405
#     4  11  22  39  68  99 136 172 219 286 338 396
#
# _framework density 22.265305999999999
#
# number of rings (size 3 to 8) (size 9 to 14) (size 15 to 20)
#    0.000    1.600    2.667    2.000    0.000    6.400 
#    0.000    1.333    0.000    0.000    0.000    0.000 
#    0.000    0.000    0.000    0.000    0.000    0.000 
#
# Total GULP energy -371765.300704 kJ/mol
# GULP energy per Si atom -12392.176690 kJ/mol
# Density = 2.221463 g / cm^3
# Si number density = 22.265306 Si / 1000 Ang^3
#
#
#
# Elastic Constant Matrix: (Units=GPa)
#
#
# Indices 1 2 3 4 5 6 
#
# 1 82.6572 32.2573 32.3669 0.0000 14.9071 0.0000
# 2 32.2573 133.4730 71.1690 0.0000 1.8398 0.0000
# 3 32.3669 71.1690 105.1281 0.0000 5.7999 0.0000
# 4 0.0000 0.0000 0.0000 43.7100 0.0000 -1.8566
# 5 14.9071 1.8398 5.7999 0.0000 28.7248 0.0000
# 6 0.0000 0.0000 0.0000 -1.8566 0.0000 32.6579
#
#
#
# Elastic Compliance Matrix: (Units=1/GPa)
#
#
# Indices 1 2 3 4 5 6 
#
# 1 0.015354 -0.002040 -0.002947 0.000000 -0.007243 0.000000
# 2 -0.002040 0.012016 -0.007607 0.000000 0.001825 0.000000
# 3 -0.002947 -0.007607 0.015632 0.000000 -0.001140 0.000000
# 4 0.000000 0.000000 0.000000 0.022933 0.000000 0.001304
# 5 -0.007243 0.001825 -0.001140 0.000000 0.038685 0.000000
# 6 0.000000 0.000000 0.000000 0.001304 0.000000 0.030695
#
#
# Mechanical properties :
#
#
# Convention : Reuss Voigt Hill
#
# Bulk Modulus (GPa) = 56.13240 65.87163 61.00202
# Shear Modulus (GPa) = 30.04042 33.38287 31.71165
#
# Velocity S-wave (km/s) = 3.67714 3.87631 3.77803
# Velocity P-wave (km/s) = 6.57981 7.04865 6.81826
#
# Compressibility (1/GPa) = 0.01781502
#
# Stress axis : x y z
#
# Youngs Moduli (GPa) = 65.12843 83.22046 63.96956
#
# Poissons Ratio (x) = 0.16974 0.18852
# Poissons Ratio (y) = 0.13284 0.48664
# Poissons Ratio (z) = 0.19193 0.63309
#
# Static dielectric constant tensor:
#      x y z
#    x 3.975900 0.000000 0.174440 
#    y 0.000000 4.582120 0.000000 
#    z 0.174440 0.000000 3.723680 
# 
# 
# High freq. dielectric constant tensor:
#      x y z
#    x 1.874730 0.000000 0.019360 
#    y 0.000000 1.886420 0.000000 
#    z 0.019360 0.000000 1.860260 
# 
# From -- ./inp_files/203999.got.cif
#   From: 2010.06.25/outbox.cif.g09.slc.cpg/sg15_102_cif.got.tgz:203999.got - 2010.06.28 07:06:18.
