data_PCOD8142005
_publ_section_title
;
Structure prediction by ZEFSAII (Michael W. Deem and Ramdas Pophale) SiO2 
 PCOD8142005
Probable space group: C 2/C
;
_chemical_formula_sum "Si O2"
_cell_formula_units_Z 40
_cell_length_a 14.143825
_cell_length_b 4.977752
_cell_length_c 27.644497
_cell_angle_alpha 90.000000
_cell_angle_beta 75.621329
_cell_angle_gamma 90.000000
_cell_volume 1885.329289
_symmetry_space_group_name_H-M "C 2/C"
_symmetry_group_IT_number 15
_symmetry_cell_setting 'monoclinic'
loop_
_space_group_symop_operation_xyz
x,y,z
-x,y,1/2-z
-x,-y,-z
x,-y,1/2+z
1/2+x,1/2+y,z
1/2-x,1/2+y,1/2-z
1/2-x,1/2-y,-z
1/2+x,1/2-y,1/2+z
loop_
_atom_site_type_symbol
_atom_site_label
_atom_site_fract_x
_atom_site_fract_y
_atom_site_fract_z
Si Si1 0.545893 0.881510 0.542297
Si Si2 0.834778 0.120398 0.457807
Si Si3 0.731894 0.087529 0.283052
Si Si4 0.486609 0.877660 0.651889
Si Si5 0.117030 0.894848 0.651733
O O1 0.618556 0.634145 0.519236
O O2 0.475841 0.794405 0.595595
O O3 0.500000 0.000000 0.500000
O O4 0.594327 0.135368 0.560423
O O5 0.750000 0.250000 0.500000
O O6 0.814485 0.038448 0.404694
O O7 0.750560 0.282849 0.235521
O O8 0.621936 0.118423 0.314663
O O9 0.807815 0.164522 0.315245
O O10 0.550487 0.653417 0.671133
O O11 0.540438 0.155080 0.655879
#
# Coordination Sequence:
#
# PCOD8142005 Si02
#       5
#     8   8   8   8   8
#     4  10  21  38  60  92 124 165 207 251 317 375
#     4  10  21  38  60  92 124 165 207 251 317 375
#     4  12  26  42  66  96 118 166 218 256 321 374
#     4  10  23  43  63  91 131 163 205 263 315 374
#     4  10  23  43  63  91 131 163 205 263 315 374
#
# _framework density 21.216453000000001
#
# number of rings (size 3 to 8) (size 9 to 14) (size 15 to 20)
#    0.000    1.600    0.000    3.600    2.800    4.800 
#    3.600    0.000    0.000    0.000    0.000    0.000 
#    0.000    0.000    0.000    0.000    0.000    0.000 
#
# Total GULP energy -247774.545874 kJ/mol
# GULP energy per Si atom -12388.727294 kJ/mol
# Density = 2.116816 g / cm^3
# Si number density = 21.216453 Si / 1000 Ang^3
#
#
#
# Elastic Constant Matrix: (Units=GPa)
#
#
# Indices 1 2 3 4 5 6 
#
# 1 111.5619 21.8155 72.9811 -0.0001 -10.6008 -0.0003
# 2 21.8155 116.9692 21.8618 0.0019 -7.0959 0.0022
# 3 72.9811 21.8618 109.9735 0.0011 -9.0905 0.0008
# 4 -0.0001 0.0019 0.0011 31.5459 0.0001 -0.3667
# 5 -10.6008 -7.0959 -9.0905 0.0001 69.9222 -0.0003
# 6 -0.0003 0.0022 0.0008 -0.3667 -0.0003 37.5186
#
#
#
# Elastic Compliance Matrix: (Units=1/GPa)
#
#
# Indices 1 2 3 4 5 6 
#
# 1 0.016026 -0.000994 -0.010357 0.000000 0.000982 0.000000
# 2 -0.000994 0.008973 -0.001073 -0.000001 0.000620 -0.000001
# 3 -0.010357 -0.001073 0.016215 -0.000001 0.000429 0.000000
# 4 0.000000 -0.000001 -0.000001 0.031703 0.000000 0.000310
# 5 0.000982 0.000620 0.000429 0.000000 0.014569 0.000000
# 6 0.000000 -0.000001 0.000000 0.000310 0.000000 0.026656
#
#
# Mechanical properties :
#
#
# Convention : Reuss Voigt Hill
#
# Bulk Modulus (GPa) = 61.09803 63.53570 62.31687
# Shear Modulus (GPa) = 34.61498 42.58709 38.60103
#
# Velocity S-wave (km/s) = 4.04358 4.48511 4.27006
# Velocity P-wave (km/s) = 7.11764 7.53877 7.33123
#
# Compressibility (1/GPa) = 0.01636714
#
# Stress axis : x y z
#
# Youngs Moduli (GPa) = 62.39666 111.44823 61.67164
#
# Poissons Ratio (x) = 0.11075 0.63872
# Poissons Ratio (y) = 0.06201 0.06617
# Poissons Ratio (z) = 0.64623 0.11958
#
# Static dielectric constant tensor:
#      x y z
#    x 3.584900 0.000000 -0.032480 
#    y 0.000000 4.072610 0.000000 
#    z -0.032480 0.000000 4.089770 
# 
# 
# High freq. dielectric constant tensor:
#      x y z
#    x 1.811950 0.000000 -0.002560 
#    y 0.000000 1.855010 0.000000 
#    z -0.002560 0.000000 1.843860 
# 
# From -- ./inp_files/290531.got.cif
#   From: 2010.06.25/outbox.cif.g09.slc.cpg/sg15_146_cif.got.tgz:290531.got - 2010.06.28 07:06:18.
