data_PCOD8142775
_publ_section_title
;
Structure prediction by ZEFSAII (Michael W. Deem and Ramdas Pophale) SiO2 
 PCOD8142775
Probable space group: C 2/C
;
_chemical_formula_sum "Si O2"
_cell_formula_units_Z 52
_cell_length_a 8.881483
_cell_length_b 16.420310
_cell_length_c 17.507379
_cell_angle_alpha 90.000000
_cell_angle_beta 116.843062
_cell_angle_gamma 90.000000
_cell_volume 2278.100734
_symmetry_space_group_name_H-M "C 2/C"
_symmetry_group_IT_number 15
_symmetry_cell_setting 'monoclinic'
loop_
_space_group_symop_operation_xyz
x,y,z
-x,y,1/2-z
-x,-y,-z
x,-y,1/2+z
1/2+x,1/2+y,z
1/2-x,1/2+y,1/2-z
1/2-x,1/2-y,-z
1/2+x,1/2-y,1/2+z
loop_
_atom_site_type_symbol
_atom_site_label
_atom_site_fract_x
_atom_site_fract_y
_atom_site_fract_z
Si Si1 0.819591 0.509041 0.739976
Si Si2 0.282362 0.387565 0.893415
Si Si3 0.500000 0.794382 0.750000
Si Si4 0.710189 0.824155 0.194266
Si Si5 0.294473 0.912014 0.459665
Si Si6 0.672439 0.079922 0.103378
Si Si7 0.963622 0.806600 0.658375
O O1 0.708639 0.476819 0.643587
O O2 0.742750 0.592329 0.753325
O O3 0.827203 0.437168 0.805468
O O4 0.000000 0.532177 0.750000
O O5 0.094128 0.350239 0.834664
O O6 0.318142 0.392249 0.991786
O O7 0.426858 0.335133 0.888142
O O8 0.646678 0.739407 0.744557
O O9 0.520875 0.789428 0.172823
O O10 0.728951 0.840547 0.107854
O O11 0.487823 0.911747 0.528397
O O12 0.240607 0.000522 0.415553
O O13 0.770986 0.163641 0.101451
O O14 0.000000 0.846154 0.750000
#
# Coordination Sequence:
#
# PCOD8142775 Si02
#       7
#     8   8   4   8   8   8   8
#     4  11  19  38  64  93 119 173 217 265 303 390
#     4  11  21  39  70  89 125 173 223 252 325 382
#     4  10  22  42  62  92 124 178 206 264 320 392
#     4  10  25  40  64  95 135 161 220 267 332 373
#     4  10  22  41  63  93 127 173 207 272 321 384
#     4  10  21  39  65  91 133 165 214 260 326 377
#     4  11  23  39  61  99 124 166 215 269 310 386
#
# _framework density 22.826034
#
# number of rings (size 3 to 8) (size 9 to 14) (size 15 to 20)
#    0.000    1.538    3.846    0.462    2.154    6.154 
#    0.000    1.538    3.385    0.000    0.000    0.000 
#    0.000    0.000    0.000    0.000    0.000    0.000 
#
# Total GULP energy -322092.534039 kJ/mol
# GULP energy per Si atom -12388.174386 kJ/mol
# Density = 2.277408 g / cm^3
# Si number density = 22.826034 Si / 1000 Ang^3
#
#
#
# Elastic Constant Matrix: (Units=GPa)
#
#
# Indices 1 2 3 4 5 6 
#
# 1 68.2268 28.5385 30.3586 0.0000 -21.2935 0.0000
# 2 28.5385 96.5230 15.2001 0.0000 -6.3949 0.0000
# 3 30.3586 15.2001 80.8677 0.0000 -36.4158 0.0000
# 4 0.0000 0.0000 0.0000 22.8286 0.0000 -3.0668
# 5 -21.2935 -6.3949 -36.4158 0.0000 39.0579 0.0000
# 6 0.0000 0.0000 0.0000 -3.0668 0.0000 39.8732
#
#
#
# Elastic Compliance Matrix: (Units=1/GPa)
#
#
# Indices 1 2 3 4 5 6 
#
# 1 0.020565 -0.005047 -0.003611 0.000000 0.007018 0.000000
# 2 -0.005047 0.011916 -0.001216 0.000000 -0.001934 0.000000
# 3 -0.003611 -0.001216 0.022363 0.000000 0.018682 0.000000
# 4 0.000000 0.000000 0.000000 0.044262 0.000000 0.003404
# 5 0.007018 -0.001934 0.018682 0.000000 0.046531 0.000000
# 6 0.000000 0.000000 0.000000 0.003404 0.000000 0.025341
#
#
# Mechanical properties :
#
#
# Convention : Reuss Voigt Hill
#
# Bulk Modulus (GPa) = 28.49357 43.75688 36.12522
# Shear Modulus (GPa) = 24.70039 31.78664 28.24352
#
# Velocity S-wave (km/s) = 3.29312 3.73575 3.52140
# Velocity P-wave (km/s) = 5.19322 6.14973 5.69160
#
# Compressibility (1/GPa) = 0.03509564
#
# Stress axis : x y z
#
# Youngs Moduli (GPa) = 48.62540 83.92265 44.71643
#
# Poissons Ratio (x) = 0.42354 0.16149
# Poissons Ratio (y) = 0.24540 0.05438
# Poissons Ratio (z) = 0.17561 0.10206
#
# Static dielectric constant tensor:
#      x y z
#    x 4.055970 0.000000 -0.277330 
#    y 0.000000 4.271180 0.000000 
#    z -0.277330 0.000000 4.060390 
# 
# 
# High freq. dielectric constant tensor:
#      x y z
#    x 1.893070 0.000000 -0.024160 
#    y 0.000000 1.901420 0.000000 
#    z -0.024160 0.000000 1.881000 
# 
# From -- ./inp_files/190566.got.cif
#   From: 2010.06.25/outbox.cif.g09.slc.cpg/sg15_96_cif.got.tgz:190566.got - 2010.06.28 07:06:18.
