data_PCOD8142504
_publ_section_title
;
Structure prediction by ZEFSAII (Michael W. Deem and Ramdas Pophale) SiO2 
 PCOD8142504
Probable space group: C 2/C
;
_chemical_formula_sum "Si O2"
_cell_formula_units_Z 56
_cell_length_a 9.129613
_cell_length_b 17.825826
_cell_length_c 19.690671
_cell_angle_alpha 90.000000
_cell_angle_beta 120.212065
_cell_angle_gamma 90.000000
_cell_volume 2769.243594
_symmetry_space_group_name_H-M "C 2/C"
_symmetry_group_IT_number 15
_symmetry_cell_setting 'monoclinic'
loop_
_space_group_symop_operation_xyz
x,y,z
-x,y,1/2-z
-x,-y,-z
x,-y,1/2+z
1/2+x,1/2+y,z
1/2-x,1/2+y,1/2-z
1/2-x,1/2-y,-z
1/2+x,1/2-y,1/2+z
loop_
_atom_site_type_symbol
_atom_site_label
_atom_site_fract_x
_atom_site_fract_y
_atom_site_fract_z
Si Si1 0.248714 0.508102 0.880566
Si Si2 0.132807 0.980652 0.447052
Si Si3 0.191222 0.657725 0.667593
Si Si4 0.986703 0.388074 0.849439
Si Si5 0.000000 0.263747 0.750000
Si Si6 0.309579 0.492435 0.685800
Si Si7 0.000000 0.377664 0.250000
Si Si8 0.687838 0.169676 0.515332
O O1 0.433981 0.500345 0.891246
O O2 0.141189 0.431576 0.847906
O O3 0.147678 0.574404 0.820522
O O4 0.280544 0.522361 0.968688
O O5 0.155394 0.889752 0.453724
O O6 0.222671 0.014875 0.402091
O O7 0.342441 0.714283 0.695424
O O8 0.262123 0.575230 0.699243
O O9 0.071266 0.674671 0.704915
O O10 0.108858 0.669359 0.573474
O O11 0.948448 0.311960 0.802402
O O12 0.818208 0.437433 0.806179
O O13 0.033986 0.364940 0.936604
O O14 0.500000 0.471470 0.750000
O O15 0.750000 0.250000 0.500000
#
# Coordination Sequence:
#
# PCOD8142504 Si02
#       8
#     8   8   8   8   4   8   4   8
#     4  10  21  39  60  98 125 166 213 282 321 385
#     4   9  22  37  63  92 134 164 217 272 335 384
#     4  11  24  41  66  94 134 175 217 270 330 402
#     4  11  24  39  70  94 129 170 227 272 328 399
#     4  12  25  44  64  97 130 178 216 264 341 408
#     4  11  22  39  66 100 129 171 224 280 329 388
#     4  12  23  36  66  91 130 168 226 266 331 388
#     4  10  21  42  67  94 127 181 223 265 333 407
#
# _framework density 20.222128999999999
#
# number of rings (size 3 to 8) (size 9 to 14) (size 15 to 20)
#    0.000    1.429    3.571    1.286    6.000    1.714 
#    1.286    0.000    0.000    1.714    0.000    0.000 
#    0.000    0.000    0.000    0.000    0.000    0.000 
#
# Total GULP energy -347026.615408 kJ/mol
# GULP energy per Si atom -12393.807693 kJ/mol
# Density = 2.017610 g / cm^3
# Si number density = 20.222129 Si / 1000 Ang^3
#
#
#
# Elastic Constant Matrix: (Units=GPa)
#
#
# Indices 1 2 3 4 5 6 
#
# 1 94.1524 39.0328 40.2504 0.0000 -17.6838 0.0000
# 2 39.0328 88.1395 31.6494 0.0000 -5.7649 0.0000
# 3 40.2504 31.6494 88.4907 0.0000 -11.6331 0.0000
# 4 0.0000 0.0000 0.0000 24.4792 0.0000 -0.7113
# 5 -17.6838 -5.7649 -11.6331 0.0000 39.4767 0.0000
# 6 0.0000 0.0000 0.0000 -0.7113 0.0000 32.8430
#
#
#
# Elastic Compliance Matrix: (Units=1/GPa)
#
#
# Indices 1 2 3 4 5 6 
#
# 1 0.015571 -0.004892 -0.004692 0.000000 0.004878 0.000000
# 2 -0.004892 0.014566 -0.003114 0.000000 -0.000982 0.000000
# 3 -0.004692 -0.003114 0.014785 0.000000 0.001801 0.000000
# 4 0.000000 0.000000 0.000000 0.040877 0.000000 0.000885
# 5 0.004878 -0.000982 0.001801 0.000000 0.027904 0.000000
# 6 0.000000 0.000000 0.000000 0.000885 0.000000 0.030467
#
#
# Mechanical properties :
#
#
# Convention : Reuss Voigt Hill
#
# Bulk Modulus (GPa) = 51.20951 54.73864 52.97408
# Shear Modulus (GPa) = 28.39733 30.01644 29.20689
#
# Velocity S-wave (km/s) = 3.75142 3.85689 3.80452
# Velocity P-wave (km/s) = 6.64400 6.85285 6.74923
#
# Compressibility (1/GPa) = 0.01952762
#
# Stress axis : x y z
#
# Youngs Moduli (GPa) = 64.22178 68.65369 67.63643
#
# Poissons Ratio (x) = 0.33585 0.31733
# Poissons Ratio (y) = 0.31417 0.21059
# Poissons Ratio (z) = 0.30131 0.21376
#
# Static dielectric constant tensor:
#      x y z
#    x 3.759470 0.000000 -0.197580 
#    y 0.000000 3.557840 0.000000 
#    z -0.197580 0.000000 4.038250 
# 
# 
# High freq. dielectric constant tensor:
#      x y z
#    x 1.780010 0.000000 -0.014590 
#    y 0.000000 1.764800 0.000000 
#    z -0.014590 0.000000 1.819050 
# 
# From -- ./inp_files/232820.got.cif
#   From: 2010.06.25/outbox.cif.g09.slc.cpg/sg15_117_cif.got.tgz:232820.got - 2010.06.28 07:06:18.
