data_PCOD8142304
_publ_section_title
;
Structure prediction by ZEFSAII (Michael W. Deem and Ramdas Pophale) SiO2 
 PCOD8142304
Probable space group: C 2/C
;
_chemical_formula_sum "Si O2"
_cell_formula_units_Z 64
_cell_length_a 8.759151
_cell_length_b 11.319922
_cell_length_c 30.295623
_cell_angle_alpha 90.000000
_cell_angle_beta 96.897530
_cell_angle_gamma 90.000000
_cell_volume 2982.158404
_symmetry_space_group_name_H-M "C 2/C"
_symmetry_group_IT_number 15
_symmetry_cell_setting 'monoclinic'
loop_
_space_group_symop_operation_xyz
x,y,z
-x,y,1/2-z
-x,-y,-z
x,-y,1/2+z
1/2+x,1/2+y,z
1/2-x,1/2+y,1/2-z
1/2-x,1/2-y,-z
1/2+x,1/2-y,1/2+z
loop_
_atom_site_type_symbol
_atom_site_label
_atom_site_fract_x
_atom_site_fract_y
_atom_site_fract_z
Si Si1 0.628200 0.044044 0.197219
Si Si2 0.295296 0.990443 0.202923
Si Si3 0.156677 0.003814 0.455934
Si Si4 0.660387 0.340174 0.629230
Si Si5 0.123455 0.211051 0.660935
Si Si6 0.202535 0.988775 0.053659
Si Si7 0.828620 0.243227 0.087598
Si Si8 0.314006 0.400960 0.133897
O O1 0.467483 0.976322 0.190033
O O2 0.711429 0.033156 0.247091
O O3 0.571135 0.178008 0.187815
O O4 0.746898 0.997884 0.164804
O O5 0.179744 0.073562 0.171306
O O6 0.243620 0.855635 0.196303
O O7 0.238480 0.968054 0.504786
O O8 0.185553 0.145217 0.451475
O O9 0.235513 0.937764 0.417388
O O10 0.979391 0.960248 0.450463
O O11 0.733741 0.404923 0.588762
O O12 0.487934 0.292743 0.616928
O O13 0.759564 0.227845 0.644174
O O14 0.194347 0.265224 0.618778
O O15 0.997432 0.110728 0.644675
O O16 0.314084 0.876569 0.067762
#
# Coordination Sequence:
#
# PCOD8142304 Si02
#       8
#     8   8   8   8   8   8   8   8
#     4  11  27  45  67  99 131 168 222 278 330 394
#     4  11  25  47  66  96 133 171 217 274 332 396
#     4  10  21  38  65  97 127 170 228 268 329 392
#     4  11  24  40  65  94 134 172 218 273 332 392
#     4  12  23  44  69  94 132 174 217 271 332 393
#     4  10  21  40  63  94 131 173 220 277 322 391
#     4  11  20  41  66  93 128 176 218 267 335 389
#     4  12  24  42  67  96 130 174 218 276 329 394
#
# _framework density 21.460965999999999
#
# number of rings (size 3 to 8) (size 9 to 14) (size 15 to 20)
#    0.000    1.000    5.000    1.875    1.750    1.000 
#    0.000    0.625    0.000    0.000    0.000    0.000 
#    0.000    0.000    0.000    0.000    0.000    0.000 
#
# Total GULP energy -396570.385501 kJ/mol
# GULP energy per Si atom -12392.824547 kJ/mol
# Density = 2.141212 g / cm^3
# Si number density = 21.460966 Si / 1000 Ang^3
#
#
#
# Elastic Constant Matrix: (Units=GPa)
#
#
# Indices 1 2 3 4 5 6 
#
# 1 76.4841 25.2604 28.2183 0.0000 -1.9346 0.0000
# 2 25.2604 94.9515 27.2613 0.0000 2.3343 0.0000
# 3 28.2183 27.2613 130.0968 0.0000 -5.2098 0.0000
# 4 0.0000 0.0000 0.0000 27.6179 0.0000 3.0662
# 5 -1.9346 2.3343 -5.2098 0.0000 28.1024 0.0000
# 6 0.0000 0.0000 0.0000 3.0662 0.0000 41.9222
#
#
#
# Elastic Compliance Matrix: (Units=1/GPa)
#
#
# Indices 1 2 3 4 5 6 
#
# 1 0.015133 -0.003313 -0.002554 0.000000 0.000843 0.000000
# 2 -0.003313 0.011984 -0.001855 0.000000 -0.001568 0.000000
# 3 -0.002554 -0.001855 0.008693 0.000000 0.001590 0.000000
# 4 0.000000 0.000000 0.000000 0.036505 0.000000 -0.002670
# 5 0.000843 -0.001568 0.001590 0.000000 0.036067 0.000000
# 6 0.000000 0.000000 0.000000 -0.002670 0.000000 0.024049
#
#
# Mechanical properties :
#
#
# Convention : Reuss Voigt Hill
#
# Bulk Modulus (GPa) = 49.10552 51.44581 50.27566
# Shear Modulus (GPa) = 32.32800 34.24799 33.28800
#
# Velocity S-wave (km/s) = 3.88540 3.99911 3.94267
# Velocity P-wave (km/s) = 6.56197 6.73407 6.64858
#
# Compressibility (1/GPa) = 0.02036431
#
# Stress axis : x y z
#
# Youngs Moduli (GPa) = 66.08268 83.44216 115.03415
#
# Poissons Ratio (x) = 0.27646 0.29383
# Poissons Ratio (y) = 0.21894 0.21344
# Poissons Ratio (z) = 0.16879 0.15482
#
# Static dielectric constant tensor:
#      x y z
#    x 3.827340 0.000000 0.070740 
#    y 0.000000 3.949570 0.000000 
#    z 0.070740 0.000000 4.005800 
# 
# 
# High freq. dielectric constant tensor:
#      x y z
#    x 1.830190 0.000000 0.003460 
#    y 0.000000 1.850040 0.000000 
#    z 0.003460 0.000000 1.847720 
# 
# From -- ./inp_files/307492.got.cif
#   From: 2010.06.25/outbox.cif.g09.slc.cpg/sg15_154_cif.got.tgz:307492.got - 2010.06.28 07:06:18.
