data_PCOD8142617
_publ_section_title
;
Structure prediction by ZEFSAII (Michael W. Deem and Ramdas Pophale) SiO2 
 PCOD8142617
Probable space group: C 2/C
;
_chemical_formula_sum "Si O2"
_cell_formula_units_Z 56
_cell_length_a 13.888341
_cell_length_b 21.826663
_cell_length_c 12.740012
_cell_angle_alpha 90.000000
_cell_angle_beta 41.156250
_cell_angle_gamma 90.000000
_cell_volume 2541.611506
_symmetry_space_group_name_H-M "C 2/C"
_symmetry_group_IT_number 15
_symmetry_cell_setting 'monoclinic'
loop_
_space_group_symop_operation_xyz
x,y,z
-x,y,1/2-z
-x,-y,-z
x,-y,1/2+z
1/2+x,1/2+y,z
1/2-x,1/2+y,1/2-z
1/2-x,1/2-y,-z
1/2+x,1/2-y,1/2+z
loop_
_atom_site_type_symbol
_atom_site_label
_atom_site_fract_x
_atom_site_fract_y
_atom_site_fract_z
Si Si1 0.851341 0.097497 0.165467
Si Si2 0.171881 0.577078 0.122312
Si Si3 0.663989 0.613823 0.815656
Si Si4 0.153055 0.663942 0.654051
Si Si5 0.844442 0.008661 0.829363
Si Si6 0.172451 0.190669 0.614274
Si Si7 0.142587 0.201291 0.194173
O O1 0.712642 0.074085 0.212017
O O2 0.834845 0.167819 0.213511
O O3 0.857603 0.058421 0.268321
O O4 0.996823 0.095802 0.976688
O O5 0.000000 0.588400 0.250000
O O6 0.223819 0.513988 0.022150
O O7 0.268115 0.632866 0.998401
O O8 0.749525 0.618960 0.855510
O O9 0.717408 0.554795 0.708189
O O10 0.695046 0.675229 0.720343
O O11 0.126956 0.727523 0.737800
O O12 0.220060 0.684446 0.489211
O O13 0.000000 0.631174 0.750000
O O14 0.000000 0.029126 0.750000
O O15 0.250000 0.250000 0.500000
O O16 0.000000 0.199825 0.750000
O O17 0.000000 0.177357 0.250000
#
# Coordination Sequence:
#
# PCOD8142617 Si02
#       7
#     8   8   8   8   8   8   8
#     4  12  23  41  74  94 128 191 227 276 352 408
#     4  11  25  45  63 100 143 171 231 295 339 412
#     4  11  22  41  69  98 131 178 227 273 341 413
#     4  10  23  40  61  96 138 168 216 287 337 407
#     4  11  24  43  70 100 131 173 237 286 330 417
#     4  11  23  43  68 102 138 181 231 284 344 415
#     4  10  21  39  62  95 129 172 231 271 330 416
#
# _framework density 22.033263999999999
#
# number of rings (size 3 to 8) (size 9 to 14) (size 15 to 20)
#    0.000    1.143    4.286    2.143    2.000    2.857 
#    0.000    1.429    0.000    0.000    0.000    0.000 
#    0.000    0.000    0.000    0.000    0.000    0.000 
#
# Total GULP energy -347014.034229 kJ/mol
# GULP energy per Si atom -12393.358365 kJ/mol
# Density = 2.198312 g / cm^3
# Si number density = 22.033264 Si / 1000 Ang^3
#
#
#
# Elastic Constant Matrix: (Units=GPa)
#
#
# Indices 1 2 3 4 5 6 
#
# 1 127.0654 15.6250 32.8115 0.0030 -14.8658 -0.0010
# 2 15.6250 59.9826 20.8847 0.0017 0.7153 -0.0008
# 3 32.8115 20.8847 78.2598 0.0063 -20.3880 -0.0029
# 4 0.0030 0.0017 0.0063 39.0240 -0.0052 9.2888
# 5 -14.8658 0.7153 -20.3880 -0.0052 40.0458 0.0021
# 6 -0.0010 -0.0008 -0.0029 9.2888 0.0021 26.5013
#
#
#
# Elastic Compliance Matrix: (Units=1/GPa)
#
#
# Indices 1 2 3 4 5 6 
#
# 1 0.009012 -0.001350 -0.002929 0.000000 0.001879 0.000000
# 2 -0.001350 0.018958 -0.005432 0.000000 -0.003606 0.000000
# 3 -0.002929 -0.005432 0.017522 -0.000002 0.007930 0.000002
# 4 0.000000 0.000000 -0.000002 0.027958 0.000003 -0.009799
# 5 0.001879 -0.003606 0.007930 0.000003 0.029771 -0.000003
# 6 0.000000 0.000000 0.000002 -0.009799 -0.000003 0.041169
#
#
# Mechanical properties :
#
#
# Convention : Reuss Voigt Hill
#
# Bulk Modulus (GPa) = 38.36019 44.88336 41.62177
# Shear Modulus (GPa) = 28.98548 34.18000 31.58274
#
# Velocity S-wave (km/s) = 3.63096 3.94292 3.79015
# Velocity P-wave (km/s) = 5.91831 6.41434 6.17131
#
# Compressibility (1/GPa) = 0.02606869
#
# Stress axis : x y z
#
# Youngs Moduli (GPa) = 110.96268 52.74923 57.07267
#
# Poissons Ratio (x) = 0.07122 0.16715
# Poissons Ratio (y) = 0.14983 0.31003
# Poissons Ratio (z) = 0.32498 0.28655
#
# Static dielectric constant tensor:
#      x y z
#    x 3.856170 0.000000 0.132340 
#    y 0.000000 3.927090 0.000000 
#    z 0.132340 0.000000 4.232520 
# 
# 
# High freq. dielectric constant tensor:
#      x y z
#    x 1.862940 0.000000 0.008900 
#    y 0.000000 1.856720 0.000000 
#    z 0.008900 0.000000 1.870140 
# 
# From -- ./inp_files/92004.got.cif
#   From: 2010.06.25/outbox.cif.g09.slc.cpg/sg15_47_cif.got.tgz:92004.got - 2010.06.28 07:06:18.
