data_PCOD8142851
_publ_section_title
;
Structure prediction by ZEFSAII (Michael W. Deem and Ramdas Pophale) SiO2 
 PCOD8142851
Probable space group: C 2/C
;
_chemical_formula_sum "Si O2"
_cell_formula_units_Z 56
_cell_length_a 18.777657
_cell_length_b 18.364819
_cell_length_c 9.102520
_cell_angle_alpha 90.000000
_cell_angle_beta 64.353143
_cell_angle_gamma 90.000000
_cell_volume 2829.731592
_symmetry_space_group_name_H-M "C 2/C"
_symmetry_group_IT_number 15
_symmetry_cell_setting 'monoclinic'
loop_
_space_group_symop_operation_xyz
x,y,z
-x,y,1/2-z
-x,-y,-z
x,-y,1/2+z
1/2+x,1/2+y,z
1/2-x,1/2+y,1/2-z
1/2-x,1/2-y,-z
1/2+x,1/2-y,1/2+z
loop_
_atom_site_type_symbol
_atom_site_label
_atom_site_fract_x
_atom_site_fract_y
_atom_site_fract_z
Si Si1 0.661729 0.841363 0.848549
Si Si2 0.770318 0.953482 0.302009
Si Si3 0.219059 0.171784 0.493841
Si Si4 0.428885 0.710118 0.719559
Si Si5 0.944860 0.469436 0.674670
Si Si6 0.452956 0.446339 0.144542
Si Si7 0.187255 0.434459 0.076730
O O1 0.749405 0.847341 0.697217
O O2 0.616929 0.765992 0.846803
O O3 0.609815 0.906119 0.833060
O O4 0.672236 0.854008 0.015866
O O5 0.744243 0.884779 0.422993
O O6 0.862355 0.973365 0.234978
O O7 0.751764 0.934160 0.148694
O O8 0.717844 0.019610 0.408923
O O9 0.250000 0.250000 0.500000
O O10 0.125043 0.174832 0.601018
O O11 0.500000 0.746773 0.750000
O O12 0.454929 0.640106 0.597593
O O13 0.894823 0.536107 0.786921
O O14 0.000000 0.434939 0.750000
O O15 0.000000 0.500000 0.500000
O O16 0.500000 0.455599 0.250000
O O17 0.500000 0.500000 0.000000
#
# Coordination Sequence:
#
# PCOD8142851 Si02
#       7
#     8   8   8   8   8   8   8
#     4  11  21  38  61  88 128 164 210 257 312 375
#     4  11  20  37  60  93 123 162 210 257 312 381
#     4   9  19  37  60  85 116 160 206 255 310 380
#     4   9  20  39  63  90 121 163 210 256 323 376
#     4  12  22  36  55  85 124 165 216 254 303 366
#     4  10  21  39  66  94 120 152 205 264 314 369
#     4  12  22  36  58  91 126 166 210 256 311 376
#
# _framework density 19.789861999999999
#
# number of rings (size 3 to 8) (size 9 to 14) (size 15 to 20)
#    0.000    1.429    4.286    1.286    0.000    2.286 
#    0.000    6.429    3.143    0.000    0.000    0.000 
#    0.000    0.000    0.000    0.000    0.000    0.000 
#
# Total GULP energy -346890.028642 kJ/mol
# GULP energy per Si atom -12388.929594 kJ/mol
# Density = 1.974482 g / cm^3
# Si number density = 19.789862 Si / 1000 Ang^3
#
#
#
# Elastic Constant Matrix: (Units=GPa)
#
#
# Indices 1 2 3 4 5 6 
#
# 1 115.3015 29.6642 49.3848 0.0000 3.6106 0.0000
# 2 29.6642 99.7207 57.8018 0.0000 -3.7032 0.0000
# 3 49.3848 57.8018 114.6045 0.0000 -0.8972 0.0000
# 4 0.0000 0.0000 0.0000 35.7400 0.0000 0.2835
# 5 3.6106 -3.7032 -0.8972 0.0000 34.0394 0.0000
# 6 0.0000 0.0000 0.0000 0.2835 0.0000 26.0846
#
#
#
# Elastic Compliance Matrix: (Units=1/GPa)
#
#
# Indices 1 2 3 4 5 6 
#
# 1 0.010732 -0.000785 -0.004239 0.000000 -0.001336 0.000000
# 2 -0.000785 0.014291 -0.006858 0.000000 0.001457 0.000000
# 3 -0.004239 -0.006858 0.014012 0.000000 0.000073 0.000000
# 4 0.000000 0.000000 0.000000 0.027982 0.000000 -0.000304
# 5 -0.001336 0.001457 0.000073 0.000000 0.029680 0.000000
# 6 0.000000 0.000000 0.000000 -0.000304 0.000000 0.038340
#
#
# Mechanical properties :
#
#
# Convention : Reuss Voigt Hill
#
# Bulk Modulus (GPa) = 65.48552 67.03647 66.26100
# Shear Modulus (GPa) = 30.50785 32.02451 31.26618
#
# Velocity S-wave (km/s) = 3.93057 4.02708 3.97912
# Velocity P-wave (km/s) = 7.33222 7.45459 7.39366
#
# Compressibility (1/GPa) = 0.01527055
#
# Stress axis : x y z
#
# Youngs Moduli (GPa) = 93.17550 69.97517 71.36768
#
# Poissons Ratio (x) = 0.05492 0.30255
# Poissons Ratio (y) = 0.07314 0.48944
# Poissons Ratio (z) = 0.39500 0.47989
#
# Static dielectric constant tensor:
#      x y z
#    x 3.931890 0.000000 -0.607630 
#    y 0.000000 3.017710 0.000000 
#    z -0.607630 0.000000 4.908070 
# 
# 
# High freq. dielectric constant tensor:
#      x y z
#    x 1.778780 0.000000 -0.012970 
#    y 0.000000 1.768430 0.000000 
#    z -0.012970 0.000000 1.764600 
# 
# From -- ./inp_files/50094.got.cif
#   From: 2010.06.25/outbox.cif.g09.slc.cpg/sg15_26_cif.got.tgz:50094.got - 2010.06.28 07:06:18.
