data_PCOD8142700
_publ_section_title
;
Structure prediction by ZEFSAII (Michael W. Deem and Ramdas Pophale) SiO2 
 PCOD8142700
Probable space group: C 2/C
;
_chemical_formula_sum "Si O2"
_cell_formula_units_Z 40
_cell_length_a 11.893377
_cell_length_b 16.018336
_cell_length_c 17.991677
_cell_angle_alpha 90.000000
_cell_angle_beta 149.543067
_cell_angle_gamma 90.000000
_cell_volume 1737.434494
_symmetry_space_group_name_H-M "C 2/C"
_symmetry_group_IT_number 15
_symmetry_cell_setting 'monoclinic'
loop_
_space_group_symop_operation_xyz
x,y,z
-x,y,1/2-z
-x,-y,-z
x,-y,1/2+z
1/2+x,1/2+y,z
1/2-x,1/2+y,1/2-z
1/2-x,1/2-y,-z
1/2+x,1/2-y,1/2+z
loop_
_atom_site_type_symbol
_atom_site_label
_atom_site_fract_x
_atom_site_fract_y
_atom_site_fract_z
Si Si1 0.882786 0.168613 0.254532
Si Si2 0.177918 0.839144 0.493363
Si Si3 0.504487 0.054207 0.407198
Si Si4 0.213079 0.601027 0.671503
Si Si5 0.033198 0.772707 0.986487
O O1 0.698993 0.110195 0.183299
O O2 0.061861 0.183526 0.422412
O O3 0.000000 0.126258 0.250000
O O4 0.768885 0.255719 0.160913
O O5 0.250000 0.750000 0.500000
O O6 0.380560 0.904992 0.600139
O O7 0.123584 0.828204 0.549365
O O8 0.968122 0.879665 0.332626
O O9 0.690193 0.055212 0.578433
O O10 0.405414 0.961559 0.335926
O O11 0.082878 0.686334 0.597322
#
# Coordination Sequence:
#
# PCOD8142700 Si02
#       5
#     8   8   8   8   8
#     4  11  23  41  63  95 134 181 235 285 350 425
#     4  12  21  39  71 103 137 179 238 303 337 423
#     4  10  23  38  66 102 138 184 228 293 358 417
#     4  10  21  39  64 101 140 176 232 283 352 420
#     4  11  22  41  70  98 130 185 239 286 347 419
#
# _framework density 23.022451
#
# number of rings (size 3 to 8) (size 9 to 14) (size 15 to 20)
#    0.000    1.200    6.000    1.200    0.000    7.200 
#    0.000    1.000    4.400    4.800    0.000    0.000 
#    0.000    0.000    0.000    0.000    0.000    0.000 
#
# Total GULP energy -247848.206804 kJ/mol
# GULP energy per Si atom -12392.410340 kJ/mol
# Density = 2.297005 g / cm^3
# Si number density = 23.022451 Si / 1000 Ang^3
#
#
#
# Elastic Constant Matrix: (Units=GPa)
#
#
# Indices 1 2 3 4 5 6 
#
# 1 84.0390 24.0178 35.6915 -0.0095 -5.3584 0.0196
# 2 24.0178 82.5638 38.5025 0.0027 9.7950 0.0078
# 3 35.6915 38.5025 97.4312 0.0071 -1.4790 0.0062
# 4 -0.0095 0.0027 0.0071 14.7100 -0.0016 35.8682
# 5 -5.3584 9.7950 -1.4790 -0.0016 38.5755 0.0075
# 6 0.0196 0.0078 0.0062 35.8682 0.0075 2.7337
#
#
#
# Elastic Compliance Matrix: (Units=1/GPa)
#
#
# Indices 1 2 3 4 5 6 
#
# 1 0.014616 -0.002538 -0.004313 -0.000008 0.002509 0.000008
# 2 -0.002538 0.015932 -0.005436 0.000000 -0.004606 -0.000001
# 3 -0.004313 -0.005436 0.014012 0.000001 0.001318 -0.000004
# 4 -0.000008 0.000000 0.000001 -0.002193 -0.000007 0.028779
# 5 0.002509 -0.004606 0.001318 -0.000007 0.027492 0.000005
# 6 0.000008 -0.000001 -0.000004 0.028779 0.000005 -0.011803
#
#
# Mechanical properties :
#
#
# Convention : Reuss Voigt Hill
#
# Bulk Modulus (GPa) = 50.03698 51.16196 50.59947
# Shear Modulus (GPa) = 55.99589 22.25866 39.12728
#
# Velocity S-wave (km/s) = 4.93711 3.11275 4.12700
# Velocity P-wave (km/s) = 7.36758 5.93210 6.68847
#
# Compressibility (1/GPa) = 0.01998522
#
# Stress axis : x y z
#
# Youngs Moduli (GPa) = 68.41589 62.76812 71.36805
#
# Poissons Ratio (x) = 0.15932 0.30783
# Poissons Ratio (y) = 0.17365 0.38795
# Poissons Ratio (z) = 0.29510 0.34120
#
# Static dielectric constant tensor:
#      x y z
#    x 4.293280 0.000000 -0.018080 
#    y 0.000000 4.276030 -0.000010 
#    z -0.018080 -0.000010 4.664390 
# 
# 
# High freq. dielectric constant tensor:
#      x y z
#    x 1.902310 0.000000 0.008840 
#    y 0.000000 1.891840 0.000000 
#    z 0.008840 0.000000 1.904870 
# 
# From -- ./inp_files/199733.got.cif
#   From: 2010.06.25/outbox.cif.g09.slc.cpg/sg15_100_cif.got.tgz:199733.got - 2010.06.28 07:06:18.
