data_PCOD8142108
_publ_section_title
;
Structure prediction by ZEFSAII (Michael W. Deem and Ramdas Pophale) SiO2 
 PCOD8142108
Probable space group: C 2/C
;
_chemical_formula_sum "Si O2"
_cell_formula_units_Z 48
_cell_length_a 12.307349
_cell_length_b 12.876331
_cell_length_c 19.735571
_cell_angle_alpha 90.000000
_cell_angle_beta 49.913049
_cell_angle_gamma 90.000000
_cell_volume 2392.800146
_symmetry_space_group_name_H-M "C 2/C"
_symmetry_group_IT_number 15
_symmetry_cell_setting 'monoclinic'
loop_
_space_group_symop_operation_xyz
x,y,z
-x,y,1/2-z
-x,-y,-z
x,-y,1/2+z
1/2+x,1/2+y,z
1/2-x,1/2+y,1/2-z
1/2-x,1/2-y,-z
1/2+x,1/2-y,1/2+z
loop_
_atom_site_type_symbol
_atom_site_label
_atom_site_fract_x
_atom_site_fract_y
_atom_site_fract_z
Si Si1 0.965740 0.169555 0.026483
Si Si2 0.684498 0.819803 0.319709
Si Si3 0.840263 0.003099 0.487017
Si Si4 0.663248 0.506032 0.168815
Si Si5 0.920415 0.387207 0.346936
Si Si6 0.273989 0.227943 0.144038
O O1 0.840304 0.228765 0.115981
O O2 0.046064 0.094856 0.047423
O O3 0.072399 0.251429 0.949625
O O4 0.896887 0.104089 0.993944
O O5 0.783806 0.907636 0.310748
O O6 0.529920 0.864925 0.363125
O O7 0.766706 0.776506 0.221608
O O8 0.693605 0.029447 0.583169
O O9 0.811084 0.986338 0.420267
O O10 0.500000 0.526576 0.250000
O O11 0.752514 0.605300 0.156988
O O12 0.846691 0.278508 0.355382
O O13 0.000000 0.436152 0.250000
#
# Coordination Sequence:
#
# PCOD8142108 Si02
#       6
#     8   8   8   8   8   8
#     4  10  21  39  61  88 120 155 194 237 288 343
#     4  11  23  38  59  88 118 150 193 242 292 345
#     4  10  21  38  62  89 119 155 194 237 287 345
#     4  12  24  39  60  86 117 154 197 242 292 347
#     4   9  19  37  59  87 115 149 198 243 283 335
#     4  10  21  39  64  85 112 152 198 245 283 337
#
# _framework density 20.060178000000001
#
# number of rings (size 3 to 8) (size 9 to 14) (size 15 to 20)
#    0.000    1.667    0.000    5.500    0.000   11.333 
#    0.000    2.500    0.000    0.000    0.000    0.000 
#    0.000    0.000    0.000    0.000    0.000    0.000 
#
# Total GULP energy -297746.791244 kJ/mol
# GULP energy per Si atom -12406.116302 kJ/mol
# Density = 2.001452 g / cm^3
# Si number density = 20.060178 Si / 1000 Ang^3
#
#
#
# Elastic Constant Matrix: (Units=GPa)
#
#
# Indices 1 2 3 4 5 6 
#
# 1 65.0506 48.0042 23.1453 0.0000 25.4256 0.0000
# 2 48.0042 95.9215 24.1138 0.0000 17.2770 0.0000
# 3 23.1453 24.1138 79.4266 0.0000 17.8711 0.0000
# 4 0.0000 0.0000 0.0000 22.1476 0.0000 6.7606
# 5 25.4256 17.2770 17.8711 0.0000 26.2566 0.0000
# 6 0.0000 0.0000 0.0000 6.7606 0.0000 24.9221
#
#
#
# Elastic Compliance Matrix: (Units=1/GPa)
#
#
# Indices 1 2 3 4 5 6 
#
# 1 0.034677 -0.012728 -0.000673 0.000000 -0.024747 0.000000
# 2 -0.012728 0.016825 -0.001985 0.000000 0.002605 0.000000
# 3 -0.000673 -0.001985 0.015290 0.000000 -0.008449 0.000000
# 4 0.000000 0.000000 0.000000 0.049228 0.000000 -0.013354
# 5 -0.024747 0.002605 -0.008449 0.000000 0.066085 0.000000
# 6 0.000000 0.000000 0.000000 -0.013354 0.000000 0.043748
#
#
# Mechanical properties :
#
#
# Convention : Reuss Voigt Hill
#
# Bulk Modulus (GPa) = 27.76248 47.88061 37.82154
# Shear Modulus (GPa) = 18.61289 24.34094 21.47692
#
# Velocity S-wave (km/s) = 3.04937 3.48716 3.27559
# Velocity P-wave (km/s) = 5.12522 6.33514 5.76203
#
# Compressibility (1/GPa) = 0.03601983
#
# Stress axis : x y z
#
# Youngs Moduli (GPa) = 28.83758 59.43668 65.40191
#
# Poissons Ratio (x) = 0.75650 0.04401
# Poissons Ratio (y) = 0.36704 0.12984
# Poissons Ratio (z) = 0.01941 0.11799
#
# Static dielectric constant tensor:
#      x y z
#    x 3.580660 0.000000 0.071510 
#    y 0.000000 3.502690 0.000000 
#    z 0.071510 0.000000 3.834660 
# 
# 
# High freq. dielectric constant tensor:
#      x y z
#    x 1.775250 0.000000 0.005690 
#    y 0.000000 1.773830 0.000000 
#    z 0.005690 0.000000 1.800380 
# 
# From -- ./inp_files/237440.got.cif
#   From: 2010.06.25/outbox.cif.g09.slc.cpg/sg15_119_cif.got.tgz:237440.got - 2010.06.28 07:06:18.
