data_PCOD8142241
_publ_section_title
;
Structure prediction by ZEFSAII (Michael W. Deem and Ramdas Pophale) SiO2 
 PCOD8142241
Probable space group: C 2/C
;
_chemical_formula_sum "Si O2"
_cell_formula_units_Z 48
_cell_length_a 14.303086
_cell_length_b 14.135450
_cell_length_c 12.132842
_cell_angle_alpha 90.000000
_cell_angle_beta 69.652315
_cell_angle_gamma 90.000000
_cell_volume 2299.955688
_symmetry_space_group_name_H-M "C 2/C"
_symmetry_group_IT_number 15
_symmetry_cell_setting 'monoclinic'
loop_
_space_group_symop_operation_xyz
x,y,z
-x,y,1/2-z
-x,-y,-z
x,-y,1/2+z
1/2+x,1/2+y,z
1/2-x,1/2+y,1/2-z
1/2-x,1/2-y,-z
1/2+x,1/2-y,1/2+z
loop_
_atom_site_type_symbol
_atom_site_label
_atom_site_fract_x
_atom_site_fract_y
_atom_site_fract_z
Si Si1 0.993280 0.401293 0.125287
Si Si2 0.327196 0.424878 0.313621
Si Si3 0.300391 0.792852 0.835066
Si Si4 0.005169 0.078664 0.910538
Si Si5 0.900617 0.746547 0.509356
Si Si6 0.356040 0.064673 0.119346
O O1 0.919285 0.328335 0.097244
O O2 0.942928 0.504637 0.142511
O O3 0.000000 0.370467 0.250000
O O4 0.100055 0.400073 0.016977
O O5 0.283898 0.319556 0.328524
O O6 0.382886 0.437800 0.176186
O O7 0.413946 0.438294 0.366169
O O8 0.241773 0.503012 0.364673
O O9 0.189185 0.820278 0.921931
O O10 0.331756 0.847755 0.711391
O O11 0.379273 0.809652 0.902475
O O12 0.997809 0.187051 0.956514
O O13 0.000000 0.000000 0.000000
#
# Coordination Sequence:
#
# PCOD8142241 Si02
#       6
#     8   8   8   8   8   8
#     4  11  26  42  61  94 132 169 214 267 322 386
#     4  10  21  41  61  95 124 158 220 260 315 386
#     4  10  21  39  70  92 122 168 216 267 314 379
#     4  10  21  38  64  91 124 167 207 261 320 385
#     4  10  21  42  66  96 128 167 217 264 318 382
#     4  11  24  41  67  94 127 172 215 268 326 379
#
# _framework density 20.869968
#
# number of rings (size 3 to 8) (size 9 to 14) (size 15 to 20)
#    0.000    1.667    1.667    2.000    4.667    2.667 
#    6.000    0.833    0.000    0.000    0.000    0.000 
#    0.000    0.000    0.000    0.000    0.000    0.000 
#
# Total GULP energy -297372.963343 kJ/mol
# GULP energy per Si atom -12390.540139 kJ/mol
# Density = 2.082247 g / cm^3
# Si number density = 20.869968 Si / 1000 Ang^3
#
#
#
# Elastic Constant Matrix: (Units=GPa)
#
#
# Indices 1 2 3 4 5 6 
#
# 1 67.5819 37.2894 42.2208 0.0000 -10.4334 0.0000
# 2 37.2894 79.4658 48.4874 0.0000 8.5124 0.0000
# 3 42.2208 48.4874 153.7736 0.0000 -3.0618 0.0000
# 4 0.0000 0.0000 0.0000 43.6416 0.0000 1.9495
# 5 -10.4334 8.5124 -3.0618 0.0000 36.8901 0.0000
# 6 0.0000 0.0000 0.0000 1.9495 0.0000 11.5705
#
#
#
# Elastic Compliance Matrix: (Units=1/GPa)
#
#
# Indices 1 2 3 4 5 6 
#
# 1 0.023717 -0.010159 -0.003134 0.000000 0.008792 0.000000
# 2 -0.010159 0.020549 -0.003848 0.000000 -0.007934 0.000000
# 3 -0.003134 -0.003848 0.008591 0.000000 0.000715 0.000000
# 4 0.000000 0.000000 0.000000 0.023088 0.000000 -0.003890
# 5 0.008792 -0.007934 0.000715 0.000000 0.031484 0.000000
# 6 0.000000 0.000000 0.000000 -0.003890 0.000000 0.087082
#
#
# Mechanical properties :
#
#
# Convention : Reuss Voigt Hill
#
# Bulk Modulus (GPa) = 53.83338 61.86849 57.85093
# Shear Modulus (GPa) = 21.27790 29.94202 25.60996
#
# Velocity S-wave (km/s) = 3.19650 3.79184 3.50683
# Velocity P-wave (km/s) = 6.28284 6.99141 6.64658
#
# Compressibility (1/GPa) = 0.01857583
#
# Stress axis : x y z
#
# Youngs Moduli (GPa) = 42.16323 48.66367 116.40054
#
# Poissons Ratio (x) = 0.49439 0.36474
# Poissons Ratio (y) = 0.42835 0.44792
# Poissons Ratio (z) = 0.13212 0.18726
#
# Static dielectric constant tensor:
#      x y z
#    x 4.148130 0.000000 -0.497370 
#    y 0.000000 3.633960 0.000000 
#    z -0.497370 0.000000 4.219100 
# 
# 
# High freq. dielectric constant tensor:
#      x y z
#    x 1.807260 0.000000 -0.022320 
#    y 0.000000 1.809220 0.000000 
#    z -0.022320 0.000000 1.833650 
# 
# From -- ./inp_files/96847.got.cif
#   From: 2010.06.25/outbox.cif.g09.slc.cpg/sg15_49_cif.got.tgz:96847.got - 2010.06.28 07:06:18.
