data_PCOD8142691
_publ_section_title
;
Structure prediction by ZEFSAII (Michael W. Deem and Ramdas Pophale) SiO2 
 PCOD8142691
Probable space group: C 2/C
;
_chemical_formula_sum "Si O2"
_cell_formula_units_Z 60
_cell_length_a 22.453777
_cell_length_b 27.912600
_cell_length_c 8.470094
_cell_angle_alpha 90.000000
_cell_angle_beta 148.071264
_cell_angle_gamma 90.000000
_cell_volume 2807.514330
_symmetry_space_group_name_H-M "C 2/C"
_symmetry_group_IT_number 15
_symmetry_cell_setting 'monoclinic'
loop_
_space_group_symop_operation_xyz
x,y,z
-x,y,1/2-z
-x,-y,-z
x,-y,1/2+z
1/2+x,1/2+y,z
1/2-x,1/2+y,1/2-z
1/2-x,1/2-y,-z
1/2+x,1/2-y,1/2+z
loop_
_atom_site_type_symbol
_atom_site_label
_atom_site_fract_x
_atom_site_fract_y
_atom_site_fract_z
Si Si1 0.500000 0.612870 0.250000
Si Si2 0.870964 0.048290 0.497498
Si Si3 0.620902 0.116517 0.538143
Si Si4 0.668238 0.269330 0.593541
Si Si5 0.851840 0.145660 0.638311
Si Si6 0.891173 0.299061 0.266413
Si Si7 0.677779 0.448461 0.966401
Si Si8 0.138738 0.310144 0.798800
O O1 0.580108 0.645989 0.541255
O O2 0.431310 0.579383 0.215472
O O3 0.851121 0.092674 0.567569
O O4 0.809500 0.055491 0.193138
O O5 0.000000 0.038909 0.750000
O O6 0.822240 0.003254 0.481613
O O7 0.639440 0.147561 0.739401
O O8 0.624847 0.153981 0.409447
O O9 0.712486 0.075949 0.715527
O O10 0.500000 0.090496 0.250000
O O11 0.598461 0.317142 0.380468
O O12 0.597966 0.240484 0.567619
O O13 0.690481 0.238523 0.485956
O O14 0.793796 0.282368 0.931872
O O15 0.723479 0.165005 0.366703
O O16 0.011807 0.300306 0.447106
#
# Coordination Sequence:
#
# PCOD8142691 Si02
#       8
#     4   8   8   8   8   8   8   8
#     4  12  24  42  68  98 136 174 216 274 332 380
#     4  12  25  41  68  97 133 173 216 271 338 394
#     4   9  19  39  67  91 128 176 219 267 326 390
#     4  10  21  39  63  94 133 170 225 267 319 387
#     4  12  25  41  62 100 134 169 221 274 325 397
#     4   9  20  41  66  94 130 180 218 265 331 388
#     4  12  23  44  68  97 133 174 219 271 333 396
#     4  10  21  39  64  91 131 176 213 271 326 379
#
# _framework density 21.371216
#
# number of rings (size 3 to 8) (size 9 to 14) (size 15 to 20)
#    0.000    1.333    3.333    3.600    0.000    2.667 
#    4.800    0.667    2.933    0.000    0.000    0.000 
#    0.000    0.000    0.000    0.000    0.000    0.000 
#
# Total GULP energy -371866.530597 kJ/mol
# GULP energy per Si atom -12395.551020 kJ/mol
# Density = 2.132257 g / cm^3
# Si number density = 21.371216 Si / 1000 Ang^3
#
#
#
# Elastic Constant Matrix: (Units=GPa)
#
#
# Indices 1 2 3 4 5 6 
#
# 1 68.6335 27.2261 37.6333 0.0000 6.8281 0.0000
# 2 27.2261 115.2705 55.1149 0.0000 14.2980 0.0000
# 3 37.6333 55.1149 85.8013 0.0000 5.3602 0.0000
# 4 0.0000 0.0000 0.0000 -21.5416 0.0000 11.1387
# 5 6.8281 14.2980 5.3602 0.0000 35.1755 0.0000
# 6 0.0000 0.0000 0.0000 11.1387 0.0000 31.3745
#
#
#
# Elastic Compliance Matrix: (Units=1/GPa)
#
#
# Indices 1 2 3 4 5 6 
#
# 1 0.019411 -0.000421 -0.008096 0.000000 -0.002363 0.000000
# 2 -0.000421 0.013084 -0.007969 0.000000 -0.004022 0.000000
# 3 -0.008096 -0.007969 0.020216 0.000000 0.001730 0.000000
# 4 0.000000 0.000000 0.000000 -0.039222 0.000000 0.013925
# 5 -0.002363 -0.004022 0.001730 0.000000 0.030259 0.000000
# 6 0.000000 0.000000 0.000000 0.013925 0.000000 0.026929
#
#
# Mechanical properties :
#
#
# Convention : Reuss Voigt Hill
#
# Bulk Modulus (GPa) = 50.65665 56.62822 53.64244
# Shear Modulus (GPa) = 45.36004 18.98373 32.17188
#
# Velocity S-wave (km/s) = 4.61204 2.98364 3.88414
# Velocity P-wave (km/s) = 7.21913 6.19875 6.72831
#
# Compressibility (1/GPa) = 0.01974074
#
# Stress axis : x y z
#
# Youngs Moduli (GPa) = 51.51595 76.43198 49.46470
#
# Poissons Ratio (x) = 0.03215 0.40048
# Poissons Ratio (y) = 0.02167 0.39416
# Poissons Ratio (z) = 0.41708 0.60905
#
# Static dielectric constant tensor:
#      x y z
#    x 3.510170 0.000000 -0.596630 
#    y 0.000000 3.912630 0.000000 
#    z -0.596630 0.000000 3.420230 
# 
# 
# High freq. dielectric constant tensor:
#      x y z
#    x 1.839090 0.000000 -0.004570 
#    y 0.000000 1.835760 0.000000 
#    z -0.004570 0.000000 1.840590 
# 
# From -- ./inp_files/64124.got.cif
#   From: 2010.06.25/outbox.cif.g09.slc.cpg/sg15_33_cif.got.tgz:64124.got - 2010.06.28 07:06:18.
