data_PCOD8142690
_publ_section_title
;
Structure prediction by ZEFSAII (Michael W. Deem and Ramdas Pophale) SiO2 
 PCOD8142690
Probable space group: C 2/C
;
_chemical_formula_sum "Si O2"
_cell_formula_units_Z 36
_cell_length_a 15.199084
_cell_length_b 12.756668
_cell_length_c 9.464425
_cell_angle_alpha 90.000000
_cell_angle_beta 61.657328
_cell_angle_gamma 90.000000
_cell_volume 1615.075310
_symmetry_space_group_name_H-M "C 2/C"
_symmetry_group_IT_number 15
_symmetry_cell_setting 'monoclinic'
loop_
_space_group_symop_operation_xyz
x,y,z
-x,y,1/2-z
-x,-y,-z
x,-y,1/2+z
1/2+x,1/2+y,z
1/2-x,1/2+y,1/2-z
1/2-x,1/2-y,-z
1/2+x,1/2-y,1/2+z
loop_
_atom_site_type_symbol
_atom_site_label
_atom_site_fract_x
_atom_site_fract_y
_atom_site_fract_z
Si Si1 0.000000 0.970247 0.250000
Si Si2 0.713978 0.168362 0.140693
Si Si3 0.093209 0.487947 0.582299
Si Si4 0.462789 0.825116 0.535515
Si Si5 0.582465 0.627625 0.408320
O O1 0.930008 0.038785 0.199971
O O2 0.935105 0.903425 0.412294
O O3 0.691041 0.053069 0.090375
O O4 0.608085 0.212113 0.281505
O O5 0.801012 0.158398 0.191021
O O6 0.750000 0.250000 0.000000
O O7 0.114170 0.600556 0.494139
O O8 0.000000 0.513771 0.750000
O O9 0.059424 0.394897 0.502074
O O10 0.506832 0.722532 0.425178
#
# Coordination Sequence:
#
# PCOD8142690 Si02
#       5
#     4   8   8   8   8
#     4  10  26  44  64  92 130 178 226 278 334 396
#     4  11  21  37  67  95 130 174 219 260 334 401
#     4   9  20  38  61  96 130 167 215 271 323 396
#     4  10  21  39  63  94 132 170 213 271 336 384
#     4  11  23  44  68  91 135 176 222 277 333 396
#
# _framework density 22.289981000000001
#
# number of rings (size 3 to 8) (size 9 to 14) (size 15 to 20)
#    0.000    1.778    2.222    1.333    6.222    0.000 
#    0.000    1.111    0.000    0.000    0.000    0.000 
#    0.000    0.000    0.000    0.000    0.000    0.000 
#
# Total GULP energy -223003.544645 kJ/mol
# GULP energy per Si atom -12389.085814 kJ/mol
# Density = 2.223925 g / cm^3
# Si number density = 22.289981 Si / 1000 Ang^3
#
#
#
# Elastic Constant Matrix: (Units=GPa)
#
#
# Indices 1 2 3 4 5 6 
#
# 1 92.7134 25.0767 17.3279 0.0000 -16.9407 0.0000
# 2 25.0767 94.8146 30.4747 0.0000 -13.7506 0.0000
# 3 17.3279 30.4747 58.6448 0.0000 -0.1879 0.0000
# 4 0.0000 0.0000 0.0000 25.7423 0.0000 7.4560
# 5 -16.9407 -13.7506 -0.1879 0.0000 30.4649 0.0000
# 6 0.0000 0.0000 0.0000 7.4560 0.0000 32.0690
#
#
#
# Elastic Compliance Matrix: (Units=1/GPa)
#
#
# Indices 1 2 3 4 5 6 
#
# 1 0.012946 -0.001511 -0.003019 0.000000 0.006498 0.000000
# 2 -0.001511 0.013901 -0.006760 0.000000 0.005392 0.000000
# 3 -0.003019 -0.006760 0.021442 0.000000 -0.004598 0.000000
# 4 0.000000 0.000000 0.000000 0.041651 0.000000 -0.009684
# 5 0.006498 0.005392 -0.004598 0.000000 0.038844 0.000000
# 6 0.000000 0.000000 0.000000 -0.009684 0.000000 0.033434
#
#
# Mechanical properties :
#
#
# Convention : Reuss Voigt Hill
#
# Bulk Modulus (GPa) = 38.89702 43.54791 41.22247
# Shear Modulus (GPa) = 25.85722 29.20815 27.53268
#
# Velocity S-wave (km/s) = 3.40963 3.62383 3.51836
# Velocity P-wave (km/s) = 5.74361 6.09007 5.91938
#
# Compressibility (1/GPa) = 0.02570891
#
# Stress axis : x y z
#
# Youngs Moduli (GPa) = 77.24200 71.93513 46.63744
#
# Poissons Ratio (x) = 0.10871 0.14080
# Poissons Ratio (y) = 0.11673 0.31527
# Poissons Ratio (z) = 0.23320 0.48628
#
# Static dielectric constant tensor:
#      x y z
#    x 4.673170 0.000000 -0.076250 
#    y 0.000000 4.075800 0.000000 
#    z -0.076250 0.000000 4.043620 
# 
# 
# High freq. dielectric constant tensor:
#      x y z
#    x 1.863460 0.000000 -0.000780 
#    y 0.000000 1.875620 0.000000 
#    z -0.000780 0.000000 1.867070 
# 
# From -- ./inp_files/103513.got.cif
#   From: 2010.06.25/outbox.cif.g09.slc.cpg/sg15_52_cif.got.tgz:103513.got - 2010.06.28 07:06:18.
