data_PCOD8142600
_publ_section_title
;
Structure prediction by ZEFSAII (Michael W. Deem and Ramdas Pophale) SiO2 
 PCOD8142600
Probable space group: C 2/C
;
_chemical_formula_sum "Si O2"
_cell_formula_units_Z 64
_cell_length_a 17.378007
_cell_length_b 15.208762
_cell_length_c 18.534402
_cell_angle_alpha 90.000000
_cell_angle_beta 35.880048
_cell_angle_gamma 90.000000
_cell_volume 2871.024513
_symmetry_space_group_name_H-M "C 2/C"
_symmetry_group_IT_number 15
_symmetry_cell_setting 'monoclinic'
loop_
_space_group_symop_operation_xyz
x,y,z
-x,y,1/2-z
-x,-y,-z
x,-y,1/2+z
1/2+x,1/2+y,z
1/2-x,1/2+y,1/2-z
1/2-x,1/2-y,-z
1/2+x,1/2-y,1/2+z
loop_
_atom_site_type_symbol
_atom_site_label
_atom_site_fract_x
_atom_site_fract_y
_atom_site_fract_z
Si Si1 0.241295 0.907786 0.442886
Si Si2 0.934709 0.196213 0.906795
Si Si3 0.669662 0.771130 0.663373
Si Si4 0.847045 0.449356 0.763130
Si Si5 0.268143 0.599204 0.297204
Si Si6 0.501798 0.494737 0.165011
Si Si7 0.565871 0.920729 0.073546
Si Si8 0.403182 0.236459 0.760774
O O1 0.090669 0.918912 0.581301
O O2 0.333569 0.937229 0.438226
O O3 0.273829 0.807315 0.396649
O O4 0.263601 0.970662 0.357923
O O5 0.878920 0.221547 0.870786
O O6 0.087021 0.230382 0.794626
O O7 0.937116 0.091575 0.919242
O O8 0.830637 0.237200 0.044362
O O9 0.631664 0.874733 0.691797
O O10 0.769300 0.401498 0.757742
O O11 0.983625 0.489099 0.630123
O O12 0.355565 0.513198 0.247994
O O13 0.137736 0.596515 0.444013
O O14 0.354330 0.685254 0.247916
O O15 0.500000 0.473611 0.250000
O O16 0.474405 0.837154 0.159025
O O17 0.500000 0.272364 0.750000
#
# Coordination Sequence:
#
# PCOD8142600 Si02
#       8
#     8   8   8   8   8   8   8   8
#     4  10  22  43  73  95 130 170 228 278 325 398
#     4  10  22  38  63  96 129 170 225 276 330 390
#     4  10  21  39  62  91 133 169 218 275 323 403
#     4  11  24  44  64  99 132 179 214 266 353 400
#     4  12  26  41  66  98 139 175 217 278 336 406
#     4  12  22  41  66 102 131 171 226 274 333 391
#     4  10  23  43  71  98 128 172 229 279 327 395
#     4   9  22  43  68  98 124 172 226 278 329 386
#
# _framework density 22.291695000000001
#
# number of rings (size 3 to 8) (size 9 to 14) (size 15 to 20)
#    0.000    1.500    3.750    1.875    5.250    2.500 
#    6.750    0.000    0.000    0.000    0.000    0.000 
#    0.000    0.000    0.000    0.000    0.000    0.000 
#
# Total GULP energy -396612.541544 kJ/mol
# GULP energy per Si atom -12394.141923 kJ/mol
# Density = 2.224096 g / cm^3
# Si number density = 22.291695 Si / 1000 Ang^3
#
#
#
# Elastic Constant Matrix: (Units=GPa)
#
#
# Indices 1 2 3 4 5 6 
#
# 1 55.0503 20.2984 3.9249 0.0002 8.5162 -0.0003
# 2 20.2984 74.3777 13.8377 0.0002 -0.9970 -0.0003
# 3 3.9249 13.8377 126.5539 0.0008 -22.3904 -0.0011
# 4 0.0002 0.0002 0.0008 32.5274 -0.0004 -0.2907
# 5 8.5162 -0.9970 -22.3904 -0.0004 29.2393 0.0005
# 6 -0.0003 -0.0003 -0.0011 -0.2907 0.0005 16.3342
#
#
#
# Elastic Compliance Matrix: (Units=1/GPa)
#
#
# Indices 1 2 3 4 5 6 
#
# 1 0.021536 -0.005723 -0.001372 0.000000 -0.007519 0.000000
# 2 -0.005723 0.015261 -0.001277 0.000000 0.001209 0.000000
# 3 -0.001372 -0.001277 0.009424 0.000000 0.007573 0.000000
# 4 0.000000 0.000000 0.000000 0.030748 0.000000 0.000547
# 5 -0.007519 0.001209 0.007573 0.000000 0.042230 -0.000001
# 6 0.000000 0.000000 0.000000 0.000547 -0.000001 0.061231
#
#
# Mechanical properties :
#
#
# Convention : Reuss Voigt Hill
#
# Bulk Modulus (GPa) = 33.92638 36.90044 35.41341
# Shear Modulus (GPa) = 24.15456 30.14827 27.15141
#
# Velocity S-wave (km/s) = 3.29533 3.68155 3.49378
# Velocity P-wave (km/s) = 5.45264 5.88737 5.67417
#
# Compressibility (1/GPa) = 0.02947559
#
# Stress axis : x y z
#
# Youngs Moduli (GPa) = 46.43307 65.52841 106.11499
#
# Poissons Ratio (x) = 0.37502 0.14563
# Poissons Ratio (y) = 0.26573 0.13553
# Poissons Ratio (z) = 0.06372 0.08369
#
# Static dielectric constant tensor:
#      x y z
#    x 3.616030 0.000000 -0.368180 
#    y 0.000000 4.006160 0.000000 
#    z -0.368180 0.000000 4.744020 
# 
# 
# High freq. dielectric constant tensor:
#      x y z
#    x 1.831890 0.000000 -0.016910 
#    y 0.000000 1.881680 0.000000 
#    z -0.016910 0.000000 1.898430 
# 
# From -- ./inp_files/211382.got.cif
#   From: 2010.06.25/outbox.cif.g09.slc.cpg/sg15_106_cif.got.tgz:211382.got - 2010.06.28 07:06:18.
