data_PCOD8142455
_publ_section_title
;
Structure prediction by ZEFSAII (Michael W. Deem and Ramdas Pophale) SiO2 
 PCOD8142455
Probable space group: C 2/C
;
_chemical_formula_sum "Si O2"
_cell_formula_units_Z 64
_cell_length_a 16.765059
_cell_length_b 22.341197
_cell_length_c 17.038629
_cell_angle_alpha 90.000000
_cell_angle_beta 149.688804
_cell_angle_gamma 90.000000
_cell_volume 3220.893135
_symmetry_space_group_name_H-M "C 2/C"
_symmetry_group_IT_number 15
_symmetry_cell_setting 'monoclinic'
loop_
_space_group_symop_operation_xyz
x,y,z
-x,y,1/2-z
-x,-y,-z
x,-y,1/2+z
1/2+x,1/2+y,z
1/2-x,1/2+y,1/2-z
1/2-x,1/2-y,-z
1/2+x,1/2-y,1/2+z
loop_
_atom_site_type_symbol
_atom_site_label
_atom_site_fract_x
_atom_site_fract_y
_atom_site_fract_z
Si Si1 0.116230 0.124460 0.918395
Si Si2 0.400935 0.913256 0.398062
Si Si3 0.455100 0.203615 0.431603
Si Si4 0.544179 0.010270 0.410884
Si Si5 0.631622 0.801060 0.922077
Si Si6 0.900498 0.823923 0.926170
Si Si7 0.745920 0.495557 0.555362
Si Si8 0.418232 0.561960 0.957566
O O1 0.000000 0.142673 0.750000
O O2 0.290789 0.134345 0.030363
O O3 0.088775 0.165796 0.971060
O O4 0.108901 0.054844 0.935493
O O5 0.478057 0.847554 0.453581
O O6 0.511897 0.953995 0.438717
O O7 0.217046 0.916606 0.217970
O O8 0.408325 0.933206 0.495505
O O9 0.576522 0.202250 0.463457
O O10 0.275374 0.192030 0.252733
O O11 0.479607 0.269067 0.492362
O O12 0.685510 0.989826 0.472468
O O13 0.386526 0.028782 0.230274
O O14 0.500000 0.787925 0.750000
O O15 0.750000 0.750000 0.000000
O O16 0.954778 0.884550 0.927756
O O17 0.662463 0.552798 0.525115
O O18 0.500000 0.500000 0.000000
#
# Coordination Sequence:
#
# PCOD8142455 Si02
#       8
#     8   8   8   8   8   8   8   8
#     4  12  25  35  55  87 123 164 206 249 300 369
#     4  10  22  39  65  92 122 162 203 259 301 374
#     4  12  24  41  63  85 124 165 210 257 305 376
#     4   9  20  37  64  92 120 155 211 247 316 363
#     4  12  23  36  53  79 115 159 201 242 290 354
#     4  12  26  41  59  87 122 168 210 252 314 365
#     4  10  21  39  59  87 123 162 196 263 306 364
#     4  11  24  40  61  87 130 163 208 256 311 360
#
# _framework density 19.870266000000001
#
# number of rings (size 3 to 8) (size 9 to 14) (size 15 to 20)
#    0.000    1.000    3.750    2.625   10.500    0.000 
#    0.000    0.000    0.000    0.750    0.000    0.000 
#    0.000    0.000    0.000    0.000    0.000    0.000 
#
# Total GULP energy -396701.744895 kJ/mol
# GULP energy per Si atom -12396.929528 kJ/mol
# Density = 1.982504 g / cm^3
# Si number density = 19.870266 Si / 1000 Ang^3
#
#
#
# Elastic Constant Matrix: (Units=GPa)
#
#
# Indices 1 2 3 4 5 6 
#
# 1 85.6315 35.1759 28.1855 -0.0001 5.2122 0.0000
# 2 35.1759 129.6153 50.8141 0.0000 8.4323 0.0000
# 3 28.1855 50.8141 116.7779 -0.0002 10.1487 0.0000
# 4 -0.0001 0.0000 -0.0002 37.9404 -0.0001 5.8531
# 5 5.2122 8.4323 10.1487 -0.0001 25.4497 0.0000
# 6 0.0000 0.0000 0.0000 5.8531 0.0000 27.6541
#
#
#
# Elastic Compliance Matrix: (Units=1/GPa)
#
#
# Indices 1 2 3 4 5 6 
#
# 1 0.013551 -0.002848 -0.001939 0.000000 -0.001058 0.000000
# 2 -0.002848 0.009958 -0.003532 0.000000 -0.001308 0.000000
# 3 -0.001939 -0.003532 0.010806 0.000000 -0.002742 0.000000
# 4 0.000000 0.000000 0.000000 0.027247 0.000000 -0.005767
# 5 -0.001058 -0.001308 -0.002742 0.000000 0.041037 0.000000
# 6 0.000000 0.000000 0.000000 -0.005767 0.000000 0.037382
#
#
# Mechanical properties :
#
#
# Convention : Reuss Voigt Hill
#
# Bulk Modulus (GPa) = 56.57377 62.26398 59.41888
# Shear Modulus (GPa) = 30.76713 32.73209 31.74961
#
# Velocity S-wave (km/s) = 3.93924 4.06309 4.00164
# Velocity P-wave (km/s) = 7.01595 7.30854 7.16374
#
# Compressibility (1/GPa) = 0.01767604
#
# Stress axis : x y z
#
# Youngs Moduli (GPa) = 73.79680 100.42312 92.53731
#
# Poissons Ratio (x) = 0.28605 0.17945
# Poissons Ratio (y) = 0.21020 0.32683
# Poissons Ratio (z) = 0.14311 0.35468
#
# Static dielectric constant tensor:
#      x y z
#    x 3.500810 0.000000 -0.049100 
#    y 0.000000 3.425560 0.000000 
#    z -0.049100 0.000000 3.496240 
# 
# 
# High freq. dielectric constant tensor:
#      x y z
#    x 1.755350 0.000000 0.013030 
#    y 0.000000 1.777080 0.000000 
#    z 0.013030 0.000000 1.780140 
# 
# From -- ./inp_files/211986.got.cif
#   From: 2010.06.25/outbox.cif.g09.slc.cpg/sg15_106_cif.got.tgz:211986.got - 2010.06.28 07:06:18.
