data_PCOD8142207
_publ_section_title
;
Structure prediction by ZEFSAII (Michael W. Deem and Ramdas Pophale) SiO2 
 PCOD8142207
Probable space group: C 2/C
;
_chemical_formula_sum "Si O2"
_cell_formula_units_Z 44
_cell_length_a 16.598277
_cell_length_b 13.601086
_cell_length_c 24.336677
_cell_angle_alpha 90.000000
_cell_angle_beta 159.267778
_cell_angle_gamma 90.000000
_cell_volume 1944.922020
_symmetry_space_group_name_H-M "C 2/C"
_symmetry_group_IT_number 15
_symmetry_cell_setting 'monoclinic'
loop_
_space_group_symop_operation_xyz
x,y,z
-x,y,1/2-z
-x,-y,-z
x,-y,1/2+z
1/2+x,1/2+y,z
1/2-x,1/2+y,1/2-z
1/2-x,1/2-y,-z
1/2+x,1/2-y,1/2+z
loop_
_atom_site_type_symbol
_atom_site_label
_atom_site_fract_x
_atom_site_fract_y
_atom_site_fract_z
Si Si1 0.500000 0.000680 0.250000
Si Si2 0.668567 0.665513 0.561091
Si Si3 0.149496 0.089154 0.231662
Si Si4 0.000000 0.159429 0.750000
Si Si5 0.000000 0.831205 0.750000
Si Si6 0.901783 0.099985 0.572403
Si Si7 0.037401 0.735636 0.469360
O O1 0.668261 0.928178 0.323961
O O2 0.658058 0.066062 0.391203
O O3 0.473333 0.650916 0.392911
O O4 0.565293 0.685828 0.554487
O O5 0.783553 0.760873 0.607869
O O6 0.408035 0.129857 0.392378
O O7 0.028787 0.102911 0.213955
O O8 0.112819 0.974240 0.193770
O O9 0.871659 0.100358 0.619412
O O10 0.801399 0.220645 0.653270
O O11 0.970510 0.208781 0.594718
#
# Coordination Sequence:
#
# PCOD8142207 Si02
#       7
#     4   8   8   4   4   8   8
#     4   9  21  40  67  97 126 166 213 261 315 377
#     4   9  19  37  62  92 125 168 213 259 314 377
#     4  10  21  38  63  94 126 166 213 261 317 377
#     4  12  26  44  64  92 132 174 210 258 322 382
#     4   9  17  34  59  91 130 162 203 263 321 379
#     4  11  24  42  66  95 129 170 213 261 319 379
#     4  11  24  41  64  92 129 171 214 262 316 378
#
# _framework density 22.623014999999999
#
# number of rings (size 3 to 8) (size 9 to 14) (size 15 to 20)
#    0.000    1.818    0.000    3.273    0.000    8.000 
#    0.000    0.000    0.000    0.000    0.000    0.000 
#    0.000    0.000    0.000    0.000    0.000    0.000 
#
# Total GULP energy -272561.413453 kJ/mol
# GULP energy per Si atom -12389.155157 kJ/mol
# Density = 2.257152 g / cm^3
# Si number density = 22.623015 Si / 1000 Ang^3
#
#
#
# Elastic Constant Matrix: (Units=GPa)
#
#
# Indices 1 2 3 4 5 6 
#
# 1 96.3837 18.1598 64.5023 0.0186 5.0022 -0.0066
# 2 18.1598 75.7958 41.7215 -0.0106 6.4713 0.0048
# 3 64.5023 41.7215 118.2420 -0.0078 -0.0115 0.0064
# 4 0.0186 -0.0106 -0.0078 25.6379 0.0046 -1.9050
# 5 5.0022 6.4713 -0.0115 0.0046 41.7197 0.0038
# 6 -0.0066 0.0048 0.0064 -1.9050 0.0038 22.5805
#
#
#
# Elastic Compliance Matrix: (Units=1/GPa)
#
#
# Indices 1 2 3 4 5 6 
#
# 1 0.016635 0.001489 -0.009600 -0.000013 -0.002228 0.000006
# 2 0.001489 0.016781 -0.006734 0.000004 -0.002783 0.000000
# 3 -0.009600 -0.006734 0.016070 0.000008 0.002200 -0.000006
# 4 -0.000013 0.000004 0.000008 0.039251 -0.000004 0.003311
# 5 -0.002228 -0.002783 0.002200 -0.000004 0.024669 -0.000005
# 6 0.000006 0.000000 -0.000006 0.003311 -0.000005 0.044565
#
#
# Mechanical properties :
#
#
# Convention : Reuss Voigt Hill
#
# Bulk Modulus (GPa) = 50.51369 59.90984 55.21177
# Shear Modulus (GPa) = 25.73875 29.05681 27.39778
#
# Velocity S-wave (km/s) = 3.37668 3.58773 3.48380
# Velocity P-wave (km/s) = 6.13021 6.61073 6.37500
#
# Compressibility (1/GPa) = 0.01979661
#
# Stress axis : x y z
#
# Youngs Moduli (GPa) = 60.11437 59.59220 62.22621
#
# Poissons Ratio (x) = -0.08874 0.59738
# Poissons Ratio (y) = -0.08952 0.41901
# Poissons Ratio (z) = 0.57711 0.40127
#
# Static dielectric constant tensor:
#      x y z
#    x 4.095740 0.000000 0.025660 
#    y 0.000000 4.061670 -0.000030 
#    z 0.025660 -0.000030 4.089250 
# 
# 
# High freq. dielectric constant tensor:
#      x y z
#    x 1.889650 0.000000 -0.002560 
#    y 0.000000 1.890610 -0.000010 
#    z -0.002560 -0.000010 1.892470 
# 
# From -- ./inp_files/47430.got.cif
#   From: 2010.06.25/outbox.cif.g09.slc.cpg/sg15_24_cif.got.tgz:47430.got - 2010.06.28 07:06:18.
