data_PCOD8142266
_publ_section_title
;
Structure prediction by ZEFSAII (Michael W. Deem and Ramdas Pophale) SiO2 
 PCOD8142266
Probable space group: C 2/C
;
_chemical_formula_sum "Si O2"
_cell_formula_units_Z 48
_cell_length_a 16.587341
_cell_length_b 24.303339
_cell_length_c 5.152760
_cell_angle_alpha 90.000000
_cell_angle_beta 78.747488
_cell_angle_gamma 90.000000
_cell_volume 2037.289674
_symmetry_space_group_name_H-M "C 2/C"
_symmetry_group_IT_number 15
_symmetry_cell_setting 'monoclinic'
loop_
_space_group_symop_operation_xyz
x,y,z
-x,y,1/2-z
-x,-y,-z
x,-y,1/2+z
1/2+x,1/2+y,z
1/2-x,1/2+y,1/2-z
1/2-x,1/2-y,-z
1/2+x,1/2-y,1/2+z
loop_
_atom_site_type_symbol
_atom_site_label
_atom_site_fract_x
_atom_site_fract_y
_atom_site_fract_z
Si Si1 0.580149 0.182622 0.548026
Si Si2 0.177907 0.961542 0.678371
Si Si3 0.765716 0.624976 0.813048
Si Si4 0.500000 0.907282 0.750000
Si Si5 0.156800 0.535298 0.043569
Si Si6 0.500000 0.463565 0.750000
Si Si7 0.300477 0.266155 0.218429
O O1 0.500000 0.204796 0.750000
O O2 0.652109 0.160957 0.689579
O O3 0.554832 0.129548 0.401601
O O4 0.612408 0.233440 0.348225
O O5 0.240538 0.911640 0.578087
O O6 0.190622 0.011604 0.458761
O O7 0.087673 0.932263 0.704099
O O8 0.783418 0.586713 0.552882
O O9 0.691356 0.667171 0.786659
O O10 0.562679 0.946691 0.555940
O O11 0.174052 0.485672 0.827766
O O12 0.500000 0.500000 0.500000
O O13 0.250000 0.250000 0.500000
O O14 0.250000 0.250000 0.000000
#
# Coordination Sequence:
#
# PCOD8142266 Si02
#       7
#     8   8   8   4   8   4   8
#     4  11  24  45  69  97 135 182 230 285 350 407
#     4  10  21  38  64  95 133 174 217 269 328 403
#     4  11  23  44  65  98 131 176 222 278 338 400
#     4  12  24  42  68  93 142 183 230 272 338 388
#     4  12  25  39  61  95 136 180 225 264 315 397
#     4   8  16  34  58  83 116 161 204 254 318 370
#     4  10  24  44  68  94 124 168 224 282 341 397
#
# _framework density 23.560714000000001
#
# number of rings (size 3 to 8) (size 9 to 14) (size 15 to 20)
#    0.000    1.333    1.667    3.500    2.333    5.333 
#    1.500    0.000    0.000    1.000    0.000    0.000 
#    0.000    0.000    0.000    0.000    0.000    0.000 
#
# Total GULP energy -297361.427510 kJ/mol
# GULP energy per Si atom -12390.059480 kJ/mol
# Density = 2.350709 g / cm^3
# Si number density = 23.560714 Si / 1000 Ang^3
#
#
#
# Elastic Constant Matrix: (Units=GPa)
#
#
# Indices 1 2 3 4 5 6 
#
# 1 99.5449 50.6197 46.1469 0.0000 -23.3440 0.0000
# 2 50.6197 146.3534 58.7129 0.0000 -16.2444 0.0000
# 3 46.1469 58.7129 151.5038 0.0000 -7.8447 0.0000
# 4 0.0000 0.0000 0.0000 33.7100 0.0000 -12.0264
# 5 -23.3440 -16.2444 -7.8447 0.0000 54.3411 0.0000
# 6 0.0000 0.0000 0.0000 -12.0264 0.0000 49.4215
#
#
#
# Elastic Compliance Matrix: (Units=1/GPa)
#
#
# Indices 1 2 3 4 5 6 
#
# 1 0.014081 -0.003230 -0.002795 0.000000 0.004680 0.000000
# 2 -0.003230 0.009049 -0.002473 0.000000 0.000961 0.000000
# 3 -0.002795 -0.002473 0.008372 0.000000 -0.000731 0.000000
# 4 0.000000 0.000000 0.000000 0.032485 0.000000 0.007905
# 5 0.004680 0.000961 -0.000731 0.000000 0.020594 0.000000
# 6 0.000000 0.000000 0.000000 0.007905 0.000000 0.022158
#
#
# Mechanical properties :
#
#
# Convention : Reuss Voigt Hill
#
# Bulk Modulus (GPa) = 68.93453 78.70680 73.82066
# Shear Modulus (GPa) = 38.88911 43.62269 41.25590
#
# Velocity S-wave (km/s) = 4.06715 4.30758 4.18909
# Velocity P-wave (km/s) = 7.16780 7.63012 7.40257
#
# Compressibility (1/GPa) = 0.01450652
#
# Stress axis : x y z
#
# Youngs Moduli (GPa) = 71.01630 110.51453 119.43919
#
# Poissons Ratio (x) = 0.35691 0.33385
# Poissons Ratio (y) = 0.22935 0.29540
# Poissons Ratio (z) = 0.19850 0.27333
#
# Static dielectric constant tensor:
#      x y z
#    x 5.198960 0.000000 -0.578960 
#    y 0.000000 4.738420 0.000000 
#    z -0.578960 0.000000 4.549000 
# 
# 
# High freq. dielectric constant tensor:
#      x y z
#    x 1.943420 0.000000 -0.014260 
#    y 0.000000 1.915490 0.000000 
#    z -0.014260 0.000000 1.950460 
# 
# From -- ./inp_files/10796.got.cif
#   From: 2010.06.25/outbox.cif.g09.slc.cpg/sg15_6_cif.got.tgz:10796.got - 2010.06.28 07:06:18.
