data_PCOD8142558
_publ_section_title
;
Structure prediction by ZEFSAII (Michael W. Deem and Ramdas Pophale) SiO2 
 PCOD8142558
Probable space group: C 2/C
;
_chemical_formula_sum "Si O2"
_cell_formula_units_Z 56
_cell_length_a 23.890132
_cell_length_b 4.935398
_cell_length_c 21.398809
_cell_angle_alpha 90.000000
_cell_angle_beta 84.791150
_cell_angle_gamma 90.000000
_cell_volume 2512.656674
_symmetry_space_group_name_H-M "C 2/C"
_symmetry_group_IT_number 15
_symmetry_cell_setting 'monoclinic'
loop_
_space_group_symop_operation_xyz
x,y,z
-x,y,1/2-z
-x,-y,-z
x,-y,1/2+z
1/2+x,1/2+y,z
1/2-x,1/2+y,1/2-z
1/2-x,1/2-y,-z
1/2+x,1/2-y,1/2+z
loop_
_atom_site_type_symbol
_atom_site_label
_atom_site_fract_x
_atom_site_fract_y
_atom_site_fract_z
Si Si1 0.929619 0.526350 0.194607
Si Si2 0.972185 0.963586 0.624717
Si Si3 0.870433 0.978936 0.546844
Si Si4 0.262574 0.260037 0.787946
Si Si5 0.328009 0.988201 0.616773
Si Si6 0.401602 0.526809 0.904011
Si Si7 0.877596 0.525861 0.827333
O O1 0.946617 0.832385 0.178215
O O2 0.867985 0.471215 0.172450
O O3 0.925960 0.485319 0.269403
O O4 0.975614 0.324258 0.159923
O O5 0.031818 0.076127 0.595558
O O6 0.932466 0.927224 0.568429
O O7 0.824131 0.776404 0.581789
O O8 0.871313 0.934303 0.472975
O O9 0.852899 0.284227 0.563180
O O10 0.273342 0.513799 0.739773
O O11 0.231465 0.381572 0.851970
O O12 0.320218 0.124679 0.802553
O O13 0.395017 0.221259 0.881483
O O14 0.372141 0.726885 0.857397
#
# Coordination Sequence:
#
# PCOD8142558 Si02
#       7
#     8   8   8   8   8   8   8
#     4  10  21  39  61  96 124 158 213 269 315 373
#     4  10  22  39  67  89 123 171 220 256 308 369
#     4  10  22  42  65  91 126 170 220 258 300 377
#     4  12  24  42  70  96 125 163 213 266 331 390
#     4  10  21  40  67  94 119 160 219 272 308 361
#     4  12  25  42  60  92 135 175 206 258 316 381
#     4  12  26  40  62  96 134 162 208 262 331 389
#
# _framework density 22.287168999999999
#
# number of rings (size 3 to 8) (size 9 to 14) (size 15 to 20)
#    0.000    1.143    1.429    4.714    4.000    3.429 
#    0.000   10.000    0.000    0.000    0.000    0.000 
#    0.000    0.000    0.000    0.000    0.000    0.000 
#
# Total GULP energy -347312.060917 kJ/mol
# GULP energy per Si atom -12404.002176 kJ/mol
# Density = 2.223644 g / cm^3
# Si number density = 22.287169 Si / 1000 Ang^3
#
#
#
# Elastic Constant Matrix: (Units=GPa)
#
#
# Indices 1 2 3 4 5 6 
#
# 1 41.9951 7.1782 20.1401 0.0000 -6.4071 0.0000
# 2 7.1782 104.9206 32.8627 0.0000 6.8853 0.0000
# 3 20.1401 32.8627 137.1355 0.0000 -1.7092 0.0000
# 4 0.0000 0.0000 0.0000 31.3902 0.0000 3.3178
# 5 -6.4071 6.8853 -1.7092 0.0000 20.8824 0.0000
# 6 0.0000 0.0000 0.0000 3.3178 0.0000 34.2956
#
#
#
# Elastic Compliance Matrix: (Units=1/GPa)
#
#
# Indices 1 2 3 4 5 6 
#
# 1 0.027023 -0.001288 -0.003555 0.000000 0.008425 0.000000
# 2 -0.001288 0.010644 -0.002413 0.000000 -0.004102 0.000000
# 3 -0.003555 -0.002413 0.008397 0.000000 0.000392 0.000000
# 4 0.000000 0.000000 0.000000 0.032186 0.000000 -0.003114
# 5 0.008425 -0.004102 0.000392 0.000000 0.051857 0.000000
# 6 0.000000 0.000000 0.000000 -0.003114 0.000000 0.029459
#
#
# Mechanical properties :
#
#
# Convention : Reuss Voigt Hill
#
# Bulk Modulus (GPa) = 31.69329 44.93480 38.31405
# Shear Modulus (GPa) = 27.08626 32.23832 29.66229
#
# Velocity S-wave (km/s) = 3.48994 3.80741 3.65213
# Velocity P-wave (km/s) = 5.52185 6.28761 5.91713
#
# Compressibility (1/GPa) = 0.03155242
#
# Stress axis : x y z
#
# Youngs Moduli (GPa) = 37.00587 93.94936 119.08752
#
# Poissons Ratio (x) = 0.12103 0.42335
# Poissons Ratio (y) = 0.04767 0.28731
# Poissons Ratio (z) = 0.13155 0.22667
#
# Static dielectric constant tensor:
#      x y z
#    x 3.718100 0.000000 -0.001160 
#    y 0.000000 4.211960 0.000000 
#    z -0.001160 0.000000 3.827880 
# 
# 
# High freq. dielectric constant tensor:
#      x y z
#    x 1.856200 0.000000 -0.004620 
#    y 0.000000 1.896440 0.000000 
#    z -0.004620 0.000000 1.875150 
# 
# From -- ./inp_files/254323.got.cif
#   From: 2010.06.25/outbox.cif.g09.slc.cpg/sg15_128_cif.got.tgz:254323.got - 2010.06.28 07:06:18.
