data_PCOD8142007
_publ_section_title
;
Structure prediction by ZEFSAII (Michael W. Deem and Ramdas Pophale) SiO2 
 PCOD8142007
Probable space group: C 2/C
;
_chemical_formula_sum "Si O2"
_cell_formula_units_Z 40
_cell_length_a 17.014852
_cell_length_b 15.866644
_cell_length_c 8.002536
_cell_angle_alpha 90.000000
_cell_angle_beta 121.537427
_cell_angle_gamma 90.000000
_cell_volume 1841.334552
_symmetry_space_group_name_H-M "C 2/C"
_symmetry_group_IT_number 15
_symmetry_cell_setting 'monoclinic'
loop_
_space_group_symop_operation_xyz
x,y,z
-x,y,1/2-z
-x,-y,-z
x,-y,1/2+z
1/2+x,1/2+y,z
1/2-x,1/2+y,1/2-z
1/2-x,1/2-y,-z
1/2+x,1/2-y,1/2+z
loop_
_atom_site_type_symbol
_atom_site_label
_atom_site_fract_x
_atom_site_fract_y
_atom_site_fract_z
Si Si1 0.558819 0.890775 0.071228
Si Si2 0.827699 0.925379 0.839896
Si Si3 0.967591 0.793931 0.899685
Si Si4 0.416020 0.420982 0.268956
Si Si5 0.124222 0.454145 0.489789
O O1 0.566198 0.791268 0.045676
O O2 0.618967 0.919275 0.297848
O O3 0.602591 0.944736 0.967129
O O4 0.451117 0.910686 0.975271
O O5 0.878903 0.854196 0.788230
O O6 0.722786 0.930747 0.672045
O O7 0.881339 0.013004 0.867092
O O8 0.833833 0.902871 0.044541
O O9 0.000000 0.770175 0.750000
O O10 0.050022 0.836680 0.098130
O O11 0.500000 0.457769 0.250000
#
# Coordination Sequence:
#
# PCOD8142007 Si02
#       5
#     8   8   8   8   8
#     4  10  22  43  62  85 124 167 204 245 309 362
#     4  11  21  38  65  95 123 155 207 254 303 365
#     4  11  21  40  62  91 126 163 198 249 309 367
#     4  10  21  38  60  93 126 161 191 247 319 360
#     4  10  21  42  63  88 119 163 208 244 304 361
#
# _framework density 21.723375000000001
#
# number of rings (size 3 to 8) (size 9 to 14) (size 15 to 20)
#    0.000    1.600    2.000    5.400    0.000    0.800 
#   25.200    1.000    0.000    0.000    0.000    0.000 
#    0.000    0.000    0.000    0.000    0.000    0.000 
#
# Total GULP energy -247938.767054 kJ/mol
# GULP energy per Si atom -12396.938353 kJ/mol
# Density = 2.167393 g / cm^3
# Si number density = 21.723375 Si / 1000 Ang^3
#
#
#
# Elastic Constant Matrix: (Units=GPa)
#
#
# Indices 1 2 3 4 5 6 
#
# 1 44.9517 25.5874 40.9482 0.0000 20.0782 0.0000
# 2 25.5874 158.6912 56.0161 0.0000 14.2640 0.0000
# 3 40.9482 56.0161 136.4341 0.0000 22.7978 0.0000
# 4 0.0000 0.0000 0.0000 22.2679 0.0000 -16.4600
# 5 20.0782 14.2640 22.7978 0.0000 37.5054 0.0000
# 6 0.0000 0.0000 0.0000 -16.4600 0.0000 5.3373
#
#
#
# Elastic Compliance Matrix: (Units=1/GPa)
#
#
# Indices 1 2 3 4 5 6 
#
# 1 0.036880 -0.001871 -0.007925 0.000000 -0.014214 0.000000
# 2 -0.001871 0.007504 -0.002459 0.000000 -0.000357 0.000000
# 3 -0.007925 -0.002459 0.010967 0.000000 -0.001488 0.000000
# 4 0.000000 0.000000 0.000000 -0.035095 0.000000 -0.108232
# 5 -0.014214 -0.000357 -0.001488 0.000000 0.035312 0.000000
# 6 0.000000 0.000000 0.000000 -0.108232 0.000000 -0.146421
#
#
# Mechanical properties :
#
#
# Convention : Reuss Voigt Hill
#
# Bulk Modulus (GPa) = 32.42785 65.02003 48.72394
# Shear Modulus (GPa) = -89.18606 27.52380 -30.83113
#
# Velocity S-wave (km/s) = -6.41440 3.56337 -3.77139
# Velocity P-wave (km/s) = 6.31659 6.85026 1.87441
#
# Compressibility (1/GPa) = 0.03083769
#
# Stress axis : x y z
#
# Youngs Moduli (GPa) = 27.11518 133.27075 91.18602
#
# Poissons Ratio (x) = 0.24939 0.72268
# Poissons Ratio (y) = 0.05074 0.22427
# Poissons Ratio (z) = 0.21490 0.32777
#
# Static dielectric constant tensor:
#      x y z
#    x 3.756790 0.000000 -0.058360 
#    y 0.000000 3.921550 0.000000 
#    z -0.058360 0.000000 4.171730 
# 
# 
# High freq. dielectric constant tensor:
#      x y z
#    x 1.832340 0.000000 0.001460 
#    y 0.000000 1.846010 0.000000 
#    z 0.001460 0.000000 1.867490 
# 
# From -- ./inp_files/55495.got.cif
#   From: 2010.06.25/outbox.cif.g09.slc.cpg/sg15_28_cif.got.tgz:55495.got - 2010.06.28 07:06:18.
