data_PCOD8142171
_publ_section_title
;
Structure prediction by ZEFSAII (Michael W. Deem and Ramdas Pophale) SiO2 
 PCOD8142171
Probable space group: C 2/C
;
_chemical_formula_sum "Si O2"
_cell_formula_units_Z 56
_cell_length_a 11.738719
_cell_length_b 16.230898
_cell_length_c 28.390586
_cell_angle_alpha 90.000000
_cell_angle_beta 30.011030
_cell_angle_gamma 90.000000
_cell_volume 2705.530249
_symmetry_space_group_name_H-M "C 2/C"
_symmetry_group_IT_number 15
_symmetry_cell_setting 'monoclinic'
loop_
_space_group_symop_operation_xyz
x,y,z
-x,y,1/2-z
-x,-y,-z
x,-y,1/2+z
1/2+x,1/2+y,z
1/2-x,1/2+y,1/2-z
1/2-x,1/2-y,-z
1/2+x,1/2-y,1/2+z
loop_
_atom_site_type_symbol
_atom_site_label
_atom_site_fract_x
_atom_site_fract_y
_atom_site_fract_z
Si Si1 0.051003 0.821692 0.488563
Si Si2 0.254066 0.747323 0.826717
Si Si3 0.210112 0.696234 0.286527
Si Si4 0.290943 0.652888 0.392692
Si Si5 0.580287 0.674350 0.564766
Si Si6 0.872307 0.388404 0.450273
Si Si7 0.024756 0.571460 0.065345
O O1 0.830279 0.802879 0.599462
O O2 0.984258 0.864867 0.463295
O O3 0.152463 0.735788 0.434458
O O4 0.232579 0.876885 0.452003
O O5 0.500000 0.707700 0.750000
O O6 0.283729 0.807655 0.771850
O O7 0.077116 0.676145 0.877550
O O8 0.457645 0.669265 0.217359
O O9 0.036762 0.628084 0.367834
O O10 0.139984 0.789811 0.328264
O O11 0.297556 0.629153 0.445441
O O12 0.158020 0.581619 0.411390
O O13 0.750000 0.750000 0.500000
O O14 0.718802 0.600983 0.542390
O O15 0.978549 0.478320 0.415895
#
# Coordination Sequence:
#
# PCOD8142171 Si02
#       7
#     8   8   8   8   8   8   8
#     4  11  20  42  65  85 125 170 213 257 322 388
#     4  11  22  37  65  93 123 160 220 266 306 387
#     4  11  21  39  64  93 118 168 224 263 311 385
#     4  11  20  40  64  90 124 167 213 261 313 391
#     4  10  21  38  63  89 118 165 219 260 310 383
#     4  11  24  41  59  95 133 170 200 266 348 383
#     4  11  24  39  62  94 133 165 209 269 336 381
#
# _framework density 20.698345
#
# number of rings (size 3 to 8) (size 9 to 14) (size 15 to 20)
#    0.000    1.143    5.714    3.429    2.000    1.714 
#    2.571    0.000    0.000    1.714    0.000    0.000 
#    0.000    0.000    0.000    0.000    0.000    0.000 
#
# Total GULP energy -347082.991087 kJ/mol
# GULP energy per Si atom -12395.821110 kJ/mol
# Density = 2.065123 g / cm^3
# Si number density = 20.698345 Si / 1000 Ang^3
#
#
#
# Elastic Constant Matrix: (Units=GPa)
#
#
# Indices 1 2 3 4 5 6 
#
# 1 90.0409 10.6604 24.9108 -0.0083 -25.7568 0.0073
# 2 10.6604 42.9721 16.8385 0.0306 -6.7315 -0.0041
# 3 24.9108 16.8385 99.4933 0.0205 -17.0617 0.0028
# 4 -0.0083 0.0306 0.0205 11.6561 -0.0093 -0.8446
# 5 -25.7568 -6.7315 -17.0617 -0.0093 30.4581 -0.0068
# 6 0.0073 -0.0041 0.0028 -0.8446 -0.0068 30.4649
#
#
#
# Elastic Compliance Matrix: (Units=1/GPa)
#
#
# Indices 1 2 3 4 5 6 
#
# 1 0.014984 -0.001304 -0.001557 0.000026 0.011511 0.000000
# 2 -0.001304 0.025375 -0.003535 -0.000059 0.002525 0.000003
# 3 -0.001557 -0.003535 0.011814 -0.000009 0.004520 0.000000
# 4 0.000026 -0.000059 -0.000009 0.085965 0.000031 0.002383
# 5 0.011511 0.002525 0.004520 0.000031 0.045656 0.000008
# 6 0.000000 0.000003 0.000000 0.002383 0.000008 0.032891
#
#
# Mechanical properties :
#
#
# Convention : Reuss Voigt Hill
#
# Bulk Modulus (GPa) = 25.39278 37.48065 31.43672
# Shear Modulus (GPa) = 20.60971 26.52225 23.56598
#
# Velocity S-wave (km/s) = 3.15892 3.58351 3.37789
# Velocity P-wave (km/s) = 5.05962 5.93880 5.51675
#
# Compressibility (1/GPa) = 0.03938127
#
# Stress axis : x y z
#
# Youngs Moduli (GPa) = 66.73802 39.40856 84.64419
#
# Poissons Ratio (x) = 0.05139 0.13179
# Poissons Ratio (y) = 0.08702 0.29922
# Poissons Ratio (z) = 0.10391 0.13931
#
# Static dielectric constant tensor:
#      x y z
#    x 3.990410 0.000000 -0.112820 
#    y 0.000000 3.504730 -0.000120 
#    z -0.112820 -0.000120 4.119590 
# 
# 
# High freq. dielectric constant tensor:
#      x y z
#    x 1.825910 0.000000 -0.005090 
#    y 0.000000 1.765990 0.000000 
#    z -0.005090 0.000000 1.815070 
# 
# From -- ./inp_files/311321.got.cif
#   From: 2010.06.25/outbox.cif.g09.slc.cpg/sg15_156_cif.got.tgz:311321.got - 2010.06.28 07:06:18.
