data_PCOD8142735
_publ_section_title
;
Structure prediction by ZEFSAII (Michael W. Deem and Ramdas Pophale) SiO2 
 PCOD8142735
Probable space group: C 2/C
;
_chemical_formula_sum "Si O2"
_cell_formula_units_Z 56
_cell_length_a 15.841086
_cell_length_b 11.033975
_cell_length_c 31.334022
_cell_angle_alpha 90.000000
_cell_angle_beta 28.585929
_cell_angle_gamma 90.000000
_cell_volume 2620.556051
_symmetry_space_group_name_H-M "C 2/C"
_symmetry_group_IT_number 15
_symmetry_cell_setting 'monoclinic'
loop_
_space_group_symop_operation_xyz
x,y,z
-x,y,1/2-z
-x,-y,-z
x,-y,1/2+z
1/2+x,1/2+y,z
1/2-x,1/2+y,1/2-z
1/2-x,1/2-y,-z
1/2+x,1/2-y,1/2+z
loop_
_atom_site_type_symbol
_atom_site_label
_atom_site_fract_x
_atom_site_fract_y
_atom_site_fract_z
Si Si1 0.546850 0.751581 0.104256
Si Si2 0.132363 0.150742 0.910958
Si Si3 0.160427 0.690868 0.999645
Si Si4 0.601487 0.337456 0.744310
Si Si5 0.103140 0.518453 0.872287
Si Si6 0.805074 0.167292 0.848188
Si Si7 0.902783 0.119940 0.091781
O O1 0.528497 0.718725 0.162346
O O2 0.449549 0.649549 0.119671
O O3 0.443614 0.879224 0.142001
O O4 0.750000 0.750000 0.000000
O O5 0.302594 0.230132 0.824695
O O6 0.970491 0.206862 0.957754
O O7 0.164652 0.016527 0.879643
O O8 0.078349 0.145892 0.985012
O O9 0.070234 0.562824 0.048966
O O10 0.250000 0.750000 0.000000
O O11 0.303088 0.660876 0.900134
O O12 0.500000 0.404876 0.750000
O O13 0.730875 0.430457 0.711854
O O14 0.152361 0.581060 0.895701
O O15 0.764439 0.302400 0.849861
O O16 0.000000 0.126018 0.750000
#
# Coordination Sequence:
#
# PCOD8142735 Si02
#       7
#     8   8   8   8   8   8   8
#     4  11  25  41  66  97 130 170 222 264 327 388
#     4   9  20  40  63  89 130 169 213 268 324 377
#     4  10  22  39  63  93 126 163 215 260 318 378
#     4  11  24  43  65  96 131 171 217 268 326 386
#     4  10  24  44  64  91 126 174 213 267 316 384
#     4  10  21  39  64  93 123 168 210 259 317 380
#     4   9  20  40  63  91 128 170 214 267 322 383
#
# _framework density 21.369510999999999
#
# number of rings (size 3 to 8) (size 9 to 14) (size 15 to 20)
#    0.000    2.000    0.000    1.714    4.000    9.714 
#    2.571    0.000    0.000    0.000    0.000    0.000 
#    0.000    0.000    0.000    0.000    0.000    0.000 
#
# Total GULP energy -347045.145034 kJ/mol
# GULP energy per Si atom -12394.469465 kJ/mol
# Density = 2.132087 g / cm^3
# Si number density = 21.369511 Si / 1000 Ang^3
#
#
#
# Elastic Constant Matrix: (Units=GPa)
#
#
# Indices 1 2 3 4 5 6 
#
# 1 108.3549 28.2324 47.8948 -0.0014 21.6733 0.0002
# 2 28.2324 121.3709 26.8630 -0.0014 -0.0347 0.0004
# 3 47.8948 26.8630 107.2592 -0.0065 5.9930 0.0015
# 4 -0.0014 -0.0014 -0.0065 15.9061 -0.0005 -5.7816
# 5 21.6733 -0.0347 5.9930 -0.0005 29.7207 0.0004
# 6 0.0002 0.0004 0.0015 -5.7816 0.0004 23.4840
#
#
#
# Elastic Compliance Matrix: (Units=1/GPa)
#
#
# Indices 1 2 3 4 5 6 
#
# 1 0.013870 -0.002086 -0.005164 -0.000001 -0.009076 0.000000
# 2 -0.002086 0.009043 -0.001435 0.000000 0.001821 0.000000
# 3 -0.005164 -0.001435 0.011912 0.000004 0.001362 0.000000
# 4 -0.000001 0.000000 0.000004 0.069048 0.000001 0.016999
# 5 -0.009076 0.001821 0.001362 0.000001 0.039993 0.000000
# 6 0.000000 0.000000 0.000000 0.016999 0.000000 0.046767
#
#
# Mechanical properties :
#
#
# Convention : Reuss Voigt Hill
#
# Bulk Modulus (GPa) = 57.28927 60.32946 58.80937
# Shear Modulus (GPa) = 23.38393 29.42179 26.40286
#
# Velocity S-wave (km/s) = 3.31156 3.71457 3.51884
# Velocity P-wave (km/s) = 6.44119 6.83302 6.64000
#
# Compressibility (1/GPa) = 0.01745528
#
# Stress axis : x y z
#
# Youngs Moduli (GPa) = 72.09571 110.58803 83.94608
#
# Poissons Ratio (x) = 0.23069 0.43350
# Poissons Ratio (y) = 0.15040 0.12046
# Poissons Ratio (z) = 0.37231 0.15869
#
# Static dielectric constant tensor:
#      x y z
#    x 3.847270 0.000000 0.041160 
#    y 0.000000 4.083490 0.000000 
#    z 0.041160 0.000000 3.785900 
# 
# 
# High freq. dielectric constant tensor:
#      x y z
#    x 1.835220 0.000000 -0.001300 
#    y 0.000000 1.853960 0.000000 
#    z -0.001300 0.000000 1.825950 
# 
# From -- ./inp_files/313723.got.cif
#   From: 2010.06.25/outbox.cif.g09.slc.cpg/sg15_157_cif.got.tgz:313723.got - 2010.06.28 07:06:18.
