data_PCOD8142250
_publ_section_title
;
Structure prediction by ZEFSAII (Michael W. Deem and Ramdas Pophale) SiO2 
 PCOD8142250
Probable space group: C 2/C
;
_chemical_formula_sum "Si O2"
_cell_formula_units_Z 56
_cell_length_a 15.162211
_cell_length_b 9.893528
_cell_length_c 16.987357
_cell_angle_alpha 90.000000
_cell_angle_beta 93.801280
_cell_angle_gamma 90.000000
_cell_volume 2542.629206
_symmetry_space_group_name_H-M "C 2/C"
_symmetry_group_IT_number 15
_symmetry_cell_setting 'monoclinic'
loop_
_space_group_symop_operation_xyz
x,y,z
-x,y,1/2-z
-x,-y,-z
x,-y,1/2+z
1/2+x,1/2+y,z
1/2-x,1/2+y,1/2-z
1/2-x,1/2-y,-z
1/2+x,1/2-y,1/2+z
loop_
_atom_site_type_symbol
_atom_site_label
_atom_site_fract_x
_atom_site_fract_y
_atom_site_fract_z
Si Si1 0.559841 0.251728 0.057335
Si Si2 0.628918 0.032313 0.570570
Si Si3 0.306666 0.578555 0.655724
Si Si4 0.626283 0.154032 0.407579
Si Si5 0.424226 0.570920 0.803911
Si Si6 0.539992 0.092707 0.837075
Si Si7 0.446336 0.622132 0.107925
O O1 0.616091 0.120098 0.037111
O O2 0.470290 0.216086 0.095758
O O3 0.610627 0.332746 0.128766
O O4 0.538016 0.345484 0.982211
O O5 0.704733 0.035809 0.641111
O O6 0.659532 0.123405 0.498401
O O7 0.536428 0.084659 0.600324
O O8 0.312021 0.737661 0.633028
O O9 0.336761 0.545161 0.746683
O O10 0.367977 0.487623 0.602829
O O11 0.618442 0.014427 0.357815
O O12 0.500000 0.633253 0.750000
O O13 0.464464 0.435479 0.846200
O O14 0.500000 0.061395 0.750000
O O15 0.580467 0.243312 0.844986
#
# Coordination Sequence:
#
# PCOD8142250 Si02
#       7
#     8   8   8   8   8   8   8
#     4  11  20  39  68  91 120 170 217 258 305 381
#     4  11  24  43  61  97 134 159 209 267 317 372
#     4  11  25  41  65  94 134 163 205 269 321 369
#     4  11  21  42  67  90 125 172 218 245 314 393
#     4  10  21  38  64  92 124 166 215 255 313 382
#     4  11  23  40  68  93 124 169 215 258 308 379
#     4  11  21  42  66  93 123 164 221 256 311 374
#
# _framework density 22.024446000000001
#
# number of rings (size 3 to 8) (size 9 to 14) (size 15 to 20)
#    0.000    1.143    5.714    3.000    4.000    0.571 
#    5.143    0.000    0.000    0.000    0.000    0.000 
#    0.000    0.000    0.000    0.000    0.000    0.000 
#
# Total GULP energy -347148.603895 kJ/mol
# GULP energy per Si atom -12398.164425 kJ/mol
# Density = 2.197432 g / cm^3
# Si number density = 22.024446 Si / 1000 Ang^3
#
#
#
# Elastic Constant Matrix: (Units=GPa)
#
#
# Indices 1 2 3 4 5 6 
#
# 1 42.2928 25.2202 11.6106 0.0000 24.5832 0.0000
# 2 25.2202 129.7107 38.9704 0.0000 1.6321 0.0000
# 3 11.6106 38.9704 135.3569 0.0000 12.1950 0.0000
# 4 0.0000 0.0000 0.0000 34.9374 0.0000 7.0783
# 5 24.5832 1.6321 12.1950 0.0000 31.1840 0.0000
# 6 0.0000 0.0000 0.0000 7.0783 0.0000 12.6958
#
#
#
# Elastic Compliance Matrix: (Units=1/GPa)
#
#
# Indices 1 2 3 4 5 6 
#
# 1 0.054711 -0.010791 0.002331 0.000000 -0.043477 0.000000
# 2 -0.010791 0.010576 -0.002939 0.000000 0.009103 0.000000
# 3 0.002331 -0.002939 0.008485 0.000000 -0.005002 0.000000
# 4 0.000000 0.000000 0.000000 0.032267 0.000000 -0.017990
# 5 -0.043477 0.009103 -0.005002 0.000000 0.067821 0.000000
# 6 0.000000 0.000000 0.000000 -0.017990 0.000000 0.088797
#
#
# Mechanical properties :
#
#
# Convention : Reuss Voigt Hill
#
# Bulk Modulus (GPa) = 19.61816 50.99585 35.30700
# Shear Modulus (GPa) = 16.53178 31.20072 23.86625
#
# Velocity S-wave (km/s) = 2.74270 3.76791 3.29542
# Velocity P-wave (km/s) = 4.35392 6.49107 5.52678
#
# Compressibility (1/GPa) = 0.05097318
#
# Stress axis : x y z
#
# Youngs Moduli (GPa) = 18.27780 94.55204 117.85682
#
# Poissons Ratio (x) = 1.02030 -0.27471
# Poissons Ratio (y) = 0.19723 0.34644
# Poissons Ratio (z) = -0.04260 0.27793
#
# Static dielectric constant tensor:
#      x y z
#    x 3.413420 0.000000 0.162930 
#    y 0.000000 4.356080 0.000000 
#    z 0.162930 0.000000 4.076860 
# 
# 
# High freq. dielectric constant tensor:
#      x y z
#    x 1.809580 0.000000 0.014360 
#    y 0.000000 1.878550 0.000000 
#    z 0.014360 0.000000 1.886080 
# 
# From -- ./inp_files/209618.got.cif
#   From: 2010.06.25/outbox.cif.g09.slc.cpg/sg15_105_cif.got.tgz:209618.got - 2010.06.28 07:06:18.
