data_PCOD8142071
_publ_section_title
;
Structure prediction by ZEFSAII (Michael W. Deem and Ramdas Pophale) SiO2 
 PCOD8142071
Probable space group: C 2/C
;
_chemical_formula_sum "Si O2"
_cell_formula_units_Z 60
_cell_length_a 22.947799
_cell_length_b 8.796081
_cell_length_c 24.090433
_cell_angle_alpha 90.000000
_cell_angle_beta 38.330018
_cell_angle_gamma 90.000000
_cell_volume 3015.780255
_symmetry_space_group_name_H-M "C 2/C"
_symmetry_group_IT_number 15
_symmetry_cell_setting 'monoclinic'
loop_
_space_group_symop_operation_xyz
x,y,z
-x,y,1/2-z
-x,-y,-z
x,-y,1/2+z
1/2+x,1/2+y,z
1/2-x,1/2+y,1/2-z
1/2-x,1/2-y,-z
1/2+x,1/2-y,1/2+z
loop_
_atom_site_type_symbol
_atom_site_label
_atom_site_fract_x
_atom_site_fract_y
_atom_site_fract_z
Si Si1 0.786108 0.737626 0.034691
Si Si2 0.735627 0.551113 0.628744
Si Si3 0.425081 0.512937 0.448681
Si Si4 0.798333 0.140141 0.130290
Si Si5 0.353921 0.697167 0.903644
Si Si6 0.871129 0.871348 0.698586
Si Si7 0.642028 0.089300 0.719794
Si Si8 0.000000 0.433008 0.750000
O O1 0.801005 0.564909 0.044665
O O2 0.707481 0.820221 0.129186
O O3 0.750000 0.750000 0.000000
O O4 0.885682 0.820082 0.965053
O O5 0.796020 0.694328 0.603723
O O6 0.652701 0.602269 0.648693
O O7 0.696420 0.467494 0.711677
O O8 0.380184 0.452468 0.538914
O O9 0.402380 0.402307 0.414667
O O10 0.535120 0.529174 0.376477
O O11 0.821477 0.150440 0.177201
O O12 0.697170 0.059025 0.200593
O O13 0.420175 0.839222 0.841743
O O14 0.250000 0.750000 0.000000
O O15 0.888679 0.701501 0.707873
O O16 0.546997 0.038859 0.761001
#
# Coordination Sequence:
#
# PCOD8142071 Si02
#       8
#     8   8   8   8   8   8   8   4
#     4  10  21  38  61  92 128 161 197 260 332 388
#     4  11  22  40  67  93 122 174 212 256 328 385
#     4  11  23  39  66  94 125 167 212 267 330 377
#     4  11  22  46  63  87 128 176 217 255 322 387
#     4  12  22  40  65  99 135 164 212 277 336 386
#     4  11  25  41  62  93 128 168 219 268 305 390
#     4  10  24  39  62  91 125 169 205 265 323 378
#     4  12  24  38  66 100 130 160 218 268 330 396
#
# _framework density 19.895347999999998
#
# number of rings (size 3 to 8) (size 9 to 14) (size 15 to 20)
#    0.000    1.067    4.000    2.800    1.867    0.000 
#    0.000    0.667    0.000    0.000    0.000    0.000 
#    0.000    0.000    0.000    0.000    0.000    0.000 
#
# Total GULP energy -372070.233810 kJ/mol
# GULP energy per Si atom -12402.341127 kJ/mol
# Density = 1.985006 g / cm^3
# Si number density = 19.895348 Si / 1000 Ang^3
#
#
#
# Elastic Constant Matrix: (Units=GPa)
#
#
# Indices 1 2 3 4 5 6 
#
# 1 138.5365 54.2520 36.7945 0.0004 18.3418 -0.0032
# 2 54.2520 119.3052 25.5836 -0.0010 4.2675 -0.0037
# 3 36.7945 25.5836 65.9095 -0.0001 4.8379 -0.0017
# 4 0.0004 -0.0010 -0.0001 21.0818 0.0005 8.3549
# 5 18.3418 4.2675 4.8379 0.0005 36.5563 0.0007
# 6 -0.0032 -0.0037 -0.0017 8.3549 0.0007 27.6030
#
#
#
# Elastic Compliance Matrix: (Units=1/GPa)
#
#
# Indices 1 2 3 4 5 6 
#
# 1 0.010272 -0.003662 -0.004005 -0.000001 -0.004196 0.000001
# 2 -0.003662 0.010462 -0.002082 0.000000 0.000892 0.000001
# 3 -0.004005 -0.002082 0.018228 0.000000 -0.000160 0.000000
# 4 -0.000001 0.000000 0.000000 0.053900 0.000000 -0.016314
# 5 -0.004196 0.000892 -0.000160 0.000000 0.029378 -0.000001
# 6 0.000001 0.000001 0.000000 -0.016314 -0.000001 0.041166
#
#
# Mechanical properties :
#
#
# Convention : Reuss Voigt Hill
#
# Bulk Modulus (GPa) = 51.37746 61.89016 56.63381
# Shear Modulus (GPa) = 26.40058 30.85628 28.62843
#
# Velocity S-wave (km/s) = 3.64672 3.94246 3.79747
# Velocity P-wave (km/s) = 6.60388 7.20412 6.91052
#
# Compressibility (1/GPa) = 0.01946379
#
# Stress axis : x y z
#
# Youngs Moduli (GPa) = 97.35618 95.58738 54.86108
#
# Poissons Ratio (x) = 0.35004 0.21970
# Poissons Ratio (y) = 0.35651 0.11422
# Poissons Ratio (z) = 0.38989 0.19901
#
# Static dielectric constant tensor:
#      x y z
#    x 3.579890 0.000000 0.099450 
#    y 0.000000 3.944610 0.000000 
#    z 0.099450 0.000000 3.549950 
# 
# 
# High freq. dielectric constant tensor:
#      x y z
#    x 1.776980 0.000000 0.013510 
#    y 0.000000 1.791890 0.000000 
#    z 0.013510 0.000000 1.773830 
# 
# From -- ./inp_files/281670.got.cif
#   From: 2010.06.25/outbox.cif.g09.slc.cpg/sg15_141_cif.got.tgz:281670.got - 2010.06.28 07:06:18.
