data_PCOD8142821
_publ_section_title
;
Structure prediction by ZEFSAII (Michael W. Deem and Ramdas Pophale) SiO2 
 PCOD8142821
Probable space group: C 2/C
;
_chemical_formula_sum "Si O2"
_cell_formula_units_Z 52
_cell_length_a 26.720072
_cell_length_b 9.514787
_cell_length_c 13.205149
_cell_angle_alpha 90.000000
_cell_angle_beta 133.435995
_cell_angle_gamma 90.000000
_cell_volume 2437.822508
_symmetry_space_group_name_H-M "C 2/C"
_symmetry_group_IT_number 15
_symmetry_cell_setting 'monoclinic'
loop_
_space_group_symop_operation_xyz
x,y,z
-x,y,1/2-z
-x,-y,-z
x,-y,1/2+z
1/2+x,1/2+y,z
1/2-x,1/2+y,1/2-z
1/2-x,1/2-y,-z
1/2+x,1/2-y,1/2+z
loop_
_atom_site_type_symbol
_atom_site_label
_atom_site_fract_x
_atom_site_fract_y
_atom_site_fract_z
Si Si1 0.408001 0.671000 0.444841
Si Si2 0.808998 0.615004 0.908507
Si Si3 0.122884 0.652690 0.301493
Si Si4 0.150394 0.873407 0.171063
Si Si5 0.500000 0.731723 0.750000
Si Si6 0.905701 0.360626 0.039292
Si Si7 0.444050 0.880746 0.319795
O O1 0.342721 0.748713 0.403145
O O2 0.385241 0.523312 0.367399
O O3 0.467720 0.641925 0.612354
O O4 0.438810 0.758613 0.394759
O O5 0.730997 0.606309 0.763078
O O6 0.810976 0.627615 0.034312
O O7 0.847260 0.472725 0.928663
O O8 0.136106 0.788887 0.253942
O O9 0.100448 0.516704 0.203780
O O10 0.059760 0.667154 0.292614
O O11 0.117019 0.791593 0.031421
O O12 0.912749 0.334696 0.168687
O O13 0.975375 0.415793 0.082343
#
# Coordination Sequence:
#
# PCOD8142821 Si02
#       7
#     8   8   8   8   4   8   8
#     4  11  24  39  62  89 123 153 194 251 301 353
#     4  10  22  43  61  85 119 162 205 240 287 356
#     4  10  21  39  66  87 116 156 204 251 289 345
#     4  12  24  38  59  91 125 162 192 238 303 360
#     4  10  22  40  60  90 118 154 198 246 300 346
#     4  10  22  40  65  87 118 157 204 249 288 351
#     4  10  21  41  65  92 113 152 206 253 297 339
#
# _framework density 21.330511000000001
#
# number of rings (size 3 to 8) (size 9 to 14) (size 15 to 20)
#    0.000    1.538    0.000    6.000    0.000    8.000 
#    0.000   10.000    0.000    0.923    0.000    0.000 
#    0.000    0.000    0.000    0.000    0.000    0.000 
#
# Total GULP energy -322426.169697 kJ/mol
# GULP energy per Si atom -12401.006527 kJ/mol
# Density = 2.128196 g / cm^3
# Si number density = 21.330511 Si / 1000 Ang^3
#
#
#
# Elastic Constant Matrix: (Units=GPa)
#
#
# Indices 1 2 3 4 5 6 
#
# 1 65.6736 34.5089 18.9483 0.0000 -2.8720 0.0000
# 2 34.5089 120.5837 19.3969 0.0000 -7.5757 0.0000
# 3 18.9483 19.3969 66.0990 0.0000 2.8996 0.0000
# 4 0.0000 0.0000 0.0000 32.7709 0.0000 0.0671
# 5 -2.8720 -7.5757 2.8996 0.0000 30.8907 0.0000
# 6 0.0000 0.0000 0.0000 0.0671 0.0000 -4.2140
#
#
#
# Elastic Compliance Matrix: (Units=1/GPa)
#
#
# Indices 1 2 3 4 5 6 
#
# 1 0.018916 -0.004693 -0.004089 0.000000 0.000991 0.000000
# 2 -0.004693 0.010047 -0.001699 0.000000 0.002187 0.000000
# 3 -0.004089 -0.001699 0.016904 0.000000 -0.002383 0.000000
# 4 0.000000 0.000000 0.000000 0.030514 0.000000 0.000486
# 5 0.000991 0.002187 -0.002383 0.000000 0.033225 0.000000
# 6 0.000000 0.000000 0.000000 0.000486 0.000000 -0.237296
#
#
# Mechanical properties :
#
#
# Convention : Reuss Voigt Hill
#
# Bulk Modulus (GPa) = 40.15263 44.22939 42.19101
# Shear Modulus (GPa) = -50.79925 23.85631 -13.47147
#
# Velocity S-wave (km/s) = -4.88539 3.34790 -2.51581
# Velocity P-wave (km/s) = 3.59969 5.97702 3.37395
#
# Compressibility (1/GPa) = 0.02490497
#
# Stress axis : x y z
#
# Youngs Moduli (GPa) = 52.86498 99.53381 59.15758
#
# Poissons Ratio (x) = 0.46716 0.24188
# Poissons Ratio (y) = 0.24812 0.10049
# Poissons Ratio (z) = 0.21615 0.16908
#
# Static dielectric constant tensor:
#      x y z
#    x 3.701980 0.000000 -0.052540 
#    y 0.000000 3.679610 0.000000 
#    z -0.052540 0.000000 4.116660 
# 
# 
# High freq. dielectric constant tensor:
#      x y z
#    x 1.830920 0.000000 -0.008130 
#    y 0.000000 1.827520 0.000000 
#    z -0.008130 0.000000 1.853400 
# 
# From -- ./inp_files/181211.got.cif
#   From: 2010.06.25/outbox.cif.g09.slc.cpg/sg15_91_cif.got.tgz:181211.got - 2010.06.28 07:06:18.
