data_PCOD8142173
_publ_section_title
;
Structure prediction by ZEFSAII (Michael W. Deem and Ramdas Pophale) SiO2 
 PCOD8142173
Probable space group: C 2/C
;
_chemical_formula_sum "Si O2"
_cell_formula_units_Z 64
_cell_length_a 14.139273
_cell_length_b 17.843603
_cell_length_c 18.205997
_cell_angle_alpha 90.000000
_cell_angle_beta 43.206769
_cell_angle_gamma 90.000000
_cell_volume 3144.720622
_symmetry_space_group_name_H-M "C 2/C"
_symmetry_group_IT_number 15
_symmetry_cell_setting 'monoclinic'
loop_
_space_group_symop_operation_xyz
x,y,z
-x,y,1/2-z
-x,-y,-z
x,-y,1/2+z
1/2+x,1/2+y,z
1/2-x,1/2+y,1/2-z
1/2-x,1/2-y,-z
1/2+x,1/2-y,1/2+z
loop_
_atom_site_type_symbol
_atom_site_label
_atom_site_fract_x
_atom_site_fract_y
_atom_site_fract_z
Si Si1 0.144361 0.424243 0.699772
Si Si2 0.268895 0.625118 0.867222
Si Si3 0.728444 0.136894 0.300496
Si Si4 0.102279 0.111694 0.547961
Si Si5 0.427075 0.512428 0.217476
Si Si6 0.901780 0.593060 0.742864
Si Si7 0.490014 0.917217 0.478174
Si Si8 0.832046 0.194455 0.687561
O O1 0.137780 0.390437 0.784184
O O2 0.274634 0.394327 0.579681
O O3 0.151602 0.513656 0.697431
O O4 0.000000 0.395467 0.750000
O O5 0.335701 0.638187 0.908656
O O6 0.304885 0.544635 0.809560
O O7 0.103309 0.630707 0.960086
O O8 0.324526 0.688285 0.780272
O O9 0.872306 0.090144 0.212590
O O10 0.659101 0.115592 0.417346
O O11 0.732770 0.226147 0.297786
O O12 0.992963 0.173835 0.578580
O O13 0.027702 0.031064 0.603293
O O14 0.500000 0.538378 0.250000
O O15 0.994542 0.586604 0.617725
O O16 0.763762 0.638455 0.804212
O O17 0.000000 0.630035 0.750000
O O18 0.500000 0.000000 0.500000
#
# Coordination Sequence:
#
# PCOD8142173 Si02
#       8
#     8   8   8   8   8   8   8   8
#     4  11  23  38  62  93 119 153 210 268 309 373
#     4   9  18  38  62  85 117 159 206 253 312 371
#     4  12  23  37  59  90 122 159 217 250 299 382
#     4  10  21  38  63  89 123 162 205 259 329 367
#     4   9  19  35  59  87 111 153 209 263 295 356
#     4  10  23  41  62  89 124 160 203 262 316 358
#     4  11  19  37  65  87 115 158 208 255 307 362
#     4  10  23  40  57  87 129 170 196 251 317 376
#
# _framework density 20.351569000000001
#
# number of rings (size 3 to 8) (size 9 to 14) (size 15 to 20)
#    0.000    1.750    2.500    3.375    1.750    5.500 
#    0.000    2.500    0.000    0.000    0.000    0.000 
#    0.000    0.000    0.000    0.000    0.000    0.000 
#
# Total GULP energy -396560.242299 kJ/mol
# GULP energy per Si atom -12392.507572 kJ/mol
# Density = 2.030525 g / cm^3
# Si number density = 20.351569 Si / 1000 Ang^3
#
#
#
# Elastic Constant Matrix: (Units=GPa)
#
#
# Indices 1 2 3 4 5 6 
#
# 1 98.1338 16.6086 26.4585 0.0001 7.8178 -0.0001
# 2 16.6086 74.4379 16.5165 0.0002 1.6855 -0.0002
# 3 26.4585 16.5165 96.8977 0.0000 -1.9820 -0.0001
# 4 0.0001 0.0002 0.0000 17.0108 -0.0001 2.2596
# 5 7.8178 1.6855 -1.9820 -0.0001 26.1412 0.0001
# 6 -0.0001 -0.0002 -0.0001 2.2596 0.0001 15.2503
#
#
#
# Elastic Compliance Matrix: (Units=1/GPa)
#
#
# Indices 1 2 3 4 5 6 
#
# 1 0.011574 -0.001855 -0.002917 0.000000 -0.003563 0.000000
# 2 -0.001855 0.014290 -0.001940 0.000000 -0.000514 0.000000
# 3 -0.002917 -0.001940 0.011486 0.000000 0.001868 0.000000
# 4 0.000000 0.000000 0.000000 0.059966 0.000000 -0.008885
# 5 -0.003563 -0.000514 0.001868 0.000000 0.039494 0.000000
# 6 0.000000 0.000000 0.000000 -0.008885 0.000000 0.066889
#
#
# Mechanical properties :
#
#
# Convention : Reuss Voigt Hill
#
# Bulk Modulus (GPa) = 41.79446 43.18185 42.48815
# Shear Modulus (GPa) = 22.21255 25.67286 23.94270
#
# Velocity S-wave (km/s) = 3.30728 3.55557 3.43367
# Velocity P-wave (km/s) = 5.93001 6.17415 6.05331
#
# Compressibility (1/GPa) = 0.02392662
#
# Stress axis : x y z
#
# Youngs Moduli (GPa) = 86.39744 69.97964 87.06557
#
# Poissons Ratio (x) = 0.12978 0.25399
# Poissons Ratio (y) = 0.16023 0.16890
# Poissons Ratio (z) = 0.25204 0.13575
#
# Static dielectric constant tensor:
#      x y z
#    x 3.943680 0.000000 -0.203510 
#    y 0.000000 3.556650 0.000000 
#    z -0.203510 0.000000 4.843070 
# 
# 
# High freq. dielectric constant tensor:
#      x y z
#    x 1.803440 0.000000 -0.004300 
#    y 0.000000 1.770040 0.000000 
#    z -0.004300 0.000000 1.791570 
# 
# From -- ./inp_files/206457.got.cif
#   From: 2010.06.25/outbox.cif.g09.slc.cpg/sg15_104_cif.got.tgz:206457.got - 2010.06.28 07:06:18.
