data_PCOD8142966
_publ_section_title
;
Structure prediction by ZEFSAII (Michael W. Deem and Ramdas Pophale) SiO2 
 PCOD8142966
Probable space group: C 2/C
;
_chemical_formula_sum "Si O2"
_cell_formula_units_Z 52
_cell_length_a 24.755894
_cell_length_b 11.635088
_cell_length_c 9.240761
_cell_angle_alpha 90.000000
_cell_angle_beta 114.129011
_cell_angle_gamma 90.000000
_cell_volume 2429.122877
_symmetry_space_group_name_H-M "C 2/C"
_symmetry_group_IT_number 15
_symmetry_cell_setting 'monoclinic'
loop_
_space_group_symop_operation_xyz
x,y,z
-x,y,1/2-z
-x,-y,-z
x,-y,1/2+z
1/2+x,1/2+y,z
1/2-x,1/2+y,1/2-z
1/2-x,1/2-y,-z
1/2+x,1/2-y,1/2+z
loop_
_atom_site_type_symbol
_atom_site_label
_atom_site_fract_x
_atom_site_fract_y
_atom_site_fract_z
Si Si1 0.048894 0.848986 0.184583
Si Si2 0.267323 0.123149 0.980343
Si Si3 0.201150 0.005999 0.654559
Si Si4 0.875523 0.926859 0.689821
Si Si5 0.458916 0.750802 0.392921
Si Si6 0.500000 0.046260 0.750000
Si Si7 0.903627 0.356019 0.604004
O O1 0.081946 0.726938 0.245286
O O2 0.000000 0.877129 0.250000
O O3 0.095403 0.951614 0.232957
O O4 0.013833 0.832241 0.995317
O O5 0.336557 0.102555 0.033923
O O6 0.248117 0.047453 0.095960
O O7 0.250000 0.250000 0.000000
O O8 0.234357 0.095721 0.794266
O O9 0.152168 0.069318 0.500622
O O10 0.171755 0.910578 0.729984
O O11 0.920979 0.820596 0.734246
O O12 0.482402 0.872352 0.363104
O O13 0.416015 0.776897 0.479256
O O14 0.444329 0.968516 0.646742
#
# Coordination Sequence:
#
# PCOD8142966 Si02
#       7
#     8   8   8   8   8   4   8
#     4  10  21  39  69  95 132 173 213 274 347 404
#     4  11  24  46  73  98 134 183 230 283 347 395
#     4  10  24  44  65 104 129 174 233 280 343 406
#     4  11  22  42  69  98 140 165 223 292 342 404
#     4  11  24  39  63 100 131 175 223 273 333 417
#     4  12  26  40  62  96 136 174 230 256 336 410
#     4  11  23  45  66  89 137 180 218 277 338 403
#
# _framework density 21.406904000000001
#
# number of rings (size 3 to 8) (size 9 to 14) (size 15 to 20)
#    0.000    1.231    2.308    5.538    5.385    0.000 
#    2.769    2.308    0.000    0.000    0.000    0.000 
#    0.000    0.000    0.000    0.000    0.000    0.000 
#
# Total GULP energy -322354.285346 kJ/mol
# GULP energy per Si atom -12398.241744 kJ/mol
# Density = 2.135818 g / cm^3
# Si number density = 21.406904 Si / 1000 Ang^3
#
#
#
# Elastic Constant Matrix: (Units=GPa)
#
#
# Indices 1 2 3 4 5 6 
#
# 1 97.9423 47.6634 59.9169 0.0000 23.8225 0.0000
# 2 47.6634 123.5927 50.8386 0.0000 15.8191 0.0000
# 3 59.9169 50.8386 140.3705 0.0000 9.2028 0.0000
# 4 0.0000 0.0000 0.0000 36.1573 0.0000 8.0934
# 5 23.8225 15.8191 9.2028 0.0000 34.5413 0.0000
# 6 0.0000 0.0000 0.0000 8.0934 0.0000 26.1667
#
#
#
# Elastic Compliance Matrix: (Units=1/GPa)
#
#
# Indices 1 2 3 4 5 6 
#
# 1 0.017467 -0.003238 -0.005690 0.000000 -0.009048 0.000000
# 2 -0.003238 0.010542 -0.002306 0.000000 -0.001981 0.000000
# 3 -0.005690 -0.002306 0.010240 0.000000 0.002252 0.000000
# 4 0.000000 0.000000 0.000000 0.029714 0.000000 -0.009191
# 5 -0.009048 -0.001981 0.002252 0.000000 0.035498 0.000000
# 6 0.000000 0.000000 0.000000 -0.009191 0.000000 0.041059
#
#
# Mechanical properties :
#
#
# Convention : Reuss Voigt Hill
#
# Bulk Modulus (GPa) = 63.36410 75.41592 69.39001
# Shear Modulus (GPa) = 29.02762 32.93883 30.98323
#
# Velocity S-wave (km/s) = 3.68638 3.92688 3.80853
# Velocity P-wave (km/s) = 6.91254 7.47441 7.19896
#
# Compressibility (1/GPa) = 0.01578181
#
# Stress axis : x y z
#
# Youngs Moduli (GPa) = 57.24932 94.86064 97.65233
#
# Poissons Ratio (x) = 0.30712 0.55566
# Poissons Ratio (y) = 0.18535 0.22520
# Poissons Ratio (z) = 0.32576 0.21876
#
# Static dielectric constant tensor:
#      x y z
#    x 3.669840 0.000000 0.127630 
#    y 0.000000 3.681700 0.000000 
#    z 0.127630 0.000000 3.987160 
# 
# 
# High freq. dielectric constant tensor:
#      x y z
#    x 1.849440 0.000000 -0.000190 
#    y 0.000000 1.832610 0.000000 
#    z -0.000190 0.000000 1.848110 
# 
# From -- ./inp_files/65611.got.cif
#   From: 2010.06.25/outbox.cif.g09.slc.cpg/sg15_33_cif.got.tgz:65611.got - 2010.06.28 07:06:18.
