data_PCOD8142734
_publ_section_title
;
Structure prediction by ZEFSAII (Michael W. Deem and Ramdas Pophale) SiO2 
 PCOD8142734
Probable space group: C 2/C
;
_chemical_formula_sum "Si O2"
_cell_formula_units_Z 56
_cell_length_a 8.984028
_cell_length_b 27.002770
_cell_length_c 11.582374
_cell_angle_alpha 90.000000
_cell_angle_beta 94.393909
_cell_angle_gamma 90.000000
_cell_volume 2801.551982
_symmetry_space_group_name_H-M "C 2/C"
_symmetry_group_IT_number 15
_symmetry_cell_setting 'monoclinic'
loop_
_space_group_symop_operation_xyz
x,y,z
-x,y,1/2-z
-x,-y,-z
x,-y,1/2+z
1/2+x,1/2+y,z
1/2-x,1/2+y,1/2-z
1/2-x,1/2-y,-z
1/2+x,1/2-y,1/2+z
loop_
_atom_site_type_symbol
_atom_site_label
_atom_site_fract_x
_atom_site_fract_y
_atom_site_fract_z
Si Si1 0.260210 0.051847 0.356628
Si Si2 0.672290 0.348785 0.771389
Si Si3 0.304565 0.254932 0.872679
Si Si4 0.000000 0.490802 0.250000
Si Si5 0.852852 0.172824 0.797421
Si Si6 0.500000 0.484310 0.250000
Si Si7 0.113799 0.783252 0.968043
Si Si8 0.759166 0.928186 0.376819
O O1 0.261737 0.099594 0.270897
O O2 0.414911 0.023802 0.340549
O O3 0.246881 0.070251 0.486208
O O4 0.118656 0.017244 0.325352
O O5 0.500000 0.362355 0.750000
O O6 0.736475 0.309544 0.680614
O O7 0.686245 0.327298 0.899906
O O8 0.240815 0.211724 0.786688
O O9 0.250000 0.250000 0.000000
O O10 0.485515 0.253915 0.889112
O O11 0.883164 0.457286 0.176581
O O12 0.937561 0.198592 0.910049
O O13 0.744759 0.128430 0.830412
O O14 0.000000 0.149426 0.750000
O O15 0.413798 0.451339 0.339777
O O16 0.250000 0.750000 0.000000
#
# Coordination Sequence:
#
# PCOD8142734 Si02
#       8
#     8   8   8   4   8   4   8   8
#     4  11  21  43  67  92 127 167 210 267 325 384
#     4  10  21  39  64  93 122 163 219 256 311 385
#     4  11  24  41  61  96 135 165 213 267 310 382
#     4  10  26  44  60  96 136 162 210 268 328 392
#     4  12  23  41  67  96 128 169 219 265 322 383
#     4  10  22  40  68  98 120 156 216 272 320 384
#     4  11  22  40  64  89 129 171 208 261 319 380
#     4  11  23  42  68  95 125 168 213 266 325 383
#
# _framework density 19.988921000000001
#
# number of rings (size 3 to 8) (size 9 to 14) (size 15 to 20)
#    0.000    1.143    5.714    0.857    0.000    1.143 
#    3.857    1.429    0.000    0.000    0.000    0.000 
#    0.000    0.000    0.000    0.000    0.000    0.000 
#
# Total GULP energy -346958.796963 kJ/mol
# GULP energy per Si atom -12391.385606 kJ/mol
# Density = 1.994343 g / cm^3
# Si number density = 19.988921 Si / 1000 Ang^3
#
#
#
# Elastic Constant Matrix: (Units=GPa)
#
#
# Indices 1 2 3 4 5 6 
#
# 1 100.1621 59.2042 36.8879 0.0000 1.2655 0.0000
# 2 59.2042 139.2821 62.6978 0.0000 4.4833 0.0000
# 3 36.8879 62.6978 123.4000 0.0000 -8.9623 0.0000
# 4 0.0000 0.0000 0.0000 30.1401 0.0000 -1.8246
# 5 1.2655 4.4833 -8.9623 0.0000 31.9029 0.0000
# 6 0.0000 0.0000 0.0000 -1.8246 0.0000 30.7988
#
#
#
# Elastic Compliance Matrix: (Units=1/GPa)
#
#
# Indices 1 2 3 4 5 6 
#
# 1 0.013534 -0.005078 -0.001483 0.000000 -0.000240 0.000000
# 2 -0.005078 0.011446 -0.004491 0.000000 -0.002669 0.000000
# 3 -0.001483 -0.004491 0.011106 0.000000 0.003810 0.000000
# 4 0.000000 0.000000 0.000000 0.033298 0.000000 0.001973
# 5 -0.000240 -0.002669 0.003810 0.000000 0.032800 0.000000
# 6 0.000000 0.000000 0.000000 0.001973 0.000000 0.032586
#
#
# Mechanical properties :
#
#
# Convention : Reuss Voigt Hill
#
# Bulk Modulus (GPa) = 71.52437 75.60264 73.56351
# Shear Modulus (GPa) = 30.95313 32.17198 31.56255
#
# Velocity S-wave (km/s) = 3.93939 4.01620 3.97798
# Velocity P-wave (km/s) = 7.52006 7.70784 7.61453
#
# Compressibility (1/GPa) = 0.01398125
#
# Stress axis : x y z
#
# Youngs Moduli (GPa) = 73.88571 87.36937 90.04231
#
# Poissons Ratio (x) = 0.44362 0.13357
# Poissons Ratio (y) = 0.37516 0.40441
# Poissons Ratio (z) = 0.10961 0.39241
#
# Static dielectric constant tensor:
#      x y z
#    x 3.616330 0.000000 0.033270 
#    y 0.000000 3.271620 0.000000 
#    z 0.033270 0.000000 3.669940 
# 
# 
# High freq. dielectric constant tensor:
#      x y z
#    x 1.774660 0.000000 -0.001330 
#    y 0.000000 1.787470 0.000000 
#    z -0.001330 0.000000 1.792440 
# 
# From -- ./inp_files/82306.got.cif
#   From: 2010.06.25/outbox.cif.g09.slc.cpg/sg15_42_cif.got.tgz:82306.got - 2010.06.28 07:06:18.
