data_PCOD8142978
_publ_section_title
;
Structure prediction by ZEFSAII (Michael W. Deem and Ramdas Pophale) SiO2 
 PCOD8142978
Probable space group: C 2/C
;
_chemical_formula_sum "Si O2"
_cell_formula_units_Z 36
_cell_length_a 16.209047
_cell_length_b 20.223975
_cell_length_c 8.183609
_cell_angle_alpha 90.000000
_cell_angle_beta 34.509882
_cell_angle_gamma 90.000000
_cell_volume 1519.867981
_symmetry_space_group_name_H-M "C 2/C"
_symmetry_group_IT_number 15
_symmetry_cell_setting 'monoclinic'
loop_
_space_group_symop_operation_xyz
x,y,z
-x,y,1/2-z
-x,-y,-z
x,-y,1/2+z
1/2+x,1/2+y,z
1/2-x,1/2+y,1/2-z
1/2-x,1/2-y,-z
1/2+x,1/2-y,1/2+z
loop_
_atom_site_type_symbol
_atom_site_label
_atom_site_fract_x
_atom_site_fract_y
_atom_site_fract_z
Si Si1 0.943581 0.081551 0.103676
Si Si2 0.588856 0.275809 0.766722
Si Si3 0.215604 0.985700 0.916339
Si Si4 0.780054 0.405230 0.078006
Si Si5 0.000000 0.711326 0.250000
O O1 0.881686 0.145924 0.295397
O O2 0.850865 0.069881 0.092287
O O3 0.921003 0.015683 0.252267
O O4 0.110943 0.102364 0.805607
O O5 0.500000 0.251520 0.750000
O O6 0.750000 0.250000 0.500000
O O7 0.510313 0.254879 0.067278
O O8 0.299651 0.048424 0.703954
O O9 0.337035 0.948324 0.829776
O O10 0.857514 0.335271 0.971464
#
# Coordination Sequence:
#
# PCOD8142978 Si02
#       5
#     8   8   8   8   4
#     4  11  21  40  70 102 134 177 234 301 350 419
#     4  12  29  50  73 105 148 194 243 296 357 430
#     4  10  21  39  71 103 134 174 233 301 359 410
#     4  11  22  41  64 103 136 178 237 289 355 423
#     4  12  30  46  70 102 146 200 238 284 360 436
#
# _framework density 23.686268999999999
#
# number of rings (size 3 to 8) (size 9 to 14) (size 15 to 20)
#    0.000    0.889    0.000    9.333    6.222    2.667 
#    0.000    0.000    0.000    0.000    0.000    0.000 
#    0.000    0.000    0.000    0.000    0.000    0.000 
#
# Total GULP energy -223010.481996 kJ/mol
# GULP energy per Si atom -12389.471222 kJ/mol
# Density = 2.363236 g / cm^3
# Si number density = 23.686269 Si / 1000 Ang^3
#
#
#
# Elastic Constant Matrix: (Units=GPa)
#
#
# Indices 1 2 3 4 5 6 
#
# 1 134.5433 36.3244 46.6358 0.0011 25.8736 -0.0007
# 2 36.3244 92.4967 12.5804 0.0013 -7.0314 -0.0013
# 3 46.6358 12.5804 56.9325 0.0024 1.6407 -0.0024
# 4 0.0011 0.0013 0.0024 39.3325 -0.0010 5.8449
# 5 25.8736 -7.0314 1.6407 -0.0010 44.2646 0.0005
# 6 -0.0007 -0.0013 -0.0024 5.8449 0.0005 41.6871
#
#
#
# Elastic Compliance Matrix: (Units=1/GPa)
#
#
# Indices 1 2 3 4 5 6 
#
# 1 0.013797 -0.004697 -0.010021 0.000000 -0.008439 0.000000
# 2 -0.004697 0.012901 0.000859 0.000000 0.004763 0.000000
# 3 -0.010021 0.000859 0.025437 -0.000001 0.005051 0.000001
# 4 0.000000 0.000000 -0.000001 0.025965 0.000001 -0.003641
# 5 -0.008439 0.004763 0.005051 0.000001 0.028094 0.000000
# 6 0.000000 0.000000 0.000001 -0.003641 0.000000 0.024499
#
#
# Mechanical properties :
#
#
# Convention : Reuss Voigt Hill
#
# Bulk Modulus (GPa) = 40.95128 52.78375 46.86751
# Shear Modulus (GPa) = 30.02127 37.61897 33.82012
#
# Velocity S-wave (km/s) = 3.56400 3.98957 3.78277
# Velocity P-wave (km/s) = 5.85343 6.59963 6.23770
#
# Compressibility (1/GPa) = 0.02441926
#
# Stress axis : x y z
#
# Youngs Moduli (GPa) = 72.48015 77.51422 39.31207
#
# Poissons Ratio (x) = 0.36407 0.39393
# Poissons Ratio (y) = 0.34043 -0.03378
# Poissons Ratio (z) = 0.72629 -0.06661
#
# Static dielectric constant tensor:
#      x y z
#    x 4.831360 -0.000050 0.746840 
#    y -0.000050 5.529910 -0.000030 
#    z 0.746840 -0.000030 4.338060 
# 
# 
# High freq. dielectric constant tensor:
#      x y z
#    x 1.952250 0.000000 0.026780 
#    y 0.000000 1.951400 0.000000 
#    z 0.026780 0.000000 1.921180 
# 
# From -- ./inp_files/50533.got.cif
#   From: 2010.06.25/outbox.cif.g09.slc.cpg/sg15_26_cif.got.tgz:50533.got - 2010.06.28 07:06:18.
