data_PCOD8142129
_publ_section_title
;
Structure prediction by ZEFSAII (Michael W. Deem and Ramdas Pophale) SiO2 
 PCOD8142129
Probable space group: C 2/C
;
_chemical_formula_sum "Si O2"
_cell_formula_units_Z 64
_cell_length_a 14.785523
_cell_length_b 14.499419
_cell_length_c 17.428266
_cell_angle_alpha 90.000000
_cell_angle_beta 57.553873
_cell_angle_gamma 90.000000
_cell_volume 3153.047700
_symmetry_space_group_name_H-M "C 2/C"
_symmetry_group_IT_number 15
_symmetry_cell_setting 'monoclinic'
loop_
_space_group_symop_operation_xyz
x,y,z
-x,y,1/2-z
-x,-y,-z
x,-y,1/2+z
1/2+x,1/2+y,z
1/2-x,1/2+y,1/2-z
1/2-x,1/2-y,-z
1/2+x,1/2-y,1/2+z
loop_
_atom_site_type_symbol
_atom_site_label
_atom_site_fract_x
_atom_site_fract_y
_atom_site_fract_z
Si Si1 0.187298 0.774611 0.331739
Si Si2 0.028003 0.912901 0.650860
Si Si3 0.545077 0.081829 0.582731
Si Si4 0.894184 0.244200 0.150921
Si Si5 0.464665 0.896434 0.586695
Si Si6 0.017134 0.875394 0.329320
Si Si7 0.268473 0.349441 0.024705
Si Si8 0.139450 0.251722 0.506197
O O1 0.309024 0.751899 0.257555
O O2 0.124021 0.678191 0.349273
O O3 0.138478 0.846800 0.293573
O O4 0.179295 0.828317 0.416320
O O5 0.152158 0.903612 0.569270
O O6 0.000000 0.880805 0.750000
O O7 0.959930 0.849695 0.625438
O O8 0.992377 0.016667 0.655182
O O9 0.473471 0.171018 0.628504
O O10 0.572618 0.071981 0.480566
O O11 0.656413 0.093147 0.579588
O O12 0.477722 0.988079 0.634916
O O13 0.837401 0.238048 0.094339
O O14 0.581899 0.850412 0.538647
O O15 0.000000 0.843739 0.250000
O O16 0.935836 0.827447 0.425149
O O17 0.250000 0.250000 0.000000
O O18 0.250000 0.250000 0.500000
#
# Coordination Sequence:
#
# PCOD8142129 Si02
#       8
#     8   8   8   8   8   8   8   8
#     4  11  23  40  65  90 131 172 206 265 319 384
#     4  11  24  40  63  94 123 164 215 264 320 383
#     4  10  21  38  62  91 124 161 210 260 312 388
#     4  11  23  39  63  94 126 167 208 257 317 382
#     4   9  20  39  60  89 119 165 209 254 314 379
#     4  10  23  43  63  88 122 164 213 267 321 379
#     4  12  21  39  64  93 128 167 208 263 328 371
#     4  10  21  39  63  89 121 164 211 256 314 378
#
# _framework density 20.297820999999999
#
# number of rings (size 3 to 8) (size 9 to 14) (size 15 to 20)
#    0.000    1.500    2.500    3.000    1.750    3.000 
#    4.500    0.000   13.750    0.000    0.000    0.000 
#    0.000    0.000    0.000    0.000    0.000    0.000 
#
# Total GULP energy -396644.884356 kJ/mol
# GULP energy per Si atom -12395.152636 kJ/mol
# Density = 2.025162 g / cm^3
# Si number density = 20.297821 Si / 1000 Ang^3
#
#
#
# Elastic Constant Matrix: (Units=GPa)
#
#
# Indices 1 2 3 4 5 6 
#
# 1 128.4623 47.5121 31.3187 0.0000 -0.6949 0.0000
# 2 47.5121 103.9838 30.0708 0.0000 6.6472 0.0000
# 3 31.3187 30.0708 88.5186 0.0000 -4.1403 0.0000
# 4 0.0000 0.0000 0.0000 22.3452 0.0000 6.3615
# 5 -0.6949 6.6472 -4.1403 0.0000 31.7655 0.0000
# 6 0.0000 0.0000 0.0000 6.3615 0.0000 20.2975
#
#
#
# Elastic Compliance Matrix: (Units=1/GPa)
#
#
# Indices 1 2 3 4 5 6 
#
# 1 0.009737 -0.003894 -0.002087 0.000000 0.000756 0.000000
# 2 -0.003894 0.012461 -0.003000 0.000000 -0.003084 0.000000
# 3 -0.002087 -0.003000 0.013162 0.000000 0.002298 0.000000
# 4 0.000000 0.000000 0.000000 0.049137 0.000000 -0.015400
# 5 0.000756 -0.003084 0.002298 0.000000 0.032442 0.000000
# 6 0.000000 0.000000 0.000000 -0.015400 0.000000 0.054094
#
#
# Mechanical properties :
#
#
# Convention : Reuss Voigt Hill
#
# Bulk Modulus (GPa) = 57.47475 59.86311 58.66893
# Shear Modulus (GPa) = 25.66826 29.01919 27.34372
#
# Velocity S-wave (km/s) = 3.55995 3.78520 3.67430
# Velocity P-wave (km/s) = 6.72866 6.97568 6.85328
#
# Compressibility (1/GPa) = 0.01739894
#
# Stress axis : x y z
#
# Youngs Moduli (GPa) = 102.69581 80.25238 75.97676
#
# Poissons Ratio (x) = 0.31250 0.15857
# Poissons Ratio (y) = 0.39990 0.22790
# Poissons Ratio (z) = 0.21433 0.24072
#
# Static dielectric constant tensor:
#      x y z
#    x 4.119810 0.000000 -0.249210 
#    y 0.000000 3.904460 0.000000 
#    z -0.249210 0.000000 3.487000 
# 
# 
# High freq. dielectric constant tensor:
#      x y z
#    x 1.801600 0.000000 -0.000590 
#    y 0.000000 1.799980 0.000000 
#    z -0.000590 0.000000 1.779930 
# 
# From -- ./inp_files/205398.got.cif
#   From: 2010.06.25/outbox.cif.g09.slc.cpg/sg15_103_cif.got.tgz:205398.got - 2010.06.28 07:06:18.
