data_PCOD8142854
_publ_section_title
;
Structure prediction by ZEFSAII (Michael W. Deem and Ramdas Pophale) SiO2 
 PCOD8142854
Probable space group: C 2/C
;
_chemical_formula_sum "Si O2"
_cell_formula_units_Z 56
_cell_length_a 8.781508
_cell_length_b 16.731789
_cell_length_c 25.603027
_cell_angle_alpha 90.000000
_cell_angle_beta 130.792320
_cell_angle_gamma 90.000000
_cell_volume 2848.039965
_symmetry_space_group_name_H-M "C 2/C"
_symmetry_group_IT_number 15
_symmetry_cell_setting 'monoclinic'
loop_
_space_group_symop_operation_xyz
x,y,z
-x,y,1/2-z
-x,-y,-z
x,-y,1/2+z
1/2+x,1/2+y,z
1/2-x,1/2+y,1/2-z
1/2-x,1/2-y,-z
1/2+x,1/2-y,1/2+z
loop_
_atom_site_type_symbol
_atom_site_label
_atom_site_fract_x
_atom_site_fract_y
_atom_site_fract_z
Si Si1 0.344863 0.714063 0.469515
Si Si2 0.288075 0.931935 0.178796
Si Si3 0.884194 0.943734 0.934295
Si Si4 0.569674 0.474057 0.325355
Si Si5 0.184069 0.120533 0.416006
Si Si6 0.703961 0.799804 0.399052
Si Si7 0.937014 0.360288 0.429547
O O1 0.250000 0.750000 0.500000
O O2 0.253281 0.626790 0.433628
O O3 0.577712 0.694057 0.527668
O O4 0.319886 0.778614 0.418062
O O5 0.500000 0.953503 0.250000
O O6 0.293606 0.841865 0.156998
O O7 0.109626 0.936956 0.180628
O O8 0.266426 0.998753 0.129583
O O9 0.037814 0.898772 0.930774
O O10 0.000000 0.000000 0.000000
O O11 0.500000 0.473014 0.250000
O O12 0.633838 0.562625 0.356731
O O13 0.770604 0.425373 0.381201
O O14 0.137745 0.207682 0.381610
O O15 0.414129 0.114766 0.489139
O O16 0.556556 0.849218 0.403023
#
# Coordination Sequence:
#
# PCOD8142854 Si02
#       7
#     8   8   8   8   8   8   8
#     4  11  21  36  60  99 127 156 204 259 307 376
#     4  11  24  42  65  86 124 170 213 247 318 381
#     4  11  20  39  66  91 125 163 205 258 314 367
#     4  11  25  42  61  91 125 164 210 258 309 380
#     4  10  21  39  66  94 124 159 208 257 314 367
#     4  11  20  41  64  91 124 165 199 258 320 364
#     4  11  20  39  66  92 126 157 208 259 316 362
#
# _framework density 19.662644
#
# number of rings (size 3 to 8) (size 9 to 14) (size 15 to 20)
#    0.000    1.143    4.286    3.000    2.000    0.571 
#   10.286    0.714    3.143    0.000    0.000    0.000 
#    0.000    0.000    0.000    0.000    0.000    0.000 
#
# Total GULP energy -347118.949828 kJ/mol
# GULP energy per Si atom -12397.105351 kJ/mol
# Density = 1.961789 g / cm^3
# Si number density = 19.662644 Si / 1000 Ang^3
#
#
#
# Elastic Constant Matrix: (Units=GPa)
#
#
# Indices 1 2 3 4 5 6 
#
# 1 109.3903 66.9178 40.1103 0.0000 -7.6230 0.0000
# 2 66.9178 155.9416 68.6579 0.0000 -12.9566 0.0000
# 3 40.1103 68.6579 111.7696 0.0000 -8.2469 0.0000
# 4 0.0000 0.0000 0.0000 22.9568 0.0000 -9.2279
# 5 -7.6230 -12.9566 -8.2469 0.0000 32.3358 0.0000
# 6 0.0000 0.0000 0.0000 -9.2279 0.0000 35.9428
#
#
#
# Elastic Compliance Matrix: (Units=1/GPa)
#
#
# Indices 1 2 3 4 5 6 
#
# 1 0.012628 -0.004644 -0.001627 0.000000 0.000701 0.000000
# 2 -0.004644 0.010652 -0.004732 0.000000 0.001967 0.000000
# 3 -0.001627 -0.004732 0.012505 0.000000 0.000910 0.000000
# 4 0.000000 0.000000 0.000000 0.048573 0.000000 0.012471
# 5 0.000701 0.001967 0.000910 0.000000 0.032111 0.000000
# 6 0.000000 0.000000 0.000000 0.012471 0.000000 0.031024
#
#
# Mechanical properties :
#
#
# Convention : Reuss Voigt Hill
#
# Bulk Modulus (GPa) = 72.57588 80.94150 76.75869
# Shear Modulus (GPa) = 28.72050 31.67479 30.19764
#
# Velocity S-wave (km/s) = 3.82601 4.01797 3.92316
# Velocity P-wave (km/s) = 7.51721 7.92338 7.72297
#
# Compressibility (1/GPa) = 0.01377868
#
# Stress axis : x y z
#
# Youngs Moduli (GPa) = 79.18795 93.87620 79.97045
#
# Poissons Ratio (x) = 0.43600 0.13012
# Poissons Ratio (y) = 0.36778 0.37840
# Poissons Ratio (z) = 0.12885 0.44420
#
# Static dielectric constant tensor:
#      x y z
#    x 3.538950 0.000000 -0.008140 
#    y 0.000000 4.011280 0.000000 
#    z -0.008140 0.000000 3.547450 
# 
# 
# High freq. dielectric constant tensor:
#      x y z
#    x 1.770810 0.000000 -0.007450 
#    y 0.000000 1.786340 0.000000 
#    z -0.007450 0.000000 1.746410 
# 
# From -- ./inp_files/289443.got.cif
#   From: 2010.06.25/outbox.cif.g09.slc.cpg/sg15_145_cif.got.tgz:289443.got - 2010.06.28 07:06:18.
