data_PCOD8142224
_publ_section_title
;
Structure prediction by ZEFSAII (Michael W. Deem and Ramdas Pophale) SiO2 
 PCOD8142224
Probable space group: C 2/C
;
_chemical_formula_sum "Si O2"
_cell_formula_units_Z 32
_cell_length_a 28.685728
_cell_length_b 7.508025
_cell_length_c 17.079100
_cell_angle_alpha 90.000000
_cell_angle_beta 28.338264
_cell_angle_gamma 90.000000
_cell_volume 1746.039027
_symmetry_space_group_name_H-M "C 2/C"
_symmetry_group_IT_number 15
_symmetry_cell_setting 'monoclinic'
loop_
_space_group_symop_operation_xyz
x,y,z
-x,y,1/2-z
-x,-y,-z
x,-y,1/2+z
1/2+x,1/2+y,z
1/2-x,1/2+y,1/2-z
1/2-x,1/2-y,-z
1/2+x,1/2-y,1/2+z
loop_
_atom_site_type_symbol
_atom_site_label
_atom_site_fract_x
_atom_site_fract_y
_atom_site_fract_z
Si Si1 0.276796 0.322991 0.808251
Si Si2 0.737131 0.709092 0.693568
Si Si3 0.107084 0.504956 0.806098
Si Si4 0.892416 0.520288 0.375874
O O1 0.322391 0.522025 0.729350
O O2 0.259992 0.228587 0.750644
O O3 0.350399 0.204651 0.750890
O O4 0.327970 0.156108 0.991816
O O5 0.675653 0.873265 0.753308
O O6 0.840662 0.692409 0.493152
O O7 0.103176 0.443829 0.722657
O O8 0.000000 0.500000 0.000000
O O9 0.000000 0.490421 0.250000
#
# Coordination Sequence:
#
# PCOD8142224 Si02
#       4
#     8   8   8   8
#     4  10  21  38  64  86 123 154 198 243 301 346
#     4  10  21  38  64  86 123 154 198 243 301 346
#     4  12  22  40  63  88 123 158 198 246 292 354
#     4  10  22  40  61  88 121 158 198 244 296 350
#
# _framework density 18.327196000000001
#
# number of rings (size 3 to 8) (size 9 to 14) (size 15 to 20)
#    1.500    0.000    2.500    4.500    0.000    1.000 
#    0.000    1.250    0.000    0.000    0.000    0.000 
#    0.000    0.000    0.000    0.000    0.000    0.000 
#
# Total GULP energy -198304.905322 kJ/mol
# GULP energy per Si atom -12394.056583 kJ/mol
# Density = 1.828548 g / cm^3
# Si number density = 18.327196 Si / 1000 Ang^3
#
#
#
# Elastic Constant Matrix: (Units=GPa)
#
#
# Indices 1 2 3 4 5 6 
#
# 1 75.0352 0.7657 33.7066 0.0001 5.8710 0.0002
# 2 0.7657 71.0446 22.1978 -0.0063 1.7720 0.0017
# 3 33.7066 22.1978 139.0752 -0.0064 0.1802 0.0004
# 4 0.0001 -0.0063 -0.0064 49.4808 -0.0045 -2.9549
# 5 5.8710 1.7720 0.1802 -0.0045 23.4411 -0.0005
# 6 0.0002 0.0017 0.0004 -2.9549 -0.0005 33.6859
#
#
#
# Elastic Compliance Matrix: (Units=1/GPa)
#
#
# Indices 1 2 3 4 5 6 
#
# 1 0.015375 0.001152 -0.003905 -0.000001 -0.003908 0.000000
# 2 0.001152 0.014929 -0.002660 0.000001 -0.001397 -0.000001
# 3 -0.003905 -0.002660 0.008560 0.000001 0.001113 0.000000
# 4 -0.000001 0.000001 0.000001 0.020316 0.000004 0.001782
# 5 -0.003908 -0.001397 0.001113 0.000004 0.043736 0.000001
# 6 0.000000 -0.000001 0.000000 0.001782 0.000001 0.029842
#
#
# Mechanical properties :
#
#
# Convention : Reuss Voigt Hill
#
# Bulk Modulus (GPa) = 35.66639 44.27724 39.97181
# Shear Modulus (GPa) = 32.69428 36.55390 34.62409
#
# Velocity S-wave (km/s) = 4.22823 4.47085 4.35123
# Velocity P-wave (km/s) = 6.58334 7.13183 6.86307
#
# Compressibility (1/GPa) = 0.02803760
#
# Stress axis : x y z
#
# Youngs Moduli (GPa) = 65.03912 66.98253 116.82263
#
# Poissons Ratio (x) = -0.07716 0.45622
# Poissons Ratio (y) = -0.07492 0.31078
# Poissons Ratio (z) = 0.25399 0.17819
#
# Static dielectric constant tensor:
#      x y z
#    x 3.218480 0.000010 0.124310 
#    y 0.000010 3.239300 0.000000 
#    z 0.124310 0.000000 3.370730 
# 
# 
# High freq. dielectric constant tensor:
#      x y z
#    x 1.719610 0.000000 0.015620 
#    y 0.000000 1.703850 0.000000 
#    z 0.015620 0.000000 1.707020 
# 
# From -- ./inp_files/172221.got.cif
#   From: 2010.06.25/outbox.cif.g09.slc.cpg/sg15_87_cif.got.tgz:172221.got - 2010.06.28 07:06:18.
