data_PCOD8142559
_publ_section_title
;
Structure prediction by ZEFSAII (Michael W. Deem and Ramdas Pophale) SiO2 
 PCOD8142559
Probable space group: C 2/C
;
_chemical_formula_sum "Si O2"
_cell_formula_units_Z 52
_cell_length_a 18.374112
_cell_length_b 5.364929
_cell_length_c 27.130507
_cell_angle_alpha 90.000000
_cell_angle_beta 123.482252
_cell_angle_gamma 90.000000
_cell_volume 2230.611052
_symmetry_space_group_name_H-M "C 2/C"
_symmetry_group_IT_number 15
_symmetry_cell_setting 'monoclinic'
loop_
_space_group_symop_operation_xyz
x,y,z
-x,y,1/2-z
-x,-y,-z
x,-y,1/2+z
1/2+x,1/2+y,z
1/2-x,1/2+y,1/2-z
1/2-x,1/2-y,-z
1/2+x,1/2-y,1/2+z
loop_
_atom_site_type_symbol
_atom_site_label
_atom_site_fract_x
_atom_site_fract_y
_atom_site_fract_z
Si Si1 0.961399 0.953586 0.151039
Si Si2 0.658279 0.183073 0.848114
Si Si3 0.839395 0.743477 0.373569
Si Si4 0.063709 0.679764 0.995289
Si Si5 0.500000 0.115958 0.250000
Si Si6 0.923091 0.782871 0.872804
Si Si7 0.662388 0.884033 0.949270
O O1 0.878191 0.050737 0.149498
O O2 0.020906 0.193064 0.156952
O O3 0.920415 0.799937 0.089794
O O4 0.017942 0.779512 0.207900
O O5 0.736209 0.262809 0.841137
O O6 0.586969 0.044865 0.788471
O O7 0.685062 0.026329 0.906782
O O8 0.877467 0.811194 0.441670
O O9 0.876732 0.485704 0.363250
O O10 0.857501 0.983028 0.346086
O O11 0.131234 0.563033 0.981352
O O12 0.995446 0.854662 0.941223
O O13 0.000000 0.500000 0.000000
O O14 0.750000 0.750000 0.000000
#
# Coordination Sequence:
#
# PCOD8142559 Si02
#       7
#     8   8   8   8   4   8   8
#     4  11  23  45  75  97 140 188 244 298 363 438
#     4  11  25  45  72 103 138 184 245 304 362 435
#     4  11  26  41  71 105 150 186 234 288 357 431
#     4  10  21  39  62 101 148 194 227 270 349 433
#     4  10  26  46  80  98 128 188 254 310 376 424
#     4  11  24  44  69 104 147 191 233 284 355 436
#     4  11  24  38  67 109 147 186 238 295 356 427
#
# _framework density 23.311996000000001
#
# number of rings (size 3 to 8) (size 9 to 14) (size 15 to 20)
#    0.000    1.231    1.538    3.692   12.923    1.231 
#    0.000    0.000    6.769    0.000    0.000    0.000 
#    0.000    0.000    0.000    0.000    0.000    0.000 
#
# Total GULP energy -322144.482145 kJ/mol
# GULP energy per Si atom -12390.172390 kJ/mol
# Density = 2.325894 g / cm^3
# Si number density = 23.311996 Si / 1000 Ang^3
#
#
#
# Elastic Constant Matrix: (Units=GPa)
#
#
# Indices 1 2 3 4 5 6 
#
# 1 134.2533 35.6067 16.7396 0.0001 11.8729 0.0004
# 2 35.6067 102.9783 10.8164 0.0011 4.2088 -0.0006
# 3 16.7396 10.8164 86.4617 0.0010 13.2969 0.0003
# 4 0.0001 0.0011 0.0010 21.1356 0.0000 -5.3128
# 5 11.8729 4.2088 13.2969 0.0000 19.6980 0.0000
# 6 0.0004 -0.0006 0.0003 -5.3128 0.0000 46.2032
#
#
#
# Elastic Compliance Matrix: (Units=1/GPa)
#
#
# Indices 1 2 3 4 5 6 
#
# 1 0.008629 -0.002742 -0.000689 0.000000 -0.004150 0.000000
# 2 -0.002742 0.010747 -0.000797 0.000000 -0.000106 0.000000
# 3 -0.000689 -0.000797 0.013065 -0.000001 -0.008234 0.000000
# 4 0.000000 0.000000 -0.000001 0.048722 0.000000 0.005602
# 5 -0.004150 -0.000106 -0.008234 0.000000 0.058848 0.000000
# 6 0.000000 0.000000 0.000000 0.005602 0.000000 0.022288
#
#
# Mechanical properties :
#
#
# Convention : Reuss Voigt Hill
#
# Bulk Modulus (GPa) = 41.69441 50.00208 45.84824
# Shear Modulus (GPa) = 27.97204 34.77608 31.37406
#
# Velocity S-wave (km/s) = 3.46771 3.86653 3.67254
# Velocity P-wave (km/s) = 5.82732 6.43654 6.13949
#
# Compressibility (1/GPa) = 0.02398403
#
# Stress axis : x y z
#
# Youngs Moduli (GPa) = 115.89286 93.05116 76.53865
#
# Poissons Ratio (x) = 0.25510 0.05277
# Poissons Ratio (y) = 0.31772 0.06103
# Poissons Ratio (z) = 0.07990 0.07420
#
# Static dielectric constant tensor:
#      x y z
#    x 4.250240 0.000000 -0.024330 
#    y 0.000000 4.100510 0.000000 
#    z -0.024330 0.000000 4.632630 
# 
# 
# High freq. dielectric constant tensor:
#      x y z
#    x 1.931050 0.000000 -0.002090 
#    y 0.000000 1.921310 0.000000 
#    z -0.002090 0.000000 1.910930 
# 
# From -- ./inp_files/297836.got.cif
#   From: 2010.06.25/outbox.cif.g09.slc.cpg/sg15_149_cif.got.tgz:297836.got - 2010.06.28 07:06:18.
