data_PCOD8142088
_publ_section_title
;
Structure prediction by ZEFSAII (Michael W. Deem and Ramdas Pophale) SiO2 
 PCOD8142088
Probable space group: C 2/C
;
_chemical_formula_sum "Si O2"
_cell_formula_units_Z 48
_cell_length_a 14.453149
_cell_length_b 33.102026
_cell_length_c 14.183004
_cell_angle_alpha 90.000000
_cell_angle_beta 160.264788
_cell_angle_gamma 90.000000
_cell_volume 2291.303576
_symmetry_space_group_name_H-M "C 2/C"
_symmetry_group_IT_number 15
_symmetry_cell_setting 'monoclinic'
loop_
_space_group_symop_operation_xyz
x,y,z
-x,y,1/2-z
-x,-y,-z
x,-y,1/2+z
1/2+x,1/2+y,z
1/2-x,1/2+y,1/2-z
1/2-x,1/2-y,-z
1/2+x,1/2-y,1/2+z
loop_
_atom_site_type_symbol
_atom_site_label
_atom_site_fract_x
_atom_site_fract_y
_atom_site_fract_z
Si Si1 0.937439 0.522785 0.534782
Si Si2 0.046823 0.384796 0.097456
Si Si3 0.000000 0.393028 0.250000
Si Si4 0.500000 0.967351 0.750000
Si Si5 0.500000 0.587912 0.750000
Si Si6 0.000000 0.049212 0.250000
Si Si7 0.920546 0.139005 0.486751
Si Si8 0.047650 0.776147 0.188023
O O1 0.124548 0.497707 0.789701
O O2 0.630598 0.522212 0.288683
O O3 0.000000 0.500000 0.500000
O O4 0.005434 0.568302 0.576158
O O5 0.971047 0.365136 0.127695
O O6 0.363017 0.378747 0.378297
O O7 0.873660 0.366548 0.844940
O O8 0.259585 0.422185 0.479347
O O9 0.262832 0.939390 0.478357
O O10 0.425098 0.615695 0.589580
O O11 0.983920 0.186068 0.561061
O O12 0.359664 0.761666 0.476528
O O13 0.000000 0.789200 0.250000
#
# Coordination Sequence:
#
# PCOD8142088 Si02
#       8
#     8   8   4   4   4   4   8   8
#     4  11  22  41  59  85 116 166 219 273 322 391
#     4  11  24  38  63  88 121 161 218 267 324 359
#     4  10  21  42  60  90 118 155 212 282 312 369
#     4  12  27  40  60  81 122 172 218 271 334 364
#     4  12  25  42  56  89 130 166 204 263 324 390
#     4  10  21  38  62  82 116 153 210 280 336 367
#     4  12  23  41  63  97 127 167 201 258 315 392
#     4  10  21  39  65  97 131 168 199 238 301 384
#
# _framework density 20.948774
#
# number of rings (size 3 to 8) (size 9 to 14) (size 15 to 20)
#    0.000    1.000    0.833    8.500    0.000    1.333 
#    0.000   14.167    0.000    0.000    0.000   11.667 
#    0.000    0.000    0.000    0.000    0.000    0.000 
#
# Total GULP energy -297371.456639 kJ/mol
# GULP energy per Si atom -12390.477360 kJ/mol
# Density = 2.090109 g / cm^3
# Si number density = 20.948774 Si / 1000 Ang^3
#
#
#
# Elastic Constant Matrix: (Units=GPa)
#
#
# Indices 1 2 3 4 5 6 
#
# 1 136.5016 29.3259 11.3252 -0.0084 -9.3638 -0.0037
# 2 29.3259 76.6672 8.2585 -0.0065 -6.4166 -0.0028
# 3 11.3252 8.2585 77.4110 0.0091 -1.5641 -0.0230
# 4 -0.0084 -0.0065 0.0091 4.2225 -0.0029 -7.2788
# 5 -9.3638 -6.4166 -1.5641 -0.0029 45.8369 -0.0023
# 6 -0.0037 -0.0028 -0.0230 -7.2788 -0.0023 5.5604
#
#
#
# Elastic Compliance Matrix: (Units=1/GPa)
#
#
# Indices 1 2 3 4 5 6 
#
# 1 0.008105 -0.002906 -0.000851 -0.000013 0.001220 -0.000016
# 2 -0.002906 0.014387 -0.001082 -0.000018 0.001383 -0.000022
# 3 -0.000851 -0.001082 0.013160 -0.000048 0.000124 -0.000010
# 4 -0.000013 -0.000018 -0.000048 -0.188474 -0.000031 -0.246721
# 5 0.001220 0.001383 0.000124 -0.000031 0.022264 -0.000029
# 6 -0.000016 -0.000022 -0.000010 -0.246721 -0.000029 -0.143125
#
#
# Mechanical properties :
#
#
# Convention : Reuss Voigt Hill
#
# Bulk Modulus (GPa) = 38.49960 43.15544 40.82752
# Shear Modulus (GPa) = -19.58122 27.23531 3.82704
#
# Velocity S-wave (km/s) = -3.06063 3.60959 1.35308
# Velocity P-wave (km/s) = 2.43473 6.16582 4.68750
#
# Compressibility (1/GPa) = 0.02597430
#
# Stress axis : x y z
#
# Youngs Moduli (GPa) = 123.38683 69.50524 75.98515
#
# Poissons Ratio (x) = 0.20201 0.06466
# Poissons Ratio (y) = 0.35860 0.08220
# Poissons Ratio (z) = 0.10500 0.07519
#
# Static dielectric constant tensor:
#      x y z
#    x -2.496850 0.000020 -0.855200 
#    y 0.000020 3.535650 0.000010 
#    z -0.855200 0.000010 4.475040 
# 
# 
# High freq. dielectric constant tensor:
#      x y z
#    x 1.827660 0.000000 -0.001990 
#    y 0.000000 1.790260 0.000000 
#    z -0.001990 0.000000 1.834390 
# 
# From -- ./inp_files/157775.got.cif
#   From: 2010.06.25/outbox.cif.g09.slc.cpg/sg15_79_cif.got.tgz:157775.got - 2010.06.28 07:06:18.
