data_PCOD8142001
_publ_section_title
;
Structure prediction by ZEFSAII (Michael W. Deem and Ramdas Pophale) SiO2 
 PCOD8142001
Probable space group: C 2/C
;
_chemical_formula_sum "Si O2"
_cell_formula_units_Z 64
_cell_length_a 23.367559
_cell_length_b 17.104437
_cell_length_c 20.377840
_cell_angle_alpha 90.000000
_cell_angle_beta 157.892106
_cell_angle_gamma 90.000000
_cell_volume 3065.310041
_symmetry_space_group_name_H-M "C 2/C"
_symmetry_group_IT_number 15
_symmetry_cell_setting 'monoclinic'
loop_
_space_group_symop_operation_xyz
x,y,z
-x,y,1/2-z
-x,-y,-z
x,-y,1/2+z
1/2+x,1/2+y,z
1/2-x,1/2+y,1/2-z
1/2-x,1/2-y,-z
1/2+x,1/2-y,1/2+z
loop_
_atom_site_type_symbol
_atom_site_label
_atom_site_fract_x
_atom_site_fract_y
_atom_site_fract_z
Si Si1 0.817330 0.882597 0.128728
Si Si2 0.187117 0.550661 0.870941
Si Si3 0.806856 0.679825 0.393506
Si Si4 0.324687 0.394339 0.987248
Si Si5 0.029879 0.266160 0.030935
Si Si6 0.847632 0.204930 0.050904
Si Si7 0.249564 0.763331 0.340981
Si Si8 0.828908 0.534512 0.496129
O O1 0.766044 0.800571 0.104349
O O2 0.994775 0.898520 0.324198
O O3 0.726243 0.946559 0.075821
O O4 0.766609 0.876113 0.999332
O O5 0.258936 0.481114 0.903050
O O6 0.007133 0.545730 0.674930
O O7 0.257283 0.632723 0.921263
O O8 0.232313 0.549348 0.995562
O O9 0.652328 0.714144 0.199350
O O10 0.881813 0.735234 0.528369
O O11 0.754270 0.596699 0.367142
O O12 0.944535 0.670161 0.486604
O O13 0.265556 0.330442 0.871793
O O14 0.108870 0.300417 0.049086
O O15 0.893337 0.213917 0.856525
O O16 0.000000 0.176896 0.250000
O O17 0.750000 0.250000 0.000000
#
# Coordination Sequence:
#
# PCOD8142001 Si02
#       8
#     8   8   8   8   8   8   8   8
#     4  10  22  38  65  97 124 163 201 265 333 391
#     4  10  22  36  58  99 130 165 192 251 331 393
#     4  11  22  41  61  92 124 166 214 261 305 374
#     4  10  22  38  64  96 129 157 202 262 333 388
#     4  10  24  39  66  81 122 173 222 261 296 371
#     4  12  23  36  66  97 128 166 207 256 328 384
#     4  11  21  44  63  89 122 165 221 265 313 371
#     4  10  21  38  60  90 136 157 200 258 322 382
#
# _framework density 20.878802
#
# number of rings (size 3 to 8) (size 9 to 14) (size 15 to 20)
#    0.000    1.500    2.500    2.625    5.250    0.000 
#    0.000    1.250   11.000    0.000    0.000    0.000 
#    0.000    0.000    0.000    0.000    0.000    0.000 
#
# Total GULP energy -396544.598431 kJ/mol
# GULP energy per Si atom -12392.018701 kJ/mol
# Density = 2.083128 g / cm^3
# Si number density = 20.878802 Si / 1000 Ang^3
#
#
#
# Elastic Constant Matrix: (Units=GPa)
#
#
# Indices 1 2 3 4 5 6 
#
# 1 99.4527 36.9455 22.5743 -0.0152 12.5478 -0.0048
# 2 36.9455 103.7141 23.2235 -0.0368 3.7558 -0.0216
# 3 22.5743 23.2235 90.5521 -0.0407 6.9059 -0.0293
# 4 -0.0152 -0.0368 -0.0407 20.9144 -0.0249 4.5199
# 5 12.5478 3.7558 6.9059 -0.0249 31.9851 -0.0144
# 6 -0.0048 -0.0216 -0.0293 4.5199 -0.0144 29.7668
#
#
#
# Elastic Compliance Matrix: (Units=1/GPa)
#
#
# Indices 1 2 3 4 5 6 
#
# 1 0.012409 -0.003873 -0.001793 -0.000005 -0.004026 -0.000004
# 2 -0.003873 0.011451 -0.002018 0.000013 0.000610 0.000004
# 3 -0.001793 -0.002018 0.012136 0.000015 -0.001680 0.000007
# 4 -0.000005 0.000013 0.000015 0.049436 0.000032 -0.007507
# 5 -0.004026 0.000610 -0.001680 0.000032 0.033135 0.000009
# 6 -0.000004 0.000004 0.000007 -0.007507 0.000009 0.034734
#
#
# Mechanical properties :
#
#
# Convention : Reuss Voigt Hill
#
# Bulk Modulus (GPa) = 48.47765 51.02283 49.75024
# Shear Modulus (GPa) = 28.48261 30.59831 29.54046
#
# Velocity S-wave (km/s) = 3.69750 3.83236 3.76554
# Velocity P-wave (km/s) = 6.44187 6.63878 6.54106
#
# Compressibility (1/GPa) = 0.02062806
#
# Stress axis : x y z
#
# Youngs Moduli (GPa) = 80.58812 87.32641 82.39926
#
# Poissons Ratio (x) = 0.33821 0.14775
# Poissons Ratio (y) = 0.31212 0.16627
# Poissons Ratio (z) = 0.14451 0.17621
#
# Static dielectric constant tensor:
#      x y z
#    x 4.167510 0.000090 -0.164920 
#    y 0.000090 3.757220 0.000070 
#    z -0.164920 0.000070 4.388530 
# 
# 
# High freq. dielectric constant tensor:
#      x y z
#    x 1.817120 0.000000 0.014380 
#    y 0.000000 1.797850 0.000000 
#    z 0.014380 0.000000 1.821560 
# 
# From -- ./inp_files/256041.got.cif
#   From: 2010.06.25/outbox.cif.g09.slc.cpg/sg15_129_cif.got.tgz:256041.got - 2010.06.28 07:06:18.
