data_PCOD8142232
_publ_section_title
;
Structure prediction by ZEFSAII (Michael W. Deem and Ramdas Pophale) SiO2 
 PCOD8142232
Probable space group: C 2/C
;
_chemical_formula_sum "Si O2"
_cell_formula_units_Z 64
_cell_length_a 10.492089
_cell_length_b 27.860024
_cell_length_c 10.444610
_cell_angle_alpha 90.000000
_cell_angle_beta 84.467631
_cell_angle_gamma 90.000000
_cell_volume 3038.840902
_symmetry_space_group_name_H-M "C 2/C"
_symmetry_group_IT_number 15
_symmetry_cell_setting 'monoclinic'
loop_
_space_group_symop_operation_xyz
x,y,z
-x,y,1/2-z
-x,-y,-z
x,-y,1/2+z
1/2+x,1/2+y,z
1/2-x,1/2+y,1/2-z
1/2-x,1/2-y,-z
1/2+x,1/2-y,1/2+z
loop_
_atom_site_type_symbol
_atom_site_label
_atom_site_fract_x
_atom_site_fract_y
_atom_site_fract_z
Si Si1 0.677499 0.182484 0.507022
Si Si2 0.216911 0.017214 0.802887
Si Si3 0.358590 0.987175 0.546619
Si Si4 0.125829 0.607701 0.318289
Si Si5 0.450624 0.278073 0.899357
Si Si6 0.575538 0.648059 0.553637
Si Si7 0.886254 0.082949 0.174640
Si Si8 0.315615 0.628157 0.703897
O O1 0.603796 0.156146 0.398875
O O2 0.578381 0.224363 0.550333
O O3 0.814844 0.195528 0.432622
O O4 0.697452 0.149321 0.632611
O O5 0.163999 0.070864 0.812476
O O6 0.315950 0.017098 0.675359
O O7 0.112448 0.974598 0.797763
O O8 0.276968 0.000504 0.930621
O O9 0.346614 0.931229 0.575413
O O10 0.500000 0.000000 0.500000
O O11 0.250709 0.608476 0.216676
O O12 0.000000 0.594920 0.250000
O O13 0.500000 0.277267 0.750000
O O14 0.567882 0.303926 0.965949
O O15 0.582277 0.598435 0.472811
O O16 0.443625 0.651248 0.640526
O O17 0.692739 0.645670 0.645842
O O18 0.000000 0.105351 0.250000
#
# Coordination Sequence:
#
# PCOD8142232 Si02
#       8
#     8   8   8   8   8   8   8   8
#     4  10  21  43  65  91 129 166 215 283 332 401
#     4  11  23  37  61  93 132 169 228 267 324 395
#     4  11  22  41  60  87 127 184 218 265 322 389
#     4  11  23  43  65  93 129 172 225 268 330 398
#     4  10  21  42  68  93 123 168 219 273 347 401
#     4  10  21  38  64  88 131 166 212 268 337 394
#     4  11  23  38  66  98 130 180 222 269 328 398
#     4  10  21  39  59  95 131 169 204 277 338 387
#
# _framework density 21.060661
#
# number of rings (size 3 to 8) (size 9 to 14) (size 15 to 20)
#    0.000    1.500    1.250    5.250    3.500    0.500 
#   11.250    0.625    0.000    0.000    0.000    0.000 
#    0.000    0.000    0.000    0.000    0.000    0.000 
#
# Total GULP energy -396496.778418 kJ/mol
# GULP energy per Si atom -12390.524326 kJ/mol
# Density = 2.101273 g / cm^3
# Si number density = 21.060661 Si / 1000 Ang^3
#
#
#
# Elastic Constant Matrix: (Units=GPa)
#
#
# Indices 1 2 3 4 5 6 
#
# 1 66.9369 8.4711 28.4513 0.0000 7.8654 0.0000
# 2 8.4711 90.8676 25.3132 0.0000 1.7231 0.0000
# 3 28.4513 25.3132 122.6728 0.0000 3.2282 0.0000
# 4 0.0000 0.0000 0.0000 33.6953 0.0000 2.0786
# 5 7.8654 1.7231 3.2282 0.0000 28.3461 0.0000
# 6 0.0000 0.0000 0.0000 2.0786 0.0000 16.8595
#
#
#
# Elastic Compliance Matrix: (Units=1/GPa)
#
#
# Indices 1 2 3 4 5 6 
#
# 1 0.017099 -0.000466 -0.003757 0.000000 -0.004288 0.000000
# 2 -0.000466 0.011694 -0.002297 0.000000 -0.000320 0.000000
# 3 -0.003757 -0.002297 0.009494 0.000000 0.000101 0.000000
# 4 0.000000 0.000000 0.000000 0.029905 0.000000 -0.003687
# 5 -0.004288 -0.000320 0.000101 0.000000 0.036476 0.000000
# 6 0.000000 0.000000 0.000000 -0.003687 0.000000 0.059768
#
#
# Mechanical properties :
#
#
# Convention : Reuss Voigt Hill
#
# Bulk Modulus (GPa) = 39.60588 44.99428 42.30008
# Shear Modulus (GPa) = 26.89723 30.32961 28.61342
#
# Velocity S-wave (km/s) = 3.57757 3.79899 3.68994
# Velocity P-wave (km/s) = 5.99265 6.37602 6.18730
#
# Compressibility (1/GPa) = 0.02524878
#
# Stress axis : x y z
#
# Youngs Moduli (GPa) = 58.48243 85.51166 105.32642
#
# Poissons Ratio (x) = 0.03987 0.39568
# Poissons Ratio (y) = 0.02727 0.24189
# Poissons Ratio (z) = 0.21970 0.19638
#
# Static dielectric constant tensor:
#      x y z
#    x 3.364520 0.000000 -0.004430 
#    y 0.000000 3.499800 0.000000 
#    z -0.004430 0.000000 4.080100 
# 
# 
# High freq. dielectric constant tensor:
#      x y z
#    x 1.800640 0.000000 0.003850 
#    y 0.000000 1.821970 0.000000 
#    z 0.003850 0.000000 1.845140 
# 
# From -- ./inp_files/35673.got.cif
#   From: 2010.06.25/outbox.cif.g09.slc.cpg/sg15_18_cif.got.tgz:35673.got - 2010.06.28 07:06:18.
