data_PCOD8142547
_publ_section_title
;
Structure prediction by ZEFSAII (Michael W. Deem and Ramdas Pophale) SiO2 
 PCOD8142547
Probable space group: C 2/C
;
_chemical_formula_sum "Si O2"
_cell_formula_units_Z 36
_cell_length_a 21.960455
_cell_length_b 6.716807
_cell_length_c 20.951228
_cell_angle_alpha 90.000000
_cell_angle_beta 32.980344
_cell_angle_gamma 90.000000
_cell_volume 1682.259311
_symmetry_space_group_name_H-M "C 2/C"
_symmetry_group_IT_number 15
_symmetry_cell_setting 'monoclinic'
loop_
_space_group_symop_operation_xyz
x,y,z
-x,y,1/2-z
-x,-y,-z
x,-y,1/2+z
1/2+x,1/2+y,z
1/2-x,1/2+y,1/2-z
1/2-x,1/2-y,-z
1/2+x,1/2-y,1/2+z
loop_
_atom_site_type_symbol
_atom_site_label
_atom_site_fract_x
_atom_site_fract_y
_atom_site_fract_z
Si Si1 0.222653 0.432213 0.360944
Si Si2 0.103121 0.224900 0.035124
Si Si3 0.616558 0.252987 0.837885
Si Si4 0.000000 0.617854 0.750000
Si Si5 0.189403 0.459006 0.665220
O O1 0.162446 0.566118 0.466801
O O2 0.301124 0.562615 0.246103
O O3 0.130882 0.319645 0.398018
O O4 0.298699 0.274146 0.331401
O O5 0.043860 0.237819 0.155702
O O6 0.011241 0.177717 0.061055
O O7 0.191135 0.046680 0.960859
O O8 0.643653 0.070158 0.767558
O O9 0.899053 0.479576 0.814346
#
# Coordination Sequence:
#
# PCOD8142547 Si02
#       5
#     8   8   8   4   8
#     4  11  21  39  62  93 123 158 203 245 309 361
#     4  10  23  39  63  91 120 163 204 248 299 357
#     4  10  21  39  61  91 129 157 193 254 306 362
#     4  10  22  44  62  84 128 164 202 252 296 352
#     4  10  22  40  63  91 121 162 203 246 302 361
#
# _framework density 21.399791
#
# number of rings (size 3 to 8) (size 9 to 14) (size 15 to 20)
#    0.000    1.778    2.222    1.333    0.000    5.333 
#    0.000   11.111    0.000    0.000    0.000    0.000 
#    0.000    0.000    0.000    0.000    0.000    0.000 
#
# Total GULP energy -223304.223584 kJ/mol
# GULP energy per Si atom -12405.790199 kJ/mol
# Density = 2.135108 g / cm^3
# Si number density = 21.399791 Si / 1000 Ang^3
#
#
#
# Elastic Constant Matrix: (Units=GPa)
#
#
# Indices 1 2 3 4 5 6 
#
# 1 88.6434 22.5388 10.1181 -0.0026 -24.8858 0.0004
# 2 22.5388 87.3672 19.5677 0.0050 -4.7292 -0.0026
# 3 10.1181 19.5677 73.0187 0.0043 -12.9365 -0.0024
# 4 -0.0026 0.0050 0.0043 8.9632 -0.0008 -3.4866
# 5 -24.8858 -4.7292 -12.9365 -0.0008 41.1124 0.0008
# 6 0.0004 -0.0026 -0.0024 -3.4866 0.0008 25.4033
#
#
#
# Elastic Compliance Matrix: (Units=1/GPa)
#
#
# Indices 1 2 3 4 5 6 
#
# 1 0.014478 -0.003365 0.000402 0.000007 0.008503 0.000000
# 2 -0.003365 0.012965 -0.003288 -0.000007 -0.001580 0.000000
# 3 0.000402 -0.003288 0.015353 -0.000005 0.004696 0.000000
# 4 0.000007 -0.000007 -0.000005 0.117859 0.000004 0.016176
# 5 0.008503 -0.001580 0.004696 0.000004 0.030767 0.000000
# 6 0.000000 0.000000 0.000000 0.016176 0.000000 0.041585
#
#
# Mechanical properties :
#
#
# Convention : Reuss Voigt Hill
#
# Bulk Modulus (GPa) = 33.01009 39.27539 36.14274
# Shear Modulus (GPa) = 19.56137 28.21610 23.88874
#
# Velocity S-wave (km/s) = 3.02668 3.63509 3.34474
# Velocity P-wave (km/s) = 5.26054 6.00096 5.64290
#
# Compressibility (1/GPa) = 0.03029377
#
# Stress axis : x y z
#
# Youngs Moduli (GPa) = 69.07035 77.13153 65.13590
#
# Poissons Ratio (x) = 0.25953 -0.02618
# Poissons Ratio (y) = 0.23240 0.21417
# Poissons Ratio (z) = -0.02776 0.25361
#
# Static dielectric constant tensor:
#      x y z
#    x 4.015100 -0.000010 -0.258220 
#    y -0.000010 3.627240 0.000010 
#    z -0.258220 0.000010 3.871360 
# 
# 
# High freq. dielectric constant tensor:
#      x y z
#    x 1.849130 0.000000 -0.012390 
#    y 0.000000 1.826710 0.000000 
#    z -0.012390 0.000000 1.838150 
# 
# From -- ./inp_files/115572.got.cif
#   From: 2010.06.25/outbox.cif.g09.slc.cpg/sg15_58_cif.got.tgz:115572.got - 2010.06.28 07:06:18.
