data_PCOD8142797
_publ_section_title
;
Structure prediction by ZEFSAII (Michael W. Deem and Ramdas Pophale) SiO2 
 PCOD8142797
Probable space group: C 2/C
;
_chemical_formula_sum "Si O2"
_cell_formula_units_Z 40
_cell_length_a 11.201758
_cell_length_b 17.345635
_cell_length_c 10.400130
_cell_angle_alpha 90.000000
_cell_angle_beta 105.718828
_cell_angle_gamma 90.000000
_cell_volume 1945.191063
_symmetry_space_group_name_H-M "C 2/C"
_symmetry_group_IT_number 15
_symmetry_cell_setting 'monoclinic'
loop_
_space_group_symop_operation_xyz
x,y,z
-x,y,1/2-z
-x,-y,-z
x,-y,1/2+z
1/2+x,1/2+y,z
1/2-x,1/2+y,1/2-z
1/2-x,1/2-y,-z
1/2+x,1/2-y,1/2+z
loop_
_atom_site_type_symbol
_atom_site_label
_atom_site_fract_x
_atom_site_fract_y
_atom_site_fract_z
Si Si1 0.325737 0.147245 0.054530
Si Si2 0.450181 0.556628 0.875306
Si Si3 0.817370 0.590025 0.774443
Si Si4 0.569468 0.703320 0.020513
Si Si5 0.000000 0.715659 0.750000
Si Si6 0.500000 0.031353 0.250000
O O1 0.202317 0.166058 0.100827
O O2 0.407902 0.081943 0.140274
O O3 0.275810 0.118435 0.902214
O O4 0.409218 0.223401 0.065417
O O5 0.500000 0.529914 0.750000
O O6 0.300870 0.555978 0.834836
O O7 0.500000 0.500000 0.000000
O O8 0.488968 0.643734 0.916309
O O9 0.918629 0.522295 0.820156
O O10 0.877098 0.662093 0.714597
O O11 0.494844 0.729117 0.124914
#
# Coordination Sequence:
#
# PCOD8142797 Si02
#       6
#     8   8   8   8   4   4
#     4  10  21  39  65  94 127 172 213 269 320 390
#     4  12  26  44  67  95 133 176 217 270 325 388
#     4  10  22  42  62  94 136 164 217 270 319 381
#     4  10  22  41  65  93 131 167 218 267 326 385
#     4   9  22  42  66  97 130 168 212 275 322 384
#     4  11  22  38  66  93 126 172 218 259 326 388
#
# _framework density 20.563531999999999
#
# number of rings (size 3 to 8) (size 9 to 14) (size 15 to 20)
#    0.000    1.600    2.000    1.800    2.800    0.800 
#    0.000    0.000    0.000    0.000    0.000    0.000 
#    0.000    0.000    0.000    0.000    0.000    0.000 
#
# Total GULP energy -248036.385459 kJ/mol
# GULP energy per Si atom -12401.819273 kJ/mol
# Density = 2.051673 g / cm^3
# Si number density = 20.563532 Si / 1000 Ang^3
#
#
#
# Elastic Constant Matrix: (Units=GPa)
#
#
# Indices 1 2 3 4 5 6 
#
# 1 96.0305 34.4491 43.5585 0.0000 -10.8816 0.0000
# 2 34.4491 111.2216 46.5884 0.0000 0.0775 0.0000
# 3 43.5585 46.5884 95.0660 0.0000 -7.5819 0.0000
# 4 0.0000 0.0000 0.0000 43.1922 0.0000 10.8114
# 5 -10.8816 0.0775 -7.5819 0.0000 28.1211 0.0000
# 6 0.0000 0.0000 0.0000 10.8114 0.0000 21.0866
#
#
#
# Elastic Compliance Matrix: (Units=1/GPa)
#
#
# Indices 1 2 3 4 5 6 
#
# 1 0.013926 -0.002238 -0.004960 0.000000 0.004058 0.000000
# 2 -0.002238 0.011741 -0.004905 0.000000 -0.002221 0.000000
# 3 -0.004960 -0.004905 0.015374 0.000000 0.002239 0.000000
# 4 0.000000 0.000000 0.000000 0.026561 0.000000 -0.013618
# 5 0.004058 -0.002221 0.002239 0.000000 0.037740 0.000000
# 6 0.000000 0.000000 0.000000 -0.013618 0.000000 0.054406
#
#
# Mechanical properties :
#
#
# Convention : Reuss Voigt Hill
#
# Bulk Modulus (GPa) = 59.40645 61.27890 60.34268
# Shear Modulus (GPa) = 26.37593 30.32812 28.35203
#
# Velocity S-wave (km/s) = 3.58530 3.84454 3.71718
# Velocity P-wave (km/s) = 6.78905 7.04073 6.91603
#
# Compressibility (1/GPa) = 0.01683319
#
# Stress axis : x y z
#
# Youngs Moduli (GPa) = 71.80791 85.17454 65.04428
#
# Poissons Ratio (x) = 0.19066 0.32263
# Poissons Ratio (y) = 0.16074 0.31905
# Poissons Ratio (z) = 0.35618 0.41779
#
# Static dielectric constant tensor:
#      x y z
#    x 3.883420 0.000000 -0.092300 
#    y 0.000000 3.922220 0.000000 
#    z -0.092300 0.000000 3.436020 
# 
# 
# High freq. dielectric constant tensor:
#      x y z
#    x 1.816040 0.000000 -0.001830 
#    y 0.000000 1.821310 0.000000 
#    z -0.001830 0.000000 1.779380 
# 
# From -- ./inp_files/62891.got.cif
#   From: 2010.06.25/outbox.cif.g09.slc.cpg/sg15_32_cif.got.tgz:62891.got - 2010.06.28 07:06:18.
