data_PCOD8142170
_publ_section_title
;
Structure prediction by ZEFSAII (Michael W. Deem and Ramdas Pophale) SiO2 
 PCOD8142170
Probable space group: C 2/C
;
_chemical_formula_sum "Si O2"
_cell_formula_units_Z 56
_cell_length_a 26.196705
_cell_length_b 6.608621
_cell_length_c 17.291511
_cell_angle_alpha 90.000000
_cell_angle_beta 71.344251
_cell_angle_gamma 90.000000
_cell_volume 2836.287498
_symmetry_space_group_name_H-M "C 2/C"
_symmetry_group_IT_number 15
_symmetry_cell_setting 'monoclinic'
loop_
_space_group_symop_operation_xyz
x,y,z
-x,y,1/2-z
-x,-y,-z
x,-y,1/2+z
1/2+x,1/2+y,z
1/2-x,1/2+y,1/2-z
1/2-x,1/2-y,-z
1/2+x,1/2-y,1/2+z
loop_
_atom_site_type_symbol
_atom_site_label
_atom_site_fract_x
_atom_site_fract_y
_atom_site_fract_z
Si Si1 0.320410 0.433709 0.660430
Si Si2 0.632157 0.134739 0.743629
Si Si3 0.874543 0.017084 0.844237
Si Si4 0.491881 0.773848 0.524799
Si Si5 0.952428 0.299197 0.713738
Si Si6 0.910802 0.005572 0.998977
Si Si7 0.292424 0.756222 0.801338
O O1 0.358975 0.287457 0.690303
O O2 0.354301 0.511275 0.571009
O O3 0.301229 0.630319 0.717749
O O4 0.270412 0.298891 0.654995
O O5 0.629110 0.275530 0.668157
O O6 0.576588 0.015388 0.781464
O O7 0.680391 0.975865 0.714512
O O8 0.912625 0.123606 0.762014
O O9 0.897558 0.059378 0.917323
O O10 0.815778 0.122506 0.861387
O O11 0.474501 0.728183 0.620869
O O12 0.549625 0.671019 0.482189
O O13 0.444541 0.701747 0.489754
O O14 0.500000 0.000000 0.500000
O O15 0.000000 0.333100 0.750000
#
# Coordination Sequence:
#
# PCOD8142170 Si02
#       7
#     8   8   8   8   8   8   8
#     4  11  21  41  66  90 120 160 207 262 306 372
#     4  10  21  38  63  89 118 164 206 251 308 368
#     4  10  23  40  60  93 129 160 203 259 308 375
#     4  11  24  41  61  91 126 169 208 256 305 365
#     4  11  22  40  63  92 125 166 214 250 302 381
#     4  11  24  40  60  91 130 159 203 260 311 362
#     4  10  21  39  65  91 115 155 214 249 305 375
#
# _framework density 19.744121
#
# number of rings (size 3 to 8) (size 9 to 14) (size 15 to 20)
#    0.000    1.429    2.857    3.429    2.000    2.286 
#    0.000    0.714    0.000    0.000    0.000    0.000 
#    0.000    0.000    0.000    0.000    0.000    0.000 
#
# Total GULP energy -347188.788413 kJ/mol
# GULP energy per Si atom -12399.599586 kJ/mol
# Density = 1.969918 g / cm^3
# Si number density = 19.744121 Si / 1000 Ang^3
#
#
#
# Elastic Constant Matrix: (Units=GPa)
#
#
# Indices 1 2 3 4 5 6 
#
# 1 129.2946 43.0130 39.4222 0.0000 -4.1019 0.0000
# 2 43.0130 125.0242 27.1109 0.0000 -8.5722 0.0000
# 3 39.4222 27.1109 80.8581 0.0000 0.0575 0.0000
# 4 0.0000 0.0000 0.0000 17.1023 0.0000 -1.8124
# 5 -4.1019 -8.5722 0.0575 0.0000 29.5214 0.0000
# 6 0.0000 0.0000 0.0000 -1.8124 0.0000 26.2154
#
#
#
# Elastic Compliance Matrix: (Units=1/GPa)
#
#
# Indices 1 2 3 4 5 6 
#
# 1 0.009776 -0.002464 -0.003941 0.000000 0.000650 0.000000
# 2 -0.002464 0.009437 -0.001964 0.000000 0.002402 0.000000
# 3 -0.003941 -0.001964 0.014948 0.000000 -0.001147 0.000000
# 4 0.000000 0.000000 0.000000 0.058903 0.000000 0.004072
# 5 0.000650 0.002402 -0.001147 0.000000 0.034664 0.000000
# 6 0.000000 0.000000 0.000000 0.004072 0.000000 0.038427
#
#
# Mechanical properties :
#
#
# Convention : Reuss Voigt Hill
#
# Bulk Modulus (GPa) = 57.39646 61.58546 59.49096
# Shear Modulus (GPa) = 26.49692 29.60986 28.05339
#
# Velocity S-wave (km/s) = 3.66733 3.87677 3.77350
# Velocity P-wave (km/s) = 6.86044 7.16231 7.01300
#
# Compressibility (1/GPa) = 0.01742268
#
# Stress axis : x y z
#
# Youngs Moduli (GPa) = 102.28912 105.96715 66.89848
#
# Poissons Ratio (x) = 0.26113 0.26362
# Poissons Ratio (y) = 0.25207 0.13141
# Poissons Ratio (z) = 0.40308 0.20816
#
# Static dielectric constant tensor:
#      x y z
#    x 3.870360 0.000000 -0.077440 
#    y 0.000000 3.695790 0.000000 
#    z -0.077440 0.000000 3.815490 
# 
# 
# High freq. dielectric constant tensor:
#      x y z
#    x 1.787840 0.000000 0.003550 
#    y 0.000000 1.780190 0.000000 
#    z 0.003550 0.000000 1.744270 
# 
# From -- ./inp_files/221209.got.cif
#   From: 2010.06.25/outbox.cif.g09.slc.cpg/sg15_111_cif.got.tgz:221209.got - 2010.06.28 07:06:18.
