data_PCOD8142489
_publ_section_title
;
Structure prediction by ZEFSAII (Michael W. Deem and Ramdas Pophale) SiO2 
 PCOD8142489
Probable space group: C 2/C
;
_chemical_formula_sum "Si O2"
_cell_formula_units_Z 48
_cell_length_a 29.325768
_cell_length_b 9.298559
_cell_length_c 9.444113
_cell_angle_alpha 90.000000
_cell_angle_beta 99.031919
_cell_angle_gamma 90.000000
_cell_volume 2543.359542
_symmetry_space_group_name_H-M "C 2/C"
_symmetry_group_IT_number 15
_symmetry_cell_setting 'monoclinic'
loop_
_space_group_symop_operation_xyz
x,y,z
-x,y,1/2-z
-x,-y,-z
x,-y,1/2+z
1/2+x,1/2+y,z
1/2-x,1/2+y,1/2-z
1/2-x,1/2-y,-z
1/2+x,1/2-y,1/2+z
loop_
_atom_site_type_symbol
_atom_site_label
_atom_site_fract_x
_atom_site_fract_y
_atom_site_fract_z
Si Si1 0.376928 0.383259 0.085319
Si Si2 0.957170 0.659563 0.146956
Si Si3 0.456287 0.133533 0.813098
Si Si4 0.268017 0.328794 0.643937
Si Si5 0.776231 0.165452 0.631146
Si Si6 0.627166 0.346394 0.739628
O O1 0.414762 0.265526 0.137349
O O2 0.330313 0.325616 0.130949
O O3 0.391094 0.533473 0.161781
O O4 0.370668 0.412465 0.916182
O O5 0.946557 0.518994 0.235219
O O6 0.000000 0.735346 0.250000
O O7 0.967822 0.621480 0.987063
O O8 0.500000 0.204491 0.750000
O O9 0.409190 0.218848 0.767516
O O10 0.250000 0.250000 0.500000
O O11 0.233975 0.257293 0.737444
O O12 0.259866 0.500075 0.634529
O O13 0.321759 0.290920 0.695873
O O14 0.750000 0.250000 0.500000
#
# Coordination Sequence:
#
# PCOD8142489 Si02
#       6
#     8   8   8   8   8   8
#     4  10  23  40  61  86 119 158 194 246 294 353
#     4  10  21  39  60  89 120 152 196 245 297 350
#     4  10  21  39  61  88 119 154 195 245 295 355
#     4  11  24  40  62  91 120 165 202 252 306 352
#     4  11  22  42  62  87 126 157 207 250 298 365
#     4  10  23  41  60  86 120 154 200 241 297 355
#
# _framework density 18.872675999999998
#
# number of rings (size 3 to 8) (size 9 to 14) (size 15 to 20)
#    0.000    1.667    1.667    3.000    7.000    6.000 
#    0.000    3.333    0.000    0.000    0.000    0.000 
#    0.000    0.000    0.000    0.000    0.000    0.000 
#
# Total GULP energy -297458.574865 kJ/mol
# GULP energy per Si atom -12394.107286 kJ/mol
# Density = 1.882972 g / cm^3
# Si number density = 18.872676 Si / 1000 Ang^3
#
#
#
# Elastic Constant Matrix: (Units=GPa)
#
#
# Indices 1 2 3 4 5 6 
#
# 1 98.0861 58.5168 59.6482 0.0000 7.6297 0.0000
# 2 58.5168 88.6146 56.3842 0.0000 6.8943 0.0000
# 3 59.6482 56.3842 165.2878 0.0000 8.0126 0.0000
# 4 0.0000 0.0000 0.0000 40.1188 0.0000 0.2266
# 5 7.6297 6.8943 8.0126 0.0000 32.8921 0.0000
# 6 0.0000 0.0000 0.0000 0.2266 0.0000 33.6853
#
#
#
# Elastic Compliance Matrix: (Units=1/GPa)
#
#
# Indices 1 2 3 4 5 6 
#
# 1 0.018058 -0.009852 -0.003089 0.000000 -0.001371 0.000000
# 2 -0.009852 0.019900 -0.003179 0.000000 -0.001111 0.000000
# 3 -0.003089 -0.003179 0.008280 0.000000 -0.000634 0.000000
# 4 0.000000 0.000000 0.000000 0.024927 0.000000 -0.000168
# 5 -0.001371 -0.001111 -0.000634 0.000000 0.031108 0.000000
# 6 0.000000 0.000000 0.000000 -0.000168 0.000000 0.029688
#
#
# Mechanical properties :
#
#
# Convention : Reuss Voigt Hill
#
# Bulk Modulus (GPa) = 71.44504 77.89853 74.67178
# Shear Modulus (GPa) = 29.60882 33.16854 31.38868
#
# Velocity S-wave (km/s) = 3.96520 4.19679 4.08264
# Velocity P-wave (km/s) = 7.67478 8.05292 7.86612
#
# Compressibility (1/GPa) = 0.01399677
#
# Stress axis : x y z
#
# Youngs Moduli (GPa) = 55.37615 50.25079 120.77060
#
# Poissons Ratio (x) = 0.49509 0.37311
# Poissons Ratio (y) = 0.54559 0.38395
# Poissons Ratio (z) = 0.17108 0.15975
#
# Static dielectric constant tensor:
#      x y z
#    x 3.313270 0.000000 0.183550 
#    y 0.000000 3.406110 0.000000 
#    z 0.183550 0.000000 3.686980 
# 
# 
# High freq. dielectric constant tensor:
#      x y z
#    x 1.744090 0.000000 0.000920 
#    y 0.000000 1.730120 0.000000 
#    z 0.000920 0.000000 1.758110 
# 
# From -- ./inp_files/68568.got.cif
#   From: 2010.06.25/outbox.cif.g09.slc.cpg/sg15_35_cif.got.tgz:68568.got - 2010.06.28 07:06:18.
