data_PCOD8142793
_publ_section_title
;
Structure prediction by ZEFSAII (Michael W. Deem and Ramdas Pophale) SiO2 
 PCOD8142793
Probable space group: C 2/C
;
_chemical_formula_sum "Si O2"
_cell_formula_units_Z 48
_cell_length_a 32.824274
_cell_length_b 7.883919
_cell_length_c 19.664667
_cell_angle_alpha 90.000000
_cell_angle_beta 152.586246
_cell_angle_gamma 90.000000
_cell_volume 2342.994974
_symmetry_space_group_name_H-M "C 2/C"
_symmetry_group_IT_number 15
_symmetry_cell_setting 'monoclinic'
loop_
_space_group_symop_operation_xyz
x,y,z
-x,y,1/2-z
-x,-y,-z
x,-y,1/2+z
1/2+x,1/2+y,z
1/2-x,1/2+y,1/2-z
1/2-x,1/2-y,-z
1/2+x,1/2-y,1/2+z
loop_
_atom_site_type_symbol
_atom_site_label
_atom_site_fract_x
_atom_site_fract_y
_atom_site_fract_z
Si Si1 0.657988 0.321911 0.388996
Si Si2 0.590586 0.555762 0.171183
Si Si3 0.015317 0.363119 0.464798
Si Si4 0.677784 0.381351 0.189450
Si Si5 0.341719 0.355839 0.954728
Si Si6 0.002644 0.606273 0.328754
O O1 0.750000 0.250000 0.500000
O O2 0.614854 0.461033 0.276401
O O3 0.666382 0.399464 0.477377
O O4 0.595218 0.158822 0.294342
O O5 0.574596 0.751140 0.168762
O O6 0.671651 0.531320 0.237498
O O7 0.500000 0.500000 0.000000
O O8 0.000000 0.500000 0.500000
O O9 0.102345 0.249003 0.602810
O O10 0.035179 0.455378 0.423846
O O11 0.665940 0.467770 0.098018
O O12 0.769940 0.284093 0.326450
O O13 0.436129 0.273570 0.077276
O O14 0.000000 0.527771 0.250000
#
# Coordination Sequence:
#
# PCOD8142793 Si02
#       6
#     8   8   8   8   8   8
#     4  11  22  43  68  95 136 176 223 283 343 403
#     4  10  21  39  65  93 125 171 223 266 330 403
#     4  11  22  38  65  93 131 170 223 273 326 401
#     4  11  22  40  63  95 130 172 221 273 340 404
#     4  11  23  40  68  96 137 175 221 278 345 411
#     4  10  22  39  61  89 128 172 210 266 339 392
#
# _framework density 20.486599999999999
#
# number of rings (size 3 to 8) (size 9 to 14) (size 15 to 20)
#    0.000    1.333    1.667    6.000    0.000    1.333 
#    0.000    0.833    0.000    0.000    0.000    0.000 
#    0.000    0.000    0.000    0.000    0.000    0.000 
#
# Total GULP energy -297505.461459 kJ/mol
# GULP energy per Si atom -12396.060894 kJ/mol
# Density = 2.043997 g / cm^3
# Si number density = 20.486600 Si / 1000 Ang^3
#
#
#
# Elastic Constant Matrix: (Units=GPa)
#
#
# Indices 1 2 3 4 5 6 
#
# 1 135.9369 62.2324 58.6681 0.0000 -11.6518 0.0000
# 2 62.2324 91.4135 43.0281 0.0000 -14.1568 0.0000
# 3 58.6681 43.0281 96.9311 0.0000 -8.4103 0.0000
# 4 0.0000 0.0000 0.0000 35.8968 0.0000 4.4344
# 5 -11.6518 -14.1568 -8.4103 0.0000 48.3098 0.0000
# 6 0.0000 0.0000 0.0000 4.4344 0.0000 29.4862
#
#
#
# Elastic Compliance Matrix: (Units=1/GPa)
#
#
# Indices 1 2 3 4 5 6 
#
# 1 0.012154 -0.006031 -0.004648 0.000000 0.000355 0.000000
# 2 -0.006031 0.017273 -0.003761 0.000000 0.002952 0.000000
# 3 -0.004648 -0.003761 0.014830 0.000000 0.000359 0.000000
# 4 0.000000 0.000000 0.000000 0.028385 0.000000 -0.004269
# 5 0.000355 0.002952 0.000359 0.000000 0.021713 0.000000
# 6 0.000000 0.000000 0.000000 -0.004269 0.000000 0.034556
#
#
# Mechanical properties :
#
#
# Convention : Reuss Voigt Hill
#
# Bulk Modulus (GPa) = 65.03376 72.45985 68.74680
# Shear Modulus (GPa) = 30.69042 33.42876 32.05959
#
# Velocity S-wave (km/s) = 3.87469 4.04386 3.96018
# Velocity P-wave (km/s) = 7.19938 7.56637 7.38515
#
# Compressibility (1/GPa) = 0.01537663
#
# Stress axis : x y z
#
# Youngs Moduli (GPa) = 82.27732 57.89474 67.42877
#
# Poissons Ratio (x) = 0.34919 0.31342
# Poissons Ratio (y) = 0.49625 0.25358
# Poissons Ratio (z) = 0.38244 0.21773
#
# Static dielectric constant tensor:
#      x y z
#    x 3.687580 0.000000 -0.094570 
#    y 0.000000 3.742260 0.000000 
#    z -0.094570 0.000000 3.961460 
# 
# 
# High freq. dielectric constant tensor:
#      x y z
#    x 1.824110 0.000000 -0.001800 
#    y 0.000000 1.787870 0.000000 
#    z -0.001800 0.000000 1.797620 
# 
# From -- ./inp_files/224707.got.cif
#   From: 2010.06.25/outbox.cif.g09.slc.cpg/sg15_113_cif.got.tgz:224707.got - 2010.06.28 07:06:18.
