data_PCOD8142768
_publ_section_title
;
Structure prediction by ZEFSAII (Michael W. Deem and Ramdas Pophale) SiO2 
 PCOD8142768
Probable space group: C 2/C
;
_chemical_formula_sum "Si O2"
_cell_formula_units_Z 52
_cell_length_a 31.184337
_cell_length_b 10.383966
_cell_length_c 9.519714
_cell_angle_alpha 90.000000
_cell_angle_beta 55.500714
_cell_angle_gamma 90.000000
_cell_volume 2540.511168
_symmetry_space_group_name_H-M "C 2/C"
_symmetry_group_IT_number 15
_symmetry_cell_setting 'monoclinic'
loop_
_space_group_symop_operation_xyz
x,y,z
-x,y,1/2-z
-x,-y,-z
x,-y,1/2+z
1/2+x,1/2+y,z
1/2-x,1/2+y,1/2-z
1/2-x,1/2-y,-z
1/2+x,1/2-y,1/2+z
loop_
_atom_site_type_symbol
_atom_site_label
_atom_site_fract_x
_atom_site_fract_y
_atom_site_fract_z
Si Si1 0.282203 0.882007 0.656097
Si Si2 0.950760 0.148116 0.583614
Si Si3 0.982992 0.380863 0.122386
Si Si4 0.500000 0.487580 0.250000
Si Si5 0.298771 0.828506 0.165812
Si Si6 0.130829 0.589456 0.734101
Si Si7 0.650464 0.196246 0.217994
O O1 0.233143 0.791298 0.707708
O O2 0.319373 0.888532 0.454270
O O3 0.310271 0.802125 0.725638
O O4 0.268664 0.031199 0.724608
O O5 0.890628 0.188897 0.690512
O O6 0.990798 0.263138 0.501876
O O7 0.961467 0.087659 0.716687
O O8 0.961084 0.064344 0.425068
O O9 0.921299 0.350187 0.233009
O O10 0.000000 0.401477 0.250000
O O11 0.000000 0.500000 0.000000
O O12 0.353575 0.846602 0.146512
O O13 0.313559 0.783742 0.983486
O O14 0.119071 0.438028 0.773782
#
# Coordination Sequence:
#
# PCOD8142768 Si02
#       7
#     8   8   8   4   8   8   8
#     4  10  21  41  62  91 131 167 215 274 327 386
#     4  11  23  45  64  90 133 170 221 264 329 396
#     4  12  25  38  68 103 131 165 218 269 339 391
#     4  10  26  44  62  86 134 180 208 268 314 396
#     4  10  22  40  64  92 128 169 219 269 331 385
#     4  10  22  37  64  99 127 162 210 275 329 388
#     4  10  21  39  65  89 128 163 210 271 325 382
#
# _framework density 20.468322000000001
#
# number of rings (size 3 to 8) (size 9 to 14) (size 15 to 20)
#    0.000    1.538    2.308    1.846    7.538    0.000 
#    2.769    0.000    0.000    0.000    0.000    0.000 
#    0.000    0.000    0.000    0.000    0.000    0.000 
#
# Total GULP energy -322297.378048 kJ/mol
# GULP energy per Si atom -12396.053002 kJ/mol
# Density = 2.042173 g / cm^3
# Si number density = 20.468322 Si / 1000 Ang^3
#
#
#
# Elastic Constant Matrix: (Units=GPa)
#
#
# Indices 1 2 3 4 5 6 
#
# 1 93.4974 45.9298 30.9529 0.0000 2.9761 0.0000
# 2 45.9298 107.2629 45.5455 0.0000 -3.8570 0.0000
# 3 30.9529 45.5455 72.5774 0.0000 13.1706 0.0000
# 4 0.0000 0.0000 0.0000 1.1283 0.0000 -34.0843
# 5 2.9761 -3.8570 13.1706 0.0000 37.9055 0.0000
# 6 0.0000 0.0000 0.0000 -34.0843 0.0000 7.2415
#
#
#
# Elastic Compliance Matrix: (Units=1/GPa)
#
#
# Indices 1 2 3 4 5 6 
#
# 1 0.014024 -0.004817 -0.002849 0.000000 -0.000601 0.000000
# 2 -0.004817 0.015069 -0.008271 0.000000 0.004785 0.000000
# 3 -0.002849 -0.008271 0.021662 0.000000 -0.008144 0.000000
# 4 0.000000 0.000000 0.000000 -0.006278 0.000000 -0.029547
# 5 -0.000601 0.004785 -0.008144 0.000000 0.029745 0.000000
# 6 0.000000 0.000000 0.000000 -0.029547 0.000000 -0.000978
#
#
# Mechanical properties :
#
#
# Convention : Reuss Voigt Hill
#
# Bulk Modulus (GPa) = 52.96143 57.57714 55.26928
# Shear Modulus (GPa) = 44.87827 19.31571 32.09699
#
# Velocity S-wave (km/s) = 4.68757 3.07528 3.96426
# Velocity P-wave (km/s) = 7.43161 6.38755 6.92927
#
# Compressibility (1/GPa) = 0.01888167
#
# Stress axis : x y z
#
# Youngs Moduli (GPa) = 71.30573 66.35928 46.16446
#
# Poissons Ratio (x) = 0.31965 0.13152
# Poissons Ratio (y) = 0.34348 0.38182
# Poissons Ratio (z) = 0.20315 0.54884
#
# Static dielectric constant tensor:
#      x y z
#    x 3.664310 0.000000 0.132280 
#    y 0.000000 3.778200 0.000000 
#    z 0.132280 0.000000 3.773990 
# 
# 
# High freq. dielectric constant tensor:
#      x y z
#    x 1.799110 0.000000 0.013600 
#    y 0.000000 1.793730 0.000000 
#    z 0.013600 0.000000 1.811590 
# 
# From -- ./inp_files/69003.got.cif
#   From: 2010.06.25/outbox.cif.g09.slc.cpg/sg15_35_cif.got.tgz:69003.got - 2010.06.28 07:06:18.
