data_PCOD8142458
_publ_section_title
;
Structure prediction by ZEFSAII (Michael W. Deem and Ramdas Pophale) SiO2 
 PCOD8142458
Probable space group: C 2/C
;
_chemical_formula_sum "Si O2"
_cell_formula_units_Z 56
_cell_length_a 14.414767
_cell_length_b 12.827574
_cell_length_c 27.427433
_cell_angle_alpha 90.000000
_cell_angle_beta 147.922844
_cell_angle_gamma 90.000000
_cell_volume 2693.280293
_symmetry_space_group_name_H-M "C 2/C"
_symmetry_group_IT_number 15
_symmetry_cell_setting 'monoclinic'
loop_
_space_group_symop_operation_xyz
x,y,z
-x,y,1/2-z
-x,-y,-z
x,-y,1/2+z
1/2+x,1/2+y,z
1/2-x,1/2+y,1/2-z
1/2-x,1/2-y,-z
1/2+x,1/2-y,1/2+z
loop_
_atom_site_type_symbol
_atom_site_label
_atom_site_fract_x
_atom_site_fract_y
_atom_site_fract_z
Si Si1 0.023866 0.478711 0.454045
Si Si2 0.369359 0.252784 0.489539
Si Si3 0.434768 0.234082 0.166861
Si Si4 0.131911 0.352894 0.671675
Si Si5 0.016906 0.834531 0.859810
Si Si6 0.898080 0.058436 0.592732
Si Si7 0.954181 0.813424 0.027068
O O1 0.025612 0.353659 0.451123
O O2 0.193542 0.533359 0.506506
O O3 0.000000 0.500000 0.500000
O O4 0.866643 0.530513 0.351870
O O5 0.161830 0.226901 0.392569
O O6 0.420810 0.327941 0.556462
O O7 0.414706 0.315165 0.460457
O O8 0.500000 0.242145 0.250000
O O9 0.550369 0.147851 0.189622
O O10 0.457627 0.346225 0.152455
O O11 0.235928 0.200003 0.079805
O O12 0.322433 0.296951 0.759362
O O13 0.002195 0.286477 0.580313
O O14 0.002218 0.957578 0.842792
O O15 0.953118 0.083949 0.560939
#
# Coordination Sequence:
#
# PCOD8142458 Si02
#       7
#     8   8   8   8   8   8   8
#     4  11  19  36  63  90 119 163 199 261 314 364
#     4  10  22  41  59  85 129 167 205 246 323 375
#     4  11  21  37  64  95 119 153 203 267 319 363
#     4  11  21  37  61  93 125 152 208 260 313 370
#     4  10  24  39  57  89 125 171 202 256 306 389
#     4  10  21  39  59  88 122 158 212 252 311 374
#     4  11  20  39  64  88 121 161 201 270 313 363
#
# _framework density 20.792490000000001
#
# number of rings (size 3 to 8) (size 9 to 14) (size 15 to 20)
#    0.000    1.429    4.286    1.714    0.000    5.714 
#    0.000    0.000    0.000    0.000    0.000    0.000 
#    0.000    0.000    0.000    0.000    0.000    0.000 
#
# Total GULP energy -347012.848134 kJ/mol
# GULP energy per Si atom -12393.316005 kJ/mol
# Density = 2.074517 g / cm^3
# Si number density = 20.792490 Si / 1000 Ang^3
#
#
#
# Elastic Constant Matrix: (Units=GPa)
#
#
# Indices 1 2 3 4 5 6 
#
# 1 158.1097 24.6271 39.7591 0.0000 -3.0322 0.0000
# 2 24.6271 37.4766 10.1158 0.0000 -0.6881 0.0000
# 3 39.7591 10.1158 107.1352 0.0000 9.0276 0.0000
# 4 0.0000 0.0000 0.0000 14.6954 0.0000 4.9473
# 5 -3.0322 -0.6881 9.0276 0.0000 32.6888 0.0000
# 6 0.0000 0.0000 0.0000 4.9473 0.0000 28.4218
#
#
#
# Elastic Compliance Matrix: (Units=1/GPa)
#
#
# Indices 1 2 3 4 5 6 
#
# 1 0.007664 -0.004325 -0.002547 0.000000 0.001323 0.000000
# 2 -0.004325 0.029877 -0.001265 0.000000 0.000577 0.000000
# 3 -0.002547 -0.001265 0.010669 0.000000 -0.003209 0.000000
# 4 0.000000 0.000000 0.000000 0.072285 0.000000 -0.012582
# 5 0.001323 0.000577 -0.003209 0.000000 0.031613 0.000000
# 6 0.000000 0.000000 0.000000 -0.012582 0.000000 0.037374
#
#
# Mechanical properties :
#
#
# Convention : Reuss Voigt Hill
#
# Bulk Modulus (GPa) = 31.31157 50.19172 40.75165
# Shear Modulus (GPa) = 23.10517 30.37584 26.74050
#
# Velocity S-wave (km/s) = 3.33712 3.82632 3.59007
# Velocity P-wave (km/s) = 5.47177 6.61156 6.06849
#
# Compressibility (1/GPa) = 0.03193707
#
# Stress axis : x y z
#
# Youngs Moduli (GPa) = 130.47509 33.47042 93.72715
#
# Poissons Ratio (x) = 0.14474 0.23877
# Poissons Ratio (y) = 0.56424 0.11854
# Poissons Ratio (z) = 0.33239 0.04233
#
# Static dielectric constant tensor:
#      x y z
#    x 4.052740 0.000000 0.066990 
#    y 0.000000 3.887460 0.000000 
#    z 0.066990 0.000000 3.649990 
# 
# 
# High freq. dielectric constant tensor:
#      x y z
#    x 1.823800 0.000000 0.003990 
#    y 0.000000 1.799810 0.000000 
#    z 0.003990 0.000000 1.805320 
# 
# From -- ./inp_files/178412.got.cif
#   From: 2010.06.25/outbox.cif.g09.slc.cpg/sg15_90_cif.got.tgz:178412.got - 2010.06.28 07:06:18.
