data_PCOD8142421
_publ_section_title
;
Structure prediction by ZEFSAII (Michael W. Deem and Ramdas Pophale) SiO2 
 PCOD8142421
Probable space group: C 2/C
;
_chemical_formula_sum "Si O2"
_cell_formula_units_Z 56
_cell_length_a 14.728045
_cell_length_b 9.420483
_cell_length_c 23.317659
_cell_angle_alpha 90.000000
_cell_angle_beta 56.779653
_cell_angle_gamma 90.000000
_cell_volume 2706.483643
_symmetry_space_group_name_H-M "C 2/C"
_symmetry_group_IT_number 15
_symmetry_cell_setting 'monoclinic'
loop_
_space_group_symop_operation_xyz
x,y,z
-x,y,1/2-z
-x,-y,-z
x,-y,1/2+z
1/2+x,1/2+y,z
1/2-x,1/2+y,1/2-z
1/2-x,1/2-y,-z
1/2+x,1/2-y,1/2+z
loop_
_atom_site_type_symbol
_atom_site_label
_atom_site_fract_x
_atom_site_fract_y
_atom_site_fract_z
Si Si1 0.609613 0.941369 0.936469
Si Si2 0.088202 0.636116 0.266126
Si Si3 0.826034 0.851668 0.510995
Si Si4 0.170075 0.868274 0.859806
Si Si5 0.563120 0.328526 0.386411
Si Si6 0.553998 0.885205 0.354807
Si Si7 0.694695 0.898834 0.021350
O O1 0.600072 0.774387 0.925135
O O2 0.633981 0.031434 0.871311
O O3 0.699715 0.961674 0.954618
O O4 0.500000 0.000000 0.000000
O O5 0.205160 0.650249 0.197923
O O6 0.076350 0.746524 0.322150
O O7 0.068037 0.471003 0.290779
O O8 0.000000 0.680883 0.250000
O O9 0.750000 0.750000 0.500000
O O10 0.848995 0.806751 0.569010
O O11 0.937995 0.870171 0.438526
O O12 0.764238 0.001289 0.538526
O O13 0.097884 0.775946 0.839621
O O14 0.135559 0.030965 0.863782
O O15 0.428014 0.887783 0.414590
O O16 0.750000 0.750000 0.000000
#
# Coordination Sequence:
#
# PCOD8142421 Si02
#       7
#     8   8   8   8   8   8   8
#     4   9  18  35  55  78 115 156 189 228 288 355
#     4  11  24  43  63  85 118 160 204 251 308 369
#     4  12  22  36  61  93 122 155 198 251 299 349
#     4  12  23  40  62  89 120 160 204 252 302 366
#     4  11  23  40  62  91 122 160 206 252 303 366
#     4  10  21  39  58  80 115 157 194 236 297 365
#     4  11  20  33  55  88 119 148 187 242 295 342
#
# _framework density 20.691054000000001
#
# number of rings (size 3 to 8) (size 9 to 14) (size 15 to 20)
#    0.000    1.143    0.000    9.857    0.000    0.000 
#    0.000    0.714    0.000    0.000    0.000    0.000 
#    0.000    0.000    0.000    0.000    0.000    0.000 
#
# Total GULP energy -347123.709142 kJ/mol
# GULP energy per Si atom -12397.275327 kJ/mol
# Density = 2.064396 g / cm^3
# Si number density = 20.691054 Si / 1000 Ang^3
#
#
#
# Elastic Constant Matrix: (Units=GPa)
#
#
# Indices 1 2 3 4 5 6 
#
# 1 79.1071 19.1738 43.9790 0.0000 -11.2846 0.0000
# 2 19.1738 106.6869 32.8079 0.0000 -6.6484 0.0000
# 3 43.9790 32.8079 104.5076 0.0000 -13.2776 0.0000
# 4 0.0000 0.0000 0.0000 30.4670 0.0000 -5.9588
# 5 -11.2846 -6.6484 -13.2776 0.0000 41.0132 0.0000
# 6 0.0000 0.0000 0.0000 -5.9588 0.0000 33.5390
#
#
#
# Elastic Compliance Matrix: (Units=1/GPa)
#
#
# Indices 1 2 3 4 5 6 
#
# 1 0.016803 -0.000874 -0.006494 0.000000 0.002379 0.000000
# 2 -0.000874 0.010437 -0.002841 0.000000 0.000532 0.000000
# 3 -0.006494 -0.002841 0.013462 0.000000 0.002111 0.000000
# 4 0.000000 0.000000 0.000000 0.034004 0.000000 0.006041
# 5 0.002379 0.000532 0.002111 0.000000 0.025806 0.000000
# 6 0.000000 0.000000 0.000000 0.006041 0.000000 0.030889
#
#
# Mechanical properties :
#
#
# Convention : Reuss Voigt Hill
#
# Bulk Modulus (GPa) = 49.30423 53.58034 51.44228
# Shear Modulus (GPa) = 31.52956 33.95991 32.74473
#
# Velocity S-wave (km/s) = 3.90786 4.05567 3.98245
# Velocity P-wave (km/s) = 6.65149 6.91975 6.78694
#
# Compressibility (1/GPa) = 0.02028223
#
# Stress axis : x y z
#
# Youngs Moduli (GPa) = 59.51389 95.81154 74.28540
#
# Poissons Ratio (x) = 0.08379 0.48242
# Poissons Ratio (y) = 0.05204 0.21104
# Poissons Ratio (z) = 0.38649 0.27220
#
# Static dielectric constant tensor:
#      x y z
#    x 4.067910 0.000000 0.512220 
#    y 0.000000 3.875870 0.000000 
#    z 0.512220 0.000000 4.000650 
# 
# 
# High freq. dielectric constant tensor:
#      x y z
#    x 1.814360 0.000000 0.004580 
#    y 0.000000 1.820510 0.000000 
#    z 0.004580 0.000000 1.800790 
# 
# From -- ./inp_files/273031.got.cif
#   From: 2010.06.25/outbox.cif.g09.slc.cpg/sg15_137_cif.got.tgz:273031.got - 2010.06.28 07:06:18.
