data_PCOD8142881
_publ_section_title
;
Structure prediction by ZEFSAII (Michael W. Deem and Ramdas Pophale) SiO2 
 PCOD8142881
Probable space group: C 2/C
;
_chemical_formula_sum "Si O2"
_cell_formula_units_Z 44
_cell_length_a 10.836605
_cell_length_b 9.187077
_cell_length_c 24.658018
_cell_angle_alpha 90.000000
_cell_angle_beta 128.165555
_cell_angle_gamma 90.000000
_cell_volume 1930.090003
_symmetry_space_group_name_H-M "C 2/C"
_symmetry_group_IT_number 15
_symmetry_cell_setting 'monoclinic'
loop_
_space_group_symop_operation_xyz
x,y,z
-x,y,1/2-z
-x,-y,-z
x,-y,1/2+z
1/2+x,1/2+y,z
1/2-x,1/2+y,1/2-z
1/2-x,1/2-y,-z
1/2+x,1/2-y,1/2+z
loop_
_atom_site_type_symbol
_atom_site_label
_atom_site_fract_x
_atom_site_fract_y
_atom_site_fract_z
Si Si1 0.500000 0.404599 0.750000
Si Si2 0.884481 0.815088 0.573250
Si Si3 0.268623 0.314597 0.852530
Si Si4 0.322320 0.165802 0.296422
Si Si5 0.070495 0.100556 0.863417
Si Si6 0.052991 0.429050 0.324446
O O1 0.329107 0.322638 0.705215
O O2 0.473555 0.498951 0.796398
O O3 0.750000 0.750000 0.500000
O O4 0.902024 0.720715 0.633256
O O5 0.047915 0.813381 0.586124
O O6 0.849065 0.987133 0.572909
O O7 0.219653 0.292994 0.776911
O O8 0.208960 0.178072 0.869718
O O9 0.198939 0.462479 0.858692
O O10 0.444277 0.286169 0.353770
O O11 0.411077 0.009046 0.318692
O O12 0.000000 0.378573 0.250000
#
# Coordination Sequence:
#
# PCOD8142881 Si02
#       6
#     4   8   8   8   8   8
#     4  12  20  34  66 102 130 156 200 270 330 382
#     4  12  27  42  62  98 135 174 218 260 320 391
#     4  10  21  44  65  93 133 164 215 275 317 382
#     4  10  21  39  67 105 129 161 214 275 332 373
#     4  11  23  41  65  94 130 167 211 266 326 381
#     4   9  22  42  70  96 129 170 214 271 327 379
#
# _framework density 22.796863999999999
#
# number of rings (size 3 to 8) (size 9 to 14) (size 15 to 20)
#    0.000    1.455    3.636    2.182    1.273    2.909 
#    0.000    3.636    0.000    0.000    0.000    0.000 
#    0.000    0.000    0.000    0.000    0.000    0.000 
#
# Total GULP energy -272657.861312 kJ/mol
# GULP energy per Si atom -12393.539151 kJ/mol
# Density = 2.274498 g / cm^3
# Si number density = 22.796864 Si / 1000 Ang^3
#
#
#
# Elastic Constant Matrix: (Units=GPa)
#
#
# Indices 1 2 3 4 5 6 
#
# 1 148.1762 50.7122 37.6502 0.0000 18.3653 0.0000
# 2 50.7122 135.9242 30.3622 0.0000 1.5432 0.0000
# 3 37.6502 30.3622 61.7253 0.0000 13.5767 0.0000
# 4 0.0000 0.0000 0.0000 2.3772 0.0000 8.4289
# 5 18.3653 1.5432 13.5767 0.0000 22.8469 0.0000
# 6 0.0000 0.0000 0.0000 8.4289 0.0000 24.0343
#
#
#
# Elastic Compliance Matrix: (Units=1/GPa)
#
#
# Indices 1 2 3 4 5 6 
#
# 1 0.009093 -0.002645 -0.003080 0.000000 -0.005301 0.000000
# 2 -0.002645 0.009126 -0.003690 0.000000 0.003702 0.000000
# 3 -0.003080 -0.003690 0.022196 0.000000 -0.010465 0.000000
# 4 0.000000 0.000000 0.000000 -1.727638 0.000000 0.605890
# 5 -0.005301 0.003702 -0.010465 0.000000 0.053999 0.000000
# 6 0.000000 0.000000 0.000000 0.605890 0.000000 -0.170881
#
#
# Mechanical properties :
#
#
# Convention : Reuss Voigt Hill
#
# Bulk Modulus (GPa) = 46.32524 64.80831 55.56678
# Shear Modulus (GPa) = -2.81202 24.99174 11.08986
#
# Velocity S-wave (km/s) = -1.11184 3.31460 2.20799
# Velocity P-wave (km/s) = 4.32629 6.56804 5.56129
#
# Compressibility (1/GPa) = 0.02158650
#
# Stress axis : x y z
#
# Youngs Moduli (GPa) = 109.97055 109.57742 45.05220
#
# Poissons Ratio (x) = 0.28978 0.13876
# Poissons Ratio (y) = 0.29082 0.16625
# Poissons Ratio (z) = 0.33870 0.40437
#
# Static dielectric constant tensor:
#      x y z
#    x 4.337030 0.000000 0.174660 
#    y 0.000000 4.551960 0.000000 
#    z 0.174660 0.000000 2.762340 
# 
# 
# High freq. dielectric constant tensor:
#      x y z
#    x 1.917980 0.000000 0.016780 
#    y 0.000000 1.934610 0.000000 
#    z 0.016780 0.000000 1.832210 
# 
# From -- ./inp_files/291436.got.cif
#   From: 2010.06.25/outbox.cif.g09.slc.cpg/sg15_146_cif.got.tgz:291436.got - 2010.06.28 07:06:18.
