data_PCOD8142476
_publ_section_title
;
Structure prediction by ZEFSAII (Michael W. Deem and Ramdas Pophale) SiO2 
 PCOD8142476
Probable space group: C 2/C
;
_chemical_formula_sum "Si O2"
_cell_formula_units_Z 52
_cell_length_a 11.050848
_cell_length_b 19.676360
_cell_length_c 12.906611
_cell_angle_alpha 90.000000
_cell_angle_beta 71.965104
_cell_angle_gamma 90.000000
_cell_volume 2668.534850
_symmetry_space_group_name_H-M "C 2/C"
_symmetry_group_IT_number 15
_symmetry_cell_setting 'monoclinic'
loop_
_space_group_symop_operation_xyz
x,y,z
-x,y,1/2-z
-x,-y,-z
x,-y,1/2+z
1/2+x,1/2+y,z
1/2-x,1/2+y,1/2-z
1/2-x,1/2-y,-z
1/2+x,1/2-y,1/2+z
loop_
_atom_site_type_symbol
_atom_site_label
_atom_site_fract_x
_atom_site_fract_y
_atom_site_fract_z
Si Si1 0.951221 0.303807 0.155126
Si Si2 0.287926 0.174597 0.005343
Si Si3 0.500000 0.636724 0.750000
Si Si4 0.123006 0.921294 0.414482
Si Si5 0.227109 0.180906 0.571054
Si Si6 0.369304 0.345733 0.750812
Si Si7 0.845181 0.925857 0.567233
O O1 0.824076 0.333677 0.139023
O O2 0.917591 0.225264 0.187892
O O3 0.000000 0.337767 0.250000
O O4 0.058915 0.321835 0.041427
O O5 0.227825 0.131425 0.927387
O O6 0.250000 0.250000 0.000000
O O7 0.235879 0.154419 0.131400
O O8 0.412947 0.589759 0.697271
O O9 0.587221 0.686678 0.658364
O O10 0.996017 0.913523 0.515827
O O11 0.186353 0.994718 0.417803
O O12 0.250000 0.250000 0.500000
O O13 0.232935 0.111843 0.502430
O O14 0.500000 0.383199 0.750000
O O15 0.299032 0.390543 0.684339
#
# Coordination Sequence:
#
# PCOD8142476 Si02
#       7
#     8   8   4   8   8   8   8
#     4  11  22  37  59  91 123 161 197 251 302 363
#     4  12  22  36  63  89 123 157 212 242 304 365
#     4  10  24  36  64  90 124 154 204 252 312 354
#     4  10  22  38  60  93 118 165 199 254 306 358
#     4  11  23  40  61  93 125 158 198 256 306 355
#     4  11  20  34  60  89 120 157 198 252 301 354
#     4  10  21  39  60  86 129 154 205 254 303 358
#
# _framework density 19.486349000000001
#
# number of rings (size 3 to 8) (size 9 to 14) (size 15 to 20)
#    0.000    1.231    6.154    0.923    3.231    1.231 
#    0.000    0.769    0.000    1.846    0.000    0.000 
#    0.000    0.000    0.000    0.000    0.000    0.000 
#
# Total GULP energy -322135.343190 kJ/mol
# GULP energy per Si atom -12389.820892 kJ/mol
# Density = 1.944200 g / cm^3
# Si number density = 19.486349 Si / 1000 Ang^3
#
#
#
# Elastic Constant Matrix: (Units=GPa)
#
#
# Indices 1 2 3 4 5 6 
#
# 1 94.5165 50.0136 44.8991 0.0000 15.9130 0.0000
# 2 50.0136 111.5582 49.8839 0.0000 19.2227 0.0000
# 3 44.8991 49.8839 135.5977 0.0000 5.8640 0.0000
# 4 0.0000 0.0000 0.0000 19.5776 0.0000 5.1678
# 5 15.9130 19.2227 5.8640 0.0000 40.7297 0.0000
# 6 0.0000 0.0000 0.0000 5.1678 0.0000 26.0707
#
#
#
# Elastic Compliance Matrix: (Units=1/GPa)
#
#
# Indices 1 2 3 4 5 6 
#
# 1 0.015159 -0.004865 -0.003092 0.000000 -0.003181 0.000000
# 2 -0.004865 0.013188 -0.003073 0.000000 -0.003881 0.000000
# 3 -0.003092 -0.003073 0.009473 0.000000 0.001294 0.000000
# 4 0.000000 0.000000 0.000000 0.053899 0.000000 -0.010684
# 5 -0.003181 -0.003881 0.001294 0.000000 0.027440 0.000000
# 6 0.000000 0.000000 0.000000 -0.010684 0.000000 0.040475
#
#
# Mechanical properties :
#
#
# Convention : Reuss Voigt Hill
#
# Bulk Modulus (GPa) = 63.45269 70.14063 66.79666
# Shear Modulus (GPa) = 26.74546 30.40066 28.57306
#
# Velocity S-wave (km/s) = 3.70878 3.95410 3.83340
# Velocity P-wave (km/s) = 7.13956 7.54449 7.34482
#
# Compressibility (1/GPa) = 0.01575977
#
# Stress axis : x y z
#
# Youngs Moduli (GPa) = 65.96697 75.82736 105.56298
#
# Poissons Ratio (x) = 0.36892 0.32641
# Poissons Ratio (y) = 0.32095 0.32437
# Poissons Ratio (z) = 0.20397 0.23300
#
# Static dielectric constant tensor:
#      x y z
#    x 3.471640 0.000000 0.241660 
#    y 0.000000 3.363140 0.000000 
#    z 0.241660 0.000000 3.713400 
# 
# 
# High freq. dielectric constant tensor:
#      x y z
#    x 1.745140 0.000000 0.009210 
#    y 0.000000 1.735320 0.000000 
#    z 0.009210 0.000000 1.776020 
# 
# From -- ./inp_files/88855.got.cif
#   From: 2010.06.25/outbox.cif.g09.slc.cpg/sg15_45_cif.got.tgz:88855.got - 2010.06.28 07:06:18.
