data_PCOD8142970
_publ_section_title
;
Structure prediction by ZEFSAII (Michael W. Deem and Ramdas Pophale) SiO2 
 PCOD8142970
Probable space group: C 2/C
;
_chemical_formula_sum "Si O2"
_cell_formula_units_Z 44
_cell_length_a 28.380535
_cell_length_b 14.862974
_cell_length_c 13.373142
_cell_angle_alpha 90.000000
_cell_angle_beta 20.922236
_cell_angle_gamma 90.000000
_cell_volume 2014.421027
_symmetry_space_group_name_H-M "C 2/C"
_symmetry_group_IT_number 15
_symmetry_cell_setting 'monoclinic'
loop_
_space_group_symop_operation_xyz
x,y,z
-x,y,1/2-z
-x,-y,-z
x,-y,1/2+z
1/2+x,1/2+y,z
1/2-x,1/2+y,1/2-z
1/2-x,1/2-y,-z
1/2+x,1/2-y,1/2+z
loop_
_atom_site_type_symbol
_atom_site_label
_atom_site_fract_x
_atom_site_fract_y
_atom_site_fract_z
Si Si1 0.500000 0.613857 0.250000
Si Si2 0.356993 0.922846 0.533119
Si Si3 0.330938 0.488925 0.949491
Si Si4 0.215192 0.156263 0.121503
Si Si5 0.081987 0.818814 0.274585
Si Si6 0.326853 0.254340 0.198545
O O1 0.531008 0.552633 0.285056
O O2 0.368232 0.673623 0.531845
O O3 0.308881 0.876961 0.525240
O O4 0.379671 0.843022 0.566289
O O5 0.500000 0.971093 0.250000
O O6 0.257095 0.996749 0.775961
O O7 0.269245 0.420843 0.992405
O O8 0.353754 0.582645 0.849075
O O9 0.069519 0.170472 0.458140
O O10 0.250000 0.250000 0.000000
O O11 0.090377 0.778245 0.367542
O O12 0.167405 0.752912 0.031602
#
# Coordination Sequence:
#
# PCOD8142970 Si02
#       6
#     4   8   8   8   8   8
#     4  12  20  40  68 100 134 178 216 268 344 394
#     4  11  24  44  64  96 135 180 224 284 340 395
#     4  11  25  40  67 101 129 174 224 280 325 405
#     4  12  24  43  68  99 137 173 227 280 336 403
#     4  10  22  43  66  99 125 174 226 271 331 402
#     4  10  21  39  70  91 130 173 219 265 334 404
#
# _framework density 21.842504000000002
#
# number of rings (size 3 to 8) (size 9 to 14) (size 15 to 20)
#    0.000    1.091    2.727    3.818    2.545    2.909 
#    3.273    0.000    0.000    0.000    0.000    0.000 
#    0.000    0.000    0.000    0.000    0.000    0.000 
#
# Total GULP energy -272661.770523 kJ/mol
# GULP energy per Si atom -12393.716842 kJ/mol
# Density = 2.179279 g / cm^3
# Si number density = 21.842504 Si / 1000 Ang^3
#
#
#
# Elastic Constant Matrix: (Units=GPa)
#
#
# Indices 1 2 3 4 5 6 
#
# 1 96.1536 48.1118 49.6604 0.0000 0.3652 0.0000
# 2 48.1118 111.5680 39.8866 0.0000 5.5490 0.0000
# 3 49.6604 39.8866 120.1558 0.0000 -5.5154 0.0000
# 4 0.0000 0.0000 0.0000 35.0357 0.0000 8.7932
# 5 0.3652 5.5490 -5.5154 0.0000 31.4772 0.0000
# 6 0.0000 0.0000 0.0000 8.7932 0.0000 37.6208
#
#
#
# Elastic Compliance Matrix: (Units=1/GPa)
#
#
# Indices 1 2 3 4 5 6 
#
# 1 0.015278 -0.004904 -0.004693 0.000000 -0.000135 0.000000
# 2 -0.004904 0.011928 -0.002043 0.000000 -0.002404 0.000000
# 3 -0.004693 -0.002043 0.011048 0.000000 0.002350 0.000000
# 4 0.000000 0.000000 0.000000 0.030321 0.000000 -0.007087
# 5 -0.000135 -0.002404 0.002350 0.000000 0.032606 0.000000
# 6 0.000000 0.000000 0.000000 -0.007087 0.000000 0.028238
#
#
# Mechanical properties :
#
#
# Convention : Reuss Voigt Hill
#
# Bulk Modulus (GPa) = 66.78017 67.02169 66.90093
# Shear Modulus (GPa) = 31.70789 33.50798 32.60794
#
# Velocity S-wave (km/s) = 3.81420 3.92097 3.86795
# Velocity P-wave (km/s) = 7.07371 7.15887 7.11642
#
# Compressibility (1/GPa) = 0.01497451
#
# Stress axis : x y z
#
# Youngs Moduli (GPa) = 65.45395 83.83729 90.51318
#
# Poissons Ratio (x) = 0.41113 0.42475
# Poissons Ratio (y) = 0.32098 0.18493
# Poissons Ratio (z) = 0.30715 0.17129
#
# Static dielectric constant tensor:
#      x y z
#    x 3.824260 0.000000 0.323040 
#    y 0.000000 4.018780 0.000000 
#    z 0.323040 0.000000 4.388030 
# 
# 
# High freq. dielectric constant tensor:
#      x y z
#    x 1.853480 0.000000 0.014330 
#    y 0.000000 1.862270 0.000000 
#    z 0.014330 0.000000 1.862150 
# 
# From -- ./inp_files/182258.got.cif
#   From: 2010.06.25/outbox.cif.g09.slc.cpg/sg15_92_cif.got.tgz:182258.got - 2010.06.28 07:06:18.
