data_PCOD8142508
_publ_section_title
;
Structure prediction by ZEFSAII (Michael W. Deem and Ramdas Pophale) SiO2 
 PCOD8142508
Probable space group: C 2/C
;
_chemical_formula_sum "Si O2"
_cell_formula_units_Z 52
_cell_length_a 19.587143
_cell_length_b 27.805613
_cell_length_c 5.079834
_cell_angle_alpha 90.000000
_cell_angle_beta 54.530105
_cell_angle_gamma 90.000000
_cell_volume 2253.210669
_symmetry_space_group_name_H-M "C 2/C"
_symmetry_group_IT_number 15
_symmetry_cell_setting 'monoclinic'
loop_
_space_group_symop_operation_xyz
x,y,z
-x,y,1/2-z
-x,-y,-z
x,-y,1/2+z
1/2+x,1/2+y,z
1/2-x,1/2+y,1/2-z
1/2-x,1/2-y,-z
1/2+x,1/2-y,1/2+z
loop_
_atom_site_type_symbol
_atom_site_label
_atom_site_fract_x
_atom_site_fract_y
_atom_site_fract_z
Si Si1 0.500000 0.203159 0.750000
Si Si2 0.675764 0.030145 0.215801
Si Si3 0.843666 0.362207 0.654753
Si Si4 0.768003 0.317792 0.299304
Si Si5 0.616769 0.734921 0.353118
Si Si6 0.000000 0.837891 0.250000
Si Si7 0.372693 0.471592 0.254647
Si Si8 0.500000 0.397318 0.750000
O O1 0.572156 0.168069 0.472839
O O2 0.458993 0.237418 0.623487
O O3 0.633125 0.081135 0.381690
O O4 0.647610 0.991473 0.498980
O O5 0.774905 0.039241 0.976349
O O6 0.800258 0.348035 0.478130
O O7 0.774291 0.352125 0.033880
O O8 0.674894 0.296477 0.526366
O O9 0.827896 0.272243 0.109004
O O10 0.578066 0.696986 0.647394
O O11 0.968458 0.866615 0.574460
O O12 0.398638 0.485531 0.494170
O O13 0.421357 0.425575 0.043281
#
# Coordination Sequence:
#
# PCOD8142508 Si02
#       8
#     4   8   8   8   8   4   8   4
#     4  10  23  44  70  94 134 174 214 268 331 392
#     4  10  22  40  65  93 127 164 210 267 323 383
#     4  11  23  42  68  99 128 169 220 263 323 392
#     4  10  24  40  69  91 126 172 221 266 304 388
#     4  10  23  43  61  94 129 174 215 262 327 370
#     4  12  26  35  58  86 134 156 202 257 316 360
#     4  10  21  39  61  81 116 162 203 254 311 378
#     4  12  25  37  56  92 118 164 202 259 309 380
#
# _framework density 23.078177
#
# number of rings (size 3 to 8) (size 9 to 14) (size 15 to 20)
#    0.000    1.538    0.000    3.692    4.308    9.846 
#    0.000    0.769    0.000    0.000    0.000    0.000 
#    0.000    0.000    0.000    0.000    0.000    0.000 
#
# Total GULP energy -322273.966120 kJ/mol
# GULP energy per Si atom -12395.152543 kJ/mol
# Density = 2.302565 g / cm^3
# Si number density = 23.078177 Si / 1000 Ang^3
#
#
#
# Elastic Constant Matrix: (Units=GPa)
#
#
# Indices 1 2 3 4 5 6 
#
# 1 43.7272 23.7714 29.1708 0.0000 -1.8097 0.0000
# 2 23.7714 131.1607 52.4984 0.0000 -4.9548 0.0000
# 3 29.1708 52.4984 88.3944 0.0000 18.9146 0.0000
# 4 0.0000 0.0000 0.0000 62.9681 0.0000 1.1589
# 5 -1.8097 -4.9548 18.9146 0.0000 32.4861 0.0000
# 6 0.0000 0.0000 0.0000 1.1589 0.0000 17.0477
#
#
#
# Elastic Compliance Matrix: (Units=1/GPa)
#
#
# Indices 1 2 3 4 5 6 
#
# 1 0.031464 -0.000646 -0.011827 0.000000 0.008540 0.000000
# 2 -0.000646 0.011031 -0.007642 0.000000 0.006096 0.000000
# 3 -0.011827 -0.007642 0.023012 0.000000 -0.015223 0.000000
# 4 0.000000 0.000000 0.000000 0.015901 0.000000 -0.001081
# 5 0.008540 0.006096 -0.015223 0.000000 0.041051 0.000000
# 6 0.000000 0.000000 0.000000 -0.001081 0.000000 0.058732
#
#
# Mechanical properties :
#
#
# Convention : Reuss Voigt Hill
#
# Bulk Modulus (GPa) = 39.56383 52.68484 46.12433
# Shear Modulus (GPa) = 21.75356 33.02315 27.38835
#
# Velocity S-wave (km/s) = 3.07351 3.78686 3.44868
# Velocity P-wave (km/s) = 5.45673 6.48065 5.99061
#
# Compressibility (1/GPa) = 0.02527561
#
# Stress axis : x y z
#
# Youngs Moduli (GPa) = 31.78274 90.65723 43.45493
#
# Poissons Ratio (x) = 0.05855 0.51395
# Poissons Ratio (y) = 0.02053 0.33210
# Poissons Ratio (z) = 0.37590 0.69285
#
# Static dielectric constant tensor:
#      x y z
#    x 3.873110 0.000000 -0.066240 
#    y 0.000000 4.306890 0.000000 
#    z -0.066240 0.000000 4.311280 
# 
# 
# High freq. dielectric constant tensor:
#      x y z
#    x 1.885430 0.000000 -0.000590 
#    y 0.000000 1.922980 0.000000 
#    z -0.000590 0.000000 1.925010 
# 
# From -- ./inp_files/14381.got.cif
#   From: 2010.06.25/outbox.cif.g09.slc.cpg/sg15_8_cif.got.tgz:14381.got - 2010.06.28 07:06:18.
