data_PCOD8142916
_publ_section_title
;
Structure prediction by ZEFSAII (Michael W. Deem and Ramdas Pophale) SiO2 
 PCOD8142916
Probable space group: C 2/C
;
_chemical_formula_sum "Si O2"
_cell_formula_units_Z 40
_cell_length_a 9.760691
_cell_length_b 14.199734
_cell_length_c 13.118760
_cell_angle_alpha 90.000000
_cell_angle_beta 113.839876
_cell_angle_gamma 90.000000
_cell_volume 1663.114212
_symmetry_space_group_name_H-M "C 2/C"
_symmetry_group_IT_number 15
_symmetry_cell_setting 'monoclinic'
loop_
_space_group_symop_operation_xyz
x,y,z
-x,y,1/2-z
-x,-y,-z
x,-y,1/2+z
1/2+x,1/2+y,z
1/2-x,1/2+y,1/2-z
1/2-x,1/2-y,-z
1/2+x,1/2-y,1/2+z
loop_
_atom_site_type_symbol
_atom_site_label
_atom_site_fract_x
_atom_site_fract_y
_atom_site_fract_z
Si Si1 0.322425 0.774113 0.877598
Si Si2 0.388403 0.617341 0.056952
Si Si3 0.311036 0.537322 0.384472
Si Si4 0.347585 0.156896 0.022048
Si Si5 0.674576 0.617780 0.775963
O O1 0.190983 0.851905 0.859847
O O2 0.303657 0.723915 0.762094
O O3 0.319361 0.689129 0.955809
O O4 0.477968 0.827226 0.937728
O O5 0.568480 0.615668 0.119295
O O6 0.357854 0.512078 0.006019
O O7 0.168089 0.597802 0.377368
O O8 0.271698 0.462272 0.286413
O O9 0.283081 0.102465 0.904082
O O10 0.250000 0.250000 0.000000
O O11 0.500000 0.601250 0.750000
#
# Coordination Sequence:
#
# PCOD8142916 Si02
#       5
#     8   8   8   8   8
#     4  10  21  39  67  97 135 168 225 279 326 393
#     4   9  18  39  65  93 129 173 213 281 323 389
#     4  10  21  41  66  93 132 172 227 266 331 409
#     4  12  22  43  70  98 134 177 218 283 337 391
#     4  11  22  42  67  98 132 181 223 267 338 411
#
# _framework density 24.051265999999998
#
# number of rings (size 3 to 8) (size 9 to 14) (size 15 to 20)
#    0.000    1.600    4.000    2.400    0.000    0.800 
#    7.200    9.000    4.400    0.000    0.000    0.000 
#    0.000    0.000    0.000    0.000    0.000    0.000 
#
# Total GULP energy -247798.986454 kJ/mol
# GULP energy per Si atom -12389.949323 kJ/mol
# Density = 2.399652 g / cm^3
# Si number density = 24.051266 Si / 1000 Ang^3
#
#
#
# Elastic Constant Matrix: (Units=GPa)
#
#
# Indices 1 2 3 4 5 6 
#
# 1 125.5974 47.2054 34.6539 0.0000 -17.5789 0.0000
# 2 47.2054 79.9291 38.6994 0.0000 -18.9079 0.0000
# 3 34.6539 38.6994 80.4659 0.0000 -12.1492 0.0000
# 4 0.0000 0.0000 0.0000 30.3849 0.0000 -17.6699
# 5 -17.5789 -18.9079 -12.1492 0.0000 23.1928 0.0000
# 6 0.0000 0.0000 0.0000 -17.6699 0.0000 55.9039
#
#
#
# Elastic Compliance Matrix: (Units=1/GPa)
#
#
# Indices 1 2 3 4 5 6 
#
# 1 0.010681 -0.004604 -0.001879 0.000000 0.003358 0.000000
# 2 -0.004604 0.020737 -0.006477 0.000000 0.010024 0.000000
# 3 -0.001879 -0.006477 0.016657 0.000000 0.002021 0.000000
# 4 0.000000 0.000000 0.000000 0.040323 0.000000 0.012745
# 5 0.003358 0.010024 0.002021 0.000000 0.054892 0.000000
# 6 0.000000 0.000000 0.000000 0.012745 0.000000 0.021916
#
#
# Mechanical properties :
#
#
# Convention : Reuss Voigt Hill
#
# Bulk Modulus (GPa) = 45.13571 58.56775 51.85173
# Shear Modulus (GPa) = 25.18748 32.92523 29.05636
#
# Velocity S-wave (km/s) = 3.23962 3.70396 3.47955
# Velocity P-wave (km/s) = 5.72719 6.53426 6.14399
#
# Compressibility (1/GPa) = 0.02215541
#
# Stress axis : x y z
#
# Youngs Moduli (GPa) = 93.62729 48.22190 60.03481
#
# Poissons Ratio (x) = 0.22202 0.11278
# Poissons Ratio (y) = 0.43106 0.38886
# Poissons Ratio (z) = 0.17588 0.31235
#
# Static dielectric constant tensor:
#      x y z
#    x 4.342190 0.000000 -0.881810 
#    y 0.000000 4.536080 0.000000 
#    z -0.881810 0.000000 2.644490 
# 
# 
# High freq. dielectric constant tensor:
#      x y z
#    x 1.945690 0.000000 -0.027270 
#    y 0.000000 1.963450 0.000000 
#    z -0.027270 0.000000 1.940960 
# 
# From -- ./inp_files/133281.got.cif
#   From: 2010.06.25/outbox.cif.g09.slc.cpg/sg15_67_cif.got.tgz:133281.got - 2010.06.28 07:06:18.
