data_PCOD8142323
_publ_section_title
;
Structure prediction by ZEFSAII (Michael W. Deem and Ramdas Pophale) SiO2 
 PCOD8142323
Probable space group: C 2/C
;
_chemical_formula_sum "Si O2"
_cell_formula_units_Z 48
_cell_length_a 17.169875
_cell_length_b 16.636600
_cell_length_c 20.044235
_cell_angle_alpha 90.000000
_cell_angle_beta 23.660974
_cell_angle_gamma 90.000000
_cell_volume 2297.821677
_symmetry_space_group_name_H-M "C 2/C"
_symmetry_group_IT_number 15
_symmetry_cell_setting 'monoclinic'
loop_
_space_group_symop_operation_xyz
x,y,z
-x,y,1/2-z
-x,-y,-z
x,-y,1/2+z
1/2+x,1/2+y,z
1/2-x,1/2+y,1/2-z
1/2-x,1/2-y,-z
1/2+x,1/2-y,1/2+z
loop_
_atom_site_type_symbol
_atom_site_label
_atom_site_fract_x
_atom_site_fract_y
_atom_site_fract_z
Si Si1 0.800805 0.524839 0.624418
Si Si2 0.859812 0.646180 0.459901
Si Si3 0.245916 0.308937 0.596631
Si Si4 0.827080 0.167215 0.691324
Si Si5 0.457132 0.740787 0.462559
Si Si6 0.127251 0.137254 0.214877
O O1 0.831542 0.569513 0.529519
O O2 0.704541 0.577576 0.758203
O O3 0.666067 0.448224 0.718429
O O4 0.000000 0.500000 0.500000
O O5 0.791949 0.631180 0.436672
O O6 0.715294 0.715698 0.600365
O O7 0.091132 0.669148 0.276288
O O8 0.467551 0.308119 0.442164
O O9 0.647514 0.225660 0.853737
O O10 0.839408 0.178049 0.601522
O O11 0.330109 0.818073 0.540535
O O12 0.503533 0.692747 0.360246
O O13 0.000000 0.122299 0.250000
#
# Coordination Sequence:
#
# PCOD8142323 Si02
#       6
#     8   8   8   8   8   8
#     4  12  26  42  61  96 138 166 205 271 325 382
#     4  10  22  39  60  95 130 170 216 256 312 376
#     4  10  21  38  66  91 127 175 214 257 303 392
#     4  11  22  38  67  94 129 164 212 264 321 381
#     4  10  23  45  69  97 119 170 227 267 313 389
#     4  11  25  46  71  94 126 170 217 275 328 378
#
# _framework density 20.889348999999999
#
# number of rings (size 3 to 8) (size 9 to 14) (size 15 to 20)
#    0.000    1.333    1.667    3.500    7.000    2.000 
#    0.000    0.000    3.667    0.000    0.000    0.000 
#    0.000    0.000    0.000    0.000    0.000    0.000 
#
# Total GULP energy -297431.522665 kJ/mol
# GULP energy per Si atom -12392.980111 kJ/mol
# Density = 2.084180 g / cm^3
# Si number density = 20.889349 Si / 1000 Ang^3
#
#
#
# Elastic Constant Matrix: (Units=GPa)
#
#
# Indices 1 2 3 4 5 6 
#
# 1 87.3550 40.3039 24.4722 0.0190 -19.1443 0.0049
# 2 40.3039 101.2221 27.5468 -0.0489 7.9559 0.0315
# 3 24.4722 27.5468 88.1827 -0.0948 -6.0380 0.0438
# 4 0.0190 -0.0489 -0.0948 23.6789 -0.0764 2.7158
# 5 -19.1443 7.9559 -6.0380 -0.0764 27.8549 0.0135
# 6 0.0049 0.0315 0.0438 2.7158 0.0135 42.4999
#
#
#
# Elastic Compliance Matrix: (Units=1/GPa)
#
#
# Indices 1 2 3 4 5 6 
#
# 1 0.019071 -0.008333 -0.001654 0.000010 0.015129 0.000000
# 2 -0.008333 0.014866 -0.003060 -0.000009 -0.010636 -0.000003
# 3 -0.001654 -0.003060 0.012929 0.000057 0.002540 -0.000015
# 4 0.000010 -0.000009 0.000057 0.042544 0.000139 -0.002719
# 5 0.015129 -0.010636 0.002540 0.000139 0.049887 -0.000021
# 6 0.000000 -0.000003 -0.000015 -0.002719 -0.000021 0.023703
#
#
# Mechanical properties :
#
#
# Convention : Reuss Voigt Hill
#
# Bulk Modulus (GPa) = 48.13795 51.26729 49.70262
# Shear Modulus (GPa) = 25.50818 31.10255 28.30537
#
# Velocity S-wave (km/s) = 3.49823 3.86284 3.68505
# Velocity P-wave (km/s) = 6.27783 6.67015 6.47696
#
# Compressibility (1/GPa) = 0.02077363
#
# Stress axis : x y z
#
# Youngs Moduli (GPa) = 52.43622 67.26908 77.34687
#
# Poissons Ratio (x) = 0.56052 0.12790
# Poissons Ratio (y) = 0.43693 0.23665
# Poissons Ratio (z) = 0.08671 0.20582
#
# Static dielectric constant tensor:
#      x y z
#    x 3.875730 -0.000450 0.030170 
#    y -0.000450 3.046000 0.000710 
#    z 0.030170 0.000710 4.028390 
# 
# 
# High freq. dielectric constant tensor:
#      x y z
#    x 1.822840 0.000000 -0.003730 
#    y 0.000000 1.795940 0.000020 
#    z -0.003730 0.000020 1.834440 
# 
# From -- ./inp_files/249715.got.cif
#   From: 2010.06.25/outbox.cif.g09.slc.cpg/sg15_125_cif.got.tgz:249715.got - 2010.06.28 07:06:18.
