data_PCOD8142384
_publ_section_title
;
Structure prediction by ZEFSAII (Michael W. Deem and Ramdas Pophale) SiO2 
 PCOD8142384
Probable space group: C 2/C
;
_chemical_formula_sum "Si O2"
_cell_formula_units_Z 40
_cell_length_a 8.735989
_cell_length_b 16.271000
_cell_length_c 13.204484
_cell_angle_alpha 90.000000
_cell_angle_beta 72.569456
_cell_angle_gamma 90.000000
_cell_volume 1790.741522
_symmetry_space_group_name_H-M "C 2/C"
_symmetry_group_IT_number 15
_symmetry_cell_setting 'monoclinic'
loop_
_space_group_symop_operation_xyz
x,y,z
-x,y,1/2-z
-x,-y,-z
x,-y,1/2+z
1/2+x,1/2+y,z
1/2-x,1/2+y,1/2-z
1/2-x,1/2-y,-z
1/2+x,1/2-y,1/2+z
loop_
_atom_site_type_symbol
_atom_site_label
_atom_site_fract_x
_atom_site_fract_y
_atom_site_fract_z
Si Si1 0.000000 0.839293 0.750000
Si Si2 0.438013 0.748255 0.471014
Si Si3 0.949128 0.899622 0.438160
Si Si4 0.088447 0.420056 0.438306
Si Si5 0.000000 0.519090 0.750000
Si Si6 0.163093 0.034523 0.334264
O O1 0.994994 0.782060 0.849296
O O2 0.854019 0.905482 0.760595
O O3 0.250000 0.750000 0.500000
O O4 0.498768 0.695026 0.555530
O O5 0.498400 0.838242 0.489592
O O6 0.775000 0.913510 0.425869
O O7 0.947102 0.930819 0.554052
O O8 0.084596 0.942958 0.340009
O O9 0.080841 0.424817 0.318645
O O10 0.000000 0.500000 0.500000
O O11 0.852444 0.465644 0.825039
#
# Coordination Sequence:
#
# PCOD8142384 Si02
#       6
#     4   8   8   8   4   8
#     4  10  23  42  64  97 138 172 232 277 346 418
#     4  11  25  42  68 100 142 183 225 290 348 410
#     4  10  22  43  66  96 138 176 227 280 354 404
#     4  12  25  42  67  99 137 182 231 285 343 420
#     4  12  23  38  68  99 132 176 240 275 348 410
#     4  10  21  38  68  98 129 176 220 286 339 418
#
# _framework density 22.337114
#
# number of rings (size 3 to 8) (size 9 to 14) (size 15 to 20)
#    0.000    1.200    2.000    3.600    8.400    0.000 
#    0.000    0.000    0.000    3.600    0.000    0.000 
#    0.000    0.000    0.000    0.000    0.000    0.000 
#
# Total GULP energy -247773.271288 kJ/mol
# GULP energy per Si atom -12388.663564 kJ/mol
# Density = 2.228627 g / cm^3
# Si number density = 22.337114 Si / 1000 Ang^3
#
#
#
# Elastic Constant Matrix: (Units=GPa)
#
#
# Indices 1 2 3 4 5 6 
#
# 1 175.3734 60.1055 22.8786 0.0000 -6.7201 0.0000
# 2 60.1055 163.6416 35.5615 0.0000 -3.3609 0.0000
# 3 22.8786 35.5615 50.5806 0.0000 0.2423 0.0000
# 4 0.0000 0.0000 0.0000 21.8679 0.0000 2.8338
# 5 -6.7201 -3.3609 0.2423 0.0000 44.7735 0.0000
# 6 0.0000 0.0000 0.0000 2.8338 0.0000 33.9042
#
#
#
# Elastic Compliance Matrix: (Units=1/GPa)
#
#
# Indices 1 2 3 4 5 6 
#
# 1 0.006653 -0.002091 -0.001543 0.000000 0.000850 0.000000
# 2 -0.002091 0.007884 -0.004599 0.000000 0.000303 0.000000
# 3 -0.001543 -0.004599 0.023705 0.000000 -0.000705 0.000000
# 4 0.000000 0.000000 0.000000 0.046230 0.000000 -0.003864
# 5 0.000850 0.000303 -0.000705 0.000000 0.022489 0.000000
# 6 0.000000 0.000000 0.000000 -0.003864 0.000000 0.029818
#
#
# Mechanical properties :
#
#
# Convention : Reuss Voigt Hill
#
# Bulk Modulus (GPa) = 45.92152 69.63184 57.77668
# Shear Modulus (GPa) = 31.15195 38.17914 34.66554
#
# Velocity S-wave (km/s) = 3.73852 4.13876 3.94372
# Velocity P-wave (km/s) = 6.26406 7.35391 6.83075
#
# Compressibility (1/GPa) = 0.02177628
#
# Stress axis : x y z
#
# Youngs Moduli (GPa) = 150.31856 126.83145 42.18456
#
# Poissons Ratio (x) = 0.26516 0.06510
# Poissons Ratio (y) = 0.31426 0.19401
# Poissons Ratio (z) = 0.23198 0.58331
#
# Static dielectric constant tensor:
#      x y z
#    x 3.764250 0.000000 0.414430 
#    y 0.000000 4.208010 0.000000 
#    z 0.414430 0.000000 3.637610 
# 
# 
# High freq. dielectric constant tensor:
#      x y z
#    x 1.892830 0.000000 0.009350 
#    y 0.000000 1.879660 0.000000 
#    z 0.009350 0.000000 1.869270 
# 
# From -- ./inp_files/133135.got.cif
#   From: 2010.06.25/outbox.cif.g09.slc.cpg/sg15_67_cif.got.tgz:133135.got - 2010.06.28 07:06:18.
