data_PCOD8142018
_publ_section_title
;
Structure prediction by ZEFSAII (Michael W. Deem and Ramdas Pophale) SiO2 
 PCOD8142018
Probable space group: C 2/C
;
_chemical_formula_sum "Si O2"
_cell_formula_units_Z 48
_cell_length_a 13.584001
_cell_length_b 8.980333
_cell_length_c 25.289352
_cell_angle_alpha 90.000000
_cell_angle_beta 45.556525
_cell_angle_gamma 90.000000
_cell_volume 2202.523367
_symmetry_space_group_name_H-M "C 2/C"
_symmetry_group_IT_number 15
_symmetry_cell_setting 'monoclinic'
loop_
_space_group_symop_operation_xyz
x,y,z
-x,y,1/2-z
-x,-y,-z
x,-y,1/2+z
1/2+x,1/2+y,z
1/2-x,1/2+y,1/2-z
1/2-x,1/2-y,-z
1/2+x,1/2-y,1/2+z
loop_
_atom_site_type_symbol
_atom_site_label
_atom_site_fract_x
_atom_site_fract_y
_atom_site_fract_z
Si Si1 0.991533 0.967323 0.065829
Si Si2 0.716287 0.696888 0.313360
Si Si3 0.958151 0.702211 0.145301
Si Si4 0.206705 0.888858 0.563931
Si Si5 0.049137 0.622109 0.598320
Si Si6 0.384084 0.619118 0.828888
O O1 0.964167 0.788905 0.086165
O O2 0.857898 0.044959 0.142527
O O3 0.127719 0.031761 0.043934
O O4 0.000000 0.000000 0.000000
O O5 0.803978 0.674028 0.226329
O O6 0.608638 0.830651 0.347589
O O7 0.814005 0.745324 0.324678
O O8 0.047032 0.551158 0.113598
O O9 0.038446 0.818580 0.150161
O O10 0.127830 0.734167 0.609508
O O11 0.364355 0.856468 0.488550
O O12 0.218255 0.991267 0.611749
O O13 0.500000 0.538290 0.750000
#
# Coordination Sequence:
#
# PCOD8142018 Si02
#       6
#     8   8   8   8   8   8
#     4  10  22  37  61  89 120 157 205 255 298 367
#     4  10  21  39  59  87 122 155 206 245 304 370
#     4  10  21  39  62  84 119 162 197 251 308 358
#     4   9  21  40  58  83 127 155 194 249 311 355
#     4  10  21  38  61  84 118 158 200 246 303 357
#     4   9  20  38  61  86 118 159 197 245 302 369
#
# _framework density 21.793185999999999
#
# number of rings (size 3 to 8) (size 9 to 14) (size 15 to 20)
#    0.000    2.333    0.000    1.000    4.667    3.333 
#    6.000    2.500    0.000    0.000    0.000    0.000 
#    0.000    0.000    0.000    0.000    0.000    0.000 
#
# Total GULP energy -297330.283509 kJ/mol
# GULP energy per Si atom -12388.761813 kJ/mol
# Density = 2.174358 g / cm^3
# Si number density = 21.793186 Si / 1000 Ang^3
#
#
#
# Elastic Constant Matrix: (Units=GPa)
#
#
# Indices 1 2 3 4 5 6 
#
# 1 25.1717 4.0463 24.8190 0.0000 3.7570 0.0000
# 2 4.0463 124.6864 46.5696 0.0000 8.1440 0.0001
# 3 24.8190 46.5696 108.4692 0.0000 -7.9102 0.0000
# 4 0.0000 0.0000 0.0000 39.9401 0.0000 -4.3228
# 5 3.7570 8.1440 -7.9102 0.0000 31.2037 0.0000
# 6 0.0000 0.0001 0.0000 -4.3228 0.0000 10.8095
#
#
#
# Elastic Compliance Matrix: (Units=1/GPa)
#
#
# Indices 1 2 3 4 5 6 
#
# 1 0.056416 0.004895 -0.015893 0.000000 -0.012099 0.000000
# 2 0.004895 0.010390 -0.005932 0.000000 -0.004805 0.000000
# 3 -0.015893 -0.005932 0.015950 0.000000 0.007505 0.000000
# 4 0.000000 0.000000 0.000000 0.026170 0.000000 0.010466
# 5 -0.012099 -0.004805 0.007505 0.000000 0.036661 0.000000
# 6 0.000000 0.000000 0.000000 0.010466 0.000000 0.096697
#
#
# Mechanical properties :
#
#
# Convention : Reuss Voigt Hill
#
# Bulk Modulus (GPa) = 20.45061 45.46635 32.95848
# Shear Modulus (GPa) = 17.09744 28.58347 22.84045
#
# Velocity S-wave (km/s) = 2.80399 3.62550 3.24088
# Velocity P-wave (km/s) = 4.45953 6.19948 5.40005
#
# Compressibility (1/GPa) = 0.04889829
#
# Stress axis : x y z
#
# Youngs Moduli (GPa) = 17.72543 96.24197 62.69770
#
# Poissons Ratio (x) = -0.47113 0.99644
# Poissons Ratio (y) = -0.08677 0.37189
# Poissons Ratio (z) = 0.28171 0.57086
#
# Static dielectric constant tensor:
#      x y z
#    x 3.674510 0.000000 -0.077410 
#    y 0.000000 4.038150 0.000000 
#    z -0.077410 0.000000 4.185050 
# 
# 
# High freq. dielectric constant tensor:
#      x y z
#    x 1.824940 0.000000 -0.015250 
#    y 0.000000 1.864760 0.000000 
#    z -0.015250 0.000000 1.866090 
# 
# From -- ./inp_files/295390.got.cif
#   From: 2010.06.25/outbox.cif.g09.slc.cpg/sg15_148_cif.got.tgz:295390.got - 2010.06.28 07:06:18.
