data_PCOD8142289
_publ_section_title
;
Structure prediction by ZEFSAII (Michael W. Deem and Ramdas Pophale) SiO2 
 PCOD8142289
Probable space group: C 2/C
;
_chemical_formula_sum "Si O2"
_cell_formula_units_Z 56
_cell_length_a 14.684890
_cell_length_b 11.143459
_cell_length_c 18.152514
_cell_angle_alpha 90.000000
_cell_angle_beta 60.290324
_cell_angle_gamma 90.000000
_cell_volume 2580.009096
_symmetry_space_group_name_H-M "C 2/C"
_symmetry_group_IT_number 15
_symmetry_cell_setting 'monoclinic'
loop_
_space_group_symop_operation_xyz
x,y,z
-x,y,1/2-z
-x,-y,-z
x,-y,1/2+z
1/2+x,1/2+y,z
1/2-x,1/2+y,1/2-z
1/2-x,1/2-y,-z
1/2+x,1/2-y,1/2+z
loop_
_atom_site_type_symbol
_atom_site_label
_atom_site_fract_x
_atom_site_fract_y
_atom_site_fract_z
Si Si1 0.700293 0.185011 0.815717
Si Si2 0.825060 0.279660 0.902060
Si Si3 0.719392 0.054559 0.377333
Si Si4 0.253999 0.514911 0.534399
Si Si5 0.929580 0.127705 0.214546
Si Si6 0.669804 0.685021 0.880443
Si Si7 0.036969 0.088538 0.589561
O O1 0.774879 0.250496 0.843733
O O2 0.602970 0.270222 0.831732
O O3 0.769775 0.150248 0.717694
O O4 0.657980 0.061261 0.869503
O O5 0.838772 0.425344 0.899370
O O6 0.931318 0.201457 0.869639
O O7 0.750000 0.250000 0.000000
O O8 0.740592 0.041090 0.454545
O O9 0.827716 0.066505 0.290167
O O10 0.650760 0.172953 0.393856
O O11 0.258785 0.636437 0.580475
O O12 0.365214 0.446898 0.500997
O O13 0.000000 0.190254 0.250000
O O14 0.001659 0.025224 0.151115
O O15 0.555360 0.627140 0.928103
#
# Coordination Sequence:
#
# PCOD8142289 Si02
#       7
#     8   8   8   8   8   8   8
#     4  11  22  40  64  88 130 164 209 264 325 374
#     4  10  21  38  65  92 123 164 206 263 314 371
#     4  11  22  43  63  90 132 171 203 263 323 385
#     4  11  22  42  65  91 129 165 214 260 323 371
#     4  11  21  39  67  97 119 168 222 266 313 380
#     4  11  25  37  64  96 124 169 212 262 320 382
#     4  11  21  40  66  95 125 160 224 258 307 381
#
# _framework density 21.705351
#
# number of rings (size 3 to 8) (size 9 to 14) (size 15 to 20)
#    0.000    1.143    5.714    1.714    2.000    1.143 
#    0.000    3.571    0.000    0.000    0.000    0.000 
#    0.000    0.000    0.000    0.000    0.000    0.000 
#
# Total GULP energy -347079.536532 kJ/mol
# GULP energy per Si atom -12395.697733 kJ/mol
# Density = 2.165595 g / cm^3
# Si number density = 21.705351 Si / 1000 Ang^3
#
#
#
# Elastic Constant Matrix: (Units=GPa)
#
#
# Indices 1 2 3 4 5 6 
#
# 1 93.5345 60.8992 21.4056 0.0000 19.7659 0.0000
# 2 60.8992 118.2094 42.7101 0.0000 37.6656 0.0000
# 3 21.4056 42.7101 73.4638 0.0000 19.5623 0.0000
# 4 0.0000 0.0000 0.0000 31.6236 0.0000 5.4737
# 5 19.7659 37.6656 19.5623 0.0000 27.2252 0.0000
# 6 0.0000 0.0000 0.0000 5.4737 0.0000 42.7815
#
#
#
# Elastic Compliance Matrix: (Units=1/GPa)
#
#
# Indices 1 2 3 4 5 6 
#
# 1 0.016092 -0.008219 0.000214 0.000000 -0.000465 0.000000
# 2 -0.008219 0.020333 -0.004358 0.000000 -0.019031 0.000000
# 3 0.000214 -0.004358 0.017955 0.000000 -0.007027 0.000000
# 4 0.000000 0.000000 0.000000 0.032338 0.000000 -0.004138
# 5 -0.000465 -0.019031 -0.007027 0.000000 0.068446 0.000000
# 6 0.000000 0.000000 0.000000 -0.004138 0.000000 0.023904
#
#
# Mechanical properties :
#
#
# Convention : Reuss Voigt Hill
#
# Bulk Modulus (GPa) = 33.72516 59.47083 46.59799
# Shear Modulus (GPa) = 23.39951 31.00559 27.20255
#
# Velocity S-wave (km/s) = 3.28693 3.78362 3.54399
# Velocity P-wave (km/s) = 5.47510 6.82249 6.18559
#
# Compressibility (1/GPa) = 0.02965146
#
# Stress axis : x y z
#
# Youngs Moduli (GPa) = 62.14209 49.18229 55.69536
#
# Poissons Ratio (x) = 0.40424 -0.01189
# Poissons Ratio (y) = 0.51076 0.24274
# Poissons Ratio (z) = -0.01327 0.21435
#
# Static dielectric constant tensor:
#      x y z
#    x 4.000470 0.000000 0.157160 
#    y 0.000000 4.505810 0.000000 
#    z 0.157160 0.000000 3.780630 
# 
# 
# High freq. dielectric constant tensor:
#      x y z
#    x 1.838430 0.000000 0.028480 
#    y 0.000000 1.864610 0.000000 
#    z 0.028480 0.000000 1.841360 
# 
# From -- ./inp_files/204332.got.cif
#   From: 2010.06.25/outbox.cif.g09.slc.cpg/sg15_103_cif.got.tgz:204332.got - 2010.06.28 07:06:18.
