data_PCOD8142647
_publ_section_title
;
Structure prediction by ZEFSAII (Michael W. Deem and Ramdas Pophale) SiO2 
 PCOD8142647
Probable space group: C 2/C
;
_chemical_formula_sum "Si O2"
_cell_formula_units_Z 48
_cell_length_a 16.210996
_cell_length_b 13.539820
_cell_length_c 30.014417
_cell_angle_alpha 90.000000
_cell_angle_beta 161.299469
_cell_angle_gamma 90.000000
_cell_volume 2112.250918
_symmetry_space_group_name_H-M "C 2/C"
_symmetry_group_IT_number 15
_symmetry_cell_setting 'monoclinic'
loop_
_space_group_symop_operation_xyz
x,y,z
-x,y,1/2-z
-x,-y,-z
x,-y,1/2+z
1/2+x,1/2+y,z
1/2-x,1/2+y,1/2-z
1/2-x,1/2-y,-z
1/2+x,1/2-y,1/2+z
loop_
_atom_site_type_symbol
_atom_site_label
_atom_site_fract_x
_atom_site_fract_y
_atom_site_fract_z
Si Si1 0.084058 0.921212 0.108943
Si Si2 0.748256 0.589028 0.143175
Si Si3 0.066589 0.305497 0.592261
Si Si4 0.075585 0.705688 0.579383
Si Si5 0.925187 0.104288 0.161692
Si Si6 0.577313 0.604357 0.875722
O O1 0.974801 0.938603 0.102071
O O2 0.162652 0.807482 0.143350
O O3 0.307749 0.001269 0.210033
O O4 0.879403 0.954229 0.967061
O O5 0.586770 0.675454 0.084997
O O6 0.000000 0.638505 0.250000
O O7 0.954655 0.334534 0.486495
O O8 0.832858 0.326613 0.506989
O O9 0.319440 0.367561 0.736103
O O10 0.333130 0.664217 0.733279
O O11 0.827807 0.668249 0.481005
O O12 0.000000 0.132075 0.250000
O O13 0.862493 0.989133 0.124708
#
# Coordination Sequence:
#
# PCOD8142647 Si02
#       6
#     8   8   8   8   8   8
#     4  10  24  39  60  89 118 156 203 252 299 355
#     4  10  22  43  65  85 117 163 206 247 303 366
#     4  10  21  40  61  85 121 163 199 244 303 360
#     4  10  21  39  63  89 119 158 203 248 299 358
#     4  10  22  38  59  88 124 160 198 247 303 358
#     4  12  22  37  61  92 123 156 200 249 299 358
#
# _framework density 22.724571999999998
#
# number of rings (size 3 to 8) (size 9 to 14) (size 15 to 20)
#    0.000    1.667    0.000    5.000    0.000   11.333 
#    0.000    1.667    0.000    0.000    0.000    0.000 
#    0.000    0.000    0.000    0.000    0.000    0.000 
#
# Total GULP energy -297424.490581 kJ/mol
# GULP energy per Si atom -12392.687108 kJ/mol
# Density = 2.267285 g / cm^3
# Si number density = 22.724572 Si / 1000 Ang^3
#
#
#
# Elastic Constant Matrix: (Units=GPa)
#
#
# Indices 1 2 3 4 5 6 
#
# 1 82.1497 36.1294 37.2200 0.0105 11.7274 -0.0140
# 2 36.1294 139.6619 55.9468 0.0223 11.2943 -0.0052
# 3 37.2200 55.9468 117.2843 0.0065 32.6019 -0.0133
# 4 0.0105 0.0223 0.0065 27.4948 -0.0356 9.9624
# 5 11.7274 11.2943 32.6019 -0.0356 22.1357 -0.0031
# 6 -0.0140 -0.0052 -0.0133 9.9624 -0.0031 28.5370
#
#
#
# Elastic Compliance Matrix: (Units=1/GPa)
#
#
# Indices 1 2 3 4 5 6 
#
# 1 0.014922 -0.002517 -0.002869 -0.000009 -0.002396 0.000008
# 2 -0.002517 0.009386 -0.004602 -0.000001 0.003323 -0.000001
# 3 -0.002869 -0.004602 0.017875 -0.000034 -0.022459 0.000016
# 4 -0.000009 -0.000001 -0.000034 0.041638 0.000121 -0.014536
# 5 -0.002396 0.003323 -0.022459 0.000121 0.077828 -0.000045
# 6 0.000008 -0.000001 0.000016 -0.014536 -0.000045 0.040117
#
#
# Mechanical properties :
#
#
# Convention : Reuss Voigt Hill
#
# Bulk Modulus (GPa) = 45.03101 66.40982 55.72041
# Shear Modulus (GPa) = 21.82040 29.62012 25.72026
#
# Velocity S-wave (km/s) = 3.10209 3.61424 3.36791
# Velocity P-wave (km/s) = 5.71749 6.83404 6.30055
#
# Compressibility (1/GPa) = 0.02220692
#
# Stress axis : x y z
#
# Youngs Moduli (GPa) = 67.01637 106.53924 55.94459
#
# Poissons Ratio (x) = 0.26819 0.16048
# Poissons Ratio (y) = 0.16870 0.25747
# Poissons Ratio (z) = 0.19224 0.49031
#
# Static dielectric constant tensor:
#      x y z
#    x 4.124610 0.000190 0.247190 
#    y 0.000190 3.939170 -0.000170 
#    z 0.247190 -0.000170 4.241770 
# 
# 
# High freq. dielectric constant tensor:
#      x y z
#    x 1.881270 0.000010 0.008370 
#    y 0.000010 1.903850 -0.000020 
#    z 0.008370 -0.000020 1.888860 
# 
# From -- ./inp_files/314152.got.cif
#   From: 2010.06.25/outbox.cif.g09.slc.cpg/sg15_158_cif.got.tgz:314152.got - 2010.06.28 07:06:18.
