data_PCOD8142318
_publ_section_title
;
Structure prediction by ZEFSAII (Michael W. Deem and Ramdas Pophale) SiO2 
 PCOD8142318
Probable space group: C 2/C
;
_chemical_formula_sum "Si O2"
_cell_formula_units_Z 56
_cell_length_a 15.486694
_cell_length_b 7.973774
_cell_length_c 24.237117
_cell_angle_alpha 90.000000
_cell_angle_beta 63.717985
_cell_angle_gamma 90.000000
_cell_volume 2683.580751
_symmetry_space_group_name_H-M "C 2/C"
_symmetry_group_IT_number 15
_symmetry_cell_setting 'monoclinic'
loop_
_space_group_symop_operation_xyz
x,y,z
-x,y,1/2-z
-x,-y,-z
x,-y,1/2+z
1/2+x,1/2+y,z
1/2-x,1/2+y,1/2-z
1/2-x,1/2-y,-z
1/2+x,1/2-y,1/2+z
loop_
_atom_site_type_symbol
_atom_site_label
_atom_site_fract_x
_atom_site_fract_y
_atom_site_fract_z
Si Si1 0.389572 0.181555 0.299025
Si Si2 0.611549 0.808842 0.217484
Si Si3 0.356105 0.516950 0.369202
Si Si4 0.980701 0.058609 0.095590
Si Si5 0.498647 0.249822 0.020952
Si Si6 0.690421 0.762975 0.314655
Si Si7 0.153995 0.537515 0.934434
O O1 0.500000 0.205799 0.250000
O O2 0.376335 0.320986 0.349963
O O3 0.304483 0.217636 0.278105
O O4 0.374352 0.985213 0.320417
O O5 0.500000 0.763995 0.250000
O O6 0.661598 0.645380 0.176732
O O7 0.654575 0.834502 0.266521
O O8 0.442692 0.596914 0.378652
O O9 0.255913 0.518327 0.431894
O O10 0.874584 0.103025 0.148275
O O11 0.984947 0.864390 0.078232
O O12 0.017822 0.160669 0.032548
O O13 0.419038 0.111827 0.050817
O O14 0.607104 0.175764 0.988338
O O15 0.674853 0.901003 0.366290
#
# Coordination Sequence:
#
# PCOD8142318 Si02
#       7
#     8   8   8   8   8   8   8
#     4  10  25  40  58  90 125 165 208 246 306 367
#     4  11  23  41  59  90 131 162 206 250 302 378
#     4  11  23  41  61  94 125 163 208 255 306 375
#     4  10  21  38  66  90 123 160 205 262 312 365
#     4   9  20  41  62  91 117 160 208 258 319 364
#     4  10  22  40  62  90 124 163 206 255 308 371
#     4   9  21  40  61  90 122 157 210 254 312 373
#
# _framework density 20.867640000000002
#
# number of rings (size 3 to 8) (size 9 to 14) (size 15 to 20)
#    0.000    2.000    1.429    0.429    6.000    3.429 
#    2.571    0.000    0.000    0.000    0.000    0.000 
#    0.000    0.000    0.000    0.000    0.000    0.000 
#
# Total GULP energy -346890.572378 kJ/mol
# GULP energy per Si atom -12388.949014 kJ/mol
# Density = 2.082014 g / cm^3
# Si number density = 20.867640 Si / 1000 Ang^3
#
#
#
# Elastic Constant Matrix: (Units=GPa)
#
#
# Indices 1 2 3 4 5 6 
#
# 1 140.9649 15.0038 40.7348 0.0000 -29.2379 0.0001
# 2 15.0038 106.3868 34.6027 0.0001 -16.8167 0.0004
# 3 40.7348 34.6027 61.8176 0.0000 -20.2008 0.0000
# 4 0.0000 0.0001 0.0000 20.2034 0.0000 -8.2737
# 5 -29.2379 -16.8167 -20.2008 0.0000 34.6394 0.0000
# 6 0.0001 0.0004 0.0000 -8.2737 0.0000 17.5741
#
#
#
# Elastic Compliance Matrix: (Units=1/GPa)
#
#
# Indices 1 2 3 4 5 6 
#
# 1 0.009644 0.001226 -0.005173 0.000000 0.005719 0.000000
# 2 0.001226 0.011793 -0.006424 0.000000 0.003014 0.000000
# 3 -0.005173 -0.006424 0.025617 0.000000 0.007454 0.000000
# 4 0.000000 0.000000 0.000000 0.061319 0.000000 0.028868
# 5 0.005719 0.003014 0.007454 0.000000 0.039507 0.000000
# 6 0.000000 0.000000 0.000000 0.028868 0.000000 0.070493
#
#
# Mechanical properties :
#
#
# Convention : Reuss Voigt Hill
#
# Bulk Modulus (GPa) = 38.00411 54.42798 46.21605
# Shear Modulus (GPa) = 20.17066 29.07191 24.62129
#
# Velocity S-wave (km/s) = 3.11239 3.73655 3.43866
# Velocity P-wave (km/s) = 5.58279 6.68991 6.16126
#
# Compressibility (1/GPa) = 0.02631295
#
# Stress axis : x y z
#
# Youngs Moduli (GPa) = 103.68647 84.79893 39.03634
#
# Poissons Ratio (x) = -0.10399 0.20192
# Poissons Ratio (y) = -0.12716 0.25078
# Poissons Ratio (z) = 0.53634 0.54477
#
# Static dielectric constant tensor:
#      x y z
#    x 3.996860 0.000000 -0.319240 
#    y 0.000000 4.014830 0.000000 
#    z -0.319240 0.000000 3.674780 
# 
# 
# High freq. dielectric constant tensor:
#      x y z
#    x 1.823830 0.000000 -0.023340 
#    y 0.000000 1.830450 0.000000 
#    z -0.023340 0.000000 1.794070 
# 
# From -- ./inp_files/295074.got.cif
#   From: 2010.06.25/outbox.cif.g09.slc.cpg/sg15_148_cif.got.tgz:295074.got - 2010.06.28 07:06:18.
