data_PCOD8142858
_publ_section_title
;
Structure prediction by ZEFSAII (Michael W. Deem and Ramdas Pophale) SiO2 
 PCOD8142858
Probable space group: C 2/C
;
_chemical_formula_sum "Si O2"
_cell_formula_units_Z 40
_cell_length_a 9.484534
_cell_length_b 20.798262
_cell_length_c 16.703092
_cell_angle_alpha 90.000000
_cell_angle_beta 35.405777
_cell_angle_gamma 90.000000
_cell_volume 1908.934115
_symmetry_space_group_name_H-M "C 2/C"
_symmetry_group_IT_number 15
_symmetry_cell_setting 'monoclinic'
loop_
_space_group_symop_operation_xyz
x,y,z
-x,y,1/2-z
-x,-y,-z
x,-y,1/2+z
1/2+x,1/2+y,z
1/2-x,1/2+y,1/2-z
1/2-x,1/2-y,-z
1/2+x,1/2-y,1/2+z
loop_
_atom_site_type_symbol
_atom_site_label
_atom_site_fract_x
_atom_site_fract_y
_atom_site_fract_z
Si Si1 0.755913 0.753744 0.092316
Si Si2 0.500000 0.438314 0.250000
Si Si3 0.288669 0.610082 0.535836
Si Si4 0.501889 0.126973 0.513125
Si Si5 0.500000 0.992974 0.250000
Si Si6 0.710334 0.450126 0.748591
O O1 0.500000 0.734790 0.250000
O O2 0.823136 0.828126 0.078925
O O3 0.952997 0.701633 0.033434
O O4 0.750000 0.750000 0.000000
O O5 0.428269 0.483598 0.208377
O O6 0.275235 0.392156 0.377080
O O7 0.062103 0.618852 0.579423
O O8 0.532497 0.600629 0.372515
O O9 0.233381 0.550172 0.618774
O O10 0.683080 0.079777 0.381735
O O11 0.568978 0.037127 0.292971
#
# Coordination Sequence:
#
# PCOD8142858 Si02
#       6
#     8   4   8   8   4   8
#     4  10  21  39  66  95 127 167 224 273 316 387
#     4  12  22  38  66  92 136 164 216 264 320 388
#     4  11  21  40  65  94 129 169 217 268 325 381
#     4  11  22  40  65  95 125 174 219 265 321 389
#     4  12  24  38  60  98 138 164 210 266 338 378
#     4  12  23  41  65  96 131 173 213 267 324 395
#
# _framework density 20.954103
#
# number of rings (size 3 to 8) (size 9 to 14) (size 15 to 20)
#    0.000    0.800    5.000    4.800    0.000    0.000 
#    0.000    1.000    0.000   13.200    0.000    0.000 
#    0.000    0.000    0.000    0.000    0.000    0.000 
#
# Total GULP energy -247995.597270 kJ/mol
# GULP energy per Si atom -12399.779863 kJ/mol
# Density = 2.090641 g / cm^3
# Si number density = 20.954103 Si / 1000 Ang^3
#
#
#
# Elastic Constant Matrix: (Units=GPa)
#
#
# Indices 1 2 3 4 5 6 
#
# 1 66.7101 42.4304 12.6746 0.0001 -3.0244 -0.0011
# 2 42.4304 116.6680 53.5888 0.0026 -17.1877 -0.0003
# 3 12.6746 53.5888 137.3803 0.0067 -5.1792 0.0029
# 4 0.0001 0.0026 0.0067 39.4738 0.0027 2.3596
# 5 -3.0244 -17.1877 -5.1792 0.0027 31.1084 0.0000
# 6 -0.0011 -0.0003 0.0029 2.3596 0.0000 20.5511
#
#
#
# Elastic Compliance Matrix: (Units=1/GPa)
#
#
# Indices 1 2 3 4 5 6 
#
# 1 0.019816 -0.008130 0.001254 0.000000 -0.002357 0.000001
# 2 -0.008130 0.014658 -0.004722 -0.000001 0.006522 0.000001
# 3 0.001254 -0.004722 0.008968 -0.000001 -0.000994 -0.000001
# 4 0.000000 -0.000001 -0.000001 0.025508 -0.000003 -0.002929
# 5 -0.002357 0.006522 -0.000994 -0.000003 0.035355 0.000000
# 6 0.000001 0.000001 -0.000001 -0.002929 0.000000 0.048995
#
#
# Mechanical properties :
#
#
# Convention : Reuss Voigt Hill
#
# Bulk Modulus (GPa) = 49.39102 59.79398 54.59250
# Shear Modulus (GPa) = 27.28605 32.36433 29.82519
#
# Velocity S-wave (km/s) = 3.61249 3.93432 3.77683
# Velocity P-wave (km/s) = 6.40487 7.01685 6.71783
#
# Compressibility (1/GPa) = 0.02024659
#
# Stress axis : x y z
#
# Youngs Moduli (GPa) = 50.46381 68.22323 111.51147
#
# Poissons Ratio (x) = 0.55467 -0.13987
# Poissons Ratio (y) = 0.41028 0.52652
# Poissons Ratio (z) = -0.06330 0.32213
#
# Static dielectric constant tensor:
#      x y z
#    x 3.508640 0.000000 0.119160 
#    y 0.000000 4.528360 0.000020 
#    z 0.119160 0.000020 3.729910 
# 
# 
# High freq. dielectric constant tensor:
#      x y z
#    x 1.789100 0.000000 0.019390 
#    y 0.000000 1.829270 0.000000 
#    z 0.019390 0.000000 1.825850 
# 
# From -- ./inp_files/23558.got.cif
#   From: 2010.06.25/outbox.cif.g09.slc.cpg/sg15_12_cif.got.tgz:23558.got - 2010.06.28 07:06:18.
