data_PCOD8142085
_publ_section_title
;
Structure prediction by ZEFSAII (Michael W. Deem and Ramdas Pophale) SiO2 
 PCOD8142085
Probable space group: C 2/C
;
_chemical_formula_sum "Si O2"
_cell_formula_units_Z 52
_cell_length_a 16.182184
_cell_length_b 14.018656
_cell_length_c 11.521954
_cell_angle_alpha 90.000000
_cell_angle_beta 70.654273
_cell_angle_gamma 90.000000
_cell_volume 2466.201328
_symmetry_space_group_name_H-M "C 2/C"
_symmetry_group_IT_number 15
_symmetry_cell_setting 'monoclinic'
loop_
_space_group_symop_operation_xyz
x,y,z
-x,y,1/2-z
-x,-y,-z
x,-y,1/2+z
1/2+x,1/2+y,z
1/2-x,1/2+y,1/2-z
1/2-x,1/2-y,-z
1/2+x,1/2-y,1/2+z
loop_
_atom_site_type_symbol
_atom_site_label
_atom_site_fract_x
_atom_site_fract_y
_atom_site_fract_z
Si Si1 0.752022 0.132216 0.205706
Si Si2 0.000000 0.774095 0.750000
Si Si3 0.088916 0.291424 0.648268
Si Si4 0.596103 0.578289 0.688214
Si Si5 0.728326 0.585319 0.821908
Si Si6 0.329661 0.387248 0.908705
Si Si7 0.376217 0.798186 0.122537
O O1 0.664686 0.182046 0.202301
O O2 0.757752 0.134542 0.343275
O O3 0.834355 0.193432 0.121367
O O4 0.753014 0.024963 0.158563
O O5 0.078567 0.835645 0.659158
O O6 0.038019 0.708346 0.835990
O O7 0.089712 0.178073 0.623960
O O8 0.099005 0.339688 0.516368
O O9 0.000000 0.326320 0.750000
O O10 0.500000 0.534392 0.750000
O O11 0.638173 0.595696 0.794558
O O12 0.653100 0.501249 0.591801
O O13 0.807971 0.630473 0.714013
O O14 0.714003 0.642674 0.949046
#
# Coordination Sequence:
#
# PCOD8142085 Si02
#       7
#     8   4   8   8   8   8   8
#     4  10  23  42  64  94 125 165 211 260 300 378
#     4  10  24  40  62  96 130 162 204 264 306 374
#     4  11  24  41  66  90 127 166 210 257 311 370
#     4  10  21  38  62 101 123 164 200 257 319 371
#     4  11  24  39  67  91 126 174 204 256 315 367
#     4  10  22  40  63  95 130 160 209 254 320 369
#     4  11  24  43  64  93 129 164 210 258 311 371
#
# _framework density 21.085059000000001
#
# number of rings (size 3 to 8) (size 9 to 14) (size 15 to 20)
#    0.000    1.538    2.308    1.385    8.615    4.308 
#    1.385    0.769    0.000    0.000    0.000    0.000 
#    0.000    0.000    0.000    0.000    0.000    0.000 
#
# Total GULP energy -322365.063339 kJ/mol
# GULP energy per Si atom -12398.656282 kJ/mol
# Density = 2.103707 g / cm^3
# Si number density = 21.085059 Si / 1000 Ang^3
#
#
#
# Elastic Constant Matrix: (Units=GPa)
#
#
# Indices 1 2 3 4 5 6 
#
# 1 154.3670 22.3351 68.0443 0.0000 12.3958 0.0000
# 2 22.3351 60.1656 25.3653 0.0000 -6.2775 0.0000
# 3 68.0443 25.3653 175.3104 0.0000 -1.6030 0.0000
# 4 0.0000 0.0000 0.0000 21.3997 0.0000 2.6695
# 5 12.3958 -6.2775 -1.6030 0.0000 21.1861 0.0000
# 6 0.0000 0.0000 0.0000 2.6695 0.0000 29.8156
#
#
#
# Elastic Compliance Matrix: (Units=1/GPa)
#
#
# Indices 1 2 3 4 5 6 
#
# 1 0.008684 -0.002570 -0.003054 0.000000 -0.006073 0.000000
# 2 -0.002570 0.019019 -0.001690 0.000000 0.007011 0.000000
# 3 -0.003054 -0.001690 0.007151 0.000000 0.001827 0.000000
# 4 0.000000 0.000000 0.000000 0.047257 0.000000 -0.004231
# 5 -0.006073 0.007011 0.001827 0.000000 0.052970 0.000000
# 6 0.000000 0.000000 0.000000 -0.004231 0.000000 0.033918
#
#
# Mechanical properties :
#
#
# Convention : Reuss Voigt Hill
#
# Bulk Modulus (GPa) = 49.44348 69.03694 59.24021
# Shear Modulus (GPa) = 26.26472 32.75349 29.50910
#
# Velocity S-wave (km/s) = 3.53321 3.94559 3.74508
# Velocity P-wave (km/s) = 6.33603 7.31916 6.84527
#
# Compressibility (1/GPa) = 0.02022511
#
# Stress axis : x y z
#
# Youngs Moduli (GPa) = 115.15609 52.57940 139.84245
#
# Poissons Ratio (x) = 0.13511 0.42711
# Poissons Ratio (y) = 0.29592 0.23638
# Poissons Ratio (z) = 0.35172 0.08887
#
# Static dielectric constant tensor:
#      x y z
#    x 3.826540 0.000000 0.182760 
#    y 0.000000 3.754690 0.000000 
#    z 0.182760 0.000000 3.745560 
# 
# 
# High freq. dielectric constant tensor:
#      x y z
#    x 1.828180 0.000000 0.012420 
#    y 0.000000 1.813120 0.000000 
#    z 0.012420 0.000000 1.826700 
# 
# From -- ./inp_files/96940.got.cif
#   From: 2010.06.25/outbox.cif.g09.slc.cpg/sg15_49_cif.got.tgz:96940.got - 2010.06.28 07:06:18.
