data_PCOD8142565
_publ_section_title
;
Structure prediction by ZEFSAII (Michael W. Deem and Ramdas Pophale) SiO2 
 PCOD8142565
Probable space group: C 2/C
;
_chemical_formula_sum "Si O2"
_cell_formula_units_Z 56
_cell_length_a 18.123899
_cell_length_b 9.464919
_cell_length_c 25.896071
_cell_angle_alpha 90.000000
_cell_angle_beta 38.363382
_cell_angle_gamma 90.000000
_cell_volume 2757.064501
_symmetry_space_group_name_H-M "C 2/C"
_symmetry_group_IT_number 15
_symmetry_cell_setting 'monoclinic'
loop_
_space_group_symop_operation_xyz
x,y,z
-x,y,1/2-z
-x,-y,-z
x,-y,1/2+z
1/2+x,1/2+y,z
1/2-x,1/2+y,1/2-z
1/2-x,1/2-y,-z
1/2+x,1/2-y,1/2+z
loop_
_atom_site_type_symbol
_atom_site_label
_atom_site_fract_x
_atom_site_fract_y
_atom_site_fract_z
Si Si1 0.255089 0.989319 0.323673
Si Si2 0.092740 0.015239 0.820571
Si Si3 0.639036 0.827316 0.036853
Si Si4 0.948918 0.719933 0.224008
Si Si5 0.816269 0.395947 0.951675
Si Si6 0.554359 0.242144 0.776703
Si Si7 0.124823 0.052647 0.991771
O O1 0.212316 0.007828 0.288189
O O2 0.322545 0.841755 0.294061
O O3 0.135999 0.984858 0.425039
O O4 0.339284 0.116613 0.295049
O O5 0.102044 0.159123 0.784241
O O6 0.080506 0.895825 0.784610
O O7 0.981178 0.025615 0.920559
O O8 0.534242 0.838320 0.136388
O O9 0.670846 0.992930 0.006202
O O10 0.750000 0.750000 0.000000
O O11 0.605355 0.724326 0.007541
O O12 0.000000 0.780594 0.250000
O O13 0.052237 0.635224 0.139163
O O14 0.747655 0.491133 0.947608
O O15 0.750000 0.250000 0.000000
O O16 0.500000 0.258915 0.750000
#
# Coordination Sequence:
#
# PCOD8142565 Si02
#       7
#     8   8   8   8   8   8   8
#     4  12  23  41  64  90 126 163 207 250 312 369
#     4  11  25  41  60  92 129 164 197 257 314 369
#     4   9  19  34  58  91 119 153 202 255 295 353
#     4  12  23  40  65  94 122 159 210 257 309 359
#     4  11  19  36  62  92 121 156 203 262 303 354
#     4  11  21  39  64  89 119 160 211 250 298 364
#     4  10  21  39  62  87 120 167 210 242 302 376
#
# _framework density 20.311457000000001
#
# number of rings (size 3 to 8) (size 9 to 14) (size 15 to 20)
#    0.000    1.143    4.286    3.857    0.000    0.000 
#    2.571    0.000    0.000    0.857    0.000    0.000 
#    0.000    0.000    0.000    0.000    0.000    0.000 
#
# Total GULP energy -346993.472904 kJ/mol
# GULP energy per Si atom -12392.624032 kJ/mol
# Density = 2.026523 g / cm^3
# Si number density = 20.311457 Si / 1000 Ang^3
#
#
#
# Elastic Constant Matrix: (Units=GPa)
#
#
# Indices 1 2 3 4 5 6 
#
# 1 94.9114 25.4899 13.4189 0.0000 4.1061 -0.0003
# 2 25.4899 135.1081 40.6961 0.0000 12.6012 -0.0009
# 3 13.4189 40.6961 88.7170 0.0000 4.3355 0.0000
# 4 0.0000 0.0000 0.0000 20.0183 0.0000 0.7211
# 5 4.1061 12.6012 4.3355 0.0000 19.0341 -0.0003
# 6 -0.0003 -0.0009 0.0000 0.7211 -0.0003 15.9204
#
#
#
# Elastic Compliance Matrix: (Units=1/GPa)
#
#
# Indices 1 2 3 4 5 6 
#
# 1 0.011172 -0.001759 -0.000831 0.000000 -0.001056 0.000000
# 2 -0.001759 0.009330 -0.003773 0.000000 -0.004938 0.000000
# 3 -0.000831 -0.003773 0.013144 0.000000 -0.000317 0.000000
# 4 0.000000 0.000000 0.000000 0.050036 0.000000 -0.002266
# 5 -0.001056 -0.004938 -0.000317 0.000000 0.056107 0.000001
# 6 0.000000 0.000000 0.000000 -0.002266 0.000001 0.062915
#
#
# Mechanical properties :
#
#
# Convention : Reuss Voigt Hill
#
# Bulk Modulus (GPa) = 47.80099 53.10512 50.45306
# Shear Modulus (GPa) = 22.48184 26.93668 24.70926
#
# Velocity S-wave (km/s) = 3.33055 3.64563 3.49165
# Velocity P-wave (km/s) = 6.19477 6.62744 6.41476
#
# Compressibility (1/GPa) = 0.02092007
#
# Stress axis : x y z
#
# Youngs Moduli (GPa) = 89.51171 107.17867 76.08266
#
# Poissons Ratio (x) = 0.18850 0.06325
# Poissons Ratio (y) = 0.15743 0.28703
# Poissons Ratio (z) = 0.07442 0.40434
#
# Static dielectric constant tensor:
#      x y z
#    x 3.616810 0.000000 -0.034820 
#    y 0.000000 4.030220 0.000000 
#    z -0.034820 0.000000 3.903840 
# 
# 
# High freq. dielectric constant tensor:
#      x y z
#    x 1.774830 0.000000 -0.011530 
#    y 0.000000 1.803270 0.000000 
#    z -0.011530 0.000000 1.795380 
# 
# From -- ./inp_files/298507.got.cif
#   From: 2010.06.25/outbox.cif.g09.slc.cpg/sg15_150_cif.got.tgz:298507.got - 2010.06.28 07:06:18.
