data_PCOD8142922
_publ_section_title
;
Structure prediction by ZEFSAII (Michael W. Deem and Ramdas Pophale) SiO2 
 PCOD8142922
Probable space group: C 2/C
;
_chemical_formula_sum "Si O2"
_cell_formula_units_Z 48
_cell_length_a 15.142899
_cell_length_b 35.153176
_cell_length_c 5.243221
_cell_angle_alpha 90.000000
_cell_angle_beta 59.061853
_cell_angle_gamma 90.000000
_cell_volume 2393.970060
_symmetry_space_group_name_H-M "C 2/C"
_symmetry_group_IT_number 15
_symmetry_cell_setting 'monoclinic'
loop_
_space_group_symop_operation_xyz
x,y,z
-x,y,1/2-z
-x,-y,-z
x,-y,1/2+z
1/2+x,1/2+y,z
1/2-x,1/2+y,1/2-z
1/2-x,1/2-y,-z
1/2+x,1/2-y,1/2+z
loop_
_atom_site_type_symbol
_atom_site_label
_atom_site_fract_x
_atom_site_fract_y
_atom_site_fract_z
Si Si1 0.213359 0.896077 0.959406
Si Si2 0.297508 0.279450 0.121020
Si Si3 0.104718 0.714386 0.242139
Si Si4 0.879596 0.141143 0.401986
Si Si5 0.381043 0.523485 0.931969
Si Si6 0.564334 0.866469 0.915913
O O1 0.158340 0.880436 0.790268
O O2 0.335854 0.892563 0.758086
O O3 0.175167 0.873917 0.264196
O O4 0.189584 0.940430 0.018587
O O5 0.204861 0.295718 0.427222
O O6 0.382477 0.255185 0.145522
O O7 0.250000 0.250000 0.000000
O O8 0.354580 0.314286 0.900194
O O9 0.095485 0.677359 0.437953
O O10 0.000000 0.719423 0.250000
O O11 0.000000 0.134275 0.250000
O O12 0.500000 0.536148 0.750000
O O13 0.355583 0.493254 0.748058
O O14 0.500000 0.868076 0.750000
O O15 0.500000 0.882582 0.250000
#
# Coordination Sequence:
#
# PCOD8142922 Si02
#       6
#     8   8   8   8   8   8
#     4  12  24  45  66  97 132 166 209 261 318 378
#     4  11  25  40  57  88 120 165 216 267 327 377
#     4  10  24  40  61  82 118 166 218 275 314 373
#     4  12  26  40  63  92 130 170 209 263 324 385
#     4  10  21  39  67  99 130 165 203 243 306 388
#     4  11  24  42  67  92 122 169 225 272 317 368
#
# _framework density 20.050374999999999
#
# number of rings (size 3 to 8) (size 9 to 14) (size 15 to 20)
#    0.000    1.000    1.667    4.500   11.667    1.333 
#    0.000    0.000    0.000    3.000    0.000    0.000 
#    0.000    0.000    0.000    0.000    0.000    0.000 
#
# Total GULP energy -297636.554009 kJ/mol
# GULP energy per Si atom -12401.523084 kJ/mol
# Density = 2.000474 g / cm^3
# Si number density = 20.050375 Si / 1000 Ang^3
#
#
#
# Elastic Constant Matrix: (Units=GPa)
#
#
# Indices 1 2 3 4 5 6 
#
# 1 115.1575 43.4717 45.8972 0.0000 -11.2081 0.0000
# 2 43.4717 102.7858 29.3073 0.0000 -12.3390 0.0000
# 3 45.8972 29.3073 117.5980 0.0000 0.9644 0.0000
# 4 0.0000 0.0000 0.0000 25.0009 0.0000 -0.8754
# 5 -11.2081 -12.3390 0.9644 0.0000 39.3394 0.0000
# 6 0.0000 0.0000 0.0000 -0.8754 0.0000 35.8502
#
#
#
# Elastic Compliance Matrix: (Units=1/GPa)
#
#
# Indices 1 2 3 4 5 6 
#
# 1 0.011757 -0.003642 -0.003700 0.000000 0.002298 0.000000
# 2 -0.003642 0.012062 -0.001608 0.000000 0.002785 0.000000
# 3 -0.003700 -0.001608 0.010363 0.000000 -0.001812 0.000000
# 4 0.000000 0.000000 0.000000 0.040033 0.000000 0.000978
# 5 0.002298 0.002785 -0.001812 0.000000 0.026993 0.000000
# 6 0.000000 0.000000 0.000000 0.000978 0.000000 0.027918
#
#
# Mechanical properties :
#
#
# Convention : Reuss Voigt Hill
#
# Bulk Modulus (GPa) = 61.41116 63.65487 62.53302
# Shear Modulus (GPa) = 32.79753 34.49575 33.64664
#
# Velocity S-wave (km/s) = 4.04884 4.15234 4.10091
# Velocity P-wave (km/s) = 7.24930 7.40308 7.32659
#
# Compressibility (1/GPa) = 0.01628368
#
# Stress axis : x y z
#
# Youngs Moduli (GPa) = 85.05789 82.90625 96.49663
#
# Poissons Ratio (x) = 0.30190 0.35702
# Poissons Ratio (y) = 0.30974 0.15513
# Poissons Ratio (z) = 0.31470 0.13328
#
# Static dielectric constant tensor:
#      x y z
#    x 3.696220 0.000000 -0.152290 
#    y 0.000000 2.792780 0.000000 
#    z -0.152290 0.000000 3.518130 
# 
# 
# High freq. dielectric constant tensor:
#      x y z
#    x 1.793320 0.000000 0.001870 
#    y 0.000000 1.773250 0.000000 
#    z 0.001870 0.000000 1.791320 
# 
# From -- ./inp_files/8948.got.cif
#   From: 2010.06.25/outbox.cif.g09.slc.cpg/sg15_5_cif.got.tgz:8948.got - 2010.06.28 07:06:18.
