data_PCOD8142737
_publ_section_title
;
Structure prediction by ZEFSAII (Michael W. Deem and Ramdas Pophale) SiO2 
 PCOD8142737
Probable space group: C 2/C
;
_chemical_formula_sum "Si O2"
_cell_formula_units_Z 52
_cell_length_a 18.349351
_cell_length_b 28.806155
_cell_length_c 5.088699
_cell_angle_alpha 90.000000
_cell_angle_beta 60.965229
_cell_angle_gamma 90.000000
_cell_volume 2351.721150
_symmetry_space_group_name_H-M "C 2/C"
_symmetry_group_IT_number 15
_symmetry_cell_setting 'monoclinic'
loop_
_space_group_symop_operation_xyz
x,y,z
-x,y,1/2-z
-x,-y,-z
x,-y,1/2+z
1/2+x,1/2+y,z
1/2-x,1/2+y,1/2-z
1/2-x,1/2-y,-z
1/2+x,1/2-y,1/2+z
loop_
_atom_site_type_symbol
_atom_site_label
_atom_site_fract_x
_atom_site_fract_y
_atom_site_fract_z
Si Si1 0.576638 0.692257 0.780434
Si Si2 0.903937 0.528596 0.411092
Si Si3 0.764945 0.409295 0.306127
Si Si4 0.383201 0.470266 0.903925
Si Si5 0.806006 0.259499 0.655895
Si Si6 0.500000 0.612611 0.250000
Si Si7 0.758440 0.850587 0.655106
O O1 0.500000 0.715870 0.750000
O O2 0.609485 0.728536 0.951581
O O3 0.653626 0.677052 0.456318
O O4 0.539009 0.644933 0.960030
O O5 0.880028 0.488678 0.662602
O O6 0.858127 0.576506 0.563657
O O7 0.000000 0.541771 0.250000
O O8 0.713478 0.457436 0.389997
O O9 0.754132 0.392049 0.621348
O O10 0.736807 0.369575 0.151040
O O11 0.409008 0.494589 0.129518
O O12 0.428222 0.421297 0.766569
O O13 0.750000 0.250000 0.500000
O O14 0.819608 0.315391 0.651647
O O15 0.750000 0.250000 0.000000
#
# Coordination Sequence:
#
# PCOD8142737 Si02
#       7
#     8   8   8   8   8   4   8
#     4  11  25  42  70  99 134 184 238 291 339 421
#     4  10  21  39  64  93 125 163 217 276 332 404
#     4  12  22  41  68  94 131 177 227 269 349 419
#     4  12  26  42  61  92 138 183 231 287 339 395
#     4  10  23  43  68  96 129 168 223 280 347 397
#     4  12  26  42  66  94 140 186 242 286 344 404
#     4  11  23  42  67  98 131 174 222 284 334 421
#
# _framework density 22.111467000000001
#
# number of rings (size 3 to 8) (size 9 to 14) (size 15 to 20)
#    0.000    0.923    1.538    6.000    6.462    0.000 
#    0.000    0.769    0.000    0.000    0.000    0.000 
#    0.000    0.000    0.000    0.000    0.000    0.000 
#
# Total GULP energy -322191.122304 kJ/mol
# GULP energy per Si atom -12391.966242 kJ/mol
# Density = 2.206114 g / cm^3
# Si number density = 22.111467 Si / 1000 Ang^3
#
#
#
# Elastic Constant Matrix: (Units=GPa)
#
#
# Indices 1 2 3 4 5 6 
#
# 1 112.4827 52.6479 37.9216 0.0000 -1.6473 0.0000
# 2 52.6479 97.3299 37.0214 0.0000 -8.2470 0.0000
# 3 37.9216 37.0214 103.1452 0.0000 8.6226 0.0000
# 4 0.0000 0.0000 0.0000 35.1553 0.0000 -3.1555
# 5 -1.6473 -8.2470 8.6226 0.0000 33.7328 0.0000
# 6 0.0000 0.0000 0.0000 -3.1555 0.0000 32.4266
#
#
#
# Elastic Compliance Matrix: (Units=1/GPa)
#
#
# Indices 1 2 3 4 5 6 
#
# 1 0.012438 -0.005801 -0.002476 0.000000 -0.000178 0.000000
# 2 -0.005801 0.015183 -0.003682 0.000000 0.004370 0.000000
# 3 -0.002476 -0.003682 0.012274 0.000000 -0.004159 0.000000
# 4 0.000000 0.000000 0.000000 0.028696 0.000000 0.002792
# 5 -0.000178 0.004370 -0.004159 0.000000 0.031767 0.000000
# 6 0.000000 0.000000 0.000000 0.002792 0.000000 0.031111
#
#
# Mechanical properties :
#
#
# Convention : Reuss Voigt Hill
#
# Bulk Modulus (GPa) = 62.58851 63.12663 62.85757
# Shear Modulus (GPa) = 31.11145 32.62075 31.86610
#
# Velocity S-wave (km/s) = 3.75511 3.84511 3.80038
# Velocity P-wave (km/s) = 6.86793 6.95158 6.90988
#
# Compressibility (1/GPa) = 0.01597737
#
# Stress axis : x y z
#
# Youngs Moduli (GPa) = 80.40189 65.86252 81.46984
#
# Poissons Ratio (x) = 0.38208 0.20169
# Poissons Ratio (y) = 0.46642 0.29998
# Poissons Ratio (z) = 0.19904 0.24251
#
# Static dielectric constant tensor:
#      x y z
#    x 4.636640 0.000000 -0.146020 
#    y 0.000000 4.847270 0.000000 
#    z -0.146020 0.000000 4.009060 
# 
# 
# High freq. dielectric constant tensor:
#      x y z
#    x 1.860980 0.000000 0.005190 
#    y 0.000000 1.868630 0.000000 
#    z 0.005190 0.000000 1.878050 
# 
# From -- ./inp_files/11434.got.cif
#   From: 2010.06.25/outbox.cif.g09.slc.cpg/sg15_6_cif.got.tgz:11434.got - 2010.06.28 07:06:18.
