data_PCOD8142753
_publ_section_title
;
Structure prediction by ZEFSAII (Michael W. Deem and Ramdas Pophale) SiO2 
 PCOD8142753
Probable space group: C 2/C
;
_chemical_formula_sum "Si O2"
_cell_formula_units_Z 64
_cell_length_a 27.232492
_cell_length_b 19.595257
_cell_length_c 13.974771
_cell_angle_alpha 90.000000
_cell_angle_beta 157.375401
_cell_angle_gamma 90.000000
_cell_volume 2868.770530
_symmetry_space_group_name_H-M "C 2/C"
_symmetry_group_IT_number 15
_symmetry_cell_setting 'monoclinic'
loop_
_space_group_symop_operation_xyz
x,y,z
-x,y,1/2-z
-x,-y,-z
x,-y,1/2+z
1/2+x,1/2+y,z
1/2-x,1/2+y,1/2-z
1/2-x,1/2-y,-z
1/2+x,1/2-y,1/2+z
loop_
_atom_site_type_symbol
_atom_site_label
_atom_site_fract_x
_atom_site_fract_y
_atom_site_fract_z
Si Si1 0.878665 0.696463 0.098925
Si Si2 0.602874 0.562254 0.007228
Si Si3 0.224003 0.673636 0.253784
Si Si4 0.387663 0.248318 0.613562
Si Si5 0.298785 0.421294 0.277721
Si Si6 0.747063 0.119910 0.894834
Si Si7 0.494258 0.827301 0.003441
Si Si8 0.533713 0.422324 0.579141
O O1 0.925922 0.709099 0.291325
O O2 0.000000 0.702629 0.250000
O O3 0.775209 0.753939 0.885728
O O4 0.818869 0.619751 0.981482
O O5 0.670595 0.615905 0.060266
O O6 0.694972 0.504194 0.221179
O O7 0.539841 0.606629 0.981316
O O8 0.500000 0.527182 0.750000
O O9 0.166575 0.684048 0.043907
O O10 0.116513 0.641005 0.129620
O O11 0.500000 0.281618 0.750000
O O12 0.273735 0.300355 0.426710
O O13 0.435421 0.228770 0.804749
O O14 0.288054 0.416358 0.371907
O O15 0.426326 0.389485 0.456086
O O16 0.596143 0.115585 0.650105
O O17 0.827899 0.086848 0.125077
O O18 0.500000 0.500000 0.500000
#
# Coordination Sequence:
#
# PCOD8142753 Si02
#       8
#     8   8   8   8   8   8   8   8
#     4  12  24  46  68 103 142 182 233 286 349 416
#     4  11  25  45  68  99 135 179 230 286 346 405
#     4  11  24  45  69 100 145 181 228 286 345 413
#     4  10  21  39  64  98 134 178 226 277 337 402
#     4  11  23  44  70  98 135 176 233 283 341 413
#     4  12  21  41  70  98 138 176 230 283 335 415
#     4  11  25  40  65 103 138 180 228 276 356 406
#     4  10  23  41  68 100 127 173 231 288 342 402
#
# _framework density 22.309208999999999
#
# number of rings (size 3 to 8) (size 9 to 14) (size 15 to 20)
#    0.000    1.000    2.500    4.500    3.500    2.000 
#    0.000    5.000    0.000    0.000    0.000    0.000 
#    0.000    0.000    0.000    0.000    0.000    0.000 
#
# Total GULP energy -396508.178105 kJ/mol
# GULP energy per Si atom -12390.880566 kJ/mol
# Density = 2.225843 g / cm^3
# Si number density = 22.309209 Si / 1000 Ang^3
#
#
#
# Elastic Constant Matrix: (Units=GPa)
#
#
# Indices 1 2 3 4 5 6 
#
# 1 166.5968 34.1582 59.0444 0.0000 2.5021 0.0000
# 2 34.1582 69.1784 27.6878 0.0000 6.7684 0.0000
# 3 59.0444 27.6878 107.8160 0.0000 -2.0882 0.0000
# 4 0.0000 0.0000 0.0000 23.8745 0.0000 1.9433
# 5 2.5021 6.7684 -2.0882 0.0000 50.2312 0.0000
# 6 0.0000 0.0000 0.0000 1.9433 0.0000 27.2178
#
#
#
# Elastic Compliance Matrix: (Units=1/GPa)
#
#
# Indices 1 2 3 4 5 6 
#
# 1 0.007788 -0.002357 -0.003664 0.000000 -0.000223 0.000000
# 2 -0.002357 0.017106 -0.003147 0.000000 -0.002318 0.000000
# 3 -0.003664 -0.003147 0.012111 0.000000 0.001110 0.000000
# 4 0.000000 0.000000 0.000000 0.042130 0.000000 -0.003008
# 5 -0.000223 -0.002318 0.001110 0.000000 0.020278 0.000000
# 6 0.000000 0.000000 0.000000 -0.003008 0.000000 0.036955
#
#
# Mechanical properties :
#
#
# Convention : Reuss Voigt Hill
#
# Bulk Modulus (GPa) = 53.56544 65.04134 59.30339
# Shear Modulus (GPa) = 31.07011 35.11143 33.09077
#
# Velocity S-wave (km/s) = 3.73594 3.97149 3.85551
# Velocity P-wave (km/s) = 6.53240 7.08859 6.81617
#
# Compressibility (1/GPa) = 0.01866875
#
# Stress axis : x y z
#
# Youngs Moduli (GPa) = 128.40817 58.46053 82.56856
#
# Poissons Ratio (x) = 0.13780 0.30252
# Poissons Ratio (y) = 0.30268 0.25983
# Poissons Ratio (z) = 0.47046 0.18397
#
# Static dielectric constant tensor:
#      x y z
#    x 3.743680 0.000000 0.329340 
#    y 0.000000 3.579730 0.000000 
#    z 0.329340 0.000000 4.030350 
# 
# 
# High freq. dielectric constant tensor:
#      x y z
#    x 1.914470 0.000000 -0.000350 
#    y 0.000000 1.839630 0.000000 
#    z -0.000350 0.000000 1.875920 
# 
# From -- ./inp_files/183161.got.cif
#   From: 2010.06.25/outbox.cif.g09.slc.cpg/sg15_92_cif.got.tgz:183161.got - 2010.06.28 07:06:18.
