data_PCOD8142423
_publ_section_title
;
Structure prediction by ZEFSAII (Michael W. Deem and Ramdas Pophale) SiO2 
 PCOD8142423
Probable space group: C 2/C
;
_chemical_formula_sum "Si O2"
_cell_formula_units_Z 60
_cell_length_a 26.982938
_cell_length_b 5.268547
_cell_length_c 23.474985
_cell_angle_alpha 90.000000
_cell_angle_beta 115.240557
_cell_angle_gamma 90.000000
_cell_volume 3018.604408
_symmetry_space_group_name_H-M "C 2/C"
_symmetry_group_IT_number 15
_symmetry_cell_setting 'monoclinic'
loop_
_space_group_symop_operation_xyz
x,y,z
-x,y,1/2-z
-x,-y,-z
x,-y,1/2+z
1/2+x,1/2+y,z
1/2-x,1/2+y,1/2-z
1/2-x,1/2-y,-z
1/2+x,1/2-y,1/2+z
loop_
_atom_site_type_symbol
_atom_site_label
_atom_site_fract_x
_atom_site_fract_y
_atom_site_fract_z
Si Si1 0.957574 0.285332 0.533001
Si Si2 0.805637 0.839426 0.730881
Si Si3 0.463105 0.919106 0.307576
Si Si4 0.439373 0.702656 0.095133
Si Si5 0.000000 0.180968 0.750000
Si Si6 0.925144 0.456254 0.909311
Si Si7 0.896215 0.836937 0.687960
Si Si8 0.683113 0.164487 0.190999
O O1 0.933529 0.032177 0.549365
O O2 0.929053 0.317851 0.457523
O O3 0.023636 0.262044 0.556208
O O4 0.943311 0.536484 0.562249
O O5 0.836481 0.884363 0.685781
O O6 0.740866 0.848246 0.686182
O O7 0.823458 0.071270 0.779567
O O8 0.821334 0.573653 0.768154
O O9 0.505474 0.680815 0.337951
O O10 0.501364 0.157427 0.310134
O O11 0.428178 0.934720 0.347365
O O12 0.421916 0.901788 0.234174
O O13 0.389254 0.707124 0.116205
O O14 0.059121 0.050365 0.777078
O O15 0.864611 0.333110 0.880990
#
# Coordination Sequence:
#
# PCOD8142423 Si02
#       8
#     8   8   8   8   4   8   8   8
#     4  10  25  37  55  85 110 156 199 223 281 335
#     4  10  23  36  56  91 111 151 188 229 302 346
#     4  11  21  32  54  84 112 153 179 229 295 345
#     4  11  22  38  52  79 123 145 187 233 272 349
#     4  12  20  34  48  92 118 150 182 218 300 360
#     4  10  21  39  59  79 116 150 194 239 277 337
#     4  12  21  32  57  83 119 150 183 232 293 355
#     4  10  21  39  58  81 121 144 190 244 283 342
#
# _framework density 19.876736999999999
#
# number of rings (size 3 to 8) (size 9 to 14) (size 15 to 20)
#    0.000    1.333    4.000    2.400    1.867    5.867 
#    0.000    0.000    0.000    1.600    0.000    0.000 
#    0.000    0.000    0.000    0.000    0.000    0.000 
#
# Total GULP energy -371655.057158 kJ/mol
# GULP energy per Si atom -12388.501905 kJ/mol
# Density = 1.983150 g / cm^3
# Si number density = 19.876737 Si / 1000 Ang^3
#
#
#
# Elastic Constant Matrix: (Units=GPa)
#
#
# Indices 1 2 3 4 5 6 
#
# 1 133.6402 19.6813 34.1537 0.0012 -6.2797 -0.0002
# 2 19.6813 80.4413 7.8395 -0.0020 -6.1295 0.0034
# 3 34.1537 7.8395 62.4789 0.0018 -2.3069 -0.0007
# 4 0.0012 -0.0020 0.0018 14.4196 -0.0004 3.4856
# 5 -6.2797 -6.1295 -2.3069 -0.0004 29.5890 0.0007
# 6 -0.0002 0.0034 -0.0007 3.4856 0.0007 3.1398
#
#
#
# Elastic Compliance Matrix: (Units=1/GPa)
#
#
# Indices 1 2 3 4 5 6 
#
# 1 0.008971 -0.001650 -0.004653 -0.000001 0.001199 0.000002
# 2 -0.001650 0.013075 -0.000653 0.000008 0.002307 -0.000024
# 3 -0.004653 -0.000653 0.018643 -0.000004 0.000331 0.000009
# 4 -0.000001 0.000008 -0.000004 0.094785 0.000005 -0.105221
# 5 0.001199 0.002307 0.000331 0.000005 0.034555 -0.000016
# 6 0.000002 -0.000024 0.000009 -0.105221 -0.000016 0.435295
#
#
# Mechanical properties :
#
#
# Convention : Reuss Voigt Hill
#
# Bulk Modulus (GPa) = 37.34616 44.43438 40.89027
# Shear Modulus (GPa) = 7.95975 23.75542 15.85759
#
# Velocity S-wave (km/s) = 2.00331 3.46083 2.82759
# Velocity P-wave (km/s) = 4.91738 6.19461 5.59258
#
# Compressibility (1/GPa) = 0.02677651
#
# Stress axis : x y z
#
# Youngs Moduli (GPa) = 111.46742 76.48390 53.63952
#
# Poissons Ratio (x) = 0.12621 0.24957
# Poissons Ratio (y) = 0.18394 0.03504
# Poissons Ratio (z) = 0.51863 0.04997
#
# Static dielectric constant tensor:
#      x y z
#    x 3.897370 -0.000010 -0.218480 
#    y -0.000010 3.594250 0.000010 
#    z -0.218480 0.000010 3.723510 
# 
# 
# High freq. dielectric constant tensor:
#      x y z
#    x 1.769360 0.000000 -0.023930 
#    y 0.000000 1.778470 0.000000 
#    z -0.023930 0.000000 1.749120 
# 
# From -- ./inp_files/283009.got.cif
#   From: 2010.06.25/outbox.cif.g09.slc.cpg/sg15_142_cif.got.tgz:283009.got - 2010.06.28 07:06:18.
