data_PCOD8142549
_publ_section_title
;
Structure prediction by ZEFSAII (Michael W. Deem and Ramdas Pophale) SiO2 
 PCOD8142549
Probable space group: C 2/C
;
_chemical_formula_sum "Si O2"
_cell_formula_units_Z 48
_cell_length_a 11.808838
_cell_length_b 20.722484
_cell_length_c 12.042523
_cell_angle_alpha 90.000000
_cell_angle_beta 128.881135
_cell_angle_gamma 90.000000
_cell_volume 2294.019531
_symmetry_space_group_name_H-M "C 2/C"
_symmetry_group_IT_number 15
_symmetry_cell_setting 'monoclinic'
loop_
_space_group_symop_operation_xyz
x,y,z
-x,y,1/2-z
-x,-y,-z
x,-y,1/2+z
1/2+x,1/2+y,z
1/2-x,1/2+y,1/2-z
1/2-x,1/2-y,-z
1/2+x,1/2-y,1/2+z
loop_
_atom_site_type_symbol
_atom_site_label
_atom_site_fract_x
_atom_site_fract_y
_atom_site_fract_z
Si Si1 0.378836 0.181728 0.592120
Si Si2 0.376333 0.599889 0.824689
Si Si3 0.329162 0.259356 0.370351
Si Si4 0.331615 0.049088 0.620990
Si Si5 0.695233 0.420314 0.467800
Si Si6 0.827007 0.705347 0.138683
O O1 0.500000 0.155232 0.750000
O O2 0.435271 0.211666 0.509020
O O3 0.300964 0.235356 0.621008
O O4 0.297628 0.112821 0.523492
O O5 0.400100 0.672063 0.887467
O O6 0.262199 0.557380 0.823573
O O7 0.314729 0.606509 0.662881
O O8 0.536027 0.568641 0.923384
O O9 0.268199 0.224359 0.223938
O O10 0.500000 0.035013 0.750000
O O11 0.274661 0.988570 0.516344
O O12 0.789708 0.369065 0.595587
O O13 0.000000 0.717688 0.250000
O O14 0.750000 0.750000 0.000000
#
# Coordination Sequence:
#
# PCOD8142549 Si02
#       6
#     8   8   8   8   8   8
#     4   9  21  38  64  89 121 172 214 278 327 381
#     4  10  22  41  65  91 132 176 217 287 333 397
#     4  10  21  39  61  92 128 163 222 270 334 392
#     4  10  22  41  63  93 129 175 228 271 334 398
#     4  11  23  40  63  95 132 176 221 271 342 404
#     4  12  25  38  63  97 129 175 219 272 340 402
#
# _framework density 20.923971999999999
#
# number of rings (size 3 to 8) (size 9 to 14) (size 15 to 20)
#    0.000    1.667    1.667    2.000    4.667    3.333 
#    0.000    0.000    7.333    0.000    0.000    0.000 
#    0.000    0.000    0.000    0.000    0.000    0.000 
#
# Total GULP energy -297391.706967 kJ/mol
# GULP energy per Si atom -12391.321124 kJ/mol
# Density = 2.087635 g / cm^3
# Si number density = 20.923972 Si / 1000 Ang^3
#
#
#
# Elastic Constant Matrix: (Units=GPa)
#
#
# Indices 1 2 3 4 5 6 
#
# 1 99.9015 38.9521 51.1434 0.0000 -1.7826 0.0000
# 2 38.9521 138.2264 68.6836 0.0000 -14.9406 0.0000
# 3 51.1434 68.6836 125.8513 0.0000 -11.5216 0.0000
# 4 0.0000 0.0000 0.0000 26.9049 0.0000 -1.3861
# 5 -1.7826 -14.9406 -11.5216 0.0000 36.5298 0.0000
# 6 0.0000 0.0000 0.0000 -1.3861 0.0000 27.9423
#
#
#
# Elastic Compliance Matrix: (Units=1/GPa)
#
#
# Indices 1 2 3 4 5 6 
#
# 1 0.012906 -0.001537 -0.004537 0.000000 -0.001430 0.000000
# 2 -0.001537 0.010322 -0.004766 0.000000 0.002643 0.000000
# 3 -0.004537 -0.004766 0.012555 0.000000 0.001789 0.000000
# 4 0.000000 0.000000 0.000000 0.037263 0.000000 0.001849
# 5 -0.001430 0.002643 0.001789 0.000000 0.028950 0.000000
# 6 0.000000 0.000000 0.000000 0.001849 0.000000 0.035880
#
#
# Mechanical properties :
#
#
# Convention : Reuss Voigt Hill
#
# Bulk Modulus (GPa) = 70.91329 75.72639 73.31984
# Shear Modulus (GPa) = 30.43999 31.95542 31.19770
#
# Velocity S-wave (km/s) = 3.81831 3.91220 3.86554
# Velocity P-wave (km/s) = 7.30779 7.52840 7.41892
#
# Compressibility (1/GPa) = 0.01410173
#
# Stress axis : x y z
#
# Youngs Moduli (GPa) = 77.48163 96.88218 79.65191
#
# Poissons Ratio (x) = 0.14893 0.36136
# Poissons Ratio (y) = 0.11911 0.37966
# Poissons Ratio (z) = 0.35152 0.46179
#
# Static dielectric constant tensor:
#      x y z
#    x 3.824190 0.000000 -0.066170 
#    y 0.000000 3.979920 0.000000 
#    z -0.066170 0.000000 4.296390 
# 
# 
# High freq. dielectric constant tensor:
#      x y z
#    x 1.819910 0.000000 -0.005520 
#    y 0.000000 1.828090 0.000000 
#    z -0.005520 0.000000 1.811850 
# 
# From -- ./inp_files/89786.got.cif
#   From: 2010.06.25/outbox.cif.g09.slc.cpg/sg15_45_cif.got.tgz:89786.got - 2010.06.28 07:06:18.
