data_PCOD8142846
_publ_section_title
;
Structure prediction by ZEFSAII (Michael W. Deem and Ramdas Pophale) SiO2 
 PCOD8142846
Probable space group: C 2/C
;
_chemical_formula_sum "Si O2"
_cell_formula_units_Z 56
_cell_length_a 15.254386
_cell_length_b 8.396924
_cell_length_c 25.371777
_cell_angle_alpha 90.000000
_cell_angle_beta 55.285824
_cell_angle_gamma 90.000000
_cell_volume 2671.402511
_symmetry_space_group_name_H-M "C 2/C"
_symmetry_group_IT_number 15
_symmetry_cell_setting 'monoclinic'
loop_
_space_group_symop_operation_xyz
x,y,z
-x,y,1/2-z
-x,-y,-z
x,-y,1/2+z
1/2+x,1/2+y,z
1/2-x,1/2+y,1/2-z
1/2-x,1/2-y,-z
1/2+x,1/2-y,1/2+z
loop_
_atom_site_type_symbol
_atom_site_label
_atom_site_fract_x
_atom_site_fract_y
_atom_site_fract_z
Si Si1 0.649534 0.275577 0.239098
Si Si2 0.295224 0.891957 0.450221
Si Si3 0.861698 0.532858 0.690541
Si Si4 0.538222 0.778920 0.182811
Si Si5 0.517525 0.068617 0.051529
Si Si6 0.149359 0.145167 0.524150
Si Si7 0.436593 0.583698 0.835500
O O1 0.753236 0.378558 0.214982
O O2 0.660370 0.091167 0.253803
O O3 0.623239 0.298943 0.185734
O O4 0.552787 0.344267 0.306735
O O5 0.250000 0.750000 0.500000
O O6 0.346905 0.840445 0.376928
O O7 0.385253 0.981200 0.453159
O O8 0.192197 0.002959 0.471834
O O9 0.945837 0.673741 0.673704
O O10 0.908445 0.442460 0.622866
O O11 0.500000 0.863200 0.250000
O O12 0.550268 0.593076 0.191134
O O13 0.550926 0.255329 0.033598
O O14 0.500000 0.000000 0.000000
O O15 0.250000 0.250000 0.500000
O O16 0.122812 0.068888 0.589463
#
# Coordination Sequence:
#
# PCOD8142846 Si02
#       7
#     8   8   8   8   8   8   8
#     4  11  24  40  65  95 127 172 213 266 329 388
#     4  10  21  39  67  92 125 166 218 269 315 385
#     4  11  25  42  63  93 138 167 210 275 329 385
#     4  11  23  41  66  96 133 169 218 268 327 385
#     4  10  23  42  64  88 128 171 215 267 324 381
#     4  10  21  39  66  93 126 169 217 264 318 380
#     4  11  22  42  69  92 127 171 222 263 322 395
#
# _framework density 20.962771
#
# number of rings (size 3 to 8) (size 9 to 14) (size 15 to 20)
#    0.000    1.429    4.286    0.857    6.000    0.000 
#    0.000    0.714    0.000    0.000    0.000    0.000 
#    0.000    0.000    0.000    0.000    0.000    0.000 
#
# Total GULP energy -346925.283834 kJ/mol
# GULP energy per Si atom -12390.188708 kJ/mol
# Density = 2.091506 g / cm^3
# Si number density = 20.962771 Si / 1000 Ang^3
#
#
#
# Elastic Constant Matrix: (Units=GPa)
#
#
# Indices 1 2 3 4 5 6 
#
# 1 71.1654 30.0349 43.0046 -0.0001 -10.5875 0.0000
# 2 30.0349 96.9383 43.0412 -0.0001 -4.5093 0.0000
# 3 43.0046 43.0412 143.4338 0.0000 -8.9145 0.0000
# 4 -0.0001 -0.0001 0.0000 31.3736 0.0000 -6.4759
# 5 -10.5875 -4.5093 -8.9145 0.0000 32.7240 0.0000
# 6 0.0000 0.0000 0.0000 -6.4759 0.0000 34.4704
#
#
#
# Elastic Compliance Matrix: (Units=1/GPa)
#
#
# Indices 1 2 3 4 5 6 
#
# 1 0.018865 -0.003749 -0.004256 0.000000 0.004427 0.000000
# 2 -0.003749 0.012662 -0.002688 0.000000 -0.000201 0.000000
# 3 -0.004256 -0.002688 0.009100 0.000000 0.000732 0.000000
# 4 0.000000 0.000000 0.000000 0.033160 0.000000 0.006230
# 5 0.004427 -0.000201 0.000732 0.000000 0.032163 0.000000
# 6 0.000000 0.000000 0.000000 0.006230 0.000000 0.030181
#
#
# Mechanical properties :
#
#
# Convention : Reuss Voigt Hill
#
# Bulk Modulus (GPa) = 51.97449 60.41100 56.19275
# Shear Modulus (GPa) = 30.50111 32.74406 31.62259
#
# Velocity S-wave (km/s) = 3.81860 3.95652 3.88817
# Velocity P-wave (km/s) = 6.65506 7.05357 6.85721
#
# Compressibility (1/GPa) = 0.01924021
#
# Stress axis : x y z
#
# Youngs Moduli (GPa) = 53.00949 78.97902 109.89220
#
# Poissons Ratio (x) = 0.29612 0.46767
# Poissons Ratio (y) = 0.19875 0.29537
# Poissons Ratio (z) = 0.22559 0.21228
#
# Static dielectric constant tensor:
#      x y z
#    x 3.653980 0.000000 -0.388990 
#    y 0.000000 4.425860 0.000000 
#    z -0.388990 0.000000 4.106940 
# 
# 
# High freq. dielectric constant tensor:
#      x y z
#    x 1.793220 0.000000 -0.023640 
#    y 0.000000 1.829260 0.000000 
#    z -0.023640 0.000000 1.839290 
# 
# From -- ./inp_files/273063.got.cif
#   From: 2010.06.25/outbox.cif.g09.slc.cpg/sg15_137_cif.got.tgz:273063.got - 2010.06.28 07:06:18.
