data_PCOD8142551
_publ_section_title
;
Structure prediction by ZEFSAII (Michael W. Deem and Ramdas Pophale) SiO2 
 PCOD8142551
Probable space group: C 2/C
;
_chemical_formula_sum "Si O2"
_cell_formula_units_Z 64
_cell_length_a 24.018714
_cell_length_b 8.445719
_cell_length_c 28.183361
_cell_angle_alpha 90.000000
_cell_angle_beta 148.839916
_cell_angle_gamma 90.000000
_cell_volume 2958.227639
_symmetry_space_group_name_H-M "C 2/C"
_symmetry_group_IT_number 15
_symmetry_cell_setting 'monoclinic'
loop_
_space_group_symop_operation_xyz
x,y,z
-x,y,1/2-z
-x,-y,-z
x,-y,1/2+z
1/2+x,1/2+y,z
1/2-x,1/2+y,1/2-z
1/2-x,1/2-y,-z
1/2+x,1/2-y,1/2+z
loop_
_atom_site_type_symbol
_atom_site_label
_atom_site_fract_x
_atom_site_fract_y
_atom_site_fract_z
Si Si1 0.459708 0.837973 0.563208
Si Si2 0.375406 0.307248 0.149348
Si Si3 0.243683 0.501841 0.122336
Si Si4 0.186014 0.917011 0.492310
Si Si5 0.482386 0.686502 0.989997
Si Si6 0.169277 0.533830 0.248752
Si Si7 0.198461 0.663954 0.681070
Si Si8 0.720750 0.342920 0.094741
O O1 0.400555 0.696231 0.546317
O O2 0.528432 0.763015 0.570046
O O3 0.373531 0.967518 0.484649
O O4 0.541656 0.933292 0.656923
O O5 0.500000 0.265199 0.250000
O O6 0.330493 0.377561 0.165592
O O7 0.308027 0.151236 0.084501
O O8 0.353930 0.435355 0.091282
O O9 0.234165 0.478590 0.172054
O O10 0.284624 0.677119 0.136637
O O11 0.183326 0.087618 0.516623
O O12 0.377011 0.714031 0.943694
O O13 0.500000 0.500000 0.000000
O O14 0.577899 0.777771 0.085370
O O15 0.206483 0.394733 0.240608
O O16 0.223130 0.693548 0.271545
O O17 0.207758 0.481008 0.328955
#
# Coordination Sequence:
#
# PCOD8142551 Si02
#       8
#     8   8   8   8   8   8   8   8
#     4  10  21  39  61  93 125 172 205 255 310 380
#     4  10  23  46  69  94 120 164 216 269 320 384
#     4  10  23  44  63  88 132 162 213 263 320 374
#     4  10  23  42  70  96 120 166 214 259 330 369
#     4  11  19  38  59  87 130 171 210 244 312 375
#     4  12  23  35  59  96 132 166 215 249 308 379
#     4  11  23  37  59  92 131 175 209 256 305 378
#     4  12  23  41  62  95 130 169 204 261 311 385
#
# _framework density 21.634577
#
# number of rings (size 3 to 8) (size 9 to 14) (size 15 to 20)
#    0.000    1.250    2.500    4.500    3.500    2.500 
#    4.500    0.625    0.000    0.000    0.000    0.000 
#    0.000    0.000    0.000    0.000    0.000    0.000 
#
# Total GULP energy -396777.654076 kJ/mol
# GULP energy per Si atom -12399.301690 kJ/mol
# Density = 2.158534 g / cm^3
# Si number density = 21.634577 Si / 1000 Ang^3
#
#
#
# Elastic Constant Matrix: (Units=GPa)
#
#
# Indices 1 2 3 4 5 6 
#
# 1 60.4422 -1.4062 27.7895 0.0000 0.7298 -0.0001
# 2 -1.4062 88.8366 9.5965 0.0000 -0.6680 -0.0006
# 3 27.7895 9.5965 96.9085 0.0001 12.7931 0.0002
# 4 0.0000 0.0000 0.0001 22.5354 0.0000 -4.4396
# 5 0.7298 -0.6680 12.7931 0.0000 34.0340 0.0000
# 6 -0.0001 -0.0006 0.0002 -4.4396 0.0000 21.8233
#
#
#
# Elastic Compliance Matrix: (Units=1/GPa)
#
#
# Indices 1 2 3 4 5 6 
#
# 1 0.019234 0.000950 -0.005848 0.000000 0.001804 0.000000
# 2 0.000950 0.011440 -0.001507 0.000000 0.000771 0.000000
# 3 -0.005848 -0.001507 0.012766 0.000000 -0.004703 0.000000
# 4 0.000000 0.000000 0.000000 0.046227 0.000000 0.009404
# 5 0.001804 0.000771 -0.004703 0.000000 0.031127 0.000000
# 6 0.000000 0.000000 0.000000 0.009404 0.000000 0.047736
#
#
# Mechanical properties :
#
#
# Convention : Reuss Voigt Hill
#
# Bulk Modulus (GPa) = 32.64775 35.34965 33.99870
# Shear Modulus (GPa) = 26.10294 29.69236 27.89765
#
# Velocity S-wave (km/s) = 3.47729 3.70868 3.59485
# Velocity P-wave (km/s) = 5.58976 5.89185 5.74279
#
# Compressibility (1/GPa) = 0.03062999
#
# Stress axis : x y z
#
# Youngs Moduli (GPa) = 51.99224 87.41075 78.33343
#
# Poissons Ratio (x) = -0.08302 0.45807
# Poissons Ratio (y) = -0.04938 0.11805
# Poissons Ratio (z) = 0.30403 0.13172
#
# Static dielectric constant tensor:
#      x y z
#    x 4.101010 0.000000 -0.064340 
#    y 0.000000 3.837930 0.000000 
#    z -0.064340 0.000000 3.964690 
# 
# 
# High freq. dielectric constant tensor:
#      x y z
#    x 1.843210 0.000000 -0.002940 
#    y 0.000000 1.843680 0.000000 
#    z -0.002940 0.000000 1.849620 
# 
# From -- ./inp_files/318643.got.cif
#   From: 2010.06.25/outbox.cif.g09.slc.cpg/sg15_160_cif.got.tgz:318643.got - 2010.06.28 07:06:18.
