data_PCOD8142957
_publ_section_title
;
Structure prediction by ZEFSAII (Michael W. Deem and Ramdas Pophale) SiO2 
 PCOD8142957
Probable space group: C 2/C
;
_chemical_formula_sum "Si O2"
_cell_formula_units_Z 48
_cell_length_a 18.218105
_cell_length_b 8.752153
_cell_length_c 29.496216
_cell_angle_alpha 90.000000
_cell_angle_beta 29.530414
_cell_angle_gamma 90.000000
_cell_volume 2318.090814
_symmetry_space_group_name_H-M "C 2/C"
_symmetry_group_IT_number 15
_symmetry_cell_setting 'monoclinic'
loop_
_space_group_symop_operation_xyz
x,y,z
-x,y,1/2-z
-x,-y,-z
x,-y,1/2+z
1/2+x,1/2+y,z
1/2-x,1/2+y,1/2-z
1/2-x,1/2-y,-z
1/2+x,1/2-y,1/2+z
loop_
_atom_site_type_symbol
_atom_site_label
_atom_site_fract_x
_atom_site_fract_y
_atom_site_fract_z
Si Si1 0.608973 0.338790 0.557396
Si Si2 0.902111 0.925737 0.514599
Si Si3 0.062973 0.266561 0.858864
Si Si4 0.569017 0.600580 0.644416
Si Si5 0.356623 0.892717 0.163254
Si Si6 0.224167 0.168393 0.644070
O O1 0.750000 0.250000 0.500000
O O2 0.654391 0.451246 0.491842
O O3 0.543522 0.437222 0.634330
O O4 0.485799 0.222638 0.606787
O O5 0.760894 0.847147 0.615265
O O6 0.006378 0.792153 0.437672
O O7 0.000000 0.000000 0.500000
O O8 0.203253 0.164698 0.767584
O O9 0.105276 0.442915 0.836930
O O10 0.927705 0.234366 0.895715
O O11 0.717582 0.592827 0.596642
O O12 0.435116 0.647089 0.748602
O O13 0.344308 0.902936 0.114726
#
# Coordination Sequence:
#
# PCOD8142957 Si02
#       6
#     8   8   8   8   8   8
#     4  11  25  42  64  95 132 163 215 266 321 379
#     4  11  23  41  62  99 128 164 214 271 314 381
#     4  10  23  38  69  90 127 168 213 258 321 380
#     4   9  22  42  64  90 127 170 207 263 320 384
#     4  11  22  42  64  93 124 171 209 258 318 385
#     4  10  21  39  69  86 129 163 214 259 320 374
#
# _framework density 20.706695
#
# number of rings (size 3 to 8) (size 9 to 14) (size 15 to 20)
#    0.000    1.667    1.667    3.000    7.000    3.333 
#    0.000    0.000    0.000    0.000    0.000    0.000 
#    0.000    0.000    0.000    0.000    0.000    0.000 
#
# Total GULP energy -297368.046904 kJ/mol
# GULP energy per Si atom -12390.335288 kJ/mol
# Density = 2.065957 g / cm^3
# Si number density = 20.706695 Si / 1000 Ang^3
#
#
#
# Elastic Constant Matrix: (Units=GPa)
#
#
# Indices 1 2 3 4 5 6 
#
# 1 184.5666 75.8839 41.4588 0.0004 -2.6132 -0.0065
# 2 75.8839 150.5708 43.2562 0.0059 2.8789 0.0020
# 3 41.4588 43.2562 66.5483 -0.0008 3.1271 0.0004
# 4 0.0004 0.0059 -0.0008 42.7260 -0.0003 -3.1156
# 5 -2.6132 2.8789 3.1271 -0.0003 27.3547 0.0011
# 6 -0.0065 0.0020 0.0004 -3.1156 0.0011 32.9639
#
#
#
# Elastic Compliance Matrix: (Units=1/GPa)
#
#
# Indices 1 2 3 4 5 6 
#
# 1 0.007231 -0.002899 -0.002682 0.000000 0.001302 0.000002
# 2 -0.002899 0.009330 -0.004222 -0.000001 -0.000776 -0.000001
# 3 -0.002682 -0.004222 0.019538 0.000001 -0.002045 0.000000
# 4 0.000000 -0.000001 0.000001 0.023567 0.000000 0.002227
# 5 0.001302 -0.000776 -0.002045 0.000000 0.036997 -0.000001
# 6 0.000002 -0.000001 0.000000 0.002227 -0.000001 0.030547
#
#
# Mechanical properties :
#
#
# Convention : Reuss Voigt Hill
#
# Bulk Modulus (GPa) = 60.62997 80.32040 70.47519
# Shear Modulus (GPa) = 32.82727 36.68137 34.75432
#
# Velocity S-wave (km/s) = 3.98596 4.21345 4.10128
# Velocity P-wave (km/s) = 7.10829 7.90852 7.51906
#
# Compressibility (1/GPa) = 0.01649349
#
# Stress axis : x y z
#
# Youngs Moduli (GPa) = 138.29975 107.18106 51.18245
#
# Poissons Ratio (x) = 0.31067 0.13726
# Poissons Ratio (y) = 0.40087 0.21610
# Poissons Ratio (z) = 0.37089 0.45254
#
# Static dielectric constant tensor:
#      x y z
#    x 5.039300 0.000000 0.082320 
#    y 0.000000 3.753250 0.000000 
#    z 0.082320 0.000000 3.734070 
# 
# 
# High freq. dielectric constant tensor:
#      x y z
#    x 1.842250 0.000000 0.005180 
#    y 0.000000 1.802330 0.000000 
#    z 0.005180 0.000000 1.797040 
# 
# From -- ./inp_files/209289.got.cif
#   From: 2010.06.25/outbox.cif.g09.slc.cpg/sg15_105_cif.got.tgz:209289.got - 2010.06.28 07:06:18.
