data_PCOD8142180
_publ_section_title
;
Structure prediction by ZEFSAII (Michael W. Deem and Ramdas Pophale) SiO2 
 PCOD8142180
Probable space group: C 2/C
;
_chemical_formula_sum "Si O2"
_cell_formula_units_Z 44
_cell_length_a 10.802712
_cell_length_b 27.740682
_cell_length_c 16.117397
_cell_angle_alpha 90.000000
_cell_angle_beta 157.755328
_cell_angle_gamma 90.000000
_cell_volume 1828.447446
_symmetry_space_group_name_H-M "C 2/C"
_symmetry_group_IT_number 15
_symmetry_cell_setting 'monoclinic'
loop_
_space_group_symop_operation_xyz
x,y,z
-x,y,1/2-z
-x,-y,-z
x,-y,1/2+z
1/2+x,1/2+y,z
1/2-x,1/2+y,1/2-z
1/2-x,1/2-y,-z
1/2+x,1/2-y,1/2+z
loop_
_atom_site_type_symbol
_atom_site_label
_atom_site_fract_x
_atom_site_fract_y
_atom_site_fract_z
Si Si1 0.000000 0.873435 0.750000
Si Si2 0.704168 0.852905 0.802179
Si Si3 0.391201 0.563985 0.855911
Si Si4 0.047927 0.414343 0.984648
Si Si5 0.765807 0.506334 0.483937
Si Si6 0.214846 0.196613 0.512737
O O1 0.802727 0.906468 0.690394
O O2 0.756517 0.838983 0.547401
O O3 0.500000 0.828604 0.750000
O O4 0.419871 0.874578 0.567222
O O5 0.940112 0.897248 0.978748
O O6 0.886996 0.811176 0.863977
O O7 0.348689 0.587557 0.736620
O O8 0.025142 0.550014 0.662632
O O9 0.616542 0.516069 0.977766
O O10 0.009097 0.466505 0.920481
O O11 0.500000 0.522693 0.250000
O O12 0.500000 0.182214 0.750000
O O13 0.250000 0.250000 0.500000
#
# Coordination Sequence:
#
# PCOD8142180 Si02
#       6
#     4   8   8   8   8   8
#     4  10  22  38  70  98 130 172 220 274 342 406
#     4  11  24  45  67 100 137 179 226 281 347 413
#     4  11  23  41  61  94 139 186 240 285 333 382
#     4  10  21  38  65  90 130 183 229 280 330 386
#     4  10  21  38  63  90 134 189 241 285 325 378
#     4  11  23  46  74 103 134 167 215 283 348 430
#
# _framework density 24.064131
#
# number of rings (size 3 to 8) (size 9 to 14) (size 15 to 20)
#    0.000    1.455    2.727    3.273    3.818    0.727 
#    0.000    0.909    0.000    0.000    0.000    0.000 
#    0.000    0.000    0.000    0.000    0.000    0.000 
#
# Total GULP energy -272626.352205 kJ/mol
# GULP energy per Si atom -12392.106918 kJ/mol
# Density = 2.400936 g / cm^3
# Si number density = 24.064131 Si / 1000 Ang^3
#
#
#
# Elastic Constant Matrix: (Units=GPa)
#
#
# Indices 1 2 3 4 5 6 
#
# 1 104.3247 35.1868 18.8402 -0.0082 5.9784 -0.0056
# 2 35.1868 94.3907 30.9230 0.0079 10.1680 -0.0084
# 3 18.8402 30.9230 89.0724 -0.0382 2.3457 0.0474
# 4 -0.0082 0.0079 -0.0382 12.5696 -0.0203 17.8332
# 5 5.9784 10.1680 2.3457 -0.0203 31.5871 0.0135
# 6 -0.0056 -0.0084 0.0474 17.8332 0.0135 29.2769
#
#
#
# Elastic Compliance Matrix: (Units=1/GPa)
#
#
# Indices 1 2 3 4 5 6 
#
# 1 0.011067 -0.003697 -0.001036 0.000004 -0.000828 0.000001
# 2 -0.003697 0.013599 -0.003850 -0.000322 -0.003392 0.000207
# 3 -0.001036 -0.003850 0.012770 0.000536 0.000488 -0.000349
# 4 0.000004 -0.000322 0.000536 0.585819 0.000592 -0.356835
# 5 -0.000828 -0.003392 0.000488 0.000592 0.032871 -0.000378
# 6 0.000001 0.000207 -0.000349 -0.356835 -0.000378 0.251513
#
#
# Mechanical properties :
#
#
# Convention : Reuss Voigt Hill
#
# Bulk Modulus (GPa) = 49.33229 50.85421 50.09325
# Shear Modulus (GPa) = 5.36733 28.20925 16.78829
#
# Velocity S-wave (km/s) = 1.49508 3.42753 2.64417
# Velocity P-wave (km/s) = 4.85028 6.06981 5.49399
#
# Compressibility (1/GPa) = 0.02027070
#
# Stress axis : x y z
#
# Youngs Moduli (GPa) = 90.35998 73.53337 78.30810
#
# Poissons Ratio (x) = 0.27186 0.08109
# Poissons Ratio (y) = 0.33407 0.30150
# Poissons Ratio (z) = 0.09357 0.28311
#
# Static dielectric constant tensor:
#      x y z
#    x 6.790550 0.000210 -0.467870 
#    y 0.000210 4.017640 -0.000060 
#    z -0.467870 -0.000060 4.430540 
# 
# 
# High freq. dielectric constant tensor:
#      x y z
#    x 1.972340 0.000000 -0.000830 
#    y 0.000000 1.914560 0.000000 
#    z -0.000830 0.000000 1.962640 
# 
# From -- ./inp_files/201512.got.cif
#   From: 2010.06.25/outbox.cif.g09.slc.cpg/sg15_101_cif.got.tgz:201512.got - 2010.06.28 07:06:18.
