data_PCOD8142122
_publ_section_title
;
Structure prediction by ZEFSAII (Michael W. Deem and Ramdas Pophale) SiO2 
 PCOD8142122
Probable space group: C 2/C
;
_chemical_formula_sum "Si O2"
_cell_formula_units_Z 60
_cell_length_a 15.421696
_cell_length_b 11.098607
_cell_length_c 18.563586
_cell_angle_alpha 90.000000
_cell_angle_beta 112.533451
_cell_angle_gamma 90.000000
_cell_volume 2934.760865
_symmetry_space_group_name_H-M "C 2/C"
_symmetry_group_IT_number 15
_symmetry_cell_setting 'monoclinic'
loop_
_space_group_symop_operation_xyz
x,y,z
-x,y,1/2-z
-x,-y,-z
x,-y,1/2+z
1/2+x,1/2+y,z
1/2-x,1/2+y,1/2-z
1/2-x,1/2-y,-z
1/2+x,1/2-y,1/2+z
loop_
_atom_site_type_symbol
_atom_site_label
_atom_site_fract_x
_atom_site_fract_y
_atom_site_fract_z
Si Si1 0.000000 0.716854 0.750000
Si Si2 0.442559 0.853492 0.657210
Si Si3 0.551799 0.617496 0.936102
Si Si4 0.695764 0.031292 0.082771
Si Si5 0.258853 0.880790 0.535163
Si Si6 0.107308 0.104215 0.380624
Si Si7 0.047518 0.425899 0.131168
Si Si8 0.420401 0.751873 0.998395
O O1 0.071654 0.801252 0.812479
O O2 0.057689 0.632797 0.713265
O O3 0.500000 0.849136 0.750000
O O4 0.443133 0.725615 0.618729
O O5 0.329166 0.884323 0.627897
O O6 0.490071 0.950105 0.619163
O O7 0.531162 0.497107 0.881705
O O8 0.649311 0.583878 0.010979
O O9 0.469815 0.648118 0.965978
O O10 0.806448 0.040256 0.132188
O O11 0.650613 0.952718 0.132392
O O12 0.649572 0.164266 0.068932
O O13 0.684741 0.966782 0.002274
O O14 0.250000 0.750000 0.500000
O O15 0.139658 0.181023 0.460764
O O16 0.999227 0.335560 0.059834
#
# Coordination Sequence:
#
# PCOD8142122 Si02
#       8
#     4   8   8   8   8   8   8   8
#     4  10  24  44  60  80 130 174 198 242 330 374
#     4  11  20  34  58  94 123 159 203 258 312 365
#     4  10  21  38  62  90 121 165 211 251 309 373
#     4  11  20  37  63  95 117 153 216 264 299 357
#     4   9  19  35  56  89 124 155 200 260 312 361
#     4  10  24  41  60  87 131 169 200 248 318 375
#     4  11  20  36  64  89 120 158 206 257 307 366
#     4  11  20  37  66  92 120 157 211 259 306 360
#
# _framework density 20.444595
#
# number of rings (size 3 to 8) (size 9 to 14) (size 15 to 20)
#    0.000    1.600    3.333    2.800    0.933    0.000 
#    0.000    8.000    0.000    0.000    0.000    0.000 
#    0.000    0.000    0.000    0.000    0.000    0.000 
#
# Total GULP energy -371641.401489 kJ/mol
# GULP energy per Si atom -12388.046716 kJ/mol
# Density = 2.039806 g / cm^3
# Si number density = 20.444595 Si / 1000 Ang^3
#
#
#
# Elastic Constant Matrix: (Units=GPa)
#
#
# Indices 1 2 3 4 5 6 
#
# 1 97.3131 31.2169 37.3938 0.0000 -7.5593 0.0000
# 2 31.2169 102.9239 24.6338 0.0000 -5.6743 0.0000
# 3 37.3938 24.6338 85.7513 0.0000 4.3612 0.0000
# 4 0.0000 0.0000 0.0000 211.4638 0.0000 -63.3224
# 5 -7.5593 -5.6743 4.3612 0.0000 21.9111 0.0000
# 6 0.0000 0.0000 0.0000 -63.3224 0.0000 53.8283
#
#
#
# Elastic Compliance Matrix: (Units=1/GPa)
#
#
# Indices 1 2 3 4 5 6 
#
# 1 0.013582 -0.002532 -0.005456 0.000000 0.005116 0.000000
# 2 -0.002532 0.011152 -0.002225 0.000000 0.002457 0.000000
# 3 -0.005456 -0.002225 0.014956 0.000000 -0.005435 0.000000
# 4 0.000000 0.000000 0.000000 0.007301 0.000000 0.008588
# 5 0.005116 0.002457 -0.005435 0.000000 0.049122 0.000000
# 6 0.000000 0.000000 0.000000 0.008588 0.000000 0.028681
#
#
# Mechanical properties :
#
#
# Convention : Reuss Voigt Hill
#
# Bulk Modulus (GPa) = 51.90445 52.49745 52.20095
# Shear Modulus (GPa) = 32.97294 70.29023 51.63158
#
# Velocity S-wave (km/s) = 4.02032 5.86988 5.03083
# Velocity P-wave (km/s) = 6.85519 8.46607 7.70285
#
# Compressibility (1/GPa) = 0.01926617
#
# Stress axis : x y z
#
# Youngs Moduli (GPa) = 73.62640 89.67280 66.86190
#
# Poissons Ratio (x) = 0.22702 0.36478
# Poissons Ratio (y) = 0.18639 0.14874
# Poissons Ratio (z) = 0.40169 0.19948
#
# Static dielectric constant tensor:
#      x y z
#    x 3.826880 0.000000 -0.063980 
#    y 0.000000 4.082770 0.000000 
#    z -0.063980 0.000000 3.845740 
# 
# 
# High freq. dielectric constant tensor:
#      x y z
#    x 1.787590 0.000000 -0.002680 
#    y 0.000000 1.825930 0.000000 
#    z -0.002680 0.000000 1.765100 
# 
# From -- ./inp_files/204508.got.cif
#   From: 2010.06.25/outbox.cif.g09.slc.cpg/sg15_103_cif.got.tgz:204508.got - 2010.06.28 07:06:18.
