data_PCOD8142654
_publ_section_title
;
Structure prediction by ZEFSAII (Michael W. Deem and Ramdas Pophale) SiO2 
 PCOD8142654
Probable space group: C 2/C
;
_chemical_formula_sum "Si O2"
_cell_formula_units_Z 56
_cell_length_a 15.373011
_cell_length_b 11.884388
_cell_length_c 15.473850
_cell_angle_alpha 90.000000
_cell_angle_beta 114.473839
_cell_angle_gamma 90.000000
_cell_volume 2573.044906
_symmetry_space_group_name_H-M "C 2/C"
_symmetry_group_IT_number 15
_symmetry_cell_setting 'monoclinic'
loop_
_space_group_symop_operation_xyz
x,y,z
-x,y,1/2-z
-x,-y,-z
x,-y,1/2+z
1/2+x,1/2+y,z
1/2-x,1/2+y,1/2-z
1/2-x,1/2-y,-z
1/2+x,1/2-y,1/2+z
loop_
_atom_site_type_symbol
_atom_site_label
_atom_site_fract_x
_atom_site_fract_y
_atom_site_fract_z
Si Si1 0.520945 0.387397 0.358374
Si Si2 0.785861 0.129315 0.484247
Si Si3 0.116816 0.527399 0.955167
Si Si4 0.161230 0.992738 0.143942
Si Si5 0.716902 0.804710 0.398343
Si Si6 0.720658 0.898326 0.670831
Si Si7 0.027752 0.637816 0.164012
O O1 0.500000 0.402043 0.250000
O O2 0.631405 0.420591 0.419227
O O3 0.450005 0.466615 0.383890
O O4 0.511553 0.257685 0.384750
O O5 0.750000 0.250000 0.500000
O O6 0.692063 0.057097 0.446343
O O7 0.829197 0.112113 0.404499
O O8 0.118307 0.631693 0.886050
O O9 0.014964 0.463330 0.913792
O O10 0.153743 0.560188 0.064934
O O11 0.204176 0.890819 0.105794
O O12 0.216569 0.004145 0.258727
O O13 0.750000 0.750000 0.500000
O O14 0.706656 0.703036 0.325316
O O15 0.642561 0.856460 0.708187
O O16 0.000000 0.611247 0.250000
#
# Coordination Sequence:
#
# PCOD8142654 Si02
#       7
#     8   8   8   8   8   8   8
#     4  11  23  39  63  92 133 171 217 264 333 388
#     4  11  22  39  63  94 124 165 218 266 319 396
#     4  10  21  39  63  89 126 170 215 269 329 380
#     4  11  23  40  65  93 130 172 217 277 334 386
#     4   9  20  39  60  87 124 171 210 262 330 393
#     4  11  22  38  65  91 125 165 222 264 332 392
#     4  11  21  37  61  93 126 168 217 273 318 382
#
# _framework density 21.764098000000001
#
# number of rings (size 3 to 8) (size 9 to 14) (size 15 to 20)
#    0.000    1.429    2.857    3.429    2.000    1.143 
#    0.000    0.000    0.000    5.143    0.000    0.000 
#    0.000    0.000    0.000    0.000    0.000    0.000 
#
# Total GULP energy -346873.252449 kJ/mol
# GULP energy per Si atom -12388.330445 kJ/mol
# Density = 2.171456 g / cm^3
# Si number density = 21.764098 Si / 1000 Ang^3
#
#
#
# Elastic Constant Matrix: (Units=GPa)
#
#
# Indices 1 2 3 4 5 6 
#
# 1 76.3066 34.8446 31.6344 0.0000 -6.2385 0.0000
# 2 34.8446 101.0810 36.8900 0.0000 -13.5079 0.0000
# 3 31.6344 36.8900 88.1084 0.0000 -5.0695 0.0000
# 4 0.0000 0.0000 0.0000 37.2437 0.0000 -9.5861
# 5 -6.2385 -13.5079 -5.0695 0.0000 33.3570 0.0000
# 6 0.0000 0.0000 0.0000 -9.5861 0.0000 36.5182
#
#
#
# Elastic Compliance Matrix: (Units=1/GPa)
#
#
# Indices 1 2 3 4 5 6 
#
# 1 0.016828 -0.004135 -0.004263 0.000000 0.000825 0.000000
# 2 -0.004135 0.013254 -0.003834 0.000000 0.004011 0.000000
# 3 -0.004263 -0.003834 0.014477 0.000000 -0.000150 0.000000
# 4 0.000000 0.000000 0.000000 0.028796 0.000000 0.007559
# 5 0.000825 0.004011 -0.000150 0.000000 0.031735 0.000000
# 6 0.000000 0.000000 0.000000 0.007559 0.000000 0.029368
#
#
# Mechanical properties :
#
#
# Convention : Reuss Voigt Hill
#
# Bulk Modulus (GPa) = 49.76421 52.47045 51.11733
# Shear Modulus (GPa) = 30.18985 32.23224 31.21105
#
# Velocity S-wave (km/s) = 3.72847 3.85253 3.79101
# Velocity P-wave (km/s) = 6.43819 6.62951 6.53455
#
# Compressibility (1/GPa) = 0.02009476
#
# Stress axis : x y z
#
# Youngs Moduli (GPa) = 59.42478 75.45133 69.07561
#
# Poissons Ratio (x) = 0.31198 0.29449
# Poissons Ratio (y) = 0.24571 0.26482
# Poissons Ratio (z) = 0.25334 0.28926
#
# Static dielectric constant tensor:
#      x y z
#    x 4.218740 0.000000 -0.293380 
#    y 0.000000 5.383620 0.000000 
#    z -0.293380 0.000000 3.843310 
# 
# 
# High freq. dielectric constant tensor:
#      x y z
#    x 1.860290 0.000000 -0.018810 
#    y 0.000000 1.848910 0.000000 
#    z -0.018810 0.000000 1.846570 
# 
# From -- ./inp_files/161424.got.cif
#   From: 2010.06.25/outbox.cif.g09.slc.cpg/sg15_81_cif.got.tgz:161424.got - 2010.06.28 07:06:18.
