data_PCOD8142567
_publ_section_title
;
Structure prediction by ZEFSAII (Michael W. Deem and Ramdas Pophale) SiO2 
 PCOD8142567
Probable space group: C 2/C
;
_chemical_formula_sum "Si O2"
_cell_formula_units_Z 48
_cell_length_a 26.054261
_cell_length_b 6.693693
_cell_length_c 12.502813
_cell_angle_alpha 90.000000
_cell_angle_beta 87.140533
_cell_angle_gamma 90.000000
_cell_volume 2177.765971
_symmetry_space_group_name_H-M "C 2/C"
_symmetry_group_IT_number 15
_symmetry_cell_setting 'monoclinic'
loop_
_space_group_symop_operation_xyz
x,y,z
-x,y,1/2-z
-x,-y,-z
x,-y,1/2+z
1/2+x,1/2+y,z
1/2-x,1/2+y,1/2-z
1/2-x,1/2-y,-z
1/2+x,1/2-y,1/2+z
loop_
_atom_site_type_symbol
_atom_site_label
_atom_site_fract_x
_atom_site_fract_y
_atom_site_fract_z
Si Si1 0.282505 0.304023 0.632870
Si Si2 0.807006 0.379311 0.344497
Si Si3 0.525248 0.715049 0.510706
Si Si4 0.612589 0.201471 0.170621
Si Si5 0.459810 0.020207 0.158744
Si Si6 0.693771 0.535146 0.579136
O O1 0.244065 0.488535 0.660636
O O2 0.315237 0.241517 0.732456
O O3 0.321825 0.372883 0.535341
O O4 0.251333 0.109080 0.597810
O O5 0.856181 0.508355 0.374583
O O6 0.803716 0.203800 0.432359
O O7 0.500000 0.500000 0.500000
O O8 0.569214 0.721147 0.595344
O O9 0.547795 0.800991 0.395302
O O10 0.478073 0.845966 0.558296
O O11 0.653440 0.384529 0.173483
O O12 0.590465 0.131360 0.288039
O O13 0.500000 0.993007 0.250000
#
# Coordination Sequence:
#
# PCOD8142567 Si02
#       6
#     8   8   8   8   8   8
#     4  10  21  39  62  87 123 174 212 262 322 376
#     4  11  21  40  61  89 128 166 216 262 320 376
#     4  10  22  42  67  92 126 169 203 254 324 388
#     4  10  24  40  61  99 123 162 214 263 317 378
#     4   9  21  42  65  92 126 160 204 259 319 382
#     4  10  22  39  60  91 127 165 219 262 316 386
#
# _framework density 22.040935000000001
#
# number of rings (size 3 to 8) (size 9 to 14) (size 15 to 20)
#    0.000    2.000    1.667    0.500    2.333    7.333 
#    3.000    0.000    0.000    0.000    0.000    0.000 
#    0.000    0.000    0.000    0.000    0.000    0.000 
#
# Total GULP energy -297378.817398 kJ/mol
# GULP energy per Si atom -12390.784058 kJ/mol
# Density = 2.199077 g / cm^3
# Si number density = 22.040935 Si / 1000 Ang^3
#
#
#
# Elastic Constant Matrix: (Units=GPa)
#
#
# Indices 1 2 3 4 5 6 
#
# 1 59.8448 36.6219 16.6058 0.0000 -5.5596 0.0000
# 2 36.6219 147.3984 30.1697 0.0000 5.0993 0.0000
# 3 16.6058 30.1697 83.1531 0.0000 -6.6327 0.0000
# 4 0.0000 0.0000 0.0000 32.5158 0.0000 4.1778
# 5 -5.5596 5.0993 -6.6327 0.0000 28.8510 0.0000
# 6 0.0000 0.0000 0.0000 4.1778 0.0000 28.3266
#
#
#
# Elastic Compliance Matrix: (Units=1/GPa)
#
#
# Indices 1 2 3 4 5 6 
#
# 1 0.020656 -0.004873 -0.002008 0.000000 0.004380 0.000000
# 2 -0.004873 0.008586 -0.002382 0.000000 -0.003004 0.000000
# 3 -0.002008 -0.002382 0.013542 0.000000 0.003147 0.000000
# 4 0.000000 0.000000 0.000000 0.031348 0.000000 -0.004623
# 5 0.004380 -0.003004 0.003147 0.000000 0.036759 0.000000
# 6 0.000000 0.000000 0.000000 -0.004623 0.000000 0.035984
#
#
# Mechanical properties :
#
#
# Convention : Reuss Voigt Hill
#
# Bulk Modulus (GPa) = 41.22033 50.79902 46.00968
# Shear Modulus (GPa) = 28.82052 31.73860 30.27956
#
# Velocity S-wave (km/s) = 3.61999 3.79883 3.71048
# Velocity P-wave (km/s) = 6.01787 6.50685 6.26713
#
# Compressibility (1/GPa) = 0.02425987
#
# Stress axis : x y z
#
# Youngs Moduli (GPa) = 48.41290 116.46309 73.84321
#
# Poissons Ratio (x) = 0.56748 0.14826
# Poissons Ratio (y) = 0.23590 0.17589
# Poissons Ratio (z) = 0.09720 0.27740
#
# Static dielectric constant tensor:
#      x y z
#    x 3.782040 0.000000 -0.308720 
#    y 0.000000 4.145020 0.000000 
#    z -0.308720 0.000000 4.144760 
# 
# 
# High freq. dielectric constant tensor:
#      x y z
#    x 1.843040 0.000000 -0.012040 
#    y 0.000000 1.875100 0.000000 
#    z -0.012040 0.000000 1.864690 
# 
# From -- ./inp_files/175696.got.cif
#   From: 2010.06.25/outbox.cif.g09.slc.cpg/sg15_88_cif.got.tgz:175696.got - 2010.06.28 07:06:18.
