data_PCOD8142971
_publ_section_title
;
Structure prediction by ZEFSAII (Michael W. Deem and Ramdas Pophale) SiO2 
 PCOD8142971
Probable space group: C 2/C
;
_chemical_formula_sum "Si O2"
_cell_formula_units_Z 60
_cell_length_a 7.936361
_cell_length_b 17.371909
_cell_length_c 21.581402
_cell_angle_alpha 90.000000
_cell_angle_beta 71.352988
_cell_angle_gamma 90.000000
_cell_volume 2819.231619
_symmetry_space_group_name_H-M "C 2/C"
_symmetry_group_IT_number 15
_symmetry_cell_setting 'monoclinic'
loop_
_space_group_symop_operation_xyz
x,y,z
-x,y,1/2-z
-x,-y,-z
x,-y,1/2+z
1/2+x,1/2+y,z
1/2-x,1/2+y,1/2-z
1/2-x,1/2-y,-z
1/2+x,1/2-y,1/2+z
loop_
_atom_site_type_symbol
_atom_site_label
_atom_site_fract_x
_atom_site_fract_y
_atom_site_fract_z
Si Si1 0.249742 0.988610 0.423655
Si Si2 0.007349 0.612549 0.346704
Si Si3 0.682270 0.824339 0.941020
Si Si4 0.103762 0.321445 0.087696
Si Si5 0.840734 0.338193 0.219741
Si Si6 0.644261 0.479964 0.568802
Si Si7 0.302879 0.498976 0.297730
Si Si8 0.000000 0.736459 0.250000
O O1 0.312147 0.902414 0.402521
O O2 0.263073 0.008308 0.495920
O O3 0.364426 0.045273 0.368550
O O4 0.053753 0.994732 0.420611
O O5 0.034925 0.645628 0.411670
O O6 0.187693 0.575425 0.296761
O O7 0.936228 0.681571 0.313066
O O8 0.765249 0.746001 0.904547
O O9 0.840355 0.887081 0.930351
O O10 0.577617 0.810967 0.017448
O O11 0.913600 0.314288 0.143527
O O12 0.779507 0.426764 0.228465
O O13 0.666140 0.287310 0.253942
O O14 0.000000 0.324044 0.250000
O O15 0.707111 0.517036 0.626523
O O16 0.500000 0.515903 0.250000
#
# Coordination Sequence:
#
# PCOD8142971 Si02
#       8
#     8   8   8   8   8   8   8   4
#     4  10  21  40  67  97 132 173 220 276 331 400
#     4  11  25  42  67  96 130 173 222 280 329 403
#     4   9  21  41  65  99 128 169 218 272 334 396
#     4  10  21  39  70  92 131 174 217 270 336 396
#     4  12  27  46  69  95 135 182 220 283 339 402
#     4   9  22  39  65  98 138 169 218 277 335 390
#     4  11  25  41  69  99 132 174 229 276 331 406
#     4  12  30  48  64 100 138 174 232 278 342 408
#
# _framework density 21.282395999999999
#
# number of rings (size 3 to 8) (size 9 to 14) (size 15 to 20)
#    0.000    1.600    2.000    0.800    8.400    4.267 
#    0.000    0.667    0.000    0.000    0.000    0.000 
#    0.000    0.000    0.000    0.000    0.000    0.000 
#
# Total GULP energy -371995.201030 kJ/mol
# GULP energy per Si atom -12399.840034 kJ/mol
# Density = 2.123396 g / cm^3
# Si number density = 21.282396 Si / 1000 Ang^3
#
#
#
# Elastic Constant Matrix: (Units=GPa)
#
#
# Indices 1 2 3 4 5 6 
#
# 1 79.6092 37.6190 23.7357 0.0000 -3.2907 0.0000
# 2 37.6190 105.4963 32.5529 0.0000 2.4658 0.0000
# 3 23.7357 32.5529 75.5583 0.0000 -14.2242 0.0000
# 4 0.0000 0.0000 0.0000 35.3600 0.0000 -1.0244
# 5 -3.2907 2.4658 -14.2242 0.0000 31.2850 0.0000
# 6 0.0000 0.0000 0.0000 -1.0244 0.0000 24.3088
#
#
#
# Elastic Compliance Matrix: (Units=1/GPa)
#
#
# Indices 1 2 3 4 5 6 
#
# 1 0.015654 -0.004762 -0.002718 0.000000 0.000786 0.000000
# 2 -0.004762 0.012698 -0.004656 0.000000 -0.003619 0.000000
# 3 -0.002718 -0.004656 0.017618 0.000000 0.008091 0.000000
# 4 0.000000 0.000000 0.000000 0.028315 0.000000 0.001193
# 5 0.000786 -0.003619 0.008091 0.000000 0.036011 0.000000
# 6 0.000000 0.000000 0.000000 0.001193 0.000000 0.041188
#
#
# Mechanical properties :
#
#
# Convention : Reuss Voigt Hill
#
# Bulk Modulus (GPa) = 46.08637 49.83100 47.95868
# Shear Modulus (GPa) = 27.32394 29.30784 28.31589
#
# Velocity S-wave (km/s) = 3.58701 3.71495 3.65154
# Velocity P-wave (km/s) = 6.23355 6.47040 6.35308
#
# Compressibility (1/GPa) = 0.02169839
#
# Stress axis : x y z
#
# Youngs Moduli (GPa) = 63.87948 78.75013 56.76034
#
# Poissons Ratio (x) = 0.37500 0.15428
# Poissons Ratio (y) = 0.30419 0.26429
# Poissons Ratio (z) = 0.17363 0.36668
#
# Static dielectric constant tensor:
#      x y z
#    x 3.657550 0.000000 0.001790 
#    y 0.000000 3.900490 0.000000 
#    z 0.001790 0.000000 4.110410 
# 
# 
# High freq. dielectric constant tensor:
#      x y z
#    x 1.821170 0.000000 0.002450 
#    y 0.000000 1.837930 0.000000 
#    z 0.002450 0.000000 1.846190 
# 
# From -- ./inp_files/233068.got.cif
#   From: 2010.06.25/outbox.cif.g09.slc.cpg/sg15_117_cif.got.tgz:233068.got - 2010.06.28 07:06:18.
