data_PCOD8142769
_publ_section_title
;
Structure prediction by ZEFSAII (Michael W. Deem and Ramdas Pophale) SiO2 
 PCOD8142769
Probable space group: C 2/C
;
_chemical_formula_sum "Si O2"
_cell_formula_units_Z 36
_cell_length_a 14.727245
_cell_length_b 19.473830
_cell_length_c 8.890519
_cell_angle_alpha 90.000000
_cell_angle_beta 138.122706
_cell_angle_gamma 90.000000
_cell_volume 1702.063240
_symmetry_space_group_name_H-M "C 2/C"
_symmetry_group_IT_number 15
_symmetry_cell_setting 'monoclinic'
loop_
_space_group_symop_operation_xyz
x,y,z
-x,y,1/2-z
-x,-y,-z
x,-y,1/2+z
1/2+x,1/2+y,z
1/2-x,1/2+y,1/2-z
1/2-x,1/2-y,-z
1/2+x,1/2-y,1/2+z
loop_
_atom_site_type_symbol
_atom_site_label
_atom_site_fract_x
_atom_site_fract_y
_atom_site_fract_z
Si Si1 0.821634 0.055066 0.291972
Si Si2 0.588513 0.953225 0.000902
Si Si3 0.315111 0.195354 0.382267
Si Si4 0.500000 0.519360 0.250000
Si Si5 0.115714 0.311114 0.184662
O O1 0.747215 0.124136 0.252447
O O2 0.899939 0.030042 0.535454
O O3 0.716829 0.997337 0.105292
O O4 0.920999 0.068198 0.271450
O O5 0.643530 0.886023 0.152576
O O6 0.500000 0.929889 0.750000
O O7 0.500000 0.000000 0.000000
O O8 0.209829 0.256262 0.213647
O O9 0.340830 0.187264 0.589762
O O10 0.457029 0.209610 0.471525
#
# Coordination Sequence:
#
# PCOD8142769 Si02
#       5
#     8   8   8   4   8
#     4  11  22  40  63  92 125 170 207 268 315 390
#     4  12  23  40  69  97 126 164 222 269 319 378
#     4  10  21  39  65  89 133 168 219 260 327 385
#     4  10  24  38  60  94 128 162 214 258 330 376
#     4  10  22  39  61  98 124 176 213 269 315 391
#
# _framework density 21.150801000000001
#
# number of rings (size 3 to 8) (size 9 to 14) (size 15 to 20)
#    0.000    1.333    2.222    4.000    0.000    7.111 
#    2.000    1.111    0.000    0.000    0.000    0.000 
#    0.000    0.000    0.000    0.000    0.000    0.000 
#
# Total GULP energy -223271.089382 kJ/mol
# GULP energy per Si atom -12403.949410 kJ/mol
# Density = 2.110266 g / cm^3
# Si number density = 21.150801 Si / 1000 Ang^3
#
#
#
# Elastic Constant Matrix: (Units=GPa)
#
#
# Indices 1 2 3 4 5 6 
#
# 1 69.6986 35.2465 19.3639 0.0000 16.5273 0.0000
# 2 35.2465 151.4328 37.2814 0.0000 26.0729 0.0000
# 3 19.3639 37.2814 85.3396 0.0000 18.6324 0.0000
# 4 0.0000 0.0000 0.0000 15.6738 0.0000 26.9968
# 5 16.5273 26.0729 18.6324 0.0000 34.9261 0.0000
# 6 0.0000 0.0000 0.0000 26.9968 0.0000 21.6345
#
#
#
# Elastic Compliance Matrix: (Units=1/GPa)
#
#
# Indices 1 2 3 4 5 6 
#
# 1 0.017449 -0.002748 -0.001589 0.000000 -0.005358 0.000000
# 2 -0.002748 0.008450 -0.002235 0.000000 -0.003816 0.000000
# 3 -0.001589 -0.002235 0.014178 0.000000 -0.005143 0.000000
# 4 0.000000 0.000000 0.000000 -0.055511 0.000000 0.069270
# 5 -0.005358 -0.003816 -0.005143 0.000000 0.036760 0.000000
# 6 0.000000 0.000000 0.000000 0.069270 0.000000 -0.040217
#
#
# Mechanical properties :
#
#
# Convention : Reuss Voigt Hill
#
# Bulk Modulus (GPa) = 37.12828 54.47271 45.80050
# Shear Modulus (GPa) = 1548.13842 28.75218 788.44530
#
# Velocity S-wave (km/s) = 27.08397 3.69099 19.32828
# Velocity P-wave (km/s) = 31.55389 6.63136 22.79937
#
# Compressibility (1/GPa) = 0.02693365
#
# Stress axis : x y z
#
# Youngs Moduli (GPa) = 57.31001 118.33862 70.53295
#
# Poissons Ratio (x) = 0.32514 0.11208
# Poissons Ratio (y) = 0.15746 0.15765
# Poissons Ratio (z) = 0.09107 0.26449
#
# Static dielectric constant tensor:
#      x y z
#    x 2.059080 0.000000 0.943200 
#    y 0.000000 3.775020 0.000000 
#    z 0.943200 0.000000 3.938200 
# 
# 
# High freq. dielectric constant tensor:
#      x y z
#    x 1.829360 0.000000 0.019050 
#    y 0.000000 1.821050 0.000000 
#    z 0.019050 0.000000 1.833450 
# 
# From -- ./inp_files/30088.got.cif
#   From: 2010.06.25/outbox.cif.g09.slc.cpg/sg15_16_cif.got.tgz:30088.got - 2010.06.28 07:06:18.
