data_PCOD8142312
_publ_section_title
;
Structure prediction by ZEFSAII (Michael W. Deem and Ramdas Pophale) SiO2 
 PCOD8142312
Probable space group: C 2/C
;
_chemical_formula_sum "Si O2"
_cell_formula_units_Z 64
_cell_length_a 7.975067
_cell_length_b 22.620931
_cell_length_c 29.435484
_cell_angle_alpha 90.000000
_cell_angle_beta 145.770789
_cell_angle_gamma 90.000000
_cell_volume 2987.049114
_symmetry_space_group_name_H-M "C 2/C"
_symmetry_group_IT_number 15
_symmetry_cell_setting 'monoclinic'
loop_
_space_group_symop_operation_xyz
x,y,z
-x,y,1/2-z
-x,-y,-z
x,-y,1/2+z
1/2+x,1/2+y,z
1/2-x,1/2+y,1/2-z
1/2-x,1/2-y,-z
1/2+x,1/2-y,1/2+z
loop_
_atom_site_type_symbol
_atom_site_label
_atom_site_fract_x
_atom_site_fract_y
_atom_site_fract_z
Si Si1 0.782649 0.576493 0.958512
Si Si2 0.191901 0.471292 0.200795
Si Si3 0.605748 0.630661 0.067820
Si Si4 0.328867 0.869685 0.169344
Si Si5 0.329597 0.906444 0.759040
Si Si6 0.327709 0.030289 0.532971
Si Si7 0.462110 0.276760 0.459963
Si Si8 0.688763 0.654067 0.402988
O O1 0.471436 0.604964 0.876499
O O2 0.922586 0.562950 0.941092
O O3 0.704190 0.521382 0.973237
O O4 0.995705 0.621003 0.034610
O O5 0.500000 0.445560 0.250000
O O6 0.268624 0.527511 0.249513
O O7 0.033027 0.420022 0.193230
O O8 0.979485 0.493707 0.112500
O O9 0.448672 0.634279 0.080799
O O10 0.959070 0.621493 0.154572
O O11 0.443969 0.572572 0.010500
O O12 0.562006 0.689362 0.028009
O O13 0.500000 0.840092 0.250000
O O14 0.242510 0.820272 0.114367
O O15 0.500000 0.910806 0.750000
O O16 0.036479 0.864983 0.688023
O O17 0.750000 0.250000 0.500000
O O18 0.235231 0.223684 0.418332
#
# Coordination Sequence:
#
# PCOD8142312 Si02
#       8
#     8   8   8   8   8   8   8   8
#     4  10  21  41  66  93 137 177 214 270 343 401
#     4  12  24  39  65  99 138 170 223 268 339 405
#     4  10  22  42  68  97 129 178 218 278 332 402
#     4  12  26  43  63  93 137 175 216 278 338 389
#     4  10  23  42  68 101 134 171 218 279 338 398
#     4  10  21  38  66 100 131 175 221 270 335 412
#     4  12  25  44  68  94 129 177 233 278 329 396
#     4  10  22  44  68  95 132 174 229 265 337 398
#
# _framework density 21.425827000000002
#
# number of rings (size 3 to 8) (size 9 to 14) (size 15 to 20)
#    0.000    1.250    2.500    3.000    1.750    7.000 
#    0.000    1.875    0.000    0.000    0.000    0.000 
#    0.000    0.000    0.000    0.000    0.000    0.000 
#
# Total GULP energy -396777.423067 kJ/mol
# GULP energy per Si atom -12399.294471 kJ/mol
# Density = 2.137706 g / cm^3
# Si number density = 21.425827 Si / 1000 Ang^3
#
#
#
# Elastic Constant Matrix: (Units=GPa)
#
#
# Indices 1 2 3 4 5 6 
#
# 1 42.1284 15.6888 31.5664 -0.0068 14.5801 -0.0133
# 2 15.6888 118.6300 48.9835 -0.0036 8.4726 -0.0148
# 3 31.5664 48.9835 144.0420 0.0191 9.8679 -0.0060
# 4 -0.0068 -0.0036 0.0191 31.0617 0.0011 -9.1858
# 5 14.5801 8.4726 9.8679 0.0011 31.9198 -0.0127
# 6 -0.0133 -0.0148 -0.0060 -9.1858 -0.0127 26.7260
#
#
#
# Elastic Compliance Matrix: (Units=1/GPa)
#
#
# Indices 1 2 3 4 5 6 
#
# 1 0.033122 -0.000956 -0.006042 0.000015 -0.013008 0.000014
# 2 -0.000956 0.009915 -0.003077 0.000004 -0.001244 0.000005
# 3 -0.006042 -0.003077 0.009264 -0.000009 0.000713 -0.000005
# 4 0.000015 0.000004 -0.000009 0.035836 -0.000002 0.012317
# 5 -0.013008 -0.001244 0.000713 -0.000002 0.037380 0.000010
# 6 0.000014 0.000005 -0.000005 0.012317 0.000010 0.041650
#
#
# Mechanical properties :
#
#
# Convention : Reuss Voigt Hill
#
# Bulk Modulus (GPa) = 31.10397 55.25309 43.17853
# Shear Modulus (GPa) = 25.24782 31.84562 28.54672
#
# Velocity S-wave (km/s) = 3.43648 3.85946 3.65410
# Velocity P-wave (km/s) = 5.50404 6.76052 6.16438
#
# Compressibility (1/GPa) = 0.03215024
#
# Stress axis : x y z
#
# Youngs Moduli (GPa) = 30.19107 100.85275 107.94297
#
# Poissons Ratio (x) = 0.09646 0.65222
# Poissons Ratio (y) = 0.02888 0.33215
# Poissons Ratio (z) = 0.18242 0.31033
#
# Static dielectric constant tensor:
#      x y z
#    x 3.842000 0.000280 0.059910 
#    y 0.000280 4.276730 -0.000120 
#    z 0.059910 -0.000120 4.208580 
# 
# 
# High freq. dielectric constant tensor:
#      x y z
#    x 1.845180 0.000000 0.004040 
#    y 0.000000 1.830910 0.000000 
#    z 0.004040 0.000000 1.855550 
# 
# From -- ./inp_files/309135.got.cif
#   From: 2010.06.25/outbox.cif.g09.slc.cpg/sg15_155_cif.got.tgz:309135.got - 2010.06.28 07:06:18.
