data_PCOD8142581
_publ_section_title
;
Structure prediction by ZEFSAII (Michael W. Deem and Ramdas Pophale) SiO2 
 PCOD8142581
Probable space group: C 2/C
;
_chemical_formula_sum "Si O2"
_cell_formula_units_Z 56
_cell_length_a 11.954508
_cell_length_b 8.519726
_cell_length_c 28.125656
_cell_angle_alpha 90.000000
_cell_angle_beta 67.370085
_cell_angle_gamma 90.000000
_cell_volume 2644.028551
_symmetry_space_group_name_H-M "C 2/C"
_symmetry_group_IT_number 15
_symmetry_cell_setting 'monoclinic'
loop_
_space_group_symop_operation_xyz
x,y,z
-x,y,1/2-z
-x,-y,-z
x,-y,1/2+z
1/2+x,1/2+y,z
1/2-x,1/2+y,1/2-z
1/2-x,1/2-y,-z
1/2+x,1/2-y,1/2+z
loop_
_atom_site_type_symbol
_atom_site_label
_atom_site_fract_x
_atom_site_fract_y
_atom_site_fract_z
Si Si1 0.097374 0.565622 0.642617
Si Si2 0.322116 0.081998 0.702517
Si Si3 0.638836 0.860298 0.029502
Si Si4 0.256045 0.618798 0.959161
Si Si5 0.137602 0.794132 0.717291
Si Si6 0.722766 0.683817 0.371765
Si Si7 0.007769 0.938130 0.551382
O O1 0.148032 0.572123 0.580971
O O2 0.135912 0.725462 0.663817
O O3 0.155252 0.412237 0.656429
O O4 0.955874 0.524422 0.667448
O O5 0.319233 0.148839 0.756642
O O6 0.296728 0.231617 0.674395
O O7 0.226535 0.942413 0.708883
O O8 0.521015 0.751685 0.044889
O O9 0.750000 0.750000 0.000000
O O10 0.645263 0.000525 0.990017
O O11 0.235986 0.686763 0.910661
O O12 0.385455 0.527805 0.938368
O O13 0.250000 0.750000 0.000000
O O14 0.000000 0.849801 0.750000
O O15 0.618437 0.552128 0.399488
O O16 0.000000 0.000000 0.500000
#
# Coordination Sequence:
#
# PCOD8142581 Si02
#       7
#     8   8   8   8   8   8   8
#     4  11  23  44  64  98 134 170 215 274 321 392
#     4  11  25  45  70 100 125 169 218 270 343 398
#     4  10  21  39  62  89 140 178 217 265 323 377
#     4  11  22  39  59  91 130 179 225 265 309 385
#     4  10  25  46  72  95 130 163 215 278 338 398
#     4  12  24  40  64  95 134 170 222 268 320 392
#     4  11  22  40  59  89 133 181 221 268 318 377
#
# _framework density 21.179801000000001
#
# number of rings (size 3 to 8) (size 9 to 14) (size 15 to 20)
#    0.000    1.143    4.286    1.714    4.000    2.857 
#    2.571    0.000    0.000    0.000    0.000    0.000 
#    0.000    0.000    0.000    0.000    0.000    0.000 
#
# Total GULP energy -347094.549398 kJ/mol
# GULP energy per Si atom -12396.233907 kJ/mol
# Density = 2.113160 g / cm^3
# Si number density = 21.179801 Si / 1000 Ang^3
#
#
#
# Elastic Constant Matrix: (Units=GPa)
#
#
# Indices 1 2 3 4 5 6 
#
# 1 117.5528 52.0398 27.2286 0.0000 -14.3302 0.0000
# 2 52.0398 98.8430 20.5665 0.0000 -16.4004 0.0000
# 3 27.2286 20.5665 70.1087 0.0000 -5.7205 0.0000
# 4 0.0000 0.0000 0.0000 34.9832 0.0000 5.5045
# 5 -14.3302 -16.4004 -5.7205 0.0000 27.7551 0.0000
# 6 0.0000 0.0000 0.0000 5.5045 0.0000 54.5374
#
#
#
# Elastic Compliance Matrix: (Units=1/GPa)
#
#
# Indices 1 2 3 4 5 6 
#
# 1 0.011762 -0.005200 -0.002846 0.000000 0.002414 0.000000
# 2 -0.005200 0.014082 -0.001680 0.000000 0.005290 0.000000
# 3 -0.002846 -0.001680 0.015929 0.000000 0.000821 0.000000
# 4 0.000000 0.000000 0.000000 0.029046 0.000000 -0.002932
# 5 0.002414 0.005290 0.000821 0.000000 0.040571 0.000000
# 6 0.000000 0.000000 0.000000 -0.002932 0.000000 0.018632
#
#
# Mechanical properties :
#
#
# Convention : Reuss Voigt Hill
#
# Bulk Modulus (GPa) = 44.79961 54.01937 49.40949
# Shear Modulus (GPa) = 31.86462 35.89978 33.88220
#
# Velocity S-wave (km/s) = 3.88297 4.12150 4.00402
# Velocity P-wave (km/s) = 6.42661 6.94331 6.68995
#
# Compressibility (1/GPa) = 0.02232163
#
# Stress axis : x y z
#
# Youngs Moduli (GPa) = 85.01768 71.01221 62.78025
#
# Poissons Ratio (x) = 0.36927 0.17866
# Poissons Ratio (y) = 0.44210 0.10546
# Poissons Ratio (z) = 0.24194 0.11928
#
# Static dielectric constant tensor:
#      x y z
#    x 4.136090 0.000000 -0.060940 
#    y 0.000000 4.290480 0.000000 
#    z -0.060940 0.000000 3.964430 
# 
# 
# High freq. dielectric constant tensor:
#      x y z
#    x 1.839550 0.000000 -0.001020 
#    y 0.000000 1.833980 0.000000 
#    z -0.001020 0.000000 1.830800 
# 
# From -- ./inp_files/309935.got.cif
#   From: 2010.06.25/outbox.cif.g09.slc.cpg/sg15_155_cif.got.tgz:309935.got - 2010.06.28 07:06:18.
