data_PCOD8142885
_publ_section_title
;
Structure prediction by ZEFSAII (Michael W. Deem and Ramdas Pophale) SiO2 
 PCOD8142885
Probable space group: C 2/C
;
_chemical_formula_sum "Si O2"
_cell_formula_units_Z 48
_cell_length_a 10.711158
_cell_length_b 11.391201
_cell_length_c 21.177846
_cell_angle_alpha 90.000000
_cell_angle_beta 65.634971
_cell_angle_gamma 90.000000
_cell_volume 2353.831755
_symmetry_space_group_name_H-M "C 2/C"
_symmetry_group_IT_number 15
_symmetry_cell_setting 'monoclinic'
loop_
_space_group_symop_operation_xyz
x,y,z
-x,y,1/2-z
-x,-y,-z
x,-y,1/2+z
1/2+x,1/2+y,z
1/2-x,1/2+y,1/2-z
1/2-x,1/2-y,-z
1/2+x,1/2-y,1/2+z
loop_
_atom_site_type_symbol
_atom_site_label
_atom_site_fract_x
_atom_site_fract_y
_atom_site_fract_z
Si Si1 0.426733 0.596577 0.155213
Si Si2 0.399827 0.460886 0.465979
Si Si3 0.044735 0.210475 0.646767
Si Si4 0.183036 0.455110 0.609892
Si Si5 0.470239 0.851759 0.186075
Si Si6 0.672962 0.411382 0.236985
O O1 0.573355 0.552152 0.097024
O O2 0.303351 0.553311 0.135876
O O3 0.437473 0.736081 0.152686
O O4 0.398593 0.535874 0.229201
O O5 0.500000 0.500000 0.500000
O O6 0.434495 0.332347 0.429847
O O7 0.245826 0.457445 0.525799
O O8 0.079862 0.347177 0.642180
O O9 0.139931 0.130273 0.672943
O O10 0.887770 0.189581 0.702600
O O11 0.098278 0.575177 0.633386
O O12 0.500000 0.809336 0.250000
O O13 0.334240 0.930690 0.212082
#
# Coordination Sequence:
#
# PCOD8142885 Si02
#       6
#     8   8   8   8   8   8
#     4  10  22  42  60  90 133 165 213 267 318 388
#     4   9  21  41  65  87 125 173 215 261 326 378
#     4  10  21  39  67  89 123 172 211 269 322 382
#     4  11  22  40  65  90 124 170 217 261 319 392
#     4  12  25  37  65  99 130 168 214 267 326 388
#     4  10  22  38  61  94 128 166 209 268 331 372
#
# _framework density 20.392282999999999
#
# number of rings (size 3 to 8) (size 9 to 14) (size 15 to 20)
#    0.000    1.667    3.333    0.500    9.333    0.667 
#    0.000    0.833    0.000    0.000    0.000    0.000 
#    0.000    0.000    0.000    0.000    0.000    0.000 
#
# Total GULP energy -297374.406142 kJ/mol
# GULP energy per Si atom -12390.600256 kJ/mol
# Density = 2.034587 g / cm^3
# Si number density = 20.392283 Si / 1000 Ang^3
#
#
#
# Elastic Constant Matrix: (Units=GPa)
#
#
# Indices 1 2 3 4 5 6 
#
# 1 71.6406 28.4992 26.2448 0.0000 -11.0699 0.0000
# 2 28.4992 125.0608 40.1992 0.0000 -9.3596 0.0000
# 3 26.2448 40.1992 95.5718 0.0000 -13.9150 0.0000
# 4 0.0000 0.0000 0.0000 10.8541 0.0000 -3.6332
# 5 -11.0699 -9.3596 -13.9150 0.0000 28.1229 0.0000
# 6 0.0000 0.0000 0.0000 -3.6332 0.0000 34.2616
#
#
#
# Elastic Compliance Matrix: (Units=1/GPa)
#
#
# Indices 1 2 3 4 5 6 
#
# 1 0.016696 -0.002556 -0.002884 0.000000 0.004294 0.000000
# 2 -0.002556 0.009678 -0.003283 0.000000 0.000590 0.000000
# 3 -0.002884 -0.003283 0.013268 0.000000 0.004337 0.000000
# 4 0.000000 0.000000 0.000000 0.095522 0.000000 0.010129
# 5 0.004294 0.000590 0.004337 0.000000 0.039591 0.000000
# 6 0.000000 0.000000 0.000000 0.010129 0.000000 0.030261
#
#
# Mechanical properties :
#
#
# Convention : Reuss Voigt Hill
#
# Bulk Modulus (GPa) = 45.05615 53.57329 49.31472
# Shear Modulus (GPa) = 21.75236 27.80306 24.77771
#
# Velocity S-wave (km/s) = 3.26957 3.69644 3.48954
# Velocity P-wave (km/s) = 6.03292 6.67433 6.36171
#
# Compressibility (1/GPa) = 0.02219453
#
# Stress axis : x y z
#
# Youngs Moduli (GPa) = 59.89608 103.32685 75.37116
#
# Poissons Ratio (x) = 0.26412 0.21740
# Poissons Ratio (y) = 0.15310 0.24743
# Poissons Ratio (z) = 0.17276 0.33921
#
# Static dielectric constant tensor:
#      x y z
#    x 3.635760 0.000000 -0.163230 
#    y 0.000000 3.540980 0.000000 
#    z -0.163230 0.000000 4.151180 
# 
# 
# High freq. dielectric constant tensor:
#      x y z
#    x 1.782330 0.000000 -0.006450 
#    y 0.000000 1.787110 0.000000 
#    z -0.006450 0.000000 1.803460 
# 
# From -- ./inp_files/236567.got.cif
#   From: 2010.06.25/outbox.cif.g09.slc.cpg/sg15_119_cif.got.tgz:236567.got - 2010.06.28 07:06:18.
