data_PCOD8142263
_publ_section_title
;
Structure prediction by ZEFSAII (Michael W. Deem and Ramdas Pophale) SiO2 
 PCOD8142263
Probable space group: C 2/C
;
_chemical_formula_sum "Si O2"
_cell_formula_units_Z 48
_cell_length_a 13.852452
_cell_length_b 16.768146
_cell_length_c 9.286953
_cell_angle_alpha 90.000000
_cell_angle_beta 81.795012
_cell_angle_gamma 90.000000
_cell_volume 2135.091633
_symmetry_space_group_name_H-M "C 2/C"
_symmetry_group_IT_number 15
_symmetry_cell_setting 'monoclinic'
loop_
_space_group_symop_operation_xyz
x,y,z
-x,y,1/2-z
-x,-y,-z
x,-y,1/2+z
1/2+x,1/2+y,z
1/2-x,1/2+y,1/2-z
1/2-x,1/2-y,-z
1/2+x,1/2-y,1/2+z
loop_
_atom_site_type_symbol
_atom_site_label
_atom_site_fract_x
_atom_site_fract_y
_atom_site_fract_z
Si Si1 0.757920 0.890689 0.855424
Si Si2 0.576073 0.626146 0.976869
Si Si3 0.500000 0.015336 0.750000
Si Si4 0.000000 0.231785 0.750000
Si Si5 0.316758 0.811209 0.900255
Si Si6 0.075638 0.037738 0.347864
Si Si7 0.629761 0.036972 0.970353
O O1 0.709988 0.824006 0.762772
O O2 0.819643 0.947954 0.740619
O O3 0.678703 0.949013 0.948279
O O4 0.830450 0.844171 0.950608
O O5 0.570122 0.677217 0.833979
O O6 0.596078 0.531118 0.958413
O O7 0.470808 0.622038 0.081692
O O8 0.552113 0.961701 0.617905
O O9 0.579881 0.063849 0.827968
O O10 0.070052 0.282870 0.630002
O O11 0.250000 0.750000 0.000000
O O12 0.299191 0.891611 0.998196
O O13 0.000000 0.000529 0.250000
#
# Coordination Sequence:
#
# PCOD8142263 Si02
#       7
#     8   8   4   4   8   8   8
#     4  11  23  40  72  98 132 176 242 281 334 411
#     4  10  21  38  64  94 134 178 219 279 346 421
#     4  10  23  42  76  98 135 178 252 278 333 388
#     4  12  27  44  62  90 151 180 218 280 367 406
#     4  12  28  46  67 103 145 179 224 288 359 410
#     4   9  18  36  64  99 126 165 228 278 338 401
#     4  11  23  46  72 103 134 182 233 293 332 409
#
# _framework density 22.481470000000002
#
# number of rings (size 3 to 8) (size 9 to 14) (size 15 to 20)
#    0.000    1.333    2.500    2.500    4.667    0.667 
#    3.000    0.000    0.000    0.000    0.000    0.000 
#    0.000    0.000    0.000    0.000    0.000    0.000 
#
# Total GULP energy -297314.255460 kJ/mol
# GULP energy per Si atom -12388.093978 kJ/mol
# Density = 2.243030 g / cm^3
# Si number density = 22.481470 Si / 1000 Ang^3
#
#
#
# Elastic Constant Matrix: (Units=GPa)
#
#
# Indices 1 2 3 4 5 6 
#
# 1 89.6128 27.0505 38.3248 0.0000 0.4655 0.0000
# 2 27.0505 78.3227 40.3936 0.0000 6.1601 0.0000
# 3 38.3248 40.3936 127.5713 0.0000 17.4203 0.0000
# 4 0.0000 0.0000 0.0000 37.6453 0.0000 -3.0833
# 5 0.4655 6.1601 17.4203 0.0000 55.7542 0.0000
# 6 0.0000 0.0000 0.0000 -3.0833 0.0000 21.0889
#
#
#
# Elastic Compliance Matrix: (Units=1/GPa)
#
#
# Indices 1 2 3 4 5 6 
#
# 1 0.013468 -0.003077 -0.003241 0.000000 0.001240 0.000000
# 2 -0.003077 0.015965 -0.004067 0.000000 -0.000468 0.000000
# 3 -0.003241 -0.004067 0.010482 0.000000 -0.002799 0.000000
# 4 0.000000 0.000000 0.000000 0.026886 0.000000 0.003931
# 5 0.001240 -0.000468 -0.002799 0.000000 0.018852 0.000000
# 6 0.000000 0.000000 0.000000 0.003931 0.000000 0.047993
#
#
# Mechanical properties :
#
#
# Convention : Reuss Voigt Hill
#
# Bulk Modulus (GPa) = 52.23397 56.33829 54.28613
# Shear Modulus (GPa) = 31.09525 35.54687 33.32106
#
# Velocity S-wave (km/s) = 3.72311 3.98070 3.85406
# Velocity P-wave (km/s) = 6.46272 6.80016 6.63359
#
# Compressibility (1/GPa) = 0.01914463
#
# Stress axis : x y z
#
# Youngs Moduli (GPa) = 74.25196 62.63848 95.40003
#
# Poissons Ratio (x) = 0.19277 0.30918
# Poissons Ratio (y) = 0.22851 0.38795
# Poissons Ratio (z) = 0.24064 0.25472
#
# Static dielectric constant tensor:
#      x y z
#    x 4.237520 0.000000 0.126140 
#    y 0.000000 3.669320 0.000000 
#    z 0.126140 0.000000 4.352680 
# 
# 
# High freq. dielectric constant tensor:
#      x y z
#    x 1.896670 0.000000 0.003880 
#    y 0.000000 1.843040 0.000000 
#    z 0.003880 0.000000 1.899770 
# 
# From -- ./inp_files/39670.got.cif
#   From: 2010.06.25/outbox.cif.g09.slc.cpg/sg15_20_cif.got.tgz:39670.got - 2010.06.28 07:06:18.
