data_PCOD8142925
_publ_section_title
;
Structure prediction by ZEFSAII (Michael W. Deem and Ramdas Pophale) SiO2 
 PCOD8142925
Probable space group: C 2/C
;
_chemical_formula_sum "Si O2"
_cell_formula_units_Z 56
_cell_length_a 8.318690
_cell_length_b 12.279007
_cell_length_c 27.473009
_cell_angle_alpha 90.000000
_cell_angle_beta 61.152699
_cell_angle_gamma 90.000000
_cell_volume 2458.007699
_symmetry_space_group_name_H-M "C 2/C"
_symmetry_group_IT_number 15
_symmetry_cell_setting 'monoclinic'
loop_
_space_group_symop_operation_xyz
x,y,z
-x,y,1/2-z
-x,-y,-z
x,-y,1/2+z
1/2+x,1/2+y,z
1/2-x,1/2+y,1/2-z
1/2-x,1/2-y,-z
1/2+x,1/2-y,1/2+z
loop_
_atom_site_type_symbol
_atom_site_label
_atom_site_fract_x
_atom_site_fract_y
_atom_site_fract_z
Si Si1 0.669690 0.611208 0.602219
Si Si2 0.527769 0.771896 0.191895
Si Si3 0.663310 0.220118 0.187769
Si Si4 0.563116 0.800523 0.506728
Si Si5 0.588536 0.412878 0.452277
Si Si6 0.408311 0.997200 0.849233
Si Si7 0.315621 0.099680 0.120887
O O1 0.612840 0.703028 0.649440
O O2 0.875310 0.637915 0.551555
O O3 0.517042 0.606556 0.582960
O O4 0.672477 0.492593 0.625775
O O5 0.500000 0.724759 0.250000
O O6 0.353047 0.754822 0.183656
O O7 0.706236 0.712374 0.143796
O O8 0.556224 0.901588 0.191557
O O9 0.500000 0.229298 0.250000
O O10 0.695299 0.096138 0.165800
O O11 0.750000 0.750000 0.500000
O O12 0.417505 0.702571 0.517861
O O13 0.474684 0.884548 0.557596
O O14 0.500000 0.500000 0.500000
O O15 0.791862 0.455376 0.411605
O O16 0.594142 0.942394 0.842234
#
# Coordination Sequence:
#
# PCOD8142925 Si02
#       7
#     8   8   8   8   8   8   8
#     4  11  24  44  72 107 149 193 251 303 370 445
#     4  12  28  48  73 108 143 189 252 309 375 441
#     4  12  27  50  75 104 144 196 248 309 376 441
#     4  10  21  39  68 103 144 191 234 295 360 431
#     4  11  22  41  70 107 149 193 242 301 369 441
#     4  12  24  47  74 105 146 191 246 297 379 435
#     4  12  24  47  71 107 150 189 243 309 359 452
#
# _framework density 22.782679000000002
#
# number of rings (size 3 to 8) (size 9 to 14) (size 15 to 20)
#    0.000    0.571    2.857    6.857    2.000    0.571 
#    2.571    2.143    0.000    0.000    0.000    0.000 
#    0.000    0.000    0.000    0.000    0.000    0.000 
#
# Total GULP energy -347237.823955 kJ/mol
# GULP energy per Si atom -12401.350856 kJ/mol
# Density = 2.273082 g / cm^3
# Si number density = 22.782679 Si / 1000 Ang^3
#
#
#
# Elastic Constant Matrix: (Units=GPa)
#
#
# Indices 1 2 3 4 5 6 
#
# 1 77.3163 31.3543 15.5560 0.0000 1.6509 0.0000
# 2 31.3543 153.1410 28.9064 0.0000 3.1232 0.0000
# 3 15.5560 28.9064 106.4490 0.0000 -7.2117 0.0000
# 4 0.0000 0.0000 0.0000 34.9376 0.0000 -1.1677
# 5 1.6509 3.1232 -7.2117 0.0000 33.9980 0.0000
# 6 0.0000 0.0000 0.0000 -1.1677 0.0000 29.2055
#
#
#
# Elastic Compliance Matrix: (Units=1/GPa)
#
#
# Indices 1 2 3 4 5 6 
#
# 1 0.014309 -0.002646 -0.001424 0.000000 -0.000754 0.000000
# 2 -0.002646 0.007409 -0.001687 0.000000 -0.000910 0.000000
# 3 -0.001424 -0.001687 0.010222 0.000000 0.002392 0.000000
# 4 0.000000 0.000000 0.000000 0.028661 0.000000 0.001146
# 5 -0.000754 -0.000910 0.002392 0.000000 0.030041 0.000000
# 6 0.000000 0.000000 0.000000 0.001146 0.000000 0.034286
#
#
# Mechanical properties :
#
#
# Convention : Reuss Voigt Hill
#
# Bulk Modulus (GPa) = 48.95273 54.28221 51.61747
# Shear Modulus (GPa) = 34.90407 37.03419 35.96913
#
# Velocity S-wave (km/s) = 3.91838 4.03617 3.97771
# Velocity P-wave (km/s) = 6.48113 6.75268 6.61830
#
# Compressibility (1/GPa) = 0.02042787
#
# Stress axis : x y z
#
# Youngs Moduli (GPa) = 69.88459 134.97914 97.82450
#
# Poissons Ratio (x) = 0.35710 0.13928
# Poissons Ratio (y) = 0.18489 0.16501
# Poissons Ratio (z) = 0.09950 0.22769
#
# Static dielectric constant tensor:
#      x y z
#    x 3.919420 0.000000 -0.133890 
#    y 0.000000 4.691060 0.000000 
#    z -0.133890 0.000000 4.381160 
# 
# 
# High freq. dielectric constant tensor:
#      x y z
#    x 1.884250 0.000000 -0.004840 
#    y 0.000000 1.921670 0.000000 
#    z -0.004840 0.000000 1.902600 
# 
# From -- ./inp_files/307415.got.cif
#   From: 2010.06.25/outbox.cif.g09.slc.cpg/sg15_154_cif.got.tgz:307415.got - 2010.06.28 07:06:18.
