data_PCOD8142440
_publ_section_title
;
Structure prediction by ZEFSAII (Michael W. Deem and Ramdas Pophale) SiO2 
 PCOD8142440
Probable space group: C 2/C
;
_chemical_formula_sum "Si O2"
_cell_formula_units_Z 64
_cell_length_a 24.002880
_cell_length_b 17.215784
_cell_length_c 20.215542
_cell_angle_alpha 90.000000
_cell_angle_beta 22.648204
_cell_angle_gamma 90.000000
_cell_volume 3216.750499
_symmetry_space_group_name_H-M "C 2/C"
_symmetry_group_IT_number 15
_symmetry_cell_setting 'monoclinic'
loop_
_space_group_symop_operation_xyz
x,y,z
-x,y,1/2-z
-x,-y,-z
x,-y,1/2+z
1/2+x,1/2+y,z
1/2-x,1/2+y,1/2-z
1/2-x,1/2-y,-z
1/2+x,1/2-y,1/2+z
loop_
_atom_site_type_symbol
_atom_site_label
_atom_site_fract_x
_atom_site_fract_y
_atom_site_fract_z
Si Si1 0.037761 0.818228 0.828948
Si Si2 0.466955 0.563729 0.981048
Si Si3 0.365965 0.175993 0.999049
Si Si4 0.184644 0.661624 0.299610
Si Si5 0.562034 0.485199 0.751351
Si Si6 0.547953 0.065206 0.999365
Si Si7 0.678311 0.336021 0.312130
Si Si8 0.111735 0.507555 0.572193
O O1 0.198604 0.796935 0.677741
O O2 0.048045 0.892330 0.770216
O O3 0.971140 0.746089 0.860492
O O4 0.932897 0.835757 0.005165
O O5 0.459073 0.523976 0.918609
O O6 0.593358 0.628265 0.842656
O O7 0.500000 0.500000 0.000000
O O8 0.317171 0.603656 0.162259
O O9 0.401659 0.158296 0.036564
O O10 0.402336 0.100582 0.916563
O O11 0.233262 0.750112 0.231579
O O12 0.079058 0.629809 0.357817
O O13 0.500000 0.514742 0.750000
O O14 0.726387 0.513538 0.582210
O O15 0.688946 0.107883 0.815804
O O16 0.500000 0.000000 0.000000
O O17 0.576327 0.031870 0.041044
O O18 0.000000 0.477168 0.750000
#
# Coordination Sequence:
#
# PCOD8142440 Si02
#       8
#     8   8   8   8   8   8   8   8
#     4  10  22  37  62  91 131 165 206 251 314 382
#     4  12  20  41  67  91 126 163 208 264 311 367
#     4  10  21  39  58  94 128 168 204 252 312 382
#     4  11  23  36  63  99 125 162 206 255 325 374
#     4  11  25  42  63  90 122 171 214 256 316 376
#     4  12  24  39  65  98 127 164 212 262 317 368
#     4  11  22  39  63  95 132 162 200 265 313 376
#     4  11  25  43  61  88 129 166 210 264 313 373
#
# _framework density 19.895854
#
# number of rings (size 3 to 8) (size 9 to 14) (size 15 to 20)
#    0.000    1.000    5.000    2.250    7.000    1.500 
#    0.000    2.500    0.000    4.500    0.000    0.000 
#    0.000    0.000    0.000    0.000    0.000    0.000 
#
# Total GULP energy -396796.552755 kJ/mol
# GULP energy per Si atom -12399.892274 kJ/mol
# Density = 1.985057 g / cm^3
# Si number density = 19.895854 Si / 1000 Ang^3
#
#
#
# Elastic Constant Matrix: (Units=GPa)
#
#
# Indices 1 2 3 4 5 6 
#
# 1 123.3427 37.9280 39.1635 0.0035 -8.0466 -0.0018
# 2 37.9280 67.8088 36.6205 0.0092 -4.3200 -0.0088
# 3 39.1635 36.6205 90.6615 0.0120 -15.7676 -0.0079
# 4 0.0035 0.0092 0.0120 40.6899 -0.0049 -11.5101
# 5 -8.0466 -4.3200 -15.7676 -0.0049 31.7752 0.0029
# 6 -0.0018 -0.0088 -0.0079 -11.5101 0.0029 24.3802
#
#
#
# Elastic Compliance Matrix: (Units=1/GPa)
#
#
# Indices 1 2 3 4 5 6 
#
# 1 0.010303 -0.004325 -0.002574 0.000001 0.000744 -0.000001
# 2 -0.004325 0.020729 -0.006791 -0.000001 -0.001647 0.000005
# 3 -0.002574 -0.006791 0.015991 -0.000002 0.006360 0.000001
# 4 0.000001 -0.000001 -0.000002 0.028364 0.000002 0.013391
# 5 0.000744 -0.001647 0.006360 0.000002 0.034592 -0.000002
# 6 -0.000001 0.000005 0.000001 0.013391 -0.000002 0.047339
#
#
# Mechanical properties :
#
#
# Convention : Reuss Voigt Hill
#
# Bulk Modulus (GPa) = 50.91024 56.58188 53.74606
# Shear Modulus (GPa) = 26.14410 30.57580 28.35995
#
# Velocity S-wave (km/s) = 3.62891 3.92445 3.77957
# Velocity P-wave (km/s) = 6.57287 7.00256 6.79111
#
# Compressibility (1/GPa) = 0.01964241
#
# Stress axis : x y z
#
# Youngs Moduli (GPa) = 97.05446 48.24069 62.53398
#
# Poissons Ratio (x) = 0.20866 0.16098
# Poissons Ratio (y) = 0.41981 0.42467
# Poissons Ratio (z) = 0.24985 0.32761
#
# Static dielectric constant tensor:
#      x y z
#    x 3.560500 0.000000 -0.266370 
#    y 0.000000 4.017820 0.000030 
#    z -0.266370 0.000030 3.649460 
# 
# 
# High freq. dielectric constant tensor:
#      x y z
#    x 1.758840 0.000000 -0.023390 
#    y 0.000000 1.781570 0.000000 
#    z -0.023390 0.000000 1.776020 
# 
# From -- ./inp_files/255972.got.cif
#   From: 2010.06.25/outbox.cif.g09.slc.cpg/sg15_128_cif.got.tgz:255972.got - 2010.06.28 07:06:18.
