data_PCOD8142160
_publ_section_title
;
Structure prediction by ZEFSAII (Michael W. Deem and Ramdas Pophale) SiO2 
 PCOD8142160
Probable space group: C 2/C
;
_chemical_formula_sum "Si O2"
_cell_formula_units_Z 56
_cell_length_a 14.099902
_cell_length_b 20.442362
_cell_length_c 8.796778
_cell_angle_alpha 90.000000
_cell_angle_beta 86.503903
_cell_angle_gamma 90.000000
_cell_volume 2530.823195
_symmetry_space_group_name_H-M "C 2/C"
_symmetry_group_IT_number 15
_symmetry_cell_setting 'monoclinic'
loop_
_space_group_symop_operation_xyz
x,y,z
-x,y,1/2-z
-x,-y,-z
x,-y,1/2+z
1/2+x,1/2+y,z
1/2-x,1/2+y,1/2-z
1/2-x,1/2-y,-z
1/2+x,1/2-y,1/2+z
loop_
_atom_site_type_symbol
_atom_site_label
_atom_site_fract_x
_atom_site_fract_y
_atom_site_fract_z
Si Si1 0.650449 0.438147 0.977053
Si Si2 0.092858 0.518686 0.821842
Si Si3 0.316691 0.295802 0.093192
Si Si4 0.140021 0.412072 0.622364
Si Si5 0.707664 0.436820 0.310424
Si Si6 0.516788 0.324515 0.920288
Si Si7 0.593875 0.765637 0.645190
O O1 0.745918 0.407753 0.894763
O O2 0.647867 0.514506 0.926658
O O3 0.557779 0.398821 0.926562
O O4 0.649738 0.432303 0.159071
O O5 0.099021 0.439626 0.788044
O O6 0.186044 0.539882 0.722711
O O7 0.000000 0.549451 0.750000
O O8 0.096903 0.538358 0.997732
O O9 0.272654 0.367139 0.115804
O O10 0.321072 0.259164 0.255447
O O11 0.250000 0.250000 0.000000
O O12 0.418559 0.311925 0.013407
O O13 0.101969 0.340351 0.595132
O O14 0.500000 0.303878 0.750000
O O15 0.594440 0.276957 0.990764
O O16 0.500000 0.753580 0.750000
#
# Coordination Sequence:
#
# PCOD8142160 Si02
#       7
#     8   8   8   8   8   8   8
#     4  10  23  43  68  98 139 175 228 289 338 414
#     4  10  21  38  62  99 134 173 226 281 325 409
#     4  11  26  45  68  94 136 181 223 282 340 414
#     4  10  22  38  67  94 134 182 217 280 345 398
#     4  10  23  43  67 100 134 184 228 279 353 400
#     4  11  26  45  67 103 133 176 234 284 345 416
#     4  10  23  44  66  92 133 179 223 279 340 410
#
# _framework density 22.127188
#
# number of rings (size 3 to 8) (size 9 to 14) (size 15 to 20)
#    0.000    1.714    1.429    0.857    4.000    9.714 
#    0.000    0.000    0.000    0.000    0.000    0.000 
#    0.000    0.000    0.000    0.000    0.000    0.000 
#
# Total GULP energy -347043.685614 kJ/mol
# GULP energy per Si atom -12394.417343 kJ/mol
# Density = 2.207683 g / cm^3
# Si number density = 22.127188 Si / 1000 Ang^3
#
#
#
# Elastic Constant Matrix: (Units=GPa)
#
#
# Indices 1 2 3 4 5 6 
#
# 1 73.0099 24.5224 32.8680 0.0000 27.1482 0.0000
# 2 24.5224 161.9982 60.4902 0.0000 16.7490 0.0000
# 3 32.8680 60.4902 112.1330 0.0000 22.0403 0.0000
# 4 0.0000 0.0000 0.0000 32.9984 0.0000 6.4685
# 5 27.1482 16.7490 22.0403 0.0000 27.0485 0.0000
# 6 0.0000 0.0000 0.0000 6.4685 0.0000 32.3257
#
#
#
# Elastic Compliance Matrix: (Units=1/GPa)
#
#
# Indices 1 2 3 4 5 6 
#
# 1 0.022476 -0.000414 -0.002359 0.000000 -0.020380 0.000000
# 2 -0.000414 0.007800 -0.003833 0.000000 -0.001291 0.000000
# 3 -0.002359 -0.003833 0.012794 0.000000 -0.005685 0.000000
# 4 0.000000 0.000000 0.000000 0.031542 0.000000 -0.006312
# 5 -0.020380 -0.001291 -0.005685 0.000000 0.062858 0.000000
# 6 0.000000 0.000000 0.000000 -0.006312 0.000000 0.032198
#
#
# Mechanical properties :
#
#
# Convention : Reuss Voigt Hill
#
# Bulk Modulus (GPa) = 33.49063 64.76692 49.12877
# Shear Modulus (GPa) = 25.92924 33.75854 29.84389
#
# Velocity S-wave (km/s) = 3.42691 3.91021 3.67651
# Velocity P-wave (km/s) = 5.55218 7.05125 6.34613
#
# Compressibility (1/GPa) = 0.02985910
#
# Stress axis : x y z
#
# Youngs Moduli (GPa) = 44.49173 128.20155 78.16049
#
# Poissons Ratio (x) = 0.05313 0.18435
# Poissons Ratio (y) = 0.01844 0.29956
# Poissons Ratio (z) = 0.10494 0.49134
#
# Static dielectric constant tensor:
#      x y z
#    x 3.990040 0.000000 0.114360 
#    y 0.000000 4.105150 0.000000 
#    z 0.114360 0.000000 4.154950 
# 
# 
# High freq. dielectric constant tensor:
#      x y z
#    x 1.873190 0.000000 0.004100 
#    y 0.000000 1.872000 0.000000 
#    z 0.004100 0.000000 1.871040 
# 
# From -- ./inp_files/41254.got.cif
#   From: 2010.06.25/outbox.cif.g09.slc.cpg/sg15_21_cif.got.tgz:41254.got - 2010.06.28 07:06:18.
