data_PCOD8142137
_publ_section_title
;
Structure prediction by ZEFSAII (Michael W. Deem and Ramdas Pophale) SiO2 
 PCOD8142137
Probable space group: C 2/C
;
_chemical_formula_sum "Si O2"
_cell_formula_units_Z 48
_cell_length_a 10.722948
_cell_length_b 9.677834
_cell_length_c 22.906078
_cell_angle_alpha 90.000000
_cell_angle_beta 111.652923
_cell_angle_gamma 90.000000
_cell_volume 2209.340337
_symmetry_space_group_name_H-M "C 2/C"
_symmetry_group_IT_number 15
_symmetry_cell_setting 'monoclinic'
loop_
_space_group_symop_operation_xyz
x,y,z
-x,y,1/2-z
-x,-y,-z
x,-y,1/2+z
1/2+x,1/2+y,z
1/2-x,1/2+y,1/2-z
1/2-x,1/2-y,-z
1/2+x,1/2-y,1/2+z
loop_
_atom_site_type_symbol
_atom_site_label
_atom_site_fract_x
_atom_site_fract_y
_atom_site_fract_z
Si Si1 0.682197 0.384051 0.189617
Si Si2 0.877704 0.611499 0.268824
Si Si3 0.547882 0.558612 0.317964
Si Si4 0.039335 0.254200 0.425559
Si Si5 0.855562 0.490534 0.884744
Si Si6 0.667174 0.710953 0.558318
O O1 0.795441 0.497677 0.218829
O O2 0.719444 0.239224 0.227945
O O3 0.540640 0.422150 0.192959
O O4 0.654643 0.371171 0.115993
O O5 0.935591 0.549252 0.339396
O O6 0.000000 0.660727 0.250000
O O7 0.500000 0.636155 0.250000
O O8 0.510322 0.656656 0.365675
O O9 0.698551 0.501257 0.340207
O O10 0.184182 0.324403 0.439909
O O11 0.057901 0.167784 0.489783
O O12 0.918975 0.363714 0.415411
O O13 0.863259 0.374789 0.936330
#
# Coordination Sequence:
#
# PCOD8142137 Si02
#       6
#     8   8   8   8   8   8
#     4  11  24  42  62  92 136 164 217 275 320 389
#     4  11  24  39  63  94 126 170 215 267 328 382
#     4  11  23  39  59  91 130 164 211 270 326 377
#     4  10  21  38  67  89 126 171 215 264 327 383
#     4  10  21  38  62  92 125 171 211 265 328 381
#     4   9  21  41  60  94 126 167 219 269 312 391
#
# _framework density 21.725940999999999
#
# number of rings (size 3 to 8) (size 9 to 14) (size 15 to 20)
#    0.000    1.667    1.667    2.000    2.333    1.333 
#    0.000    0.833    0.000    0.000    0.000    0.000 
#    0.000    0.000    0.000    0.000    0.000    0.000 
#
# Total GULP energy -297353.463456 kJ/mol
# GULP energy per Si atom -12389.727644 kJ/mol
# Density = 2.167649 g / cm^3
# Si number density = 21.725941 Si / 1000 Ang^3
#
#
#
# Elastic Constant Matrix: (Units=GPa)
#
#
# Indices 1 2 3 4 5 6 
#
# 1 80.3115 23.5053 34.2137 0.0000 0.4377 0.0000
# 2 23.5053 80.9170 54.1777 0.0000 8.0112 0.0000
# 3 34.2137 54.1777 171.3680 0.0000 -4.4913 0.0000
# 4 0.0000 0.0000 0.0000 25.8990 0.0000 -0.7247
# 5 0.4377 8.0112 -4.4913 0.0000 31.7245 0.0000
# 6 0.0000 0.0000 0.0000 -0.7247 0.0000 34.1349
#
#
#
# Elastic Compliance Matrix: (Units=1/GPa)
#
#
# Indices 1 2 3 4 5 6 
#
# 1 0.014095 -0.002841 -0.001909 0.000000 0.000253 0.000000
# 2 -0.002841 0.016973 -0.004928 0.000000 -0.004945 0.000000
# 3 -0.001909 -0.004928 0.007837 0.000000 0.002380 0.000000
# 4 0.000000 0.000000 0.000000 0.038635 0.000000 0.000820
# 5 0.000253 -0.004945 0.002380 0.000000 0.033104 0.000000
# 6 0.000000 0.000000 0.000000 0.000820 0.000000 0.029313
#
#
# Mechanical properties :
#
#
# Convention : Reuss Voigt Hill
#
# Bulk Modulus (GPa) = 51.15703 61.82108 56.48906
# Shear Modulus (GPa) = 30.15151 33.06501 31.60826
#
# Velocity S-wave (km/s) = 3.72938 3.90540 3.81840
# Velocity P-wave (km/s) = 6.49168 6.98949 6.74518
#
# Compressibility (1/GPa) = 0.01954766
#
# Stress axis : x y z
#
# Youngs Moduli (GPa) = 70.94703 58.91741 127.59912
#
# Poissons Ratio (x) = 0.16739 0.24362
# Poissons Ratio (y) = 0.20157 0.62885
# Poissons Ratio (z) = 0.13546 0.29036
#
# Static dielectric constant tensor:
#      x y z
#    x 3.803780 0.000000 -0.144180 
#    y 0.000000 3.675980 0.000000 
#    z -0.144180 0.000000 4.307500 
# 
# 
# High freq. dielectric constant tensor:
#      x y z
#    x 1.846190 0.000000 -0.013780 
#    y 0.000000 1.831590 0.000000 
#    z -0.013780 0.000000 1.874260 
# 
# From -- ./inp_files/268084.got.cif
#   From: 2010.06.25/outbox.cif.g09.slc.cpg/sg15_135_cif.got.tgz:268084.got - 2010.06.28 07:06:18.
