data_PCOD8142641
_publ_section_title
;
Structure prediction by ZEFSAII (Michael W. Deem and Ramdas Pophale) SiO2 
 PCOD8142641
Probable space group: C 2/C
;
_chemical_formula_sum "Si O2"
_cell_formula_units_Z 48
_cell_length_a 15.626460
_cell_length_b 25.422166
_cell_length_c 5.180864
_cell_angle_alpha 90.000000
_cell_angle_beta 89.860545
_cell_angle_gamma 90.000000
_cell_volume 2058.135958
_symmetry_space_group_name_H-M "C 2/C"
_symmetry_group_IT_number 15
_symmetry_cell_setting 'monoclinic'
loop_
_space_group_symop_operation_xyz
x,y,z
-x,y,1/2-z
-x,-y,-z
x,-y,1/2+z
1/2+x,1/2+y,z
1/2-x,1/2+y,1/2-z
1/2-x,1/2-y,-z
1/2+x,1/2-y,1/2+z
loop_
_atom_site_type_symbol
_atom_site_label
_atom_site_fract_x
_atom_site_fract_y
_atom_site_fract_z
Si Si1 0.231886 0.696345 0.756939
Si Si2 0.500000 0.371417 0.750000
Si Si3 0.091532 0.967224 0.583852
Si Si4 0.110933 0.221259 0.438974
Si Si5 0.667227 0.144518 0.277141
Si Si6 0.292342 0.030786 0.100206
Si Si7 0.500000 0.793737 0.750000
O O1 0.170358 0.747993 0.729542
O O2 0.234377 0.665267 0.489399
O O3 0.328963 0.714638 0.808691
O O4 0.199241 0.659111 0.991214
O O5 0.545603 0.410458 0.542964
O O6 0.423439 0.335732 0.640326
O O7 0.192026 0.957010 0.597070
O O8 0.064361 0.008093 0.361924
O O9 0.029033 0.256710 0.512754
O O10 0.657104 0.082411 0.311823
O O11 0.575971 0.169319 0.346608
O O12 0.318354 0.986981 0.312430
#
# Coordination Sequence:
#
# PCOD8142641 Si02
#       7
#     8   4   8   8   8   8   4
#     4  10  23  42  64  88 128 169 211 244 297 376
#     4  12  22  36  61  92 125 160 204 252 306 360
#     4  10  23  41  59  85 122 161 199 249 305 359
#     4  10  23  39  61  95 126 166 209 256 299 362
#     4  11  22  42  66  92 123 167 202 252 316 368
#     4  10  21  39  63  88 116 155 209 254 295 365
#     4  10  24  40  63  94 133 158 198 260 322 362
#
# _framework density 23.322074000000001
#
# number of rings (size 3 to 8) (size 9 to 14) (size 15 to 20)
#    0.000    1.667    0.000    3.500    0.000   14.667 
#    0.000    0.833    0.000    0.000    0.000    0.000 
#    0.000    0.000    0.000    0.000    0.000    0.000 
#
# Total GULP energy -297596.614290 kJ/mol
# GULP energy per Si atom -12399.858929 kJ/mol
# Density = 2.326899 g / cm^3
# Si number density = 23.322074 Si / 1000 Ang^3
#
#
#
# Elastic Constant Matrix: (Units=GPa)
#
#
# Indices 1 2 3 4 5 6 
#
# 1 79.9924 43.3085 9.7917 0.0000 6.5807 0.0000
# 2 43.3085 160.9482 30.2898 0.0000 11.6766 0.0000
# 3 9.7917 30.2898 86.5272 0.0000 5.5695 0.0000
# 4 0.0000 0.0000 0.0000 34.3902 0.0000 11.6820
# 5 6.5807 11.6766 5.5695 0.0000 14.1651 0.0000
# 6 0.0000 0.0000 0.0000 11.6820 0.0000 40.1289
#
#
#
# Elastic Compliance Matrix: (Units=1/GPa)
#
#
# Indices 1 2 3 4 5 6 
#
# 1 0.014827 -0.003688 -0.000143 0.000000 -0.003792 0.000000
# 2 -0.003688 0.007886 -0.002088 0.000000 -0.003967 0.000000
# 3 -0.000143 -0.002088 0.012506 0.000000 -0.003129 0.000000
# 4 0.000000 0.000000 0.000000 0.032269 0.000000 -0.009394
# 5 -0.003792 -0.003967 -0.003129 0.000000 0.076858 0.000000
# 6 0.000000 0.000000 0.000000 -0.009394 0.000000 0.027654
#
#
# Mechanical properties :
#
#
# Convention : Reuss Voigt Hill
#
# Bulk Modulus (GPa) = 42.76841 54.91641 48.84241
# Shear Modulus (GPa) = 26.09173 34.00870 30.05021
#
# Velocity S-wave (km/s) = 3.34841 3.82281 3.59345
# Velocity P-wave (km/s) = 5.77296 6.56378 6.18103
#
# Compressibility (1/GPa) = 0.02338174
#
# Stress axis : x y z
#
# Youngs Moduli (GPa) = 67.44356 126.80348 79.96420
#
# Poissons Ratio (x) = 0.46762 0.01142
# Poissons Ratio (y) = 0.24871 0.16697
# Poissons Ratio (z) = 0.00964 0.26477
#
# Static dielectric constant tensor:
#      x y z
#    x 4.216440 0.000000 0.091660 
#    y 0.000000 4.224620 0.000000 
#    z 0.091660 0.000000 4.027410 
# 
# 
# High freq. dielectric constant tensor:
#      x y z
#    x 1.923350 0.000000 0.007240 
#    y 0.000000 1.927450 0.000000 
#    z 0.007240 0.000000 1.916710 
# 
# From -- ./inp_files/10787.got.cif
#   From: 2010.06.25/outbox.cif.g09.slc.cpg/sg15_6_cif.got.tgz:10787.got - 2010.06.28 07:06:18.
