data_PCOD8142745
_publ_section_title
;
Structure prediction by ZEFSAII (Michael W. Deem and Ramdas Pophale) SiO2 
 PCOD8142745
Probable space group: C 2/C
;
_chemical_formula_sum "Si O2"
_cell_formula_units_Z 44
_cell_length_a 15.261627
_cell_length_b 10.038779
_cell_length_c 14.024431
_cell_angle_alpha 90.000000
_cell_angle_beta 111.632303
_cell_angle_gamma 90.000000
_cell_volume 1997.323967
_symmetry_space_group_name_H-M "C 2/C"
_symmetry_group_IT_number 15
_symmetry_cell_setting 'monoclinic'
loop_
_space_group_symop_operation_xyz
x,y,z
-x,y,1/2-z
-x,-y,-z
x,-y,1/2+z
1/2+x,1/2+y,z
1/2-x,1/2+y,1/2-z
1/2-x,1/2-y,-z
1/2+x,1/2-y,1/2+z
loop_
_atom_site_type_symbol
_atom_site_label
_atom_site_fract_x
_atom_site_fract_y
_atom_site_fract_z
Si Si1 0.000000 0.959467 0.250000
Si Si2 0.159696 0.335123 0.997536
Si Si3 0.529981 0.790491 0.663768
Si Si4 0.192170 0.513373 0.178209
Si Si5 0.704287 0.078923 0.893670
Si Si6 0.846274 0.135061 0.107018
O O1 0.942084 0.052985 0.155198
O O2 0.934558 0.858591 0.288683
O O3 0.150610 0.467896 0.931720
O O4 0.060738 0.260867 0.940604
O O5 0.250000 0.250000 0.000000
O O6 0.166447 0.377642 0.110958
O O7 0.500000 0.867167 0.750000
O O8 0.607480 0.878769 0.642046
O O9 0.223987 0.472354 0.295874
O O10 0.277758 0.586241 0.162580
O O11 0.636751 0.208218 0.869093
O O12 0.804484 0.111342 0.984429
#
# Coordination Sequence:
#
# PCOD8142745 Si02
#       6
#     4   8   8   8   8   8
#     4  10  22  44  68  96 136 182 224 282 352 400
#     4  11  23  42  69  97 133 178 229 280 347 409
#     4  10  21  39  64  95 134 169 229 280 335 407
#     4  11  23  38  69  95 130 181 229 279 345 409
#     4  10  22  41  64  91 133 172 225 277 341 404
#     4  10  24  41  64  93 137 176 222 287 347 404
#
# _framework density 22.029475000000001
#
# number of rings (size 3 to 8) (size 9 to 14) (size 15 to 20)
#    0.545    1.091    1.818    2.727    5.091    1.455 
#    0.000    2.727    0.000    0.000    0.000    0.000 
#    0.000    0.000    0.000    0.000    0.000    0.000 
#
# Total GULP energy -272650.991079 kJ/mol
# GULP energy per Si atom -12393.226867 kJ/mol
# Density = 2.197933 g / cm^3
# Si number density = 22.029475 Si / 1000 Ang^3
#
#
#
# Elastic Constant Matrix: (Units=GPa)
#
#
# Indices 1 2 3 4 5 6 
#
# 1 54.5591 22.4495 29.0963 0.0000 0.4405 0.0000
# 2 22.4495 129.4304 41.0981 0.0000 7.7453 0.0000
# 3 29.0963 41.0981 119.8829 0.0000 -6.2739 0.0000
# 4 0.0000 0.0000 0.0000 36.7074 0.0000 1.5131
# 5 0.4405 7.7453 -6.2739 0.0000 32.8465 0.0000
# 6 0.0000 0.0000 0.0000 1.5131 0.0000 36.4290
#
#
#
# Elastic Compliance Matrix: (Units=1/GPa)
#
#
# Indices 1 2 3 4 5 6 
#
# 1 0.021681 -0.002292 -0.004508 0.000000 -0.000611 0.000000
# 2 -0.002292 0.009145 -0.002717 0.000000 -0.002645 0.000000
# 3 -0.004508 -0.002717 0.010509 0.000000 0.002708 0.000000
# 4 0.000000 0.000000 0.000000 0.027289 0.000000 -0.001133
# 5 -0.000611 -0.002645 0.002708 0.000000 0.031594 0.000000
# 6 0.000000 0.000000 0.000000 -0.001133 0.000000 0.027498
#
#
# Mechanical properties :
#
#
# Convention : Reuss Voigt Hill
#
# Bulk Modulus (GPa) = 44.84434 54.35113 49.59774
# Shear Modulus (GPa) = 32.42877 35.27849 33.85363
#
# Velocity S-wave (km/s) = 3.84091 4.00612 3.92438
# Velocity P-wave (km/s) = 6.33015 6.79148 6.56487
#
# Compressibility (1/GPa) = 0.02229936
#
# Stress axis : x y z
#
# Youngs Moduli (GPa) = 46.12290 109.35203 95.15809
#
# Poissons Ratio (x) = 0.25069 0.42900
# Poissons Ratio (y) = 0.10574 0.25854
# Poissons Ratio (z) = 0.20793 0.29711
#
# Static dielectric constant tensor:
#      x y z
#    x 3.574380 0.000000 0.028760 
#    y 0.000000 4.177140 0.000000 
#    z 0.028760 0.000000 4.282550 
# 
# 
# High freq. dielectric constant tensor:
#      x y z
#    x 1.828110 0.000000 0.000640 
#    y 0.000000 1.875810 0.000000 
#    z 0.000640 0.000000 1.879380 
# 
# From -- ./inp_files/152247.got.cif
#   From: 2010.06.25/outbox.cif.g09.slc.cpg/sg15_77_cif.got.tgz:152247.got - 2010.06.28 07:06:18.
