data_PCOD8142920
_publ_section_title
;
Structure prediction by ZEFSAII (Michael W. Deem and Ramdas Pophale) SiO2 
 PCOD8142920
Probable space group: C 2/C
;
_chemical_formula_sum "Si O2"
_cell_formula_units_Z 48
_cell_length_a 15.180340
_cell_length_b 16.948404
_cell_length_c 8.628927
_cell_angle_alpha 90.000000
_cell_angle_beta 90.926651
_cell_angle_gamma 90.000000
_cell_volume 2219.781869
_symmetry_space_group_name_H-M "C 2/C"
_symmetry_group_IT_number 15
_symmetry_cell_setting 'monoclinic'
loop_
_space_group_symop_operation_xyz
x,y,z
-x,y,1/2-z
-x,-y,-z
x,-y,1/2+z
1/2+x,1/2+y,z
1/2-x,1/2+y,1/2-z
1/2-x,1/2-y,-z
1/2+x,1/2-y,1/2+z
loop_
_atom_site_type_symbol
_atom_site_label
_atom_site_fract_x
_atom_site_fract_y
_atom_site_fract_z
Si Si1 0.402686 0.889409 0.722260
Si Si2 0.898574 0.984943 0.480511
Si Si3 0.750999 0.265286 0.681865
Si Si4 0.104175 0.116683 0.231101
Si Si5 0.667730 0.996201 0.029222
Si Si6 0.772278 0.908709 0.277735
O O1 0.500000 0.853200 0.750000
O O2 0.331968 0.820072 0.735053
O O3 0.390516 0.955808 0.852211
O O4 0.394335 0.931369 0.554753
O O5 0.861526 0.943577 0.634187
O O6 0.873063 0.928367 0.332679
O O7 0.867062 0.073754 0.429813
O O8 0.000000 0.000000 0.500000
O O9 0.750000 0.250000 0.500000
O O10 0.658559 0.302527 0.736604
O O11 0.759923 0.184443 0.774712
O O12 0.000000 0.135101 0.250000
O O13 0.748294 0.949138 0.113389
O O14 0.709840 0.055520 0.908191
#
# Coordination Sequence:
#
# PCOD8142920 Si02
#       6
#     8   8   8   8   8   8
#     4  11  23  44  66 100 131 172 223 276 332 398
#     4  10  21  39  67  99 129 170 229 279 326 397
#     4  12  26  44  65  97 143 178 218 277 348 402
#     4  10  23  44  68 100 135 176 229 282 340 404
#     4  10  22  42  71  90 124 171 230 274 322 392
#     4  11  22  42  67  94 129 177 218 277 335 399
#
# _framework density 21.623747000000002
#
# number of rings (size 3 to 8) (size 9 to 14) (size 15 to 20)
#    0.000    1.333    1.667    4.500    2.333    2.667 
#    9.000    0.833    0.000    0.000    0.000    0.000 
#    0.000    0.000    0.000    0.000    0.000    0.000 
#
# Total GULP energy -297403.851510 kJ/mol
# GULP energy per Si atom -12391.827146 kJ/mol
# Density = 2.157453 g / cm^3
# Si number density = 21.623747 Si / 1000 Ang^3
#
#
#
# Elastic Constant Matrix: (Units=GPa)
#
#
# Indices 1 2 3 4 5 6 
#
# 1 135.2934 66.4133 50.1537 0.0000 23.3125 0.0000
# 2 66.4133 139.2413 32.3331 0.0000 13.1456 0.0000
# 3 50.1537 32.3331 88.5151 0.0000 16.0275 0.0000
# 4 0.0000 0.0000 0.0000 34.6934 0.0000 -0.5947
# 5 23.3125 13.1456 16.0275 0.0000 36.6819 0.0000
# 6 0.0000 0.0000 0.0000 -0.5947 0.0000 32.4337
#
#
#
# Elastic Compliance Matrix: (Units=1/GPa)
#
#
# Indices 1 2 3 4 5 6 
#
# 1 0.011796 -0.004220 -0.004407 0.000000 -0.004059 0.000000
# 2 -0.004220 0.009455 -0.001015 0.000000 -0.000263 0.000000
# 3 -0.004407 -0.001015 0.014760 0.000000 -0.003284 0.000000
# 4 0.000000 0.000000 0.000000 0.028833 0.000000 0.000529
# 5 -0.004059 -0.000263 -0.003284 0.000000 0.031370 0.000000
# 6 0.000000 0.000000 0.000000 0.000529 0.000000 0.030842
#
#
# Mechanical properties :
#
#
# Convention : Reuss Voigt Hill
#
# Bulk Modulus (GPa) = 59.78467 73.42778 66.60622
# Shear Modulus (GPa) = 32.91286 35.03845 33.97565
#
# Velocity S-wave (km/s) = 3.90560 4.02975 3.96816
# Velocity P-wave (km/s) = 6.93152 7.46207 7.20169
#
# Compressibility (1/GPa) = 0.01672670
#
# Stress axis : x y z
#
# Youngs Moduli (GPa) = 84.77522 105.76456 67.74905
#
# Poissons Ratio (x) = 0.44628 0.29860
# Poissons Ratio (y) = 0.35772 0.06878
# Poissons Ratio (z) = 0.37364 0.10738
#
# Static dielectric constant tensor:
#      x y z
#    x 3.831530 0.000000 0.410290 
#    y 0.000000 3.974620 0.000000 
#    z 0.410290 0.000000 4.774940 
# 
# 
# High freq. dielectric constant tensor:
#      x y z
#    x 1.846850 0.000000 0.014270 
#    y 0.000000 1.841060 0.000000 
#    z 0.014270 0.000000 1.868560 
# 
# From -- ./inp_files/48070.got.cif
#   From: 2010.06.25/outbox.cif.g09.slc.cpg/sg15_25_cif.got.tgz:48070.got - 2010.06.28 07:06:18.
