data_PCOD8142582
_publ_section_title
;
Structure prediction by ZEFSAII (Michael W. Deem and Ramdas Pophale) SiO2 
 PCOD8142582
Probable space group: C 2/C
;
_chemical_formula_sum "Si O2"
_cell_formula_units_Z 56
_cell_length_a 27.897282
_cell_length_b 13.211817
_cell_length_c 13.222471
_cell_angle_alpha 90.000000
_cell_angle_beta 146.649528
_cell_angle_gamma 90.000000
_cell_volume 2679.225760
_symmetry_space_group_name_H-M "C 2/C"
_symmetry_group_IT_number 15
_symmetry_cell_setting 'monoclinic'
loop_
_space_group_symop_operation_xyz
x,y,z
-x,y,1/2-z
-x,-y,-z
x,-y,1/2+z
1/2+x,1/2+y,z
1/2-x,1/2+y,1/2-z
1/2-x,1/2-y,-z
1/2+x,1/2-y,1/2+z
loop_
_atom_site_type_symbol
_atom_site_label
_atom_site_fract_x
_atom_site_fract_y
_atom_site_fract_z
Si Si1 0.864619 0.933849 0.502982
Si Si2 0.769148 0.966255 0.999685
Si Si3 0.617091 0.727977 0.813482
Si Si4 0.393244 0.027631 0.904054
Si Si5 0.801039 0.413638 0.427419
Si Si6 0.000000 0.898427 0.250000
Si Si7 0.997411 0.655030 0.949859
Si Si8 0.500000 0.733294 0.250000
O O1 0.780135 0.908913 0.290122
O O2 0.917152 0.833039 0.578482
O O3 0.840238 0.954927 0.579150
O O4 0.922162 0.030626 0.567171
O O5 0.691471 0.965710 0.782079
O O6 0.811804 0.855899 0.093157
O O7 0.726000 0.994059 0.032034
O O8 0.536978 0.673706 0.728429
O O9 0.574723 0.783714 0.642371
O O10 0.669904 0.806285 0.975870
O O11 0.382722 0.049532 0.004937
O O12 0.414913 0.132198 0.879764
O O13 0.474834 0.955302 0.038214
O O14 0.970554 0.707706 0.798379
#
# Coordination Sequence:
#
# PCOD8142582 Si02
#       8
#     8   8   8   8   8   4   8   4
#     4   9  22  41  59  93 125 157 201 244 312 368
#     4  10  21  39  62  90 120 159 200 251 300 362
#     4  11  21  37  68  91 117 156 217 250 290 355
#     4  10  24  40  57  90 124 155 203 245 310 360
#     4  11  21  38  65  86 123 158 200 257 299 350
#     4   9  20  40  61  92 122 162 197 256 298 357
#     4  11  24  40  60  88 121 160 205 247 302 366
#     4  11  24  40  65  84 128 162 197 250 310 359
#
# _framework density 20.901561000000001
#
# number of rings (size 3 to 8) (size 9 to 14) (size 15 to 20)
#    0.000    1.714    1.429    2.143    4.000    1.143 
#    0.000    8.571    0.000    0.000    0.000    0.000 
#    0.000    0.000    0.000    0.000    0.000    0.000 
#
# Total GULP energy -346876.372409 kJ/mol
# GULP energy per Si atom -12388.441872 kJ/mol
# Density = 2.085399 g / cm^3
# Si number density = 20.901561 Si / 1000 Ang^3
#
#
#
# Elastic Constant Matrix: (Units=GPa)
#
#
# Indices 1 2 3 4 5 6 
#
# 1 154.1043 36.8402 22.6912 0.0000 -15.6473 0.0000
# 2 36.8402 64.4068 24.3671 0.0000 -7.1805 0.0000
# 3 22.6912 24.3671 67.9478 0.0000 -6.2625 0.0000
# 4 0.0000 0.0000 0.0000 15.1805 0.0000 10.7474
# 5 -15.6473 -7.1805 -6.2625 0.0000 34.0028 0.0000
# 6 0.0000 0.0000 0.0000 10.7474 0.0000 15.3095
#
#
#
# Elastic Compliance Matrix: (Units=1/GPa)
#
#
# Indices 1 2 3 4 5 6 
#
# 1 0.007809 -0.003795 -0.001007 0.000000 0.002607 0.000000
# 2 -0.003795 0.020046 -0.005791 0.000000 0.001420 0.000000
# 3 -0.001007 -0.005791 0.017268 0.000000 0.001494 0.000000
# 4 0.000000 0.000000 0.000000 0.130963 0.000000 -0.091938
# 5 0.002607 0.001420 0.001494 0.000000 0.031184 0.000000
# 6 0.000000 0.000000 0.000000 -0.091938 0.000000 0.129860
#
#
# Mechanical properties :
#
#
# Convention : Reuss Voigt Hill
#
# Bulk Modulus (GPa) = 41.77423 50.47288 46.12356
# Shear Modulus (GPa) = 13.65019 26.40259 20.02639
#
# Velocity S-wave (km/s) = 2.55830 3.55799 3.09872
# Velocity P-wave (km/s) = 5.36247 6.40932 5.90912
#
# Compressibility (1/GPa) = 0.02393820
#
# Stress axis : x y z
#
# Youngs Moduli (GPa) = 128.05151 49.88433 57.91179
#
# Poissons Ratio (x) = 0.18933 0.05829
# Poissons Ratio (y) = 0.48601 0.33534
# Poissons Ratio (z) = 0.12889 0.28886
#
# Static dielectric constant tensor:
#      x y z
#    x 4.554510 0.000000 0.041100 
#    y 0.000000 3.849200 0.000000 
#    z 0.041100 0.000000 3.547500 
# 
# 
# High freq. dielectric constant tensor:
#      x y z
#    x 1.845360 0.000000 0.009680 
#    y 0.000000 1.804810 0.000000 
#    z 0.009680 0.000000 1.805610 
# 
# From -- ./inp_files/123364.got.cif
#   From: 2010.06.25/outbox.cif.g09.slc.cpg/sg15_62_cif.got.tgz:123364.got - 2010.06.28 07:06:18.
