data_PCOD8142300
_publ_section_title
;
Structure prediction by ZEFSAII (Michael W. Deem and Ramdas Pophale) SiO2 
 PCOD8142300
Probable space group: C 2/C
;
_chemical_formula_sum "Si O2"
_cell_formula_units_Z 48
_cell_length_a 11.952367
_cell_length_b 8.237867
_cell_length_c 22.566041
_cell_angle_alpha 90.000000
_cell_angle_beta 72.619822
_cell_angle_gamma 90.000000
_cell_volume 2120.454178
_symmetry_space_group_name_H-M "C 2/C"
_symmetry_group_IT_number 15
_symmetry_cell_setting 'monoclinic'
loop_
_space_group_symop_operation_xyz
x,y,z
-x,y,1/2-z
-x,-y,-z
x,-y,1/2+z
1/2+x,1/2+y,z
1/2-x,1/2+y,1/2-z
1/2-x,1/2-y,-z
1/2+x,1/2-y,1/2+z
loop_
_atom_site_type_symbol
_atom_site_label
_atom_site_fract_x
_atom_site_fract_y
_atom_site_fract_z
Si Si1 0.330162 0.737370 0.929339
Si Si2 0.724901 0.749300 0.233988
Si Si3 0.827720 0.566746 0.316359
Si Si4 0.694143 0.385640 0.618103
Si Si5 0.947704 0.413654 0.564263
Si Si6 0.010963 0.643794 0.841484
O O1 0.340506 0.558118 0.902413
O O2 0.463119 0.781477 0.924780
O O3 0.280063 0.857482 0.885863
O O4 0.250000 0.750000 0.000000
O O5 0.828514 0.700698 0.263365
O O6 0.754486 0.917988 0.194850
O O7 0.708352 0.608518 0.187403
O O8 0.603437 0.753744 0.289552
O O9 0.956944 0.494967 0.307155
O O10 0.821095 0.332888 0.570605
O O11 0.594515 0.255615 0.616321
O O12 0.000000 0.500000 0.500000
O O13 0.923104 0.558670 0.614768
#
# Coordination Sequence:
#
# PCOD8142300 Si02
#       6
#     8   8   8   8   8   8
#     4  11  23  42  65  94 133 175 220 273 323 389
#     4  11  22  42  69  97 136 171 217 277 334 402
#     4  10  21  38  65  95 127 170 215 262 332 386
#     4  11  23  42  67  98 127 174 219 272 331 387
#     4  11  23  43  68  93 133 180 217 268 332 391
#     4  10  24  43  65  99 134 168 217 278 328 391
#
# _framework density 22.636662000000001
#
# number of rings (size 3 to 8) (size 9 to 14) (size 15 to 20)
#    0.000    1.333    1.667    5.000    0.000    4.667 
#    3.000   10.833    0.000    0.000    0.000    0.000 
#    0.000    0.000    0.000    0.000    0.000    0.000 
#
# Total GULP energy -297448.884386 kJ/mol
# GULP energy per Si atom -12393.703516 kJ/mol
# Density = 2.258514 g / cm^3
# Si number density = 22.636662 Si / 1000 Ang^3
#
#
#
# Elastic Constant Matrix: (Units=GPa)
#
#
# Indices 1 2 3 4 5 6 
#
# 1 76.2047 43.0663 16.0215 0.0000 -14.7096 0.0000
# 2 43.0663 102.7565 42.5157 0.0000 0.7592 0.0000
# 3 16.0215 42.5157 108.3889 0.0000 -3.6312 0.0000
# 4 0.0000 0.0000 0.0000 49.5167 0.0000 4.0377
# 5 -14.7096 0.7592 -3.6312 0.0000 45.0558 0.0000
# 6 0.0000 0.0000 0.0000 4.0377 0.0000 32.6245
#
#
#
# Elastic Compliance Matrix: (Units=1/GPa)
#
#
# Indices 1 2 3 4 5 6 
#
# 1 0.018855 -0.008218 0.000649 0.000000 0.006347 0.000000
# 2 -0.008218 0.015213 -0.004864 0.000000 -0.003331 0.000000
# 3 0.000649 -0.004864 0.011078 0.000000 0.001187 0.000000
# 4 0.000000 0.000000 0.000000 0.020401 0.000000 -0.002525
# 5 0.006347 -0.003331 0.001187 0.000000 0.024419 0.000000
# 6 0.000000 0.000000 0.000000 -0.002525 0.000000 0.030964
#
#
# Mechanical properties :
#
#
# Convention : Reuss Voigt Hill
#
# Bulk Modulus (GPa) = 49.30937 54.50634 51.90786
# Shear Modulus (GPa) = 32.77466 37.82248 35.29857
#
# Velocity S-wave (km/s) = 3.80920 4.09204 3.95315
# Velocity P-wave (km/s) = 6.41693 6.81597 6.61945
#
# Compressibility (1/GPa) = 0.02028012
#
# Stress axis : x y z
#
# Youngs Moduli (GPa) = 53.03505 65.73249 90.26998
#
# Poissons Ratio (x) = 0.54019 -0.05859
# Poissons Ratio (y) = 0.43584 0.43910
# Poissons Ratio (z) = -0.03442 0.31974
#
# Static dielectric constant tensor:
#      x y z
#    x 4.323820 0.000000 0.095570 
#    y 0.000000 4.203520 0.000000 
#    z 0.095570 0.000000 4.569430 
# 
# 
# High freq. dielectric constant tensor:
#      x y z
#    x 1.889910 0.000000 0.012960 
#    y 0.000000 1.885350 0.000000 
#    z 0.012960 0.000000 1.901140 
# 
# From -- ./inp_files/268025.got.cif
#   From: 2010.06.25/outbox.cif.g09.slc.cpg/sg15_135_cif.got.tgz:268025.got - 2010.06.28 07:06:18.
