data_PCOD8142601
_publ_section_title
;
Structure prediction by ZEFSAII (Michael W. Deem and Ramdas Pophale) SiO2 
 PCOD8142601
Probable space group: C 2/C
;
_chemical_formula_sum "Si O2"
_cell_formula_units_Z 56
_cell_length_a 12.986101
_cell_length_b 6.949210
_cell_length_c 26.918774
_cell_angle_alpha 90.000000
_cell_angle_beta 82.963604
_cell_angle_gamma 90.000000
_cell_volume 2410.939076
_symmetry_space_group_name_H-M "C 2/C"
_symmetry_group_IT_number 15
_symmetry_cell_setting 'monoclinic'
loop_
_space_group_symop_operation_xyz
x,y,z
-x,y,1/2-z
-x,-y,-z
x,-y,1/2+z
1/2+x,1/2+y,z
1/2-x,1/2+y,1/2-z
1/2-x,1/2-y,-z
1/2+x,1/2-y,1/2+z
loop_
_atom_site_type_symbol
_atom_site_label
_atom_site_fract_x
_atom_site_fract_y
_atom_site_fract_z
Si Si1 0.458418 0.745378 0.698724
Si Si2 0.223868 0.469658 0.312399
Si Si3 0.606509 0.355499 0.761784
Si Si4 0.791354 0.539938 0.487404
Si Si5 0.860594 0.364266 0.084829
Si Si6 0.970837 0.370755 0.902578
Si Si7 0.089829 0.049911 0.956687
O O1 0.500000 0.809123 0.750000
O O2 0.430713 0.519842 0.697718
O O3 0.547868 0.794901 0.652441
O O4 0.354101 0.854701 0.690071
O O5 0.337520 0.534935 0.287684
O O6 0.231474 0.406753 0.370052
O O7 0.185925 0.289036 0.282139
O O8 0.500000 0.249965 0.750000
O O9 0.750000 0.750000 0.500000
O O10 0.848667 0.496999 0.536316
O O11 0.695992 0.391283 0.480884
O O12 0.865978 0.570489 0.436057
O O13 0.967307 0.428726 0.104235
O O14 0.871698 0.137718 0.075321
O O15 0.045888 0.214419 0.924313
O O16 0.000000 0.000000 0.000000
#
# Coordination Sequence:
#
# PCOD8142601 Si02
#       7
#     8   8   8   8   8   8   8
#     4  10  23  42  66  95 125 174 211 268 324 381
#     4  11  22  44  64  93 134 163 217 270 323 387
#     4  11  23  41  66  93 125 170 218 266 324 390
#     4  10  21  39  62  92 124 166 209 258 315 378
#     4  10  23  41  63  94 128 165 208 269 311 382
#     4  11  22  43  63  92 131 162 214 259 321 376
#     4  11  22  40  62  90 126 168 208 259 316 375
#
# _framework density 23.227464999999999
#
# number of rings (size 3 to 8) (size 9 to 14) (size 15 to 20)
#    0.000    1.429    4.286    1.714    0.000    5.143 
#    5.143    2.857    0.000    0.000    0.000    0.000 
#    0.000    0.000    0.000    0.000    0.000    0.000 
#
# Total GULP energy -346957.177604 kJ/mol
# GULP energy per Si atom -12391.327772 kJ/mol
# Density = 2.317460 g / cm^3
# Si number density = 23.227465 Si / 1000 Ang^3
#
#
#
# Elastic Constant Matrix: (Units=GPa)
#
#
# Indices 1 2 3 4 5 6 
#
# 1 101.4818 11.5900 45.7803 0.0000 -19.2213 0.0000
# 2 11.5900 32.3651 4.4260 0.0000 5.5288 0.0000
# 3 45.7803 4.4260 153.1661 0.0000 -14.0208 0.0000
# 4 0.0000 0.0000 0.0000 21.6228 0.0000 5.4157
# 5 -19.2213 5.5288 -14.0208 0.0000 39.7669 0.0000
# 6 0.0000 0.0000 0.0000 5.4157 0.0000 33.0466
#
#
#
# Elastic Compliance Matrix: (Units=1/GPa)
#
#
# Indices 1 2 3 4 5 6 
#
# 1 0.013009 -0.005227 -0.003198 0.000000 0.005887 0.000000
# 2 -0.005227 0.034026 -0.000088 0.000000 -0.007288 0.000000
# 3 -0.003198 -0.000088 0.007592 0.000000 0.001143 0.000000
# 4 0.000000 0.000000 0.000000 0.048227 0.000000 -0.007903
# 5 0.005887 -0.007288 0.001143 0.000000 0.029408 0.000000
# 6 0.000000 0.000000 0.000000 -0.007903 0.000000 0.031556
#
#
# Mechanical properties :
#
#
# Convention : Reuss Voigt Hill
#
# Bulk Modulus (GPa) = 26.59531 45.62283 36.10907
# Shear Modulus (GPa) = 25.85617 33.90171 29.87894
#
# Velocity S-wave (km/s) = 3.34004 3.82455 3.59048
# Velocity P-wave (km/s) = 5.13316 6.25998 5.72436
#
# Compressibility (1/GPa) = 0.03760061
#
# Stress axis : x y z
#
# Youngs Moduli (GPa) = 76.87158 29.38913 131.71763
#
# Poissons Ratio (x) = 0.15361 0.42127
# Poissons Ratio (y) = 0.40178 0.01162
# Poissons Ratio (z) = 0.24586 0.00259
#
# Static dielectric constant tensor:
#      x y z
#    x 5.720890 0.000000 1.859090 
#    y 0.000000 4.210200 0.000000 
#    z 1.859090 0.000000 6.576160 
# 
# 
# High freq. dielectric constant tensor:
#      x y z
#    x 1.915700 0.000000 -0.007550 
#    y 0.000000 1.918870 0.000000 
#    z -0.007550 0.000000 1.925490 
# 
# From -- ./inp_files/272642.got.cif
#   From: 2010.06.25/outbox.cif.g09.slc.cpg/sg15_137_cif.got.tgz:272642.got - 2010.06.28 07:06:18.
