data_PCOD8142599
_publ_section_title
;
Structure prediction by ZEFSAII (Michael W. Deem and Ramdas Pophale) SiO2 
 PCOD8142599
Probable space group: C 2/C
;
_chemical_formula_sum "Si O2"
_cell_formula_units_Z 48
_cell_length_a 17.500267
_cell_length_b 8.913923
_cell_length_c 14.934863
_cell_angle_alpha 90.000000
_cell_angle_beta 100.128742
_cell_angle_gamma 90.000000
_cell_volume 2293.469960
_symmetry_space_group_name_H-M "C 2/C"
_symmetry_group_IT_number 15
_symmetry_cell_setting 'monoclinic'
loop_
_space_group_symop_operation_xyz
x,y,z
-x,y,1/2-z
-x,-y,-z
x,-y,1/2+z
1/2+x,1/2+y,z
1/2-x,1/2+y,1/2-z
1/2-x,1/2-y,-z
1/2+x,1/2-y,1/2+z
loop_
_atom_site_type_symbol
_atom_site_label
_atom_site_fract_x
_atom_site_fract_y
_atom_site_fract_z
Si Si1 0.271760 0.680392 0.138828
Si Si2 0.986838 0.268333 0.514247
Si Si3 0.684090 0.679609 0.048153
Si Si4 0.300764 0.093927 0.793577
Si Si5 0.471253 0.980744 0.344780
Si Si6 0.147667 0.146731 0.518648
O O1 0.286966 0.834323 0.194512
O O2 0.265546 0.526984 0.195245
O O3 0.191333 0.707030 0.067908
O O4 0.344069 0.654795 0.087234
O O5 0.902403 0.197311 0.509915
O O6 0.993835 0.350583 0.419659
O O7 0.995126 0.368596 0.605034
O O8 0.056986 0.147293 0.528183
O O9 0.695537 0.759949 0.143998
O O10 0.692798 0.501576 0.062746
O O11 0.750000 0.750000 0.000000
O O12 0.379531 0.000769 0.816251
O O13 0.500000 0.947950 0.250000
#
# Coordination Sequence:
#
# PCOD8142599 Si02
#       6
#     8   8   8   8   8   8
#     4  11  23  37  67  87 131 163 212 260 321 380
#     4  10  22  39  65  91 130 166 216 271 316 395
#     4  11  23  41  65  90 129 165 214 266 328 383
#     4  11  22  41  59  96 122 170 212 268 314 387
#     4  10  21  39  62  91 128 167 214 261 329 384
#     4  11  22  42  62  96 125 172 211 263 326 387
#
# _framework density 20.928985999999998
#
# number of rings (size 3 to 8) (size 9 to 14) (size 15 to 20)
#    0.000    1.333    3.333    2.500    0.000    2.667 
#    0.000    0.000    0.000    2.000    0.000    0.000 
#    0.000    0.000    0.000    0.000    0.000    0.000 
#
# Total GULP energy -297474.634003 kJ/mol
# GULP energy per Si atom -12394.776417 kJ/mol
# Density = 2.088135 g / cm^3
# Si number density = 20.928986 Si / 1000 Ang^3
#
#
#
# Elastic Constant Matrix: (Units=GPa)
#
#
# Indices 1 2 3 4 5 6 
#
# 1 100.5273 18.6496 12.9119 0.0000 -9.7531 0.0000
# 2 18.6496 95.1928 21.5879 0.0000 -4.3023 0.0000
# 3 12.9119 21.5879 89.8761 0.0000 -6.8593 0.0000
# 4 0.0000 0.0000 0.0000 35.3448 0.0000 -2.8332
# 5 -9.7531 -4.3023 -6.8593 0.0000 27.2709 0.0000
# 6 0.0000 0.0000 0.0000 -2.8332 0.0000 32.3138
#
#
#
# Elastic Compliance Matrix: (Units=1/GPa)
#
#
# Indices 1 2 3 4 5 6 
#
# 1 0.010707 -0.001751 -0.000863 0.000000 0.003336 0.000000
# 2 -0.001751 0.011429 -0.002451 0.000000 0.000560 0.000000
# 3 -0.000863 -0.002451 0.012017 0.000000 0.002327 0.000000
# 4 0.000000 0.000000 0.000000 0.028493 0.000000 0.002498
# 5 0.003336 0.000560 0.002327 0.000000 0.038536 0.000000
# 6 0.000000 0.000000 0.000000 0.002498 0.000000 0.031166
#
#
# Mechanical properties :
#
#
# Convention : Reuss Voigt Hill
#
# Bulk Modulus (GPa) = 41.62722 43.54389 42.58555
# Shear Modulus (GPa) = 33.22593 34.48237 33.85415
#
# Velocity S-wave (km/s) = 3.98874 4.06345 4.02627
# Velocity P-wave (km/s) = 6.41454 6.54723 6.48122
#
# Compressibility (1/GPa) = 0.02402274
#
# Stress axis : x y z
#
# Youngs Moduli (GPa) = 93.39773 87.49500 83.21740
#
# Poissons Ratio (x) = 0.15322 0.07181
# Poissons Ratio (y) = 0.16355 0.20396
# Poissons Ratio (z) = 0.08060 0.21444
#
# Static dielectric constant tensor:
#      x y z
#    x 3.874980 0.000000 -0.294760 
#    y 0.000000 3.703160 0.000000 
#    z -0.294760 0.000000 4.326100 
# 
# 
# High freq. dielectric constant tensor:
#      x y z
#    x 1.817560 0.000000 -0.002610 
#    y 0.000000 1.819500 0.000000 
#    z -0.002610 0.000000 1.818420 
# 
# From -- ./inp_files/159688.got.cif
#   From: 2010.06.25/outbox.cif.g09.slc.cpg/sg15_80_cif.got.tgz:159688.got - 2010.06.28 07:06:18.
