data_PCOD8142876
_publ_section_title
;
Structure prediction by ZEFSAII (Michael W. Deem and Ramdas Pophale) SiO2 
 PCOD8142876
Probable space group: C 2/C
;
_chemical_formula_sum "Si O2"
_cell_formula_units_Z 56
_cell_length_a 7.657176
_cell_length_b 21.272651
_cell_length_c 14.554147
_cell_angle_alpha 90.000000
_cell_angle_beta 82.350635
_cell_angle_gamma 90.000000
_cell_volume 2349.605843
_symmetry_space_group_name_H-M "C 2/C"
_symmetry_group_IT_number 15
_symmetry_cell_setting 'monoclinic'
loop_
_space_group_symop_operation_xyz
x,y,z
-x,y,1/2-z
-x,-y,-z
x,-y,1/2+z
1/2+x,1/2+y,z
1/2-x,1/2+y,1/2-z
1/2-x,1/2-y,-z
1/2+x,1/2-y,1/2+z
loop_
_atom_site_type_symbol
_atom_site_label
_atom_site_fract_x
_atom_site_fract_y
_atom_site_fract_z
Si Si1 0.645257 0.793426 0.074220
Si Si2 0.199522 0.921784 0.930491
Si Si3 0.623293 0.060415 0.821858
Si Si4 0.390558 0.504230 0.397143
Si Si5 0.938533 0.578693 0.015402
Si Si6 0.192715 0.182220 0.742662
Si Si7 0.304051 0.724727 0.096105
O O1 0.762048 0.812286 0.153263
O O2 0.484376 0.752814 0.121680
O O3 0.750000 0.750000 0.000000
O O4 0.575299 0.850284 0.017229
O O5 0.412764 0.929159 0.914479
O O6 0.168118 0.849523 0.908184
O O7 0.086010 0.965979 0.867715
O O8 0.110751 0.943300 0.034086
O O9 0.500000 0.036349 0.750000
O O10 0.662879 0.134989 0.812713
O O11 0.807547 0.021317 0.807287
O O12 0.521334 0.040606 0.922939
O O13 0.257154 0.557360 0.445582
O O14 0.175949 0.247842 0.685451
O O15 0.000000 0.150727 0.750000
O O16 0.250000 0.750000 0.000000
#
# Coordination Sequence:
#
# PCOD8142876 Si02
#       7
#     8   8   8   8   8   8   8
#     4  12  24  41  72 101 137 183 235 293 363 422
#     4  10  21  39  67 100 137 176 230 280 346 420
#     4  11  20  43  66  98 135 182 229 294 351 412
#     4  10  23  41  70 102 134 179 237 283 347 431
#     4  11  21  42  72  97 134 180 231 290 355 413
#     4  12  26  43  68 107 141 183 244 297 354 436
#     4  12  21  42  70 100 140 181 227 289 363 424
#
# _framework density 23.833784000000001
#
# number of rings (size 3 to 8) (size 9 to 14) (size 15 to 20)
#    0.000    0.857    4.286    4.714    0.000    3.429 
#    2.571    0.000   18.857    0.000    0.000    0.000 
#    0.000    0.000    0.000    0.000    0.000    0.000 
#
# Total GULP energy -346869.383666 kJ/mol
# GULP energy per Si atom -12388.192274 kJ/mol
# Density = 2.377954 g / cm^3
# Si number density = 23.833784 Si / 1000 Ang^3
#
#
#
# Elastic Constant Matrix: (Units=GPa)
#
#
# Indices 1 2 3 4 5 6 
#
# 1 133.6171 36.1387 45.8567 0.0000 44.1153 0.0000
# 2 36.1387 119.3639 33.6699 0.0000 22.9949 0.0000
# 3 45.8567 33.6699 71.2238 0.0000 22.3879 0.0000
# 4 0.0000 0.0000 0.0000 23.8740 0.0000 1.3498
# 5 44.1153 22.9949 22.3879 0.0000 41.5999 0.0000
# 6 0.0000 0.0000 0.0000 1.3498 0.0000 43.5424
#
#
#
# Elastic Compliance Matrix: (Units=1/GPa)
#
#
# Indices 1 2 3 4 5 6 
#
# 1 0.012751 -0.000489 -0.004589 0.000000 -0.010782 0.000000
# 2 -0.000489 0.010121 -0.003459 0.000000 -0.003214 0.000000
# 3 -0.004589 -0.003459 0.019859 0.000000 -0.003908 0.000000
# 4 0.000000 0.000000 0.000000 0.041960 0.000000 -0.001301
# 5 -0.010782 -0.003214 -0.003908 0.000000 0.039353 0.000000
# 6 0.000000 0.000000 0.000000 -0.001301 0.000000 0.023006
#
#
# Mechanical properties :
#
#
# Convention : Reuss Voigt Hill
#
# Bulk Modulus (GPa) = 38.97777 61.72615 50.35196
# Shear Modulus (GPa) = 28.95572 35.70589 32.33081
#
# Velocity S-wave (km/s) = 3.48933 3.87476 3.68708
# Velocity P-wave (km/s) = 5.71169 6.78035 6.26883
#
# Compressibility (1/GPa) = 0.02565565
#
# Stress axis : x y z
#
# Youngs Moduli (GPa) = 78.42384 98.80684 50.35495
#
# Poissons Ratio (x) = 0.04830 0.23110
# Poissons Ratio (y) = 0.03834 0.17419
# Poissons Ratio (z) = 0.35992 0.34181
#
# Static dielectric constant tensor:
#      x y z
#    x 4.497480 0.000000 0.359870 
#    y 0.000000 4.407310 0.000000 
#    z 0.359870 0.000000 3.980470 
# 
# 
# High freq. dielectric constant tensor:
#      x y z
#    x 1.965300 0.000000 0.023450 
#    y 0.000000 1.951810 0.000000 
#    z 0.023450 0.000000 1.914160 
# 
# From -- ./inp_files/136449.got.cif
#   From: 2010.06.25/outbox.cif.g09.slc.cpg/sg15_69_cif.got.tgz:136449.got - 2010.06.28 07:06:18.
