data_PCOD8142815
_publ_section_title
;
Structure prediction by ZEFSAII (Michael W. Deem and Ramdas Pophale) SiO2 
 PCOD8142815
Probable space group: C 2/C
;
_chemical_formula_sum "Si O2"
_cell_formula_units_Z 56
_cell_length_a 11.576018
_cell_length_b 14.274934
_cell_length_c 14.489706
_cell_angle_alpha 90.000000
_cell_angle_beta 90.307538
_cell_angle_gamma 90.000000
_cell_volume 2394.344404
_symmetry_space_group_name_H-M "C 2/C"
_symmetry_group_IT_number 15
_symmetry_cell_setting 'monoclinic'
loop_
_space_group_symop_operation_xyz
x,y,z
-x,y,1/2-z
-x,-y,-z
x,-y,1/2+z
1/2+x,1/2+y,z
1/2-x,1/2+y,1/2-z
1/2-x,1/2-y,-z
1/2+x,1/2-y,1/2+z
loop_
_atom_site_type_symbol
_atom_site_label
_atom_site_fract_x
_atom_site_fract_y
_atom_site_fract_z
Si Si1 0.863069 0.128716 0.760718
Si Si2 0.839764 0.018830 0.932006
Si Si3 0.596330 0.222261 0.537751
Si Si4 0.036820 0.885770 0.901398
Si Si5 0.622745 0.980421 0.043772
Si Si6 0.302059 0.804782 0.646404
Si Si7 0.741782 0.440903 0.798292
O O1 0.813357 0.227672 0.726918
O O2 0.000000 0.125353 0.750000
O O3 0.827174 0.110162 0.866933
O O4 0.802660 0.047398 0.701664
O O5 0.916309 0.940162 0.876987
O O6 0.715758 0.975449 0.960208
O O7 0.901439 0.048021 0.025121
O O8 0.480661 0.279585 0.562615
O O9 0.609209 0.122859 0.589285
O O10 0.591909 0.204381 0.425993
O O11 0.695523 0.290678 0.576316
O O12 0.128242 0.876805 0.818020
O O13 0.659658 0.057670 0.120902
O O14 0.500000 0.000000 0.000000
O O15 0.294972 0.904423 0.701374
#
# Coordination Sequence:
#
# PCOD8142815 Si02
#       7
#     8   8   8   8   8   8   8
#     4  12  22  40  68 104 135 175 231 297 352 411
#     4  10  21  39  65  99 132 174 231 290 356 406
#     4  11  22  43  65  98 135 188 233 272 359 436
#     4  10  21  39  71  99 132 178 231 298 348 406
#     4  11  25  45  67  92 144 197 230 282 364 438
#     4  11  25  40  68 100 141 178 229 295 351 424
#     4  11  24  44  67 107 140 178 242 300 345 412
#
# _framework density 23.388449000000001
#
# number of rings (size 3 to 8) (size 9 to 14) (size 15 to 20)
#    0.000    1.143    2.857    4.286    2.000    3.429 
#    0.000    5.000    0.000    0.000    0.000    0.000 
#    0.000    0.000    0.000    0.000    0.000    0.000 
#
# Total GULP energy -347001.965712 kJ/mol
# GULP energy per Si atom -12392.927347 kJ/mol
# Density = 2.333522 g / cm^3
# Si number density = 23.388449 Si / 1000 Ang^3
#
#
#
# Elastic Constant Matrix: (Units=GPa)
#
#
# Indices 1 2 3 4 5 6 
#
# 1 108.5275 29.2617 32.0085 0.0000 1.2094 0.0000
# 2 29.2617 91.5842 18.4116 0.0000 -9.0432 0.0000
# 3 32.0085 18.4116 105.6067 0.0000 -5.7103 0.0000
# 4 0.0000 0.0000 0.0000 45.3839 0.0000 -2.6798
# 5 1.2094 -9.0432 -5.7103 0.0000 22.7036 0.0000
# 6 0.0000 0.0000 0.0000 -2.6798 0.0000 28.6857
#
#
#
# Elastic Compliance Matrix: (Units=1/GPa)
#
#
# Indices 1 2 3 4 5 6 
#
# 1 0.010955 -0.003170 -0.002907 0.000000 -0.002578 0.000000
# 2 -0.003170 0.012616 -0.000971 0.000000 0.004950 0.000000
# 3 -0.002907 -0.000971 0.010652 0.000000 0.002447 0.000000
# 4 0.000000 0.000000 0.000000 0.022156 0.000000 0.002070
# 5 -0.002578 0.004950 0.002447 0.000000 0.046770 0.000000
# 6 0.000000 0.000000 0.000000 0.002070 0.000000 0.035054
#
#
# Mechanical properties :
#
#
# Convention : Reuss Voigt Hill
#
# Bulk Modulus (GPa) = 49.68663 51.67577 50.68120
# Shear Modulus (GPa) = 31.44482 34.42376 32.93429
#
# Velocity S-wave (km/s) = 3.67067 3.84060 3.75659
# Velocity P-wave (km/s) = 6.26540 6.46603 6.36650
#
# Compressibility (1/GPa) = 0.02012614
#
# Stress axis : x y z
#
# Youngs Moduli (GPa) = 91.28109 79.26566 93.88088
#
# Poissons Ratio (x) = 0.25130 0.27292
# Poissons Ratio (y) = 0.28939 0.09115
# Poissons Ratio (z) = 0.26536 0.07696
#
# Static dielectric constant tensor:
#      x y z
#    x 4.227240 0.000000 -0.104600 
#    y 0.000000 4.221360 0.000000 
#    z -0.104600 0.000000 4.255710 
# 
# 
# High freq. dielectric constant tensor:
#      x y z
#    x 1.910560 0.000000 0.007670 
#    y 0.000000 1.918980 0.000000 
#    z 0.007670 0.000000 1.928930 
# 
# From -- ./inp_files/144245.got.cif
#   From: 2010.06.25/outbox.cif.g09.slc.cpg/sg15_73_cif.got.tgz:144245.got - 2010.06.28 07:06:18.
