data_PCOD8142726
_publ_section_title
;
Structure prediction by ZEFSAII (Michael W. Deem and Ramdas Pophale) SiO2 
 PCOD8142726
Probable space group: C 2/C
;
_chemical_formula_sum "Si O2"
_cell_formula_units_Z 40
_cell_length_a 14.290330
_cell_length_b 14.469993
_cell_length_c 14.804502
_cell_angle_alpha 90.000000
_cell_angle_beta 142.368476
_cell_angle_gamma 90.000000
_cell_volume 1869.165079
_symmetry_space_group_name_H-M "C 2/C"
_symmetry_group_IT_number 15
_symmetry_cell_setting 'monoclinic'
loop_
_space_group_symop_operation_xyz
x,y,z
-x,y,1/2-z
-x,-y,-z
x,-y,1/2+z
1/2+x,1/2+y,z
1/2-x,1/2+y,1/2-z
1/2-x,1/2-y,-z
1/2+x,1/2-y,1/2+z
loop_
_atom_site_type_symbol
_atom_site_label
_atom_site_fract_x
_atom_site_fract_y
_atom_site_fract_z
Si Si1 0.345224 0.899398 0.933902
Si Si2 0.320767 0.015466 0.602765
Si Si3 0.225053 0.817651 0.562210
Si Si4 0.199700 0.434942 0.216767
Si Si5 0.109709 0.239335 0.654150
O O1 0.326793 0.792832 0.887170
O O2 0.253195 0.968900 0.796380
O O3 0.523528 0.919419 0.061810
O O4 0.287005 0.916992 0.991808
O O5 0.500000 0.993012 0.750000
O O6 0.227050 0.920247 0.521459
O O7 0.260248 0.064825 0.646566
O O8 0.250000 0.750000 0.500000
O O9 0.363409 0.808716 0.740662
O O10 0.065719 0.791970 0.489911
O O11 0.293219 0.350857 0.246721
#
# Coordination Sequence:
#
# PCOD8142726 Si02
#       5
#     8   8   8   8   8
#     4  10  21  40  64  92 129 171 212 262 324 389
#     4  10  21  39  64  91 128 172 217 258 323 387
#     4  12  24  39  64  98 127 163 220 271 318 374
#     4  10  21  39  65  90 127 174 213 260 323 386
#     4  12  23  41  66  95 130 168 215 270 321 380
#
# _framework density 21.399929
#
# number of rings (size 3 to 8) (size 9 to 14) (size 15 to 20)
#    0.000    1.200    4.000    3.000    2.800    1.600 
#    0.000    0.000    0.000    0.000    0.000    0.000 
#    0.000    0.000    0.000    0.000    0.000    0.000 
#
# Total GULP energy -247956.861641 kJ/mol
# GULP energy per Si atom -12397.843082 kJ/mol
# Density = 2.135122 g / cm^3
# Si number density = 21.399929 Si / 1000 Ang^3
#
#
#
# Elastic Constant Matrix: (Units=GPa)
#
#
# Indices 1 2 3 4 5 6 
#
# 1 71.6947 27.9612 27.7712 0.0003 -22.9717 0.0002
# 2 27.9612 101.8849 20.1596 0.0001 -3.8351 0.0001
# 3 27.7712 20.1596 66.0564 0.0004 -17.8615 0.0004
# 4 0.0003 0.0001 0.0004 32.8251 0.0003 -3.1564
# 5 -22.9717 -3.8351 -17.8615 0.0003 21.1209 0.0002
# 6 0.0002 0.0001 0.0004 -3.1564 0.0002 43.2779
#
#
#
# Elastic Compliance Matrix: (Units=1/GPa)
#
#
# Indices 1 2 3 4 5 6 
#
# 1 0.024558 -0.005401 -0.002229 0.000000 0.023844 0.000000
# 2 -0.005401 0.011651 -0.002984 0.000000 -0.006282 0.000000
# 3 -0.002229 -0.002984 0.020982 0.000000 0.014778 0.000000
# 4 0.000000 0.000000 0.000000 0.030680 -0.000001 0.002238
# 5 0.023844 -0.006282 0.014778 -0.000001 0.084637 -0.000001
# 6 0.000000 0.000000 0.000000 0.002238 -0.000001 0.023270
#
#
# Mechanical properties :
#
#
# Convention : Reuss Voigt Hill
#
# Bulk Modulus (GPa) = 27.80566 43.49110 35.64838
# Shear Modulus (GPa) = 21.83484 30.36105 26.09795
#
# Velocity S-wave (km/s) = 3.19771 3.77071 3.49597
# Velocity P-wave (km/s) = 5.16289 6.27095 5.74370
#
# Compressibility (1/GPa) = 0.03596391
#
# Stress axis : x y z
#
# Youngs Moduli (GPa) = 40.72062 85.82832 47.65947
#
# Poissons Ratio (x) = 0.46356 0.10622
# Poissons Ratio (y) = 0.21993 0.14220
# Poissons Ratio (z) = 0.09076 0.25609
#
# Static dielectric constant tensor:
#      x y z
#    x 3.786550 0.000000 -0.133220 
#    y 0.000000 4.154710 0.000000 
#    z -0.133220 0.000000 4.001010 
# 
# 
# High freq. dielectric constant tensor:
#      x y z
#    x 1.822330 0.000000 -0.021370 
#    y 0.000000 1.841940 0.000000 
#    z -0.021370 0.000000 1.829640 
# 
# From -- ./inp_files/37811.got.cif
#   From: 2010.06.25/outbox.cif.g09.slc.cpg/sg15_19_cif.got.tgz:37811.got - 2010.06.28 07:06:18.
