data_PCOD8142877
_publ_section_title
;
Structure prediction by ZEFSAII (Michael W. Deem and Ramdas Pophale) SiO2 
 PCOD8142877
Probable space group: C 2/C
;
_chemical_formula_sum "Si O2"
_cell_formula_units_Z 56
_cell_length_a 17.343692
_cell_length_b 8.251273
_cell_length_c 23.324101
_cell_angle_alpha 90.000000
_cell_angle_beta 50.066061
_cell_angle_gamma 90.000000
_cell_volume 2559.417073
_symmetry_space_group_name_H-M "C 2/C"
_symmetry_group_IT_number 15
_symmetry_cell_setting 'monoclinic'
loop_
_space_group_symop_operation_xyz
x,y,z
-x,y,1/2-z
-x,-y,-z
x,-y,1/2+z
1/2+x,1/2+y,z
1/2-x,1/2+y,1/2-z
1/2-x,1/2-y,-z
1/2+x,1/2-y,1/2+z
loop_
_atom_site_type_symbol
_atom_site_label
_atom_site_fract_x
_atom_site_fract_y
_atom_site_fract_z
Si Si1 0.293144 0.008243 0.636242
Si Si2 0.935773 0.476503 0.665416
Si Si3 0.040355 0.936442 0.666548
Si Si4 0.143062 0.396559 0.094436
Si Si5 0.712618 0.848005 0.182951
Si Si6 0.363400 0.621931 0.704067
Si Si7 0.262526 0.409378 0.455672
O O1 0.402223 0.992709 0.614522
O O2 0.227595 0.842133 0.661889
O O3 0.227091 0.120665 0.708093
O O4 0.308604 0.091447 0.566895
O O5 0.882328 0.614726 0.730273
O O6 0.906264 0.297154 0.697791
O O7 0.054777 0.481170 0.617630
O O8 0.093788 0.779474 0.615163
O O9 0.000000 0.908954 0.750000
O O10 0.123399 0.078623 0.622367
O O11 0.946666 0.983251 0.671286
O O12 0.189444 0.438977 0.134492
O O13 0.232523 0.429687 0.006477
O O14 0.816401 0.907081 0.163076
O O15 0.250000 0.250000 0.500000
#
# Coordination Sequence:
#
# PCOD8142877 Si02
#       7
#     8   8   8   8   8   8   8
#     4  10  21  43  64  92 138 180 217 279 336 393
#     4  10  22  37  69 101 130 171 235 275 326 396
#     4  12  23  44  73  96 132 180 229 276 329 400
#     4  12  24  42  66 100 134 177 219 272 348 405
#     4  10  21  40  66  97 134 176 225 278 330 398
#     4  10  21  39  67 101 129 171 230 284 324 386
#     4  12  27  44  66  99 142 179 218 278 348 403
#
# _framework density 21.879984
#
# number of rings (size 3 to 8) (size 9 to 14) (size 15 to 20)
#    0.000    1.143    2.857    3.429    2.000    2.857 
#    0.000    0.714    0.000    0.000    0.000    0.000 
#    0.000    0.000    0.000    0.000    0.000    0.000 
#
# Total GULP energy -347041.277713 kJ/mol
# GULP energy per Si atom -12394.331347 kJ/mol
# Density = 2.183018 g / cm^3
# Si number density = 21.879984 Si / 1000 Ang^3
#
#
#
# Elastic Constant Matrix: (Units=GPa)
#
#
# Indices 1 2 3 4 5 6 
#
# 1 156.0731 42.5398 46.6303 0.0000 20.5119 0.0005
# 2 42.5398 85.6997 34.7277 0.0001 8.4780 0.0008
# 3 46.6303 34.7277 90.6223 0.0000 13.9077 0.0000
# 4 0.0000 0.0001 0.0000 35.8170 0.0000 0.2878
# 5 20.5119 8.4780 13.9077 0.0000 36.7588 0.0000
# 6 0.0005 0.0008 0.0000 0.2878 0.0000 33.0708
#
#
#
# Elastic Compliance Matrix: (Units=1/GPa)
#
#
# Indices 1 2 3 4 5 6 
#
# 1 0.008382 -0.002727 -0.002810 0.000000 -0.002985 0.000000
# 2 -0.002727 0.014756 -0.004207 0.000000 -0.000290 0.000000
# 3 -0.002810 -0.004207 0.014548 0.000000 -0.002966 0.000000
# 4 0.000000 0.000000 0.000000 0.027922 0.000000 -0.000243
# 5 -0.002985 -0.000290 -0.002966 0.000000 0.030059 0.000000
# 6 0.000000 0.000000 0.000000 -0.000243 0.000000 0.030240
#
#
# Mechanical properties :
#
#
# Convention : Reuss Voigt Hill
#
# Bulk Modulus (GPa) = 54.94993 64.46562 59.70777
# Shear Modulus (GPa) = 33.01174 35.02915 34.02044
#
# Velocity S-wave (km/s) = 3.88850 4.00555 3.94746
# Velocity P-wave (km/s) = 6.73270 7.13581 6.93719
#
# Compressibility (1/GPa) = 0.01819838
#
# Stress axis : x y z
#
# Youngs Moduli (GPa) = 119.29724 67.77059 68.73743
#
# Poissons Ratio (x) = 0.18480 0.19316
# Poissons Ratio (y) = 0.32530 0.28918
# Poissons Ratio (z) = 0.33524 0.28511
#
# Static dielectric constant tensor:
#      x y z
#    x 4.388340 0.000000 -0.026860 
#    y 0.000000 3.802230 0.000000 
#    z -0.026860 0.000000 3.797640 
# 
# 
# High freq. dielectric constant tensor:
#      x y z
#    x 1.882690 0.000000 0.000490 
#    y 0.000000 1.854570 0.000000 
#    z 0.000490 0.000000 1.837840 
# 
# From -- ./inp_files/276502.got.cif
#   From: 2010.06.25/outbox.cif.g09.slc.cpg/sg15_139_cif.got.tgz:276502.got - 2010.06.28 07:06:18.
