data_PCOD8142932
_publ_section_title
;
Structure prediction by ZEFSAII (Michael W. Deem and Ramdas Pophale) SiO2 
 PCOD8142932
Probable space group: C 2/C
;
_chemical_formula_sum "Si O2"
_cell_formula_units_Z 48
_cell_length_a 17.350009
_cell_length_b 14.973783
_cell_length_c 8.494336
_cell_angle_alpha 90.000000
_cell_angle_beta 95.057145
_cell_angle_gamma 90.000000
_cell_volume 2198.197896
_symmetry_space_group_name_H-M "C 2/C"
_symmetry_group_IT_number 15
_symmetry_cell_setting 'monoclinic'
loop_
_space_group_symop_operation_xyz
x,y,z
-x,y,1/2-z
-x,-y,-z
x,-y,1/2+z
1/2+x,1/2+y,z
1/2-x,1/2+y,1/2-z
1/2-x,1/2-y,-z
1/2+x,1/2-y,1/2+z
loop_
_atom_site_type_symbol
_atom_site_label
_atom_site_fract_x
_atom_site_fract_y
_atom_site_fract_z
Si Si1 0.639852 0.784109 0.517748
Si Si2 0.245242 0.164138 0.712990
Si Si3 0.582887 0.933922 0.699571
Si Si4 0.332006 0.502628 0.411206
Si Si5 0.178129 0.574718 0.518511
Si Si6 0.413651 0.608354 0.172677
O O1 0.696217 0.844882 0.423540
O O2 0.690555 0.749545 0.676049
O O3 0.574455 0.850190 0.576837
O O4 0.604876 0.705066 0.404928
O O5 0.295998 0.165112 0.882738
O O6 0.189796 0.077757 0.710413
O O7 0.500000 0.964379 0.750000
O O8 0.622642 0.017682 0.623279
O O9 0.634187 0.898718 0.853242
O O10 0.255897 0.521644 0.497046
O O11 0.359399 0.588238 0.314636
O O12 0.400366 0.468485 0.539735
O O13 0.500000 0.605920 0.250000
#
# Coordination Sequence:
#
# PCOD8142932 Si02
#       6
#     8   8   8   8   8   8
#     4  10  24  44  60  95 139 173 210 275 331 387
#     4  10  21  39  68  92 128 166 226 277 309 378
#     4  12  25  43  66  97 138 171 213 273 332 391
#     4  11  20  41  68  98 122 171 228 269 310 386
#     4  12  22  41  70  98 122 173 231 267 316 389
#     4  11  24  42  66  95 136 173 213 269 337 384
#
# _framework density 21.836068999999998
#
# number of rings (size 3 to 8) (size 9 to 14) (size 15 to 20)
#    0.000    1.000    5.000    1.000    4.667    2.000 
#    3.000    2.500    0.000    0.000    0.000    0.000 
#    0.000    0.000    0.000    0.000    0.000    0.000 
#
# Total GULP energy -297450.527436 kJ/mol
# GULP energy per Si atom -12393.771976 kJ/mol
# Density = 2.178637 g / cm^3
# Si number density = 21.836069 Si / 1000 Ang^3
#
#
#
# Elastic Constant Matrix: (Units=GPa)
#
#
# Indices 1 2 3 4 5 6 
#
# 1 112.9427 30.5585 34.1171 0.0000 -1.0863 0.0000
# 2 30.5585 60.1609 41.8855 0.0000 2.2613 0.0000
# 3 34.1171 41.8855 72.9159 0.0000 14.8454 0.0000
# 4 0.0000 0.0000 0.0000 31.0063 0.0000 -0.0318
# 5 -1.0863 2.2613 14.8454 0.0000 42.4225 0.0000
# 6 0.0000 0.0000 0.0000 -0.0318 0.0000 10.0740
#
#
#
# Elastic Compliance Matrix: (Units=1/GPa)
#
#
# Indices 1 2 3 4 5 6 
#
# 1 0.010791 -0.002977 -0.003691 0.000000 0.001727 0.000000
# 2 -0.002977 0.029308 -0.016268 0.000000 0.004055 0.000000
# 3 -0.003691 -0.016268 0.026519 0.000000 -0.008507 0.000000
# 4 0.000000 0.000000 0.000000 0.032252 0.000000 0.000102
# 5 0.001727 0.004055 -0.008507 0.000000 0.026378 0.000000
# 6 0.000000 0.000000 0.000000 0.000102 0.000000 0.099266
#
#
# Mechanical properties :
#
#
# Convention : Reuss Voigt Hill
#
# Bulk Modulus (GPa) = 48.20159 51.01575 49.60867
# Shear Modulus (GPa) = 18.03106 25.99777 22.01442
#
# Velocity S-wave (km/s) = 2.87670 3.45423 3.17861
# Velocity P-wave (km/s) = 5.75813 6.27079 6.01992
#
# Compressibility (1/GPa) = 0.02074620
#
# Stress axis : x y z
#
# Youngs Moduli (GPa) = 92.67102 34.12029 37.70949
#
# Poissons Ratio (x) = 0.10156 0.13917
# Poissons Ratio (y) = 0.27584 0.61347
# Poissons Ratio (z) = 0.34202 0.55508
#
# Static dielectric constant tensor:
#      x y z
#    x 3.855790 0.000000 0.146820 
#    y 0.000000 3.811350 0.000000 
#    z 0.146820 0.000000 4.171930 
# 
# 
# High freq. dielectric constant tensor:
#      x y z
#    x 1.846880 0.000000 0.006920 
#    y 0.000000 1.843200 0.000000 
#    z 0.006920 0.000000 1.872920 
# 
# From -- ./inp_files/47478.got.cif
#   From: 2010.06.25/outbox.cif.g09.slc.cpg/sg15_24_cif.got.tgz:47478.got - 2010.06.28 07:06:18.
