data_PCOD8142187
_publ_section_title
;
Structure prediction by ZEFSAII (Michael W. Deem and Ramdas Pophale) SiO2 
 PCOD8142187
Probable space group: C 2/C
;
_chemical_formula_sum "Si O2"
_cell_formula_units_Z 40
_cell_length_a 15.745253
_cell_length_b 15.272850
_cell_length_c 14.432885
_cell_angle_alpha 90.000000
_cell_angle_beta 146.232353
_cell_angle_gamma 90.000000
_cell_volume 1929.132119
_symmetry_space_group_name_H-M "C 2/C"
_symmetry_group_IT_number 15
_symmetry_cell_setting 'monoclinic'
loop_
_space_group_symop_operation_xyz
x,y,z
-x,y,1/2-z
-x,-y,-z
x,-y,1/2+z
1/2+x,1/2+y,z
1/2-x,1/2+y,1/2-z
1/2-x,1/2-y,-z
1/2+x,1/2-y,1/2+z
loop_
_atom_site_type_symbol
_atom_site_label
_atom_site_fract_x
_atom_site_fract_y
_atom_site_fract_z
Si Si1 0.500000 0.995370 0.250000
Si Si2 0.500000 0.278971 0.750000
Si Si3 0.703595 0.113731 0.528851
Si Si4 0.398653 0.302188 0.066680
Si Si5 0.767028 0.358045 0.107718
Si Si6 0.905855 0.082027 0.875126
O O1 0.349636 0.940742 0.137418
O O2 0.548959 0.057265 0.380261
O O3 0.390884 0.339030 0.588943
O O4 0.611125 0.221456 0.784705
O O5 0.674017 0.212505 0.538176
O O6 0.776306 0.125584 0.491452
O O7 0.814530 0.059302 0.698022
O O8 0.500000 0.280571 0.250000
O O9 0.479740 0.340475 0.049606
O O10 0.720605 0.380783 0.169616
O O11 0.000000 0.000000 0.000000
#
# Coordination Sequence:
#
# PCOD8142187 Si02
#       6
#     4   4   8   8   8   8
#     4  11  22  40  64  91 126 168 210 263 320 376
#     4   9  22  46  64  81 122 172 222 249 312 382
#     4  10  21  38  63  91 127 169 204 258 316 389
#     4   9  19  40  63  90 126 168 211 250 320 380
#     4  10  23  41  64  90 120 171 212 263 313 371
#     4  11  24  38  60  99 128 162 207 264 316 372
#
# _framework density 20.734711999999998
#
# number of rings (size 3 to 8) (size 9 to 14) (size 15 to 20)
#    0.000    2.000    1.000    1.200    5.600    0.800 
#    0.000    0.000    0.000    0.000    0.000    0.000 
#    0.000    0.000    0.000    0.000    0.000    0.000 
#
# Total GULP energy -247837.116350 kJ/mol
# GULP energy per Si atom -12391.855818 kJ/mol
# Density = 2.068752 g / cm^3
# Si number density = 20.734712 Si / 1000 Ang^3
#
#
#
# Elastic Constant Matrix: (Units=GPa)
#
#
# Indices 1 2 3 4 5 6 
#
# 1 126.5981 46.9373 28.3433 0.0002 9.2413 0.0002
# 2 46.9373 100.0002 73.1148 0.0001 -0.4843 0.0001
# 3 28.3433 73.1148 132.3702 0.0002 13.3275 0.0003
# 4 0.0002 0.0001 0.0002 40.8090 0.0000 3.4028
# 5 9.2413 -0.4843 13.3275 0.0000 27.0020 0.0001
# 6 0.0002 0.0001 0.0003 3.4028 0.0001 15.6258
#
#
#
# Elastic Compliance Matrix: (Units=1/GPa)
#
#
# Indices 1 2 3 4 5 6 
#
# 1 0.010037 -0.005830 0.001502 0.000000 -0.004281 0.000000
# 2 -0.005830 0.020864 -0.011064 0.000000 0.007831 0.000000
# 3 0.001502 -0.011064 0.014118 0.000000 -0.007681 0.000000
# 4 0.000000 0.000000 0.000000 0.024958 0.000000 -0.005435
# 5 -0.004281 0.007831 -0.007681 0.000000 0.042431 0.000000
# 6 0.000000 0.000000 0.000000 -0.005435 0.000000 0.065180
#
#
# Mechanical properties :
#
#
# Convention : Reuss Voigt Hill
#
# Bulk Modulus (GPa) = 70.25423 72.86215 71.55819
# Shear Modulus (GPa) = 23.46141 30.72559 27.09350
#
# Velocity S-wave (km/s) = 3.36743 3.85365 3.61872
# Velocity P-wave (km/s) = 7.00539 7.41736 7.21432
#
# Compressibility (1/GPa) = 0.01423402
#
# Stress axis : x y z
#
# Youngs Moduli (GPa) = 99.63413 47.92947 70.83338
#
# Poissons Ratio (x) = 0.27943 -0.10640
# Poissons Ratio (y) = 0.58087 0.78372
# Poissons Ratio (z) = -0.14967 0.53031
#
# Static dielectric constant tensor:
#      x y z
#    x 3.783760 0.000000 0.295580 
#    y 0.000000 3.703780 0.000000 
#    z 0.295580 0.000000 3.779240 
# 
# 
# High freq. dielectric constant tensor:
#      x y z
#    x 1.802040 0.000000 0.023210 
#    y 0.000000 1.811810 0.000000 
#    z 0.023210 0.000000 1.813600 
# 
# From -- ./inp_files/55517.got.cif
#   From: 2010.06.25/outbox.cif.g09.slc.cpg/sg15_28_cif.got.tgz:55517.got - 2010.06.28 07:06:18.
