data_PCOD8142509
_publ_section_title
;
Structure prediction by ZEFSAII (Michael W. Deem and Ramdas Pophale) SiO2 
 PCOD8142509
Probable space group: C 2/C
;
_chemical_formula_sum "Si O2"
_cell_formula_units_Z 56
_cell_length_a 29.002247
_cell_length_b 8.769222
_cell_length_c 17.333546
_cell_angle_alpha 90.000000
_cell_angle_beta 40.352711
_cell_angle_gamma 90.000000
_cell_volume 2854.394283
_symmetry_space_group_name_H-M "C 2/C"
_symmetry_group_IT_number 15
_symmetry_cell_setting 'monoclinic'
loop_
_space_group_symop_operation_xyz
x,y,z
-x,y,1/2-z
-x,-y,-z
x,-y,1/2+z
1/2+x,1/2+y,z
1/2-x,1/2+y,1/2-z
1/2-x,1/2-y,-z
1/2+x,1/2-y,1/2+z
loop_
_atom_site_type_symbol
_atom_site_label
_atom_site_fract_x
_atom_site_fract_y
_atom_site_fract_z
Si Si1 0.373927 0.748784 0.692606
Si Si2 0.292412 0.464038 0.783876
Si Si3 0.957088 0.557290 0.981089
Si Si4 0.277124 0.408087 0.629375
Si Si5 0.914163 0.528100 0.269169
Si Si6 0.782604 0.668140 0.886070
Si Si7 0.644519 0.110395 0.995601
O O1 0.359641 0.569020 0.724697
O O2 0.421151 0.783311 0.554984
O O3 0.297368 0.822355 0.775861
O O4 0.411795 0.818313 0.720085
O O5 0.290393 0.480731 0.695140
O O6 0.305196 0.290284 0.792325
O O7 0.218198 0.520579 0.915596
O O8 0.893593 0.443297 0.035029
O O9 0.012487 0.566264 0.839119
O O10 0.000000 0.500000 0.000000
O O11 0.275879 0.548867 0.571265
O O12 0.340373 0.291321 0.527009
O O13 0.852722 0.417100 0.321263
O O14 0.907696 0.575814 0.366266
O O15 0.750000 0.750000 0.000000
#
# Coordination Sequence:
#
# PCOD8142509 Si02
#       7
#     8   8   8   8   8   8   8
#     4   9  20  36  59  86 117 154 201 246 303 372
#     4  11  21  35  62  89 125 152 200 259 316 370
#     4  10  21  39  61  83 117 158 211 248 303 374
#     4  10  22  34  60  88 121 152 201 251 315 367
#     4  10  22  37  60  84 121 164 202 249 311 382
#     4  11  22  37  58  95 125 155 196 260 323 364
#     4  11  21  37  61  87 116 158 207 255 308 368
#
# _framework density 19.618873000000001
#
# number of rings (size 3 to 8) (size 9 to 14) (size 15 to 20)
#    0.000    1.714    2.857    2.143    6.000    1.714 
#    0.000    0.714    0.000    0.000    0.000    0.000 
#    0.000    0.000    0.000    0.000    0.000    0.000 
#
# Total GULP energy -347067.705914 kJ/mol
# GULP energy per Si atom -12395.275211 kJ/mol
# Density = 1.957422 g / cm^3
# Si number density = 19.618873 Si / 1000 Ang^3
#
#
#
# Elastic Constant Matrix: (Units=GPa)
#
#
# Indices 1 2 3 4 5 6 
#
# 1 65.8621 30.6030 17.3772 0.0014 5.0124 -0.0026
# 2 30.6030 107.1123 29.2541 0.0050 3.6236 -0.0046
# 3 17.3772 29.2541 105.7723 0.0016 12.1609 -0.0020
# 4 0.0014 0.0050 0.0016 30.8471 -0.0002 0.5309
# 5 5.0124 3.6236 12.1609 -0.0002 24.1078 0.0012
# 6 -0.0026 -0.0046 -0.0020 0.5309 0.0012 25.9504
#
#
#
# Elastic Compliance Matrix: (Units=1/GPa)
#
#
# Indices 1 2 3 4 5 6 
#
# 1 0.017888 -0.004654 -0.001385 0.000000 -0.002321 0.000001
# 2 -0.004654 0.011310 -0.002420 -0.000002 0.000488 0.000001
# 3 -0.001385 -0.002420 0.010909 0.000000 -0.004851 0.000001
# 4 0.000000 -0.000002 0.000000 0.032429 0.000001 -0.000663
# 5 -0.002321 0.000488 -0.004851 0.000001 0.044337 -0.000003
# 6 0.000001 0.000001 0.000001 -0.000663 -0.000003 0.038549
#
#
# Mechanical properties :
#
#
# Convention : Reuss Voigt Hill
#
# Bulk Modulus (GPa) = 43.12233 48.13503 45.62868
# Shear Modulus (GPa) = 27.76735 29.61522 28.69128
#
# Velocity S-wave (km/s) = 3.76618 3.88948 3.82833
# Velocity P-wave (km/s) = 6.39843 6.69022 6.54595
#
# Compressibility (1/GPa) = 0.02318984
#
# Stress axis : x y z
#
# Youngs Moduli (GPa) = 55.90429 88.41729 91.66981
#
# Poissons Ratio (x) = 0.41149 0.12694
# Poissons Ratio (y) = 0.26018 0.22181
# Poissons Ratio (z) = 0.07741 0.21394
#
# Static dielectric constant tensor:
#      x y z
#    x 3.637220 -0.000020 0.211120 
#    y -0.000020 3.676350 -0.000110 
#    z 0.211120 -0.000110 4.669110 
# 
# 
# High freq. dielectric constant tensor:
#      x y z
#    x 1.764030 0.000000 0.009710 
#    y 0.000000 1.750220 0.000000 
#    z 0.009710 0.000000 1.760480 
# 
# From -- ./inp_files/213804.got.cif
#   From: 2010.06.25/outbox.cif.g09.slc.cpg/sg15_107_cif.got.tgz:213804.got - 2010.06.28 07:06:18.
