data_PCOD8142899
_publ_section_title
;
Structure prediction by ZEFSAII (Michael W. Deem and Ramdas Pophale) SiO2 
 PCOD8142899
Probable space group: C 2/C
;
_chemical_formula_sum "Si O2"
_cell_formula_units_Z 44
_cell_length_a 12.358667
_cell_length_b 13.471742
_cell_length_c 13.668444
_cell_angle_alpha 90.000000
_cell_angle_beta 133.568909
_cell_angle_gamma 90.000000
_cell_volume 1648.847198
_symmetry_space_group_name_H-M "C 2/C"
_symmetry_group_IT_number 15
_symmetry_cell_setting 'monoclinic'
loop_
_space_group_symop_operation_xyz
x,y,z
-x,y,1/2-z
-x,-y,-z
x,-y,1/2+z
1/2+x,1/2+y,z
1/2-x,1/2+y,1/2-z
1/2-x,1/2-y,-z
1/2+x,1/2-y,1/2+z
loop_
_atom_site_type_symbol
_atom_site_label
_atom_site_fract_x
_atom_site_fract_y
_atom_site_fract_z
Si Si1 0.028545 0.001336 0.901838
Si Si2 0.473389 0.912950 0.126118
Si Si3 0.931899 0.793094 0.535055
Si Si4 0.500000 0.667840 0.750000
Si Si5 0.214808 0.280337 0.745695
Si Si6 0.199803 0.511600 0.150033
O O1 0.090130 0.102604 0.891581
O O2 0.113355 0.895842 0.935817
O O3 0.874118 0.999887 0.745395
O O4 0.000000 0.000000 0.000000
O O5 0.500000 0.955547 0.250000
O O6 0.403982 0.801542 0.088170
O O7 0.631155 0.916083 0.164478
O O8 0.363153 0.986258 0.999625
O O9 0.109288 0.791807 0.621283
O O10 0.827610 0.788236 0.374359
O O11 0.629320 0.736689 0.785898
O O12 0.152997 0.390231 0.681641
#
# Coordination Sequence:
#
# PCOD8142899 Si02
#       6
#     8   8   8   4   8   8
#     4  11  23  42  61  93 132 171 206 268 325 379
#     4  10  21  39  67  92 122 172 215 261 321 391
#     4  10  22  44  64  90 135 168 210 268 329 372
#     4  12  24  38  68 100 124 172 228 256 320 396
#     4  10  22  42  65  94 128 171 210 270 322 380
#     4   9  22  43  60  92 136 161 212 273 324 376
#
# _framework density 26.685309
#
# number of rings (size 3 to 8) (size 9 to 14) (size 15 to 20)
#    0.000    1.818    1.818    1.091    2.545    2.182 
#    0.000    2.727    0.000    0.000    0.000    0.000 
#    0.000    0.000    0.000    0.000    0.000    0.000 
#
# Total GULP energy -272603.557886 kJ/mol
# GULP energy per Si atom -12391.070813 kJ/mol
# Density = 2.662457 g / cm^3
# Si number density = 26.685309 Si / 1000 Ang^3
#
#
#
# Elastic Constant Matrix: (Units=GPa)
#
#
# Indices 1 2 3 4 5 6 
#
# 1 30.1649 -5.0824 17.0288 0.0000 -10.9841 0.0000
# 2 -5.0824 90.2064 18.1023 0.0000 -11.7453 0.0000
# 3 17.0288 18.1023 133.6222 0.0000 -24.5947 0.0000
# 4 0.0000 0.0000 0.0000 24.3757 0.0000 -1.0071
# 5 -10.9841 -11.7453 -24.5947 0.0000 40.9407 0.0000
# 6 0.0000 0.0000 0.0000 -1.0071 0.0000 41.9335
#
#
#
# Elastic Compliance Matrix: (Units=1/GPa)
#
#
# Indices 1 2 3 4 5 6 
#
# 1 0.039501 0.004236 -0.003860 0.000000 0.009494 0.000000
# 2 0.004236 0.012108 -0.001497 0.000000 0.003711 0.000000
# 3 -0.003860 -0.001497 0.008892 0.000000 0.003877 0.000000
# 4 0.000000 0.000000 0.000000 0.041065 0.000000 0.000986
# 5 0.009494 0.003711 0.003877 0.000000 0.030366 0.000000
# 6 0.000000 0.000000 0.000000 0.000986 0.000000 0.023871
#
#
# Mechanical properties :
#
#
# Convention : Reuss Voigt Hill
#
# Bulk Modulus (GPa) = 17.16468 34.89899 26.03183
# Shear Modulus (GPa) = 28.17440 36.37963 32.27701
#
# Velocity S-wave (km/s) = 3.25284 3.69627 3.48162
# Velocity P-wave (km/s) = 4.53367 5.59669 5.09299
#
# Compressibility (1/GPa) = 0.05825919
#
# Stress axis : x y z
#
# Youngs Moduli (GPa) = 25.31554 82.58998 112.45905
#
# Poissons Ratio (x) = -0.34989 0.43415
# Poissons Ratio (y) = -0.10725 0.16837
# Poissons Ratio (z) = 0.09773 0.12365
#
# Static dielectric constant tensor:
#      x y z
#    x 4.478580 0.000000 0.137990 
#    y 0.000000 5.477630 0.000000 
#    z 0.137990 0.000000 4.869510 
# 
# 
# High freq. dielectric constant tensor:
#      x y z
#    x 2.051200 0.000000 0.003540 
#    y 0.000000 2.086190 0.000000 
#    z 0.003540 0.000000 2.077940 
# 
# From -- ./inp_files/98491.got.cif
#   From: 2010.06.25/outbox.cif.g09.slc.cpg/sg15_50_cif.got.tgz:98491.got - 2010.06.28 07:06:18.
