data_PCOD8142416
_publ_section_title
;
Structure prediction by ZEFSAII (Michael W. Deem and Ramdas Pophale) SiO2 
 PCOD8142416
Probable space group: C 2/C
;
_chemical_formula_sum "Si O2"
_cell_formula_units_Z 52
_cell_length_a 6.081406
_cell_length_b 28.292101
_cell_length_c 16.263382
_cell_angle_alpha 90.000000
_cell_angle_beta 115.907786
_cell_angle_gamma 90.000000
_cell_volume 2516.984045
_symmetry_space_group_name_H-M "C 2/C"
_symmetry_group_IT_number 15
_symmetry_cell_setting 'monoclinic'
loop_
_space_group_symop_operation_xyz
x,y,z
-x,y,1/2-z
-x,-y,-z
x,-y,1/2+z
1/2+x,1/2+y,z
1/2-x,1/2+y,1/2-z
1/2-x,1/2-y,-z
1/2+x,1/2-y,1/2+z
loop_
_atom_site_type_symbol
_atom_site_label
_atom_site_fract_x
_atom_site_fract_y
_atom_site_fract_z
Si Si1 0.519897 0.478833 0.657262
Si Si2 0.201081 0.101626 0.478850
Si Si3 0.179628 0.726241 0.854334
Si Si4 0.541092 0.804852 0.510393
Si Si5 0.304821 0.934807 0.378782
Si Si6 0.000000 0.475052 0.250000
Si Si7 0.950821 0.853024 0.086720
O O1 0.500000 0.470118 0.750000
O O2 0.466113 0.428775 0.608088
O O3 0.335943 0.521227 0.602462
O O4 0.794673 0.492360 0.673386
O O5 0.268526 0.152010 0.450533
O O6 0.442856 0.070921 0.532504
O O7 0.048550 0.109829 0.536227
O O8 0.373372 0.767514 0.906957
O O9 0.329686 0.680529 0.847191
O O10 0.000000 0.740937 0.750000
O O11 0.036668 0.715158 0.915901
O O12 0.266403 0.820951 0.487342
O O13 0.354704 0.942555 0.290585
O O14 0.151736 0.885820 0.356760
#
# Coordination Sequence:
#
# PCOD8142416 Si02
#       7
#     8   8   8   8   8   4   8
#     4  10  22  39  58  83 120 160 199 247 293 350
#     4  10  21  39  61  87 114 157 203 241 295 356
#     4  10  21  41  63  89 118 158 197 245 307 365
#     4   9  21  41  61  87 124 151 197 254 299 360
#     4  10  21  39  57  83 120 161 197 246 293 350
#     4  10  22  38  52  86 120 162 196 252 294 348
#     4  10  21  39  59  91 118 158 196 249 299 360
#
# _framework density 20.659647
#
# number of rings (size 3 to 8) (size 9 to 14) (size 15 to 20)
#    0.000    2.154    0.000    1.846    0.000    8.615 
#   41.538    0.000    0.000    3.692    0.000    0.000 
#    0.000    0.000    0.000    0.000    0.000    0.000 
#
# Total GULP energy -322381.106092 kJ/mol
# GULP energy per Si atom -12399.273311 kJ/mol
# Density = 2.061262 g / cm^3
# Si number density = 20.659647 Si / 1000 Ang^3
#
#
#
# Elastic Constant Matrix: (Units=GPa)
#
#
# Indices 1 2 3 4 5 6 
#
# 1 95.8413 27.7609 29.3383 0.0000 12.0564 0.0000
# 2 27.7609 95.1110 51.7697 0.0000 1.6282 0.0000
# 3 29.3383 51.7697 98.8246 0.0000 8.0725 0.0000
# 4 0.0000 0.0000 0.0000 20.1898 0.0000 -2.0553
# 5 12.0564 1.6282 8.0725 0.0000 17.6932 0.0000
# 6 0.0000 0.0000 0.0000 -2.0553 0.0000 15.7195
#
#
#
# Elastic Compliance Matrix: (Units=1/GPa)
#
#
# Indices 1 2 3 4 5 6 
#
# 1 0.012689 -0.002603 -0.001783 0.000000 -0.007593 0.000000
# 2 -0.002603 0.015328 -0.007569 0.000000 0.003816 0.000000
# 3 -0.001783 -0.007569 0.015017 0.000000 -0.004940 0.000000
# 4 0.000000 0.000000 0.000000 0.050198 0.000000 0.006563
# 5 -0.007593 0.003816 -0.004940 0.000000 0.063596 0.000000
# 6 0.000000 0.000000 0.000000 0.006563 0.000000 0.064473
#
#
# Mechanical properties :
#
#
# Convention : Reuss Voigt Hill
#
# Bulk Modulus (GPa) = 52.29018 56.39055 54.34037
# Shear Modulus (GPa) = 19.87396 22.78102 21.32749
#
# Velocity S-wave (km/s) = 3.10493 3.32427 3.21647
# Velocity P-wave (km/s) = 6.18218 6.48757 6.33672
#
# Compressibility (1/GPa) = 0.01912405
#
# Stress axis : x y z
#
# Youngs Moduli (GPa) = 78.80871 65.23928 66.59258
#
# Poissons Ratio (x) = 0.16982 0.11874
# Poissons Ratio (y) = 0.20515 0.50402
# Poissons Ratio (z) = 0.14052 0.49378
#
# Static dielectric constant tensor:
#      x y z
#    x 3.962760 0.000000 0.234000 
#    y 0.000000 3.839660 0.000000 
#    z 0.234000 0.000000 3.419750 
# 
# 
# High freq. dielectric constant tensor:
#      x y z
#    x 1.820980 0.000000 0.014440 
#    y 0.000000 1.815220 0.000000 
#    z 0.014440 0.000000 1.780060 
# 
# From -- ./inp_files/186292.got.cif
#   From: 2010.06.25/outbox.cif.g09.slc.cpg/sg15_94_cif.got.tgz:186292.got - 2010.06.28 07:06:18.
