data_PCOD8142649
_publ_section_title
;
Structure prediction by ZEFSAII (Michael W. Deem and Ramdas Pophale) SiO2 
 PCOD8142649
Probable space group: C 2/C
;
_chemical_formula_sum "Si O2"
_cell_formula_units_Z 60
_cell_length_a 17.086171
_cell_length_b 9.090805
_cell_length_c 22.507258
_cell_angle_alpha 90.000000
_cell_angle_beta 63.692185
_cell_angle_gamma 90.000000
_cell_volume 3133.892670
_symmetry_space_group_name_H-M "C 2/C"
_symmetry_group_IT_number 15
_symmetry_cell_setting 'monoclinic'
loop_
_space_group_symop_operation_xyz
x,y,z
-x,y,1/2-z
-x,-y,-z
x,-y,1/2+z
1/2+x,1/2+y,z
1/2-x,1/2+y,1/2-z
1/2-x,1/2-y,-z
1/2+x,1/2-y,1/2+z
loop_
_atom_site_type_symbol
_atom_site_label
_atom_site_fract_x
_atom_site_fract_y
_atom_site_fract_z
Si Si1 0.834298 0.771706 0.858462
Si Si2 0.890864 0.851610 0.226293
Si Si3 0.500000 0.579437 0.250000
Si Si4 0.693720 0.011247 0.923611
Si Si5 0.582544 0.061342 0.347089
Si Si6 0.725842 0.946797 0.214557
Si Si7 0.797582 0.706140 0.360262
Si Si8 0.383094 0.005751 0.921989
O O1 0.782548 0.701262 0.820612
O O2 0.844684 0.655688 0.907976
O O3 0.928899 0.819001 0.804700
O O4 0.779756 0.910680 0.899583
O O5 0.922810 0.734896 0.166631
O O6 0.800171 0.927444 0.238309
O O7 0.875649 0.779462 0.296101
O O8 0.961596 0.979267 0.209809
O O9 0.629106 0.956869 0.894315
O O10 0.723565 0.178708 0.903829
O O11 0.639448 0.001906 0.001794
O O12 0.634763 0.976515 0.278180
O O13 0.486920 0.992894 0.380296
O O14 0.750261 0.083460 0.163990
O O15 0.841345 0.634675 0.403317
#
# Coordination Sequence:
#
# PCOD8142649 Si02
#       8
#     8   8   4   8   8   8   8   8
#     4  11  23  40  61  92 118 161 196 249 303 351
#     4  11  21  38  62  93 121 150 191 263 302 354
#     4  12  22  34  64  90 124 142 200 254 310 342
#     4  12  22  42  63  85 124 167 202 236 294 366
#     4  11  22  38  65  89 121 154 203 246 305 347
#     4  10  21  39  63  89 121 150 194 252 308 358
#     4  10  22  39  63  88 116 160 199 241 302 352
#     4  11  25  41  60  89 125 161 205 243 285 359
#
# _framework density 19.145519
#
# number of rings (size 3 to 8) (size 9 to 14) (size 15 to 20)
#    0.000    1.067    4.000    2.800    1.867    4.800 
#    0.000    0.000    0.000    1.600    0.000    0.000 
#    0.000    0.000    0.000    0.000    0.000    0.000 
#
# Total GULP energy -372167.538273 kJ/mol
# GULP energy per Si atom -12405.584609 kJ/mol
# Density = 1.910194 g / cm^3
# Si number density = 19.145519 Si / 1000 Ang^3
#
#
#
# Elastic Constant Matrix: (Units=GPa)
#
#
# Indices 1 2 3 4 5 6 
#
# 1 87.3811 34.6339 36.3086 0.0000 -0.0292 0.0001
# 2 34.6339 97.2901 39.8958 0.0000 1.4870 0.0002
# 3 36.3086 39.8958 100.0733 0.0000 8.0330 0.0000
# 4 0.0000 0.0000 0.0000 22.6558 0.0000 -4.6128
# 5 -0.0292 1.4870 8.0330 0.0000 29.2032 0.0000
# 6 0.0001 0.0002 0.0000 -4.6128 0.0000 20.2440
#
#
#
# Elastic Compliance Matrix: (Units=1/GPa)
#
#
# Indices 1 2 3 4 5 6 
#
# 1 0.014494 -0.003563 -0.003941 0.000000 0.001280 0.000000
# 2 -0.003563 0.013179 -0.003995 0.000000 0.000424 0.000000
# 3 -0.003941 -0.003995 0.013293 0.000000 -0.003457 0.000000
# 4 0.000000 0.000000 0.000000 0.046286 0.000000 0.010547
# 5 0.001280 0.000424 -0.003457 0.000000 0.035173 0.000000
# 6 0.000000 0.000000 0.000000 0.010547 0.000000 0.051801
#
#
# Mechanical properties :
#
#
# Convention : Reuss Voigt Hill
#
# Bulk Modulus (GPa) = 55.65742 56.26900 55.96321
# Shear Modulus (GPa) = 24.60454 26.01433 25.30943
#
# Velocity S-wave (km/s) = 3.58876 3.69015 3.63981
# Velocity P-wave (km/s) = 6.80486 6.90002 6.85260
#
# Compressibility (1/GPa) = 0.01796706
#
# Stress axis : x y z
#
# Youngs Moduli (GPa) = 68.99186 75.87919 75.22853
#
# Poissons Ratio (x) = 0.27038 0.29648
# Poissons Ratio (y) = 0.24584 0.30055
# Poissons Ratio (z) = 0.27190 0.30315
#
# Static dielectric constant tensor:
#      x y z
#    x 3.456290 0.000000 0.098030 
#    y 0.000000 3.694010 0.000000 
#    z 0.098030 0.000000 3.397610 
# 
# 
# High freq. dielectric constant tensor:
#      x y z
#    x 1.750140 0.000000 0.007330 
#    y 0.000000 1.758250 0.000000 
#    z 0.007330 0.000000 1.734540 
# 
# From -- ./inp_files/247536.got.cif
#   From: 2010.06.25/outbox.cif.g09.slc.cpg/sg15_124_cif.got.tgz:247536.got - 2010.06.28 07:06:18.
