data_PCOD8142191
_publ_section_title
;
Structure prediction by ZEFSAII (Michael W. Deem and Ramdas Pophale) SiO2 
 PCOD8142191
Probable space group: C 2/C
;
_chemical_formula_sum "Si O2"
_cell_formula_units_Z 48
_cell_length_a 14.606722
_cell_length_b 15.323201
_cell_length_c 11.288785
_cell_angle_alpha 90.000000
_cell_angle_beta 113.433611
_cell_angle_gamma 90.000000
_cell_volume 2318.279046
_symmetry_space_group_name_H-M "C 2/C"
_symmetry_group_IT_number 15
_symmetry_cell_setting 'monoclinic'
loop_
_space_group_symop_operation_xyz
x,y,z
-x,y,1/2-z
-x,-y,-z
x,-y,1/2+z
1/2+x,1/2+y,z
1/2-x,1/2+y,1/2-z
1/2-x,1/2-y,-z
1/2+x,1/2-y,1/2+z
loop_
_atom_site_type_symbol
_atom_site_label
_atom_site_fract_x
_atom_site_fract_y
_atom_site_fract_z
Si Si1 0.850891 0.650339 0.042528
Si Si2 0.500000 0.974342 0.750000
Si Si3 0.363826 0.110111 0.783956
Si Si4 0.137961 0.949140 0.167040
Si Si5 0.500000 0.756997 0.250000
Si Si6 0.132315 0.845220 0.396592
Si Si7 0.977982 0.112128 0.428034
O O1 0.860000 0.741065 0.117845
O O2 0.922565 0.581656 0.137608
O O3 0.874008 0.658904 0.914764
O O4 0.737812 0.615465 0.995277
O O5 0.441385 0.030669 0.817441
O O6 0.254702 0.069327 0.704843
O O7 0.399640 0.182535 0.705210
O O8 0.100105 0.888317 0.255699
O O9 0.103942 0.049652 0.180216
O O10 0.083972 0.934019 0.011803
O O11 0.503737 0.697203 0.367141
O O12 0.053419 0.862089 0.456741
#
# Coordination Sequence:
#
# PCOD8142191 Si02
#       7
#     8   4   8   8   4   8   8
#     4  10  21  38  63  92 122 160 213 258 311 371
#     4  11  22  36  67  88 124 162 207 256 314 377
#     4  10  22  45  59  92 127 166 205 264 315 377
#     4  10  24  39  66  90 127 163 215 257 314 374
#     4  11  24  40  65  88 134 166 207 262 322 375
#     4  10  21  40  63  90 125 163 207 265 307 372
#     4  11  23  40  62  95 125 168 207 261 316 381
#
# _framework density 20.705015
#
# number of rings (size 3 to 8) (size 9 to 14) (size 15 to 20)
#    0.000    1.667    1.667    2.000    7.000    0.667 
#    0.000    0.000    3.667    0.000    0.000    0.000 
#    0.000    0.000    0.000    0.000    0.000    0.000 
#
# Total GULP energy -297416.098779 kJ/mol
# GULP energy per Si atom -12392.337449 kJ/mol
# Density = 2.065789 g / cm^3
# Si number density = 20.705015 Si / 1000 Ang^3
#
#
#
# Elastic Constant Matrix: (Units=GPa)
#
#
# Indices 1 2 3 4 5 6 
#
# 1 99.9080 38.9511 43.3947 0.0000 -0.3655 0.0000
# 2 38.9511 97.1480 43.5360 0.0000 8.7275 0.0000
# 3 43.3947 43.5360 86.9160 0.0000 8.6092 0.0000
# 4 0.0000 0.0000 0.0000 35.2712 0.0000 -2.6361
# 5 -0.3655 8.7275 8.6092 0.0000 23.6619 0.0000
# 6 0.0000 0.0000 0.0000 -2.6361 0.0000 28.9203
#
#
#
# Elastic Compliance Matrix: (Units=1/GPa)
#
#
# Indices 1 2 3 4 5 6 
#
# 1 0.013721 -0.003337 -0.005521 0.000000 0.003452 0.000000
# 2 -0.003337 0.014237 -0.005124 0.000000 -0.003438 0.000000
# 3 -0.005521 -0.005124 0.017272 0.000000 -0.004480 0.000000
# 4 0.000000 0.000000 0.000000 0.028546 0.000000 0.002602
# 5 0.003452 -0.003438 -0.004480 0.000000 0.045213 0.000000
# 6 0.000000 0.000000 0.000000 0.002602 0.000000 0.034815
#
#
# Mechanical properties :
#
#
# Convention : Reuss Voigt Hill
#
# Bulk Modulus (GPa) = 57.92021 59.52618 58.72320
# Shear Modulus (GPa) = 26.66316 28.11002 27.38659
#
# Velocity S-wave (km/s) = 3.59244 3.68862 3.64084
# Velocity P-wave (km/s) = 6.72623 6.85225 6.78953
#
# Compressibility (1/GPa) = 0.01726513
#
# Stress axis : x y z
#
# Youngs Moduli (GPa) = 72.88186 70.23925 57.89647
#
# Poissons Ratio (x) = 0.23441 0.31962
# Poissons Ratio (y) = 0.24323 0.29669
# Poissons Ratio (z) = 0.40235 0.35994
#
# Static dielectric constant tensor:
#      x y z
#    x 3.988470 0.000000 0.049500 
#    y 0.000000 3.855080 0.000000 
#    z 0.049500 0.000000 3.624510 
# 
# 
# High freq. dielectric constant tensor:
#      x y z
#    x 1.825950 0.000000 0.001260 
#    y 0.000000 1.817390 0.000000 
#    z 0.001260 0.000000 1.792430 
# 
# From -- ./inp_files/97220.got.cif
#   From: 2010.06.25/outbox.cif.g09.slc.cpg/sg15_49_cif.got.tgz:97220.got - 2010.06.28 07:06:18.
