data_PCOD8142880
_publ_section_title
;
Structure prediction by ZEFSAII (Michael W. Deem and Ramdas Pophale) SiO2 
 PCOD8142880
Probable space group: C 2/C
;
_chemical_formula_sum "Si O2"
_cell_formula_units_Z 40
_cell_length_a 9.605648
_cell_length_b 10.953425
_cell_length_c 33.209870
_cell_angle_alpha 90.000000
_cell_angle_beta 29.123124
_cell_angle_gamma 90.000000
_cell_volume 1700.569589
_symmetry_space_group_name_H-M "C 2/C"
_symmetry_group_IT_number 15
_symmetry_cell_setting 'monoclinic'
loop_
_space_group_symop_operation_xyz
x,y,z
-x,y,1/2-z
-x,-y,-z
x,-y,1/2+z
1/2+x,1/2+y,z
1/2-x,1/2+y,1/2-z
1/2-x,1/2-y,-z
1/2+x,1/2-y,1/2+z
loop_
_atom_site_type_symbol
_atom_site_label
_atom_site_fract_x
_atom_site_fract_y
_atom_site_fract_z
Si Si1 0.526924 0.654712 0.867409
Si Si2 0.158392 0.121658 0.171452
Si Si3 0.680523 0.362004 0.927923
Si Si4 0.352629 0.057434 0.247637
Si Si5 0.266785 0.983015 0.988768
O O1 0.696871 0.750750 0.852630
O O2 0.297745 0.723401 0.896166
O O3 0.750180 0.580755 0.783394
O O4 0.351514 0.561298 0.938837
O O5 0.388958 0.022215 0.097313
O O6 0.000000 0.062992 0.250000
O O7 0.918938 0.140156 0.197267
O O8 0.654323 0.395088 0.981568
O O9 0.912245 0.450060 0.847252
O O10 0.369492 0.382205 0.985528
O O11 0.500000 0.116717 0.250000
#
# Coordination Sequence:
#
# PCOD8142880 Si02
#       5
#     8   8   8   8   8
#     4  11  23  44  73  95 133 181 223 272 343 392
#     4  11  22  42  70  97 133 181 225 269 337 404
#     4  10  21  39  67 102 130 175 225 274 332 398
#     4  12  24  40  69 101 136 177 220 281 333 395
#     4  10  21  41  72  97 132 177 226 275 332 397
#
# _framework density 23.521529999999998
#
# number of rings (size 3 to 8) (size 9 to 14) (size 15 to 20)
#    0.000    1.200    6.000    3.000    0.000    0.800 
#    0.000    2.000   13.200    0.000    0.000    0.000 
#    0.000    0.000    0.000    0.000    0.000    0.000 
#
# Total GULP energy -247829.654769 kJ/mol
# GULP energy per Si atom -12391.482738 kJ/mol
# Density = 2.346799 g / cm^3
# Si number density = 23.521530 Si / 1000 Ang^3
#
#
#
# Elastic Constant Matrix: (Units=GPa)
#
#
# Indices 1 2 3 4 5 6 
#
# 1 112.0447 25.2463 25.3304 -0.0433 -15.5060 0.0043
# 2 25.2463 52.5376 16.0373 -0.0381 12.7091 0.0062
# 3 25.3304 16.0373 108.5122 0.0299 6.5189 -0.1417
# 4 -0.0433 -0.0381 0.0299 17.5406 0.0590 5.2512
# 5 -15.5060 12.7091 6.5189 0.0590 36.7253 0.0026
# 6 0.0043 0.0062 -0.1417 5.2512 0.0026 27.4741
#
#
#
# Elastic Compliance Matrix: (Units=1/GPa)
#
#
# Indices 1 2 3 4 5 6 
#
# 1 0.012133 -0.007066 -0.002267 -0.000005 0.007970 -0.000012
# 2 -0.007066 0.025681 -0.001448 0.000088 -0.011614 -0.000028
# 3 -0.002267 -0.001448 0.010094 -0.000036 -0.002247 0.000060
# 4 -0.000005 0.000088 -0.000036 0.060471 -0.000122 -0.011558
# 5 0.007970 -0.011614 -0.002247 -0.000122 0.035013 0.000010
# 6 -0.000012 -0.000028 0.000060 -0.011558 0.000010 0.038607
#
#
# Mechanical properties :
#
#
# Convention : Reuss Voigt Hill
#
# Bulk Modulus (GPa) = 37.95780 45.14696 41.55238
# Shear Modulus (GPa) = 23.54675 30.11337 26.83006
#
# Velocity S-wave (km/s) = 3.16741 3.58194 3.38103
# Velocity P-wave (km/s) = 5.43591 6.02848 5.73985
#
# Compressibility (1/GPa) = 0.02634505
#
# Stress axis : x y z
#
# Youngs Moduli (GPa) = 82.42196 38.93887 99.07049
#
# Poissons Ratio (x) = 0.27516 0.22456
# Poissons Ratio (y) = 0.58242 0.14349
# Poissons Ratio (z) = 0.18682 0.05640
#
# Static dielectric constant tensor:
#      x y z
#    x 4.548110 -0.000110 -0.272860 
#    y -0.000110 3.807150 0.000040 
#    z -0.272860 0.000040 4.596550 
# 
# 
# High freq. dielectric constant tensor:
#      x y z
#    x 1.932790 0.000000 -0.009210 
#    y 0.000000 1.880720 0.000010 
#    z -0.009210 0.000010 1.950990 
# 
# From -- ./inp_files/141918.got.cif
#   From: 2010.06.25/outbox.cif.g09.slc.cpg/sg15_71_cif.got.tgz:141918.got - 2010.06.28 07:06:18.
