data_PCOD8142414
_publ_section_title
;
Structure prediction by ZEFSAII (Michael W. Deem and Ramdas Pophale) SiO2 
 PCOD8142414
Probable space group: C 2/C
;
_chemical_formula_sum "Si O2"
_cell_formula_units_Z 56
_cell_length_a 11.808253
_cell_length_b 8.619817
_cell_length_c 29.428321
_cell_angle_alpha 90.000000
_cell_angle_beta 113.415917
_cell_angle_gamma 90.000000
_cell_volume 2748.675889
_symmetry_space_group_name_H-M "C 2/C"
_symmetry_group_IT_number 15
_symmetry_cell_setting 'monoclinic'
loop_
_space_group_symop_operation_xyz
x,y,z
-x,y,1/2-z
-x,-y,-z
x,-y,1/2+z
1/2+x,1/2+y,z
1/2-x,1/2+y,1/2-z
1/2-x,1/2-y,-z
1/2+x,1/2-y,1/2+z
loop_
_atom_site_type_symbol
_atom_site_label
_atom_site_fract_x
_atom_site_fract_y
_atom_site_fract_z
Si Si1 0.213438 0.567590 0.449152
Si Si2 0.078364 0.432597 0.600223
Si Si3 0.752712 0.582406 0.943079
Si Si4 0.712910 0.566945 0.200960
Si Si5 0.420646 0.566309 0.153666
Si Si6 0.250596 0.847297 0.125196
Si Si7 0.748897 0.922200 0.197590
O O1 0.256525 0.524243 0.506654
O O2 0.269057 0.732630 0.443269
O O3 0.267891 0.437210 0.424998
O O4 0.066793 0.574449 0.422787
O O5 0.127470 0.506086 0.561069
O O6 0.130477 0.258536 0.614116
O O7 0.125932 0.537467 0.649582
O O8 0.628667 0.530025 0.897510
O O9 0.566068 0.563647 0.177347
O O10 0.767567 0.467779 0.168571
O O11 0.765068 0.738887 0.204164
O O12 0.765881 0.497046 0.255576
O O13 0.373718 0.743107 0.142681
O O14 0.369528 0.489720 0.191756
#
# Coordination Sequence:
#
# PCOD8142414 Si02
#       7
#     8   8   8   8   8   8   8
#     4  11  20  38  59  82 116 150 183 234 279 326
#     4  10  21  39  57  83 115 147 185 235 278 325
#     4   9  21  37  58  85 113 147 192 227 277 338
#     4  12  22  40  60  82 116 149 182 235 280 327
#     4  10  22  41  58  83 116 147 184 236 278 325
#     4  10  22  36  59  86 110 147 194 223 275 343
#     4  10  22  38  61  86 111 147 192 226 279 341
#
# _framework density 20.373445
#
# number of rings (size 3 to 8) (size 9 to 14) (size 15 to 20)
#    0.000    2.000    0.000    6.000    0.000    2.286 
#    0.000   15.714    0.000    0.000    0.000    0.000 
#    0.000    0.000    0.000    0.000    0.000    0.000 
#
# Total GULP energy -347304.857850 kJ/mol
# GULP energy per Si atom -12403.744923 kJ/mol
# Density = 2.032707 g / cm^3
# Si number density = 20.373445 Si / 1000 Ang^3
#
#
#
# Elastic Constant Matrix: (Units=GPa)
#
#
# Indices 1 2 3 4 5 6 
#
# 1 23.5307 -1.5221 9.7106 0.0000 -4.8245 0.0000
# 2 -1.5221 128.2417 58.1306 0.0000 -25.7667 0.0000
# 3 9.7106 58.1306 114.6851 0.0000 -34.2285 0.0000
# 4 0.0000 0.0000 0.0000 42.1775 0.0000 -11.8319
# 5 -4.8245 -25.7667 -34.2285 0.0000 28.7777 0.0000
# 6 0.0000 0.0000 0.0000 -11.8319 0.0000 21.5308
#
#
#
# Elastic Compliance Matrix: (Units=1/GPa)
#
#
# Indices 1 2 3 4 5 6 
#
# 1 0.045569 0.003512 -0.003752 0.000000 0.006322 0.000000
# 2 0.003512 0.010801 -0.004202 0.000000 0.005262 0.000000
# 3 -0.003752 -0.004202 0.015281 0.000000 0.013784 0.000000
# 4 0.000000 0.000000 0.000000 0.028031 0.000000 0.015404
# 5 0.006322 0.005262 0.013784 0.000000 0.056916 0.000000
# 6 0.000000 0.000000 0.000000 0.015404 0.000000 0.054910
#
#
# Mechanical properties :
#
#
# Convention : Reuss Voigt Hill
#
# Bulk Modulus (GPa) = 15.93166 44.34396 30.13781
# Shear Modulus (GPa) = 20.71989 31.83975 26.27982
#
# Velocity S-wave (km/s) = 3.19251 3.95752 3.59542
# Velocity P-wave (km/s) = 4.62885 6.53418 5.66223
#
# Compressibility (1/GPa) = 0.06276810
#
# Stress axis : x y z
#
# Youngs Moduli (GPa) = 21.94462 92.58104 65.44132
#
# Poissons Ratio (x) = -0.32511 0.24551
# Poissons Ratio (y) = -0.07706 0.27496
# Poissons Ratio (z) = 0.08233 0.38899
#
# Static dielectric constant tensor:
#      x y z
#    x 3.439360 0.000000 -0.129030 
#    y 0.000000 3.869240 0.000000 
#    z -0.129030 0.000000 3.836740 
# 
# 
# High freq. dielectric constant tensor:
#      x y z
#    x 1.781660 0.000000 -0.009790 
#    y 0.000000 1.811080 0.000000 
#    z -0.009790 0.000000 1.807790 
# 
# From -- ./inp_files/310057.got.cif
#   From: 2010.06.25/outbox.cif.g09.slc.cpg/sg15_156_cif.got.tgz:310057.got - 2010.06.28 07:06:18.
