data_PCOD8142425
_publ_section_title
;
Structure prediction by ZEFSAII (Michael W. Deem and Ramdas Pophale) SiO2 
 PCOD8142425
Probable space group: C 2/C
;
_chemical_formula_sum "Si O2"
_cell_formula_units_Z 48
_cell_length_a 9.057007
_cell_length_b 13.830744
_cell_length_c 30.091426
_cell_angle_alpha 90.000000
_cell_angle_beta 141.134886
_cell_angle_gamma 90.000000
_cell_volume 2365.261665
_symmetry_space_group_name_H-M "C 2/C"
_symmetry_group_IT_number 15
_symmetry_cell_setting 'monoclinic'
loop_
_space_group_symop_operation_xyz
x,y,z
-x,y,1/2-z
-x,-y,-z
x,-y,1/2+z
1/2+x,1/2+y,z
1/2-x,1/2+y,1/2-z
1/2-x,1/2-y,-z
1/2+x,1/2-y,1/2+z
loop_
_atom_site_type_symbol
_atom_site_label
_atom_site_fract_x
_atom_site_fract_y
_atom_site_fract_z
Si Si1 0.500000 0.359935 0.250000
Si Si2 0.503770 0.078081 0.653646
Si Si3 0.493122 0.710454 0.845088
Si Si4 0.182923 0.779300 0.033569
Si Si5 0.268858 0.106512 0.060684
Si Si6 0.114242 0.398654 0.012975
Si Si7 0.000000 0.368892 0.250000
O O1 0.501292 0.290806 0.207135
O O2 0.728619 0.429657 0.301479
O O3 0.405650 0.182258 0.613851
O O4 0.495756 0.065773 0.704885
O O5 0.337720 0.996365 0.595651
O O6 0.555586 0.814777 0.878300
O O7 0.675810 0.628025 0.904050
O O8 0.233323 0.695482 0.803277
O O9 0.250000 0.750000 0.000000
O O10 0.993858 0.865834 0.986445
O O11 0.083012 0.684572 0.034319
O O12 0.273793 0.098495 0.009048
O O13 0.000000 0.500000 0.000000
#
# Coordination Sequence:
#
# PCOD8142425 Si02
#       7
#     4   8   8   8   8   8   4
#     4  10  22  40  58  78 122 162 194 238 284 362
#     4  11  22  39  59  87 118 155 197 237 293 348
#     4  10  21  39  58  84 115 153 194 236 295 350
#     4  11  22  38  62  91 119 149 192 252 303 346
#     4  11  22  38  62  87 118 152 196 248 294 351
#     4  11  22  39  63  88 117 153 196 248 300 351
#     4  10  22  38  58  78 118 158 190 236 278 350
#
# _framework density 20.293738000000001
#
# number of rings (size 3 to 8) (size 9 to 14) (size 15 to 20)
#    0.000    1.333    0.000    8.500    0.000    2.667 
#    0.000    6.667    0.000    0.000    0.000    0.000 
#    0.000    0.000    0.000    0.000    0.000    0.000 
#
# Total GULP energy -297639.232675 kJ/mol
# GULP energy per Si atom -12401.634695 kJ/mol
# Density = 2.024755 g / cm^3
# Si number density = 20.293738 Si / 1000 Ang^3
#
#
#
# Elastic Constant Matrix: (Units=GPa)
#
#
# Indices 1 2 3 4 5 6 
#
# 1 145.4341 36.5858 47.3342 0.0000 2.7758 0.0000
# 2 36.5858 96.7425 51.1286 0.0000 7.8966 0.0000
# 3 47.3342 51.1286 98.4848 -0.0001 6.8268 0.0000
# 4 0.0000 0.0000 -0.0001 27.0776 0.0000 -6.8043
# 5 2.7758 7.8966 6.8268 0.0000 42.6517 0.0000
# 6 0.0000 0.0000 0.0000 -6.8043 0.0000 21.5077
#
#
#
# Elastic Compliance Matrix: (Units=1/GPa)
#
#
# Indices 1 2 3 4 5 6 
#
# 1 0.008292 -0.001434 -0.003258 0.000000 0.000247 0.000000
# 2 -0.001434 0.014585 -0.006777 0.000000 -0.001522 0.000000
# 3 -0.003258 -0.006777 0.015306 0.000000 -0.000983 0.000000
# 4 0.000000 0.000000 0.000000 0.040120 0.000000 0.012693
# 5 0.000247 -0.001522 -0.000983 0.000000 0.023869 0.000000
# 6 0.000000 0.000000 0.000000 0.012693 0.000000 0.050510
#
#
# Mechanical properties :
#
#
# Convention : Reuss Voigt Hill
#
# Bulk Modulus (GPa) = 65.59538 67.86205 66.72871
# Shear Modulus (GPa) = 27.66960 31.95493 29.81226
#
# Velocity S-wave (km/s) = 3.69650 3.97245 3.83696
# Velocity P-wave (km/s) = 7.11421 7.38600 7.25138
#
# Compressibility (1/GPa) = 0.01524498
#
# Stress axis : x y z
#
# Youngs Moduli (GPa) = 120.59133 68.56342 65.33303
#
# Poissons Ratio (x) = 0.09834 0.21286
# Poissons Ratio (y) = 0.17297 0.44276
# Poissons Ratio (z) = 0.39290 0.46465
#
# Static dielectric constant tensor:
#      x y z
#    x 4.026960 0.000000 0.060200 
#    y 0.000000 3.985640 0.000000 
#    z 0.060200 0.000000 3.886140 
# 
# 
# High freq. dielectric constant tensor:
#      x y z
#    x 1.814980 0.000000 0.000380 
#    y 0.000000 1.774650 0.000000 
#    z 0.000380 0.000000 1.807850 
# 
# From -- ./inp_files/231101.got.cif
#   From: 2010.06.25/outbox.cif.g09.slc.cpg/sg15_116_cif.got.tgz:231101.got - 2010.06.28 07:06:18.
