data_PCOD8142115
_publ_section_title
;
Structure prediction by ZEFSAII (Michael W. Deem and Ramdas Pophale) SiO2 
 PCOD8142115
Probable space group: C 2/C
;
_chemical_formula_sum "Si O2"
_cell_formula_units_Z 64
_cell_length_a 14.375759
_cell_length_b 14.154311
_cell_length_c 17.518047
_cell_angle_alpha 90.000000
_cell_angle_beta 114.490927
_cell_angle_gamma 90.000000
_cell_volume 3243.840171
_symmetry_space_group_name_H-M "C 2/C"
_symmetry_group_IT_number 15
_symmetry_cell_setting 'monoclinic'
loop_
_space_group_symop_operation_xyz
x,y,z
-x,y,1/2-z
-x,-y,-z
x,-y,1/2+z
1/2+x,1/2+y,z
1/2-x,1/2+y,1/2-z
1/2-x,1/2-y,-z
1/2+x,1/2-y,1/2+z
loop_
_atom_site_type_symbol
_atom_site_label
_atom_site_fract_x
_atom_site_fract_y
_atom_site_fract_z
Si Si1 0.928823 0.811342 0.444267
Si Si2 0.475167 0.858544 0.453705
Si Si3 0.100385 0.601944 0.738755
Si Si4 0.859191 0.079323 0.062883
Si Si5 0.755759 0.965741 0.731971
Si Si6 0.972353 0.060354 0.822727
Si Si7 0.339179 0.992200 0.966043
Si Si8 0.719324 0.282551 0.834659
O O1 0.015043 0.748460 0.514913
O O2 0.894301 0.891046 0.491376
O O3 0.835976 0.745430 0.387707
O O4 0.982314 0.859062 0.389693
O O5 0.424515 0.861797 0.353983
O O6 0.402897 0.910859 0.491612
O O7 0.586240 0.906274 0.488217
O O8 0.171847 0.507693 0.762452
O O9 0.153643 0.689272 0.798767
O O10 0.000000 0.571044 0.750000
O O11 0.827841 0.167911 0.105841
O O12 0.949777 0.024754 0.135688
O O13 0.759557 0.012729 0.012224
O O14 0.779989 0.852705 0.739843
O O15 0.710559 0.982410 0.633481
O O16 0.857644 0.022975 0.783232
O O17 0.000000 0.105313 0.750000
#
# Coordination Sequence:
#
# PCOD8142115 Si02
#       8
#     8   8   8   8   8   8   8   8
#     4  12  24  40  64  97 123 159 219 264 303 378
#     4  10  21  38  62  89 128 163 203 257 318 368
#     4  11  24  38  65  99 125 161 219 267 311 374
#     4  11  23  39  66  95 123 164 211 267 317 364
#     4  10  21  41  62  87 127 172 204 253 321 379
#     4  12  24  43  66  87 134 176 207 248 326 383
#     4   9  19  38  64  83 120 167 203 245 326 370
#     4  11  22  40  65  92 130 169 210 260 322 371
#
# _framework density 19.729702
#
# number of rings (size 3 to 8) (size 9 to 14) (size 15 to 20)
#    0.000    1.250    6.250    1.500    5.250    0.000 
#    0.000    1.250    2.750    0.000    0.000    0.000 
#    0.000    0.000    0.000    0.000    0.000    0.000 
#
# Total GULP energy -396640.897676 kJ/mol
# GULP energy per Si atom -12395.028052 kJ/mol
# Density = 1.968480 g / cm^3
# Si number density = 19.729702 Si / 1000 Ang^3
#
#
#
# Elastic Constant Matrix: (Units=GPa)
#
#
# Indices 1 2 3 4 5 6 
#
# 1 144.3463 98.8301 56.3082 0.0000 12.2328 0.0000
# 2 98.8301 145.6222 63.1311 0.0000 18.9832 0.0000
# 3 56.3082 63.1311 81.5973 0.0000 11.5214 0.0000
# 4 0.0000 0.0000 0.0000 9.0771 0.0000 -7.9071
# 5 12.2328 18.9832 11.5214 0.0000 51.6957 0.0000
# 6 0.0000 0.0000 0.0000 -7.9071 0.0000 33.8220
#
#
#
# Elastic Compliance Matrix: (Units=1/GPa)
#
#
# Indices 1 2 3 4 5 6 
#
# 1 0.013534 -0.007771 -0.003385 0.000000 0.000405 0.000000
# 2 -0.007771 0.015015 -0.005922 0.000000 -0.002355 0.000000
# 3 -0.003385 -0.005922 0.019362 0.000000 -0.001340 0.000000
# 4 0.000000 0.000000 0.000000 0.138341 0.000000 0.032342
# 5 0.000405 -0.002355 -0.001340 0.000000 0.020411 0.000000
# 6 0.000000 0.000000 0.000000 0.032342 0.000000 0.037128
#
#
# Mechanical properties :
#
#
# Convention : Reuss Voigt Hill
#
# Bulk Modulus (GPa) = 72.69421 89.78942 81.24181
# Shear Modulus (GPa) = 17.69709 29.13872 23.41791
#
# Velocity S-wave (km/s) = 2.99821 3.84721 3.44893
# Velocity P-wave (km/s) = 6.99362 8.08352 7.55824
#
# Compressibility (1/GPa) = 0.01375625
#
# Stress axis : x y z
#
# Youngs Moduli (GPa) = 73.88659 66.59798 51.64721
#
# Poissons Ratio (x) = 0.51752 0.17481
# Poissons Ratio (y) = 0.57416 0.30587
# Poissons Ratio (z) = 0.25008 0.39441
#
# Static dielectric constant tensor:
#      x y z
#    x 3.987870 0.000000 0.148650 
#    y 0.000000 3.847880 0.000000 
#    z 0.148650 0.000000 3.720350 
# 
# 
# High freq. dielectric constant tensor:
#      x y z
#    x 1.771970 0.000000 0.019120 
#    y 0.000000 1.758620 0.000000 
#    z 0.019120 0.000000 1.769070 
# 
# From -- ./inp_files/205435.got.cif
#   From: 2010.06.25/outbox.cif.g09.slc.cpg/sg15_103_cif.got.tgz:205435.got - 2010.06.28 07:06:18.
