data_PCOD8142834
_publ_section_title
;
Structure prediction by ZEFSAII (Michael W. Deem and Ramdas Pophale) SiO2 
 PCOD8142834
Probable space group: C 2/C
;
_chemical_formula_sum "Si O2"
_cell_formula_units_Z 60
_cell_length_a 8.789621
_cell_length_b 26.295755
_cell_length_c 13.855432
_cell_angle_alpha 90.000000
_cell_angle_beta 73.843540
_cell_angle_gamma 90.000000
_cell_volume 3075.924591
_symmetry_space_group_name_H-M "C 2/C"
_symmetry_group_IT_number 15
_symmetry_cell_setting 'monoclinic'
loop_
_space_group_symop_operation_xyz
x,y,z
-x,y,1/2-z
-x,-y,-z
x,-y,1/2+z
1/2+x,1/2+y,z
1/2-x,1/2+y,1/2-z
1/2-x,1/2-y,-z
1/2+x,1/2-y,1/2+z
loop_
_atom_site_type_symbol
_atom_site_label
_atom_site_fract_x
_atom_site_fract_y
_atom_site_fract_z
Si Si1 0.689899 0.192617 0.886433
Si Si2 0.684042 0.583829 0.691648
Si Si3 0.319550 0.006929 0.804718
Si Si4 0.383185 0.209626 0.391430
Si Si5 0.690247 0.998890 0.473097
Si Si6 0.500000 0.245236 0.750000
Si Si7 0.775739 0.682437 0.219275
Si Si8 0.320958 0.574645 0.303383
O O1 0.771114 0.142243 0.830619
O O2 0.825977 0.232303 0.892462
O O3 0.560051 0.211696 0.830587
O O4 0.609958 0.183145 0.004429
O O5 0.500000 0.577661 0.750000
O O6 0.779955 0.561974 0.766567
O O7 0.736291 0.552034 0.587323
O O8 0.500000 0.993946 0.750000
O O9 0.217801 0.962977 0.775668
O O10 0.266905 0.003952 0.923623
O O11 0.268138 0.178008 0.338429
O O12 0.563875 0.211945 0.328709
O O13 0.500000 0.000000 0.500000
O O14 0.777244 0.047290 0.410816
O O15 0.358777 0.282901 0.806265
O O16 0.780001 0.626089 0.176175
O O17 0.500000 0.590904 0.250000
#
# Coordination Sequence:
#
# PCOD8142834 Si02
#       8
#     8   8   8   8   8   4   8   8
#     4  10  23  42  65  93 128 166 207 257 311 376
#     4  11  26  42  64  95 128 168 211 255 320 379
#     4  11  23  41  65  93 124 161 210 261 315 373
#     4   9  22  40  65  91 126 161 217 251 305 374
#     4  11  23  41  66  92 126 159 213 263 309 378
#     4  10  22  40  62  92 128 160 200 264 308 366
#     4  10  21  39  66  92 122 163 204 259 314 359
#     4  11  24  40  63  93 128 160 208 259 311 373
#
# _framework density 19.506329000000001
#
# number of rings (size 3 to 8) (size 9 to 14) (size 15 to 20)
#    0.000    1.600    3.333    1.600   10.267    2.667 
#    0.000    0.000    0.000    0.000    0.000    0.000 
#    0.000    0.000    0.000    0.000    0.000    0.000 
#
# Total GULP energy -371754.157708 kJ/mol
# GULP energy per Si atom -12391.805257 kJ/mol
# Density = 1.946193 g / cm^3
# Si number density = 19.506329 Si / 1000 Ang^3
#
#
#
# Elastic Constant Matrix: (Units=GPa)
#
#
# Indices 1 2 3 4 5 6 
#
# 1 84.5362 27.2893 37.5754 0.0000 -1.7241 0.0000
# 2 27.2893 104.7502 42.5539 0.0000 2.4160 0.0000
# 3 37.5754 42.5539 151.6938 0.0000 14.2491 0.0000
# 4 0.0000 0.0000 0.0000 25.2708 0.0000 -2.4718
# 5 -1.7241 2.4160 14.2491 0.0000 32.3284 0.0000
# 6 0.0000 0.0000 0.0000 -2.4718 0.0000 31.8347
#
#
#
# Elastic Compliance Matrix: (Units=1/GPa)
#
#
# Indices 1 2 3 4 5 6 
#
# 1 0.014004 -0.002489 -0.002982 0.000000 0.002247 0.000000
# 2 -0.002489 0.011226 -0.002547 0.000000 0.000151 0.000000
# 3 -0.002982 -0.002547 0.008390 0.000000 -0.003667 0.000000
# 4 0.000000 0.000000 0.000000 0.039874 0.000000 0.003096
# 5 0.002247 0.000151 -0.003667 0.000000 0.032657 0.000000
# 6 0.000000 0.000000 0.000000 0.003096 0.000000 0.031653
#
#
# Mechanical properties :
#
#
# Convention : Reuss Voigt Hill
#
# Bulk Modulus (GPa) = 56.86726 61.75748 59.31237
# Shear Modulus (GPa) = 31.30869 33.45755 32.38312
#
# Velocity S-wave (km/s) = 4.01066 4.14601 4.07889
# Velocity P-wave (km/s) = 7.11784 7.39244 7.25644
#
# Compressibility (1/GPa) = 0.01758481
#
# Stress axis : x y z
#
# Youngs Moduli (GPa) = 71.40906 89.07846 119.19383
#
# Poissons Ratio (x) = 0.22170 0.35540
# Poissons Ratio (y) = 0.17772 0.30357
# Poissons Ratio (z) = 0.21292 0.22687
#
# Static dielectric constant tensor:
#      x y z
#    x 3.491520 0.000000 0.039710 
#    y 0.000000 3.514490 0.000000 
#    z 0.039710 0.000000 3.961120 
# 
# 
# High freq. dielectric constant tensor:
#      x y z
#    x 1.766170 0.000000 -0.000400 
#    y 0.000000 1.760200 0.000000 
#    z -0.000400 0.000000 1.765680 
# 
# From -- ./inp_files/138228.got.cif
#   From: 2010.06.25/outbox.cif.g09.slc.cpg/sg15_70_cif.got.tgz:138228.got - 2010.06.28 07:06:18.
