data_PCOD8142155
_publ_section_title
;
Structure prediction by ZEFSAII (Michael W. Deem and Ramdas Pophale) SiO2 
 PCOD8142155
Probable space group: C 2/C
;
_chemical_formula_sum "Si O2"
_cell_formula_units_Z 40
_cell_length_a 12.462996
_cell_length_b 26.725327
_cell_length_c 9.035965
_cell_angle_alpha 90.000000
_cell_angle_beta 33.642840
_cell_angle_gamma 90.000000
_cell_volume 1667.404217
_symmetry_space_group_name_H-M "C 2/C"
_symmetry_group_IT_number 15
_symmetry_cell_setting 'monoclinic'
loop_
_space_group_symop_operation_xyz
x,y,z
-x,y,1/2-z
-x,-y,-z
x,-y,1/2+z
1/2+x,1/2+y,z
1/2-x,1/2+y,1/2-z
1/2-x,1/2-y,-z
1/2+x,1/2-y,1/2+z
loop_
_atom_site_type_symbol
_atom_site_label
_atom_site_fract_x
_atom_site_fract_y
_atom_site_fract_z
Si Si1 0.205092 0.192654 0.579569
Si Si2 0.695245 0.886690 0.744765
Si Si3 0.210457 0.565161 0.704669
Si Si4 0.282291 0.968739 0.989545
Si Si5 0.470645 0.654631 0.436717
O O1 0.250000 0.250000 0.500000
O O2 0.357894 0.157033 0.316535
O O3 0.000000 0.177015 0.750000
O O4 0.184010 0.182645 0.779170
O O5 0.814371 0.930589 0.519066
O O6 0.827860 0.861166 0.717950
O O7 0.505127 0.911301 0.036653
O O8 0.224141 0.525958 0.554525
O O9 0.362593 0.607062 0.492285
O O10 0.292378 0.536902 0.757467
O O11 0.500000 0.948579 0.750000
O O12 0.500000 0.686976 0.250000
#
# Coordination Sequence:
#
# PCOD8142155 Si02
#       5
#     8   8   8   8   8
#     4  10  23  44  75  99 125 171 225 275 343 412
#     4  10  22  44  63  96 133 172 225 276 327 404
#     4  11  24  41  67  92 141 181 227 276 330 387
#     4  10  21  38  62  96 130 176 235 265 321 394
#     4  11  26  43  64 100 136 172 222 279 333 401
#
# _framework density 23.989383
#
# number of rings (size 3 to 8) (size 9 to 14) (size 15 to 20)
#    0.000    1.600    2.000    2.400    8.400    0.800 
#    0.000    4.000    0.000    0.000    0.000    0.000 
#    0.000    0.000    0.000    0.000    0.000    0.000 
#
# Total GULP energy -247763.206335 kJ/mol
# GULP energy per Si atom -12388.160317 kJ/mol
# Density = 2.393478 g / cm^3
# Si number density = 23.989383 Si / 1000 Ang^3
#
#
#
# Elastic Constant Matrix: (Units=GPa)
#
#
# Indices 1 2 3 4 5 6 
#
# 1 102.6195 16.1621 35.9760 0.0000 23.5815 0.0000
# 2 16.1621 133.5561 27.3495 0.0000 13.8798 0.0000
# 3 35.9760 27.3495 72.6928 0.0000 22.1408 0.0000
# 4 0.0000 0.0000 0.0000 21.3662 0.0000 1.2344
# 5 23.5815 13.8798 22.1408 0.0000 36.0755 0.0000
# 6 0.0000 0.0000 0.0000 1.2344 0.0000 26.6069
#
#
#
# Elastic Compliance Matrix: (Units=1/GPa)
#
#
# Indices 1 2 3 4 5 6 
#
# 1 0.012597 -0.000025 -0.004575 0.000000 -0.005417 0.000000
# 2 -0.000025 0.008182 -0.002598 0.000000 -0.001538 0.000000
# 3 -0.004575 -0.002598 0.019412 0.000000 -0.007923 0.000000
# 4 0.000000 0.000000 0.000000 0.046929 0.000000 -0.002177
# 5 -0.005417 -0.001538 -0.007923 0.000000 0.036715 0.000000
# 6 0.000000 0.000000 0.000000 -0.002177 0.000000 0.037685
#
#
# Mechanical properties :
#
#
# Convention : Reuss Voigt Hill
#
# Bulk Modulus (GPa) = 38.76637 51.98259 45.37448
# Shear Modulus (GPa) = 27.09813 32.10177 29.59995
#
# Velocity S-wave (km/s) = 3.36458 3.66206 3.51647
# Velocity P-wave (km/s) = 5.59364 6.29261 5.95339
#
# Compressibility (1/GPa) = 0.02579555
#
# Stress axis : x y z
#
# Youngs Moduli (GPa) = 79.38121 122.21553 51.51551
#
# Poissons Ratio (x) = 0.00300 0.23570
# Poissons Ratio (y) = 0.00195 0.13384
# Poissons Ratio (z) = 0.36320 0.31751
#
# Static dielectric constant tensor:
#      x y z
#    x 4.563910 0.000000 0.176860 
#    y 0.000000 4.035640 0.000000 
#    z 0.176860 0.000000 4.387050 
# 
# 
# High freq. dielectric constant tensor:
#      x y z
#    x 1.959940 0.000000 0.015860 
#    y 0.000000 1.929040 0.000000 
#    z 0.015860 0.000000 1.953750 
# 
# From -- ./inp_files/34982.got.cif
#   From: 2010.06.25/outbox.cif.g09.slc.cpg/sg15_18_cif.got.tgz:34982.got - 2010.06.28 07:06:18.
