data_PCOD8142095
_publ_section_title
;
Structure prediction by ZEFSAII (Michael W. Deem and Ramdas Pophale) SiO2 
 PCOD8142095
Probable space group: C 2/C
;
_chemical_formula_sum "Si O2"
_cell_formula_units_Z 48
_cell_length_a 16.536341
_cell_length_b 10.962498
_cell_length_c 13.121583
_cell_angle_alpha 90.000000
_cell_angle_beta 95.195725
_cell_angle_gamma 90.000000
_cell_volume 2368.901784
_symmetry_space_group_name_H-M "C 2/C"
_symmetry_group_IT_number 15
_symmetry_cell_setting 'monoclinic'
loop_
_space_group_symop_operation_xyz
x,y,z
-x,y,1/2-z
-x,-y,-z
x,-y,1/2+z
1/2+x,1/2+y,z
1/2-x,1/2+y,1/2-z
1/2-x,1/2-y,-z
1/2+x,1/2-y,1/2+z
loop_
_atom_site_type_symbol
_atom_site_label
_atom_site_fract_x
_atom_site_fract_y
_atom_site_fract_z
Si Si1 0.864266 0.197225 0.466733
Si Si2 0.912561 0.061353 0.990885
Si Si3 0.026478 0.244950 0.364290
Si Si4 0.818074 0.259702 0.872211
Si Si5 0.698341 0.831723 0.858135
Si Si6 0.829878 0.605348 0.577606
O O1 0.787476 0.229087 0.386174
O O2 0.863638 0.258460 0.577359
O O3 0.947445 0.244481 0.426674
O O4 0.852014 0.051816 0.482198
O O5 0.888730 0.156831 0.897982
O O6 0.908983 0.140512 0.093949
O O7 0.000000 0.000000 0.000000
O O8 0.076636 0.371345 0.375336
O O9 0.000000 0.210055 0.250000
O O10 0.828579 0.317570 0.761796
O O11 0.730476 0.197176 0.871411
O O12 0.824565 0.370229 0.954988
O O13 0.694474 0.970584 0.893815
#
# Coordination Sequence:
#
# PCOD8142095 Si02
#       6
#     8   8   8   8   8   8
#     4  10  22  39  57  96 125 159 220 267 309 385
#     4   9  19  39  61  88 124 156 215 268 306 377
#     4  10  21  38  62  86 124 171 208 259 327 376
#     4  10  21  40  64  90 126 173 213 260 332 377
#     4  11  23  39  65  92 129 167 211 271 321 383
#     4  10  22  41  61  93 126 167 217 264 311 402
#
# _framework density 20.262551999999999
#
# number of rings (size 3 to 8) (size 9 to 14) (size 15 to 20)
#    0.000    2.000    1.667    1.000    0.000    7.333 
#    0.000   10.000    0.000    0.000    0.000    0.000 
#    0.000    0.000    0.000    0.000    0.000    0.000 
#
# Total GULP energy -297358.995531 kJ/mol
# GULP energy per Si atom -12389.958147 kJ/mol
# Density = 2.021643 g / cm^3
# Si number density = 20.262552 Si / 1000 Ang^3
#
#
#
# Elastic Constant Matrix: (Units=GPa)
#
#
# Indices 1 2 3 4 5 6 
#
# 1 107.5924 37.3356 46.6881 0.0000 0.4647 0.0000
# 2 37.3356 95.6735 58.8615 0.0000 -1.2482 0.0000
# 3 46.6881 58.8615 164.1585 0.0000 3.8741 0.0000
# 4 0.0000 0.0000 0.0000 20.1631 0.0000 -0.5448
# 5 0.4647 -1.2482 3.8741 0.0000 27.1132 0.0000
# 6 0.0000 0.0000 0.0000 -0.5448 0.0000 28.7768
#
#
#
# Elastic Compliance Matrix: (Units=1/GPa)
#
#
# Indices 1 2 3 4 5 6 
#
# 1 0.011283 -0.003118 -0.002090 0.000000 -0.000038 0.000000
# 2 -0.003118 0.014319 -0.004279 0.000000 0.001324 0.000000
# 3 -0.002090 -0.004279 0.008252 0.000000 -0.001340 0.000000
# 4 0.000000 0.000000 0.000000 0.049621 0.000000 0.000939
# 5 -0.000038 0.001324 -0.001340 0.000000 0.037136 0.000000
# 6 0.000000 0.000000 0.000000 0.000939 0.000000 0.034768
#
#
# Mechanical properties :
#
#
# Convention : Reuss Voigt Hill
#
# Bulk Modulus (GPa) = 67.20169 72.57719 69.88944
# Shear Modulus (GPa) = 27.88437 30.17991 29.03214
#
# Velocity S-wave (km/s) = 3.71368 3.86352 3.78934
# Velocity P-wave (km/s) = 7.18512 7.46984 7.32886
#
# Compressibility (1/GPa) = 0.01488058
#
# Stress axis : x y z
#
# Youngs Moduli (GPa) = 88.62554 69.83962 121.18304
#
# Poissons Ratio (x) = 0.21774 0.25331
# Poissons Ratio (y) = 0.27631 0.51850
# Poissons Ratio (z) = 0.18525 0.29882
#
# Static dielectric constant tensor:
#      x y z
#    x 3.887000 0.000000 0.187350 
#    y 0.000000 4.101110 0.000000 
#    z 0.187350 0.000000 3.565520 
# 
# 
# High freq. dielectric constant tensor:
#      x y z
#    x 1.801490 0.000000 0.015830 
#    y 0.000000 1.788710 0.000000 
#    z 0.015830 0.000000 1.778260 
# 
# From -- ./inp_files/103748.got.cif
#   From: 2010.06.25/outbox.cif.g09.slc.cpg/sg15_52_cif.got.tgz:103748.got - 2010.06.28 07:06:18.
