data_PCOD8142864
_publ_section_title
;
Structure prediction by ZEFSAII (Michael W. Deem and Ramdas Pophale) SiO2 
 PCOD8142864
Probable space group: C 2/C
;
_chemical_formula_sum "Si O2"
_cell_formula_units_Z 40
_cell_length_a 10.926349
_cell_length_b 16.030340
_cell_length_c 9.859421
_cell_angle_alpha 90.000000
_cell_angle_beta 84.295345
_cell_angle_gamma 90.000000
_cell_volume 1718.355532
_symmetry_space_group_name_H-M "C 2/C"
_symmetry_group_IT_number 15
_symmetry_cell_setting 'monoclinic'
loop_
_space_group_symop_operation_xyz
x,y,z
-x,y,1/2-z
-x,-y,-z
x,-y,1/2+z
1/2+x,1/2+y,z
1/2-x,1/2+y,1/2-z
1/2-x,1/2-y,-z
1/2+x,1/2-y,1/2+z
loop_
_atom_site_type_symbol
_atom_site_label
_atom_site_fract_x
_atom_site_fract_y
_atom_site_fract_z
Si Si1 0.374930 0.052098 0.022868
Si Si2 0.238060 0.662077 0.674062
Si Si3 0.138599 0.678852 0.248541
Si Si4 0.748554 0.612938 0.531922
Si Si5 0.987954 0.075490 0.600371
O O1 0.368530 0.130311 0.917322
O O2 0.265594 0.986512 0.004899
O O3 0.364855 0.090003 0.175018
O O4 0.500000 0.000000 0.000000
O O5 0.267248 0.761046 0.679328
O O6 0.362100 0.624007 0.598030
O O7 0.194267 0.632735 0.827226
O O8 0.187464 0.667326 0.090728
O O9 0.000000 0.716443 0.250000
O O10 0.603936 0.636385 0.554972
O O11 0.000000 0.038930 0.750000
O O12 0.000000 0.000000 0.500000
#
# Coordination Sequence:
#
# PCOD8142864 Si02
#       5
#     8   8   8   8   8
#     4  12  25  45  70 101 142 189 237 282 346 430
#     4  11  25  44  69 101 139 180 232 294 353 412
#     4  12  25  45  69 102 144 186 234 297 356 411
#     4  11  23  42  73  98 136 185 237 285 350 423
#     4  10  21  39  66  96 129 175 230 286 343 415
#
# _framework density 23.278071000000001
#
# number of rings (size 3 to 8) (size 9 to 14) (size 15 to 20)
#    0.000    0.800    4.000    4.200    2.800    0.000 
#    0.000    0.000    4.400    0.000    0.000    0.000 
#    0.000    0.000    0.000    0.000    0.000    0.000 
#
# Total GULP energy -247921.027452 kJ/mol
# GULP energy per Si atom -12396.051373 kJ/mol
# Density = 2.322509 g / cm^3
# Si number density = 23.278071 Si / 1000 Ang^3
#
#
#
# Elastic Constant Matrix: (Units=GPa)
#
#
# Indices 1 2 3 4 5 6 
#
# 1 102.5745 33.6486 59.6148 0.0000 -8.1999 0.0000
# 2 33.6486 102.0882 38.5060 0.0000 -8.2453 0.0000
# 3 59.6148 38.5060 141.5497 0.0000 -26.4815 0.0000
# 4 0.0000 0.0000 0.0000 40.8039 0.0000 8.2246
# 5 -8.1999 -8.2453 -26.4815 0.0000 35.3492 0.0000
# 6 0.0000 0.0000 0.0000 8.2246 0.0000 33.1577
#
#
#
# Elastic Compliance Matrix: (Units=1/GPa)
#
#
# Indices 1 2 3 4 5 6 
#
# 1 0.013546 -0.002593 -0.005262 0.000000 -0.001405 0.000000
# 2 -0.002593 0.011416 -0.001893 0.000000 0.000643 0.000000
# 3 -0.005262 -0.001893 0.011031 0.000000 0.006601 0.000000
# 4 0.000000 0.000000 0.000000 0.025797 0.000000 -0.006399
# 5 -0.001405 0.000643 0.006601 0.000000 0.033059 0.000000
# 6 0.000000 0.000000 0.000000 -0.006399 0.000000 0.031746
#
#
# Mechanical properties :
#
#
# Convention : Reuss Voigt Hill
#
# Bulk Modulus (GPa) = 60.62246 67.75014 64.18630
# Shear Modulus (GPa) = 32.98353 36.15836 34.57095
#
# Velocity S-wave (km/s) = 3.76830 3.94550 3.85792
# Velocity P-wave (km/s) = 6.71065 7.06568 6.89045
#
# Compressibility (1/GPa) = 0.01649554
#
# Stress axis : x y z
#
# Youngs Moduli (GPa) = 73.82368 87.59486 90.65452
#
# Poissons Ratio (x) = 0.22717 0.47705
# Poissons Ratio (y) = 0.19145 0.17161
# Poissons Ratio (z) = 0.38848 0.16582
#
# Static dielectric constant tensor:
#      x y z
#    x 4.245280 0.000000 -0.112450 
#    y 0.000000 4.640070 0.000000 
#    z -0.112450 0.000000 4.279470 
# 
# 
# High freq. dielectric constant tensor:
#      x y z
#    x 1.914770 0.000000 -0.008580 
#    y 0.000000 1.913130 0.000000 
#    z -0.008580 0.000000 1.933090 
# 
# From -- ./inp_files/29059.got.cif
#   From: 2010.06.25/outbox.cif.g09.slc.cpg/sg15_15_cif.got.tgz:29059.got - 2010.06.28 07:06:18.
