data_PCOD8142751
_publ_section_title
;
Structure prediction by ZEFSAII (Michael W. Deem and Ramdas Pophale) SiO2 
 PCOD8142751
Probable space group: C 2/C
;
_chemical_formula_sum "Si O2"
_cell_formula_units_Z 64
_cell_length_a 14.932420
_cell_length_b 11.703901
_cell_length_c 26.491475
_cell_angle_alpha 90.000000
_cell_angle_beta 40.244436
_cell_angle_gamma 90.000000
_cell_volume 2991.114320
_symmetry_space_group_name_H-M "C 2/C"
_symmetry_group_IT_number 15
_symmetry_cell_setting 'monoclinic'
loop_
_space_group_symop_operation_xyz
x,y,z
-x,y,1/2-z
-x,-y,-z
x,-y,1/2+z
1/2+x,1/2+y,z
1/2-x,1/2+y,1/2-z
1/2-x,1/2-y,-z
1/2+x,1/2-y,1/2+z
loop_
_atom_site_type_symbol
_atom_site_label
_atom_site_fract_x
_atom_site_fract_y
_atom_site_fract_z
Si Si1 0.079786 0.329813 0.163414
Si Si2 0.317268 0.333840 0.643998
Si Si3 0.451204 0.502688 0.163757
Si Si4 0.083375 0.264409 0.821201
Si Si5 0.389712 0.913084 0.842167
Si Si6 0.264881 0.389434 0.923744
Si Si7 0.708089 0.936720 0.837838
Si Si8 0.488579 0.860442 0.098567
O O1 0.137065 0.457052 0.129161
O O2 0.203829 0.239550 0.107559
O O3 0.979510 0.304868 0.158736
O O4 0.000000 0.313014 0.250000
O O5 0.382763 0.444652 0.642812
O O6 0.196788 0.275935 0.728773
O O7 0.256969 0.366898 0.615310
O O8 0.431859 0.236211 0.584910
O O9 0.456289 0.366916 0.153876
O O10 0.605850 0.547260 0.106529
O O11 0.362144 0.540360 0.250676
O O12 0.147347 0.314562 0.845677
O O13 0.945145 0.334679 0.864070
O O14 0.500000 0.915609 0.750000
O O15 0.211856 0.452872 0.896298
O O16 0.145129 0.391279 0.016786
O O17 0.604929 0.028605 0.858909
#
# Coordination Sequence:
#
# PCOD8142751 Si02
#       8
#     8   8   8   8   8   8   8   8
#     4  11  23  42  69  94 126 172 227 274 321 390
#     4  10  22  37  65  94 127 168 218 268 333 373
#     4  11  23  39  66 100 130 165 227 278 315 391
#     4  10  21  39  64  97 126 166 222 282 317 375
#     4   9  20  37  62  93 123 163 215 277 330 370
#     4  12  27  41  65  97 139 176 215 268 344 386
#     4  11  24  42  67  97 129 179 224 271 321 398
#     4  12  24  47  65  93 138 176 214 275 335 398
#
# _framework density 21.396706999999999
#
# number of rings (size 3 to 8) (size 9 to 14) (size 15 to 20)
#    0.000    1.250    3.750    1.875    7.000    1.000 
#    0.000    2.500    0.000    0.000    0.000    0.000 
#    0.000    0.000    0.000    0.000    0.000    0.000 
#
# Total GULP energy -396845.584420 kJ/mol
# GULP energy per Si atom -12401.424513 kJ/mol
# Density = 2.134801 g / cm^3
# Si number density = 21.396707 Si / 1000 Ang^3
#
#
#
# Elastic Constant Matrix: (Units=GPa)
#
#
# Indices 1 2 3 4 5 6 
#
# 1 101.6679 6.6395 15.3196 0.0000 -9.4229 0.0000
# 2 6.6395 89.4070 -9.3979 0.0000 -10.8754 0.0000
# 3 15.3196 -9.3979 42.8493 -0.0001 -10.8902 0.0000
# 4 0.0000 0.0000 -0.0001 6.6934 0.0000 -8.4468
# 5 -9.4229 -10.8754 -10.8902 0.0000 24.7688 0.0000
# 6 0.0000 0.0000 0.0000 -8.4468 0.0000 27.0441
#
#
#
# Elastic Compliance Matrix: (Units=1/GPa)
#
#
# Indices 1 2 3 4 5 6 
#
# 1 0.010611 -0.000891 -0.003448 0.000000 0.002129 0.000000
# 2 -0.000891 0.012677 0.004985 0.000000 0.007419 0.000000
# 3 -0.003448 0.004985 0.029143 0.000000 0.013690 0.000000
# 4 0.000000 0.000000 0.000000 0.246600 0.000000 0.077021
# 5 0.002129 0.007419 0.013690 0.000000 0.050460 0.000000
# 6 0.000000 0.000000 0.000000 0.077021 0.000000 0.061033
#
#
# Mechanical properties :
#
#
# Convention : Reuss Voigt Hill
#
# Bulk Modulus (GPa) = 18.61435 28.78296 23.69865
# Shear Modulus (GPa) = 11.70573 26.45878 19.08225
#
# Velocity S-wave (km/s) = 2.34151 3.52032 2.98959
# Velocity P-wave (km/s) = 4.00359 5.47766 4.79758
#
# Compressibility (1/GPa) = 0.05372200
#
# Stress axis : x y z
#
# Youngs Moduli (GPa) = 94.24109 78.88058 34.31352
#
# Poissons Ratio (x) = 0.07031 0.11831
# Poissons Ratio (y) = 0.08401 -0.17104
# Poissons Ratio (z) = 0.32495 -0.39319
#
# Static dielectric constant tensor:
#      x y z
#    x 4.057530 0.000000 -0.107580 
#    y 0.000000 3.979300 0.000000 
#    z -0.107580 0.000000 3.505000 
# 
# 
# High freq. dielectric constant tensor:
#      x y z
#    x 1.854680 0.000000 -0.008460 
#    y 0.000000 1.851910 0.000000 
#    z -0.008460 0.000000 1.799820 
# 
# From -- ./inp_files/296120.got.cif
#   From: 2010.06.25/outbox.cif.g09.slc.cpg/sg15_149_cif.got.tgz:296120.got - 2010.06.28 07:06:18.
