data_PCOD8142715
_publ_section_title
;
Structure prediction by ZEFSAII (Michael W. Deem and Ramdas Pophale) SiO2 
 PCOD8142715
Probable space group: C 2/C
;
_chemical_formula_sum "Si O2"
_cell_formula_units_Z 48
_cell_length_a 14.042661
_cell_length_b 33.829858
_cell_length_c 13.646815
_cell_angle_alpha 90.000000
_cell_angle_beta 20.915974
_cell_angle_gamma 90.000000
_cell_volume 2314.446839
_symmetry_space_group_name_H-M "C 2/C"
_symmetry_group_IT_number 15
_symmetry_cell_setting 'monoclinic'
loop_
_space_group_symop_operation_xyz
x,y,z
-x,y,1/2-z
-x,-y,-z
x,-y,1/2+z
1/2+x,1/2+y,z
1/2-x,1/2+y,1/2-z
1/2-x,1/2-y,-z
1/2+x,1/2-y,1/2+z
loop_
_atom_site_type_symbol
_atom_site_label
_atom_site_fract_x
_atom_site_fract_y
_atom_site_fract_z
Si Si1 0.470015 0.161342 0.166068
Si Si2 0.283719 0.841852 0.530023
Si Si3 0.829931 0.277202 0.647991
Si Si4 0.083196 0.430269 0.061809
Si Si5 0.553170 0.544771 0.975425
Si Si6 0.975629 0.890909 0.159361
O O1 0.500000 0.172208 0.250000
O O2 0.419047 0.203471 0.164658
O O3 0.221061 0.133968 0.385435
O O4 0.721699 0.136949 0.883151
O O5 0.267017 0.812876 0.636222
O O6 0.407284 0.882947 0.448800
O O7 0.000000 0.848418 0.750000
O O8 0.500000 0.822334 0.250000
O O9 0.061162 0.247226 0.400321
O O10 0.000000 0.445752 0.250000
O O11 0.860468 0.447530 0.204397
O O12 0.369801 0.444525 0.745669
O O13 0.500000 0.500000 0.000000
O O14 0.506797 0.569733 0.921579
O O15 0.000000 0.903109 0.250000
#
# Coordination Sequence:
#
# PCOD8142715 Si02
#       6
#     8   8   8   8   8   8
#     4  10  22  41  63  86 116 159 208 254 300 363
#     4  11  23  41  64  88 118 162 209 251 296 359
#     4  12  25  38  59  90 123 158 195 251 317 368
#     4  11  24  43  66  91 122 165 212 252 297 362
#     4  12  24  40  63  96 130 162 198 253 316 367
#     4  10  21  39  64  89 118 161 209 253 300 363
#
# _framework density 20.739297000000001
#
# number of rings (size 3 to 8) (size 9 to 14) (size 15 to 20)
#    0.000    1.000    0.000    8.000    0.000    4.000 
#    0.000    1.667    0.000    0.000    0.000    0.000 
#    0.000    0.000    0.000    0.000    0.000    0.000 
#
# Total GULP energy -297568.143485 kJ/mol
# GULP energy per Si atom -12398.672645 kJ/mol
# Density = 2.069209 g / cm^3
# Si number density = 20.739297 Si / 1000 Ang^3
#
#
#
# Elastic Constant Matrix: (Units=GPa)
#
#
# Indices 1 2 3 4 5 6 
#
# 1 85.7911 47.4828 19.4436 0.0182 -8.2660 -0.0017
# 2 47.4828 106.8740 34.0160 0.0136 0.2115 0.0004
# 3 19.4436 34.0160 147.9283 -0.0454 -2.2838 0.0014
# 4 0.0182 0.0136 -0.0454 27.8983 0.0297 3.0725
# 5 -8.2660 0.2115 -2.2838 0.0297 49.6216 0.0017
# 6 -0.0017 0.0004 0.0014 3.0725 0.0017 27.2386
#
#
#
# Elastic Compliance Matrix: (Units=1/GPa)
#
#
# Indices 1 2 3 4 5 6 
#
# 1 0.015829 -0.006893 -0.000455 -0.000011 0.002645 0.000002
# 2 -0.006893 0.013099 -0.002126 -0.000004 -0.001302 0.000000
# 3 -0.000455 -0.002126 0.007313 0.000013 0.000270 -0.000002
# 4 -0.000011 -0.000004 0.000013 0.036295 -0.000023 -0.004094
# 5 0.002645 -0.001302 0.000270 -0.000023 0.020611 0.000001
# 6 0.000002 0.000000 -0.000002 -0.004094 0.000001 0.037174
#
#
# Mechanical properties :
#
#
# Convention : Reuss Voigt Hill
#
# Bulk Modulus (GPa) = 57.82748 60.27536 59.05142
# Shear Modulus (GPa) = 32.25091 36.92842 34.58966
#
# Velocity S-wave (km/s) = 3.94771 4.22430 4.08834
# Velocity P-wave (km/s) = 6.98017 7.27457 7.12889
#
# Compressibility (1/GPa) = 0.01729282
#
# Stress axis : x y z
#
# Youngs Moduli (GPa) = 63.17360 76.34338 136.74552
#
# Poissons Ratio (x) = 0.52626 0.06217
# Poissons Ratio (y) = 0.43548 0.29073
# Poissons Ratio (z) = 0.02872 0.16231
#
# Static dielectric constant tensor:
#      x y z
#    x 3.267980 0.000000 0.218710 
#    y 0.000000 3.630230 -0.000010 
#    z 0.218710 -0.000010 4.160140 
# 
# 
# High freq. dielectric constant tensor:
#      x y z
#    x 1.821880 0.000000 -0.001440 
#    y 0.000000 1.809200 0.000000 
#    z -0.001440 0.000000 1.834830 
# 
# From -- ./inp_files/157634.got.cif
#   From: 2010.06.25/outbox.cif.g09.slc.cpg/sg15_79_cif.got.tgz:157634.got - 2010.06.28 07:06:18.
