data_PCOD8142272
_publ_section_title
;
Structure prediction by ZEFSAII (Michael W. Deem and Ramdas Pophale) SiO2 
 PCOD8142272
Probable space group: C 2/C
;
_chemical_formula_sum "Si O2"
_cell_formula_units_Z 44
_cell_length_a 11.675737
_cell_length_b 22.097796
_cell_length_c 9.632270
_cell_angle_alpha 90.000000
_cell_angle_beta 117.528107
_cell_angle_gamma 90.000000
_cell_volume 2203.838997
_symmetry_space_group_name_H-M "C 2/C"
_symmetry_group_IT_number 15
_symmetry_cell_setting 'monoclinic'
loop_
_space_group_symop_operation_xyz
x,y,z
-x,y,1/2-z
-x,-y,-z
x,-y,1/2+z
1/2+x,1/2+y,z
1/2-x,1/2+y,1/2-z
1/2-x,1/2-y,-z
1/2+x,1/2-y,1/2+z
loop_
_atom_site_type_symbol
_atom_site_label
_atom_site_fract_x
_atom_site_fract_y
_atom_site_fract_z
Si Si1 0.142374 0.029775 0.369969
Si Si2 0.144787 0.680309 0.360099
Si Si3 0.774014 0.292552 0.294561
Si Si4 0.431979 0.641902 0.996991
Si Si5 0.197396 0.071683 0.110723
Si Si6 0.000000 0.243425 0.250000
O O1 0.143549 0.093486 0.451570
O O2 0.215553 0.037643 0.266411
O O3 0.000000 0.008147 0.250000
O O4 0.208084 0.977794 0.496341
O O5 0.165586 0.677436 0.536188
O O6 0.229602 0.726560 0.318560
O O7 0.178150 0.613814 0.325786
O O8 0.000000 0.698464 0.250000
O O9 0.657252 0.336555 0.180787
O O10 0.880504 0.285654 0.231914
O O11 0.565475 0.611133 0.020822
O O12 0.457640 0.702364 0.097833
#
# Coordination Sequence:
#
# PCOD8142272 Si02
#       6
#     8   8   8   8   8   4
#     4  10  21  38  64  99 125 161 215 274 322 373
#     4  11  25  44  60  91 133 171 216 263 323 386
#     4  11  25  38  67  94 127 174 214 260 323 398
#     4  11  20  38  65  96 129 162 212 270 326 373
#     4  11  23  41  66  94 131 168 214 273 322 377
#     4  12  20  42  58  98 134 168 204 266 324 386
#
# _framework density 19.965161999999999
#
# number of rings (size 3 to 8) (size 9 to 14) (size 15 to 20)
#    0.000    1.091    4.545    3.818    7.636    1.455 
#    0.000    0.909    2.000    0.000    0.000    0.000 
#    0.000    0.000    0.000    0.000    0.000    0.000 
#
# Total GULP energy -272801.441560 kJ/mol
# GULP energy per Si atom -12400.065525 kJ/mol
# Density = 1.991972 g / cm^3
# Si number density = 19.965162 Si / 1000 Ang^3
#
#
#
# Elastic Constant Matrix: (Units=GPa)
#
#
# Indices 1 2 3 4 5 6 
#
# 1 74.4296 16.0095 26.0944 0.0000 -15.1440 0.0000
# 2 16.0095 62.6311 25.4362 0.0000 -14.8747 0.0000
# 3 26.0944 25.4362 113.8556 0.0000 -4.7591 0.0000
# 4 0.0000 0.0000 0.0000 -2.0728 0.0000 43.9690
# 5 -15.1440 -14.8747 -4.7591 0.0000 23.7981 0.0000
# 6 0.0000 0.0000 0.0000 43.9690 0.0000 -39.3475
#
#
#
# Elastic Compliance Matrix: (Units=1/GPa)
#
#
# Indices 1 2 3 4 5 6 
#
# 1 0.016666 -0.000667 -0.003272 0.000000 0.009534 0.000000
# 2 -0.000667 0.020491 -0.003940 0.000000 0.011595 0.000000
# 3 -0.003272 -0.003940 0.010310 0.000000 -0.002483 0.000000
# 4 0.000000 0.000000 0.000000 0.021249 0.000000 0.023745
# 5 0.009534 0.011595 -0.002483 0.000000 0.054838 0.000000
# 6 0.000000 0.000000 0.000000 0.023745 0.000000 0.001119
#
#
# Mechanical properties :
#
#
# Convention : Reuss Voigt Hill
#
# Bulk Modulus (GPa) = 31.53773 42.88851 37.21312
# Shear Modulus (GPa) = 33.11218 8.70063 20.90640
#
# Velocity S-wave (km/s) = 4.07688 2.08982 3.23947
# Velocity P-wave (km/s) = 6.16376 5.22986 5.71592
#
# Compressibility (1/GPa) = 0.03170805
#
# Stress axis : x y z
#
# Youngs Moduli (GPa) = 60.00207 48.80162 96.99789
#
# Poissons Ratio (x) = 0.03254 0.31739
# Poissons Ratio (y) = 0.04001 0.38221
# Poissons Ratio (z) = 0.19634 0.19230
#
# Static dielectric constant tensor:
#      x y z
#    x 3.590880 0.000000 -0.176360 
#    y 0.000000 3.593560 0.000000 
#    z -0.176360 0.000000 3.794320 
# 
# 
# High freq. dielectric constant tensor:
#      x y z
#    x 1.755740 0.000000 -0.015760 
#    y 0.000000 1.779070 0.000000 
#    z -0.015760 0.000000 1.788700 
# 
# From -- ./inp_files/30747.got.cif
#   From: 2010.06.25/outbox.cif.g09.slc.cpg/sg15_16_cif.got.tgz:30747.got - 2010.06.28 07:06:18.
