data_PCOD8142796
_publ_section_title
;
Structure prediction by ZEFSAII (Michael W. Deem and Ramdas Pophale) SiO2 
 PCOD8142796
Probable space group: C 2/C
;
_chemical_formula_sum "Si O2"
_cell_formula_units_Z 36
_cell_length_a 16.108748
_cell_length_b 15.042648
_cell_length_c 8.515869
_cell_angle_alpha 90.000000
_cell_angle_beta 57.413739
_cell_angle_gamma 90.000000
_cell_volume 1738.709414
_symmetry_space_group_name_H-M "C 2/C"
_symmetry_group_IT_number 15
_symmetry_cell_setting 'monoclinic'
loop_
_space_group_symop_operation_xyz
x,y,z
-x,y,1/2-z
-x,-y,-z
x,-y,1/2+z
1/2+x,1/2+y,z
1/2-x,1/2+y,1/2-z
1/2-x,1/2-y,-z
1/2+x,1/2-y,1/2+z
loop_
_atom_site_type_symbol
_atom_site_label
_atom_site_fract_x
_atom_site_fract_y
_atom_site_fract_z
Si Si1 0.597665 0.884197 0.927652
Si Si2 0.820981 0.890854 0.647751
Si Si3 0.500000 0.021052 0.250000
Si Si4 0.401223 0.558752 0.754551
Si Si5 0.504474 0.695924 0.067863
O O1 0.713566 0.863945 0.816084
O O2 0.567652 0.915641 0.785833
O O3 0.537923 0.797277 0.034745
O O4 0.574666 0.961514 0.074177
O O5 0.818396 0.910782 0.463778
O O6 0.894796 0.808632 0.605147
O O7 0.864164 0.974297 0.697901
O O8 0.500000 0.534861 0.750000
O O9 0.419782 0.637182 0.610751
O O10 0.500000 0.659802 0.250000
#
# Coordination Sequence:
#
# PCOD8142796 Si02
#       5
#     8   8   4   8   8
#     4  11  24  44  66  90 124 167 207 255 309 369
#     4  11  22  40  66  95 123 167 206 247 318 367
#     4  10  24  46  64  86 130 162 206 258 308 366
#     4  10  21  39  65  94 127 160 201 264 307 359
#     4  11  23  41  61  96 130 158 207 261 304 360
#
# _framework density 20.705010999999999
#
# number of rings (size 3 to 8) (size 9 to 14) (size 15 to 20)
#    0.000    1.333    1.111    6.000    4.667    1.778 
#    8.000    0.000    0.000    0.000    0.000    0.000 
#    0.000    0.000    0.000    0.000    0.000    0.000 
#
# Total GULP energy -223264.946816 kJ/mol
# GULP energy per Si atom -12403.608156 kJ/mol
# Density = 2.065789 g / cm^3
# Si number density = 20.705011 Si / 1000 Ang^3
#
#
#
# Elastic Constant Matrix: (Units=GPa)
#
#
# Indices 1 2 3 4 5 6 
#
# 1 76.6056 37.1055 47.3320 0.0000 -3.3896 0.0000
# 2 37.1055 76.8350 21.2497 0.0000 2.8558 0.0000
# 3 47.3320 21.2497 118.5123 0.0000 11.1991 0.0000
# 4 0.0000 0.0000 0.0000 883.2353 0.0000 121.0585
# 5 -3.3896 2.8558 11.1991 0.0000 47.5512 0.0000
# 6 0.0000 0.0000 0.0000 121.0585 0.0000 32.4982
#
#
#
# Elastic Compliance Matrix: (Units=1/GPa)
#
#
# Indices 1 2 3 4 5 6 
#
# 1 0.022202 -0.008746 -0.007669 0.000000 0.003914 0.000000
# 2 -0.008746 0.017142 0.000589 0.000000 -0.001792 0.000000
# 3 -0.007669 0.000589 0.011711 0.000000 -0.003340 0.000000
# 4 0.000000 0.000000 0.000000 0.002313 0.000000 -0.008617
# 5 0.003914 -0.001792 -0.003340 0.000000 0.022203 0.000000
# 6 0.000000 0.000000 0.000000 -0.008617 0.000000 0.062871
#
#
# Mechanical properties :
#
#
# Convention : Reuss Voigt Hill
#
# Bulk Modulus (GPa) = 51.53982 53.70304 52.62143
# Shear Modulus (GPa) = 28.31866 203.74135 116.03000
#
# Velocity S-wave (km/s) = 3.70228 9.93054 7.49408
# Velocity P-wave (km/s) = 6.57437 12.54914 10.01757
#
# Compressibility (1/GPa) = 0.01940247
#
# Stress axis : x y z
#
# Youngs Moduli (GPa) = 45.04161 58.33462 85.39179
#
# Poissons Ratio (x) = 0.51021 0.65484
# Poissons Ratio (y) = 0.39395 -0.05027
# Poissons Ratio (z) = 0.34541 -0.03434
#
# Static dielectric constant tensor:
#      x y z
#    x 3.748940 0.000000 0.164850 
#    y 0.000000 3.583730 0.000000 
#    z 0.164850 0.000000 4.130710 
# 
# 
# High freq. dielectric constant tensor:
#      x y z
#    x 1.800000 0.000000 0.012890 
#    y 0.000000 1.805620 0.000000 
#    z 0.012890 0.000000 1.832130 
# 
# From -- ./inp_files/37459.got.cif
#   From: 2010.06.25/outbox.cif.g09.slc.cpg/sg15_19_cif.got.tgz:37459.got - 2010.06.28 07:06:18.
