data_PCOD8142222
_publ_section_title
;
Structure prediction by ZEFSAII (Michael W. Deem and Ramdas Pophale) SiO2 
 PCOD8142222
Probable space group: C 2/C
;
_chemical_formula_sum "Si O2"
_cell_formula_units_Z 48
_cell_length_a 18.784912
_cell_length_b 14.726827
_cell_length_c 8.902776
_cell_angle_alpha 90.000000
_cell_angle_beta 105.616995
_cell_angle_gamma 90.000000
_cell_volume 2371.960235
_symmetry_space_group_name_H-M "C 2/C"
_symmetry_group_IT_number 15
_symmetry_cell_setting 'monoclinic'
loop_
_space_group_symop_operation_xyz
x,y,z
-x,y,1/2-z
-x,-y,-z
x,-y,1/2+z
1/2+x,1/2+y,z
1/2-x,1/2+y,1/2-z
1/2-x,1/2-y,-z
1/2+x,1/2-y,1/2+z
loop_
_atom_site_type_symbol
_atom_site_label
_atom_site_fract_x
_atom_site_fract_y
_atom_site_fract_z
Si Si1 0.362356 0.000512 0.103071
Si Si2 0.694487 0.874674 0.182287
Si Si3 0.929010 0.262949 0.512839
Si Si4 0.573079 0.120249 0.103123
Si Si5 0.646725 0.709599 0.718062
Si Si6 0.517000 0.406108 0.086003
O O1 0.309891 0.933429 0.168574
O O2 0.409180 0.065409 0.235912
O O3 0.421988 0.945507 0.037775
O O4 0.309138 0.060115 0.965521
O O5 0.627879 0.801564 0.142051
O O6 0.768659 0.816447 0.220150
O O7 0.887540 0.240071 0.642926
O O8 0.991220 0.339433 0.573861
O O9 0.966430 0.170164 0.475939
O O10 0.634020 0.200384 0.109920
O O11 0.602703 0.624068 0.621178
O O12 0.500000 0.414934 0.250000
O O13 0.500000 0.500000 0.000000
#
# Coordination Sequence:
#
# PCOD8142222 Si02
#       6
#     8   8   8   8   8   8
#     4  10  24  38  61  94 121 159 201 251 300 359
#     4  11  23  39  60  91 124 160 200 245 313 362
#     4  10  21  38  64  85 118 165 199 243 311 361
#     4  10  21  41  60  89 123 156 207 244 301 358
#     4  10  21  40  63  84 122 160 200 245 305 367
#     4   9  20  40  60  85 110 154 206 248 290 350
#
# _framework density 20.236425000000001
#
# number of rings (size 3 to 8) (size 9 to 14) (size 15 to 20)
#    0.000    2.000    1.667    2.000    0.000    8.000 
#    9.000    0.000    0.000    0.000    0.000    0.000 
#    0.000    0.000    0.000    0.000    0.000    0.000 
#
# Total GULP energy -297528.004226 kJ/mol
# GULP energy per Si atom -12397.000176 kJ/mol
# Density = 2.019037 g / cm^3
# Si number density = 20.236425 Si / 1000 Ang^3
#
#
#
# Elastic Constant Matrix: (Units=GPa)
#
#
# Indices 1 2 3 4 5 6 
#
# 1 113.4206 43.4382 25.5737 0.0000 21.5482 0.0000
# 2 43.4382 121.3392 34.1315 0.0000 10.8948 0.0000
# 3 25.5737 34.1315 62.8194 0.0000 3.5263 0.0000
# 4 0.0000 0.0000 0.0000 34.6595 0.0000 -1.9507
# 5 21.5482 10.8948 3.5263 0.0000 29.3410 0.0000
# 6 0.0000 0.0000 0.0000 -1.9507 0.0000 31.2319
#
#
#
# Elastic Compliance Matrix: (Units=1/GPa)
#
#
# Indices 1 2 3 4 5 6 
#
# 1 0.011950 -0.002789 -0.002935 0.000000 -0.007388 0.000000
# 2 -0.002789 0.010648 -0.004574 0.000000 -0.001356 0.000000
# 3 -0.002935 -0.004574 0.019514 0.000000 0.001508 0.000000
# 4 0.000000 0.000000 0.000000 0.028954 0.000000 0.001808
# 5 -0.007388 -0.001356 0.001508 0.000000 0.039830 0.000000
# 6 0.000000 0.000000 0.000000 0.001808 0.000000 0.032131
#
#
# Mechanical properties :
#
#
# Convention : Reuss Voigt Hill
#
# Bulk Modulus (GPa) = 46.47576 55.98512 51.23044
# Shear Modulus (GPa) = 29.27478 32.00887 30.64182
#
# Velocity S-wave (km/s) = 3.80760 3.98143 3.89548
# Velocity P-wave (km/s) = 6.50743 6.99009 6.75307
#
# Compressibility (1/GPa) = 0.02151659
#
# Stress axis : x y z
#
# Youngs Moduli (GPa) = 83.67995 93.91281 51.24570
#
# Poissons Ratio (x) = 0.26194 0.15040
# Poissons Ratio (y) = 0.23340 0.23439
# Poissons Ratio (z) = 0.24558 0.42954
#
# Static dielectric constant tensor:
#      x y z
#    x 3.511210 0.000000 0.054900 
#    y 0.000000 4.438920 0.000000 
#    z 0.054900 0.000000 3.621520 
# 
# 
# High freq. dielectric constant tensor:
#      x y z
#    x 1.776180 0.000000 0.005490 
#    y 0.000000 1.811830 0.000000 
#    z 0.005490 0.000000 1.775770 
# 
# From -- ./inp_files/55426.got.cif
#   From: 2010.06.25/outbox.cif.g09.slc.cpg/sg15_28_cif.got.tgz:55426.got - 2010.06.28 07:06:18.
