data_PCOD8142325
_publ_section_title
;
Structure prediction by ZEFSAII (Michael W. Deem and Ramdas Pophale) SiO2 
 PCOD8142325
Probable space group: C 2/C
;
_chemical_formula_sum "Si O2"
_cell_formula_units_Z 56
_cell_length_a 14.756455
_cell_length_b 16.808687
_cell_length_c 12.305605
_cell_angle_alpha 90.000000
_cell_angle_beta 64.501062
_cell_angle_gamma 90.000000
_cell_volume 2754.932018
_symmetry_space_group_name_H-M "C 2/C"
_symmetry_group_IT_number 15
_symmetry_cell_setting 'monoclinic'
loop_
_space_group_symop_operation_xyz
x,y,z
-x,y,1/2-z
-x,-y,-z
x,-y,1/2+z
1/2+x,1/2+y,z
1/2-x,1/2+y,1/2-z
1/2-x,1/2-y,-z
1/2+x,1/2-y,1/2+z
loop_
_atom_site_type_symbol
_atom_site_label
_atom_site_fract_x
_atom_site_fract_y
_atom_site_fract_z
Si Si1 0.402300 0.258392 0.366486
Si Si2 0.984251 0.396215 0.921626
Si Si3 0.436112 0.933683 0.389249
Si Si4 0.751840 0.162835 0.455128
Si Si5 0.305066 0.148901 0.260883
Si Si6 0.381475 0.406926 0.529048
Si Si7 0.552262 0.567513 0.110171
O O1 0.500000 0.284992 0.250000
O O2 0.422341 0.183813 0.434933
O O3 0.315526 0.230271 0.326683
O O4 0.369173 0.333378 0.453603
O O5 0.920388 0.471718 0.913325
O O6 0.087354 0.395710 0.797835
O O7 0.002304 0.399847 0.040520
O O8 0.500000 0.911902 0.250000
O O9 0.326828 0.893271 0.440476
O O10 0.750000 0.250000 0.500000
O O11 0.727014 0.171786 0.342299
O O12 0.863956 0.133006 0.414651
O O13 0.222676 0.088412 0.351210
O O14 0.394518 0.487664 0.457171
O O15 0.474433 0.396045 0.563451
O O16 0.500000 0.546201 0.250000
#
# Coordination Sequence:
#
# PCOD8142325 Si02
#       7
#     8   8   8   8   8   8   8
#     4  10  21  38  66  92 129 163 213 264 322 382
#     4   9  21  38  63  92 131 160 200 272 324 371
#     4  10  21  39  63  97 122 164 211 257 327 382
#     4  11  26  43  66  93 132 170 214 268 329 388
#     4  10  21  42  65  96 128 165 210 275 322 379
#     4  11  24  41  68  94 128 177 221 264 320 387
#     4  11  25  46  65  92 134 177 222 268 320 387
#
# _framework density 20.327179999999998
#
# number of rings (size 3 to 8) (size 9 to 14) (size 15 to 20)
#    0.000    1.714    1.429    2.143   10.000    1.714 
#    0.000    0.000    0.000    0.000    0.000    0.000 
#    0.000    0.000    0.000    0.000    0.000    0.000 
#
# Total GULP energy -347255.589817 kJ/mol
# GULP energy per Si atom -12401.985351 kJ/mol
# Density = 2.028091 g / cm^3
# Si number density = 20.327180 Si / 1000 Ang^3
#
#
#
# Elastic Constant Matrix: (Units=GPa)
#
#
# Indices 1 2 3 4 5 6 
#
# 1 96.5073 45.2645 34.6285 0.0000 -5.6735 0.0000
# 2 45.2645 116.7895 45.2181 0.0000 -2.6171 0.0000
# 3 34.6285 45.2181 117.2265 0.0000 -0.5277 0.0000
# 4 0.0000 0.0000 0.0000 28.3599 0.0000 0.8512
# 5 -5.6735 -2.6171 -0.5277 0.0000 30.2182 0.0000
# 6 0.0000 0.0000 0.0000 0.8512 0.0000 26.8108
#
#
#
# Elastic Compliance Matrix: (Units=1/GPa)
#
#
# Indices 1 2 3 4 5 6 
#
# 1 0.013283 -0.004215 -0.002288 0.000000 0.002089 0.000000
# 2 -0.004215 0.011423 -0.003160 0.000000 0.000143 0.000000
# 3 -0.002288 -0.003160 0.010423 0.000000 -0.000521 0.000000
# 4 0.000000 0.000000 0.000000 0.035295 0.000000 -0.001121
# 5 0.002089 0.000143 -0.000521 0.000000 0.033488 0.000000
# 6 0.000000 0.000000 0.000000 -0.001121 0.000000 0.037334
#
#
# Mechanical properties :
#
#
# Convention : Reuss Voigt Hill
#
# Bulk Modulus (GPa) = 63.28720 64.52727 63.90724
# Shear Modulus (GPa) = 30.14938 30.77193 30.46066
#
# Velocity S-wave (km/s) = 3.85542 3.89502 3.87527
# Velocity P-wave (km/s) = 7.14289 7.21398 7.17852
#
# Compressibility (1/GPa) = 0.01580098
#
# Stress axis : x y z
#
# Youngs Moduli (GPa) = 75.28476 87.54287 95.93995
#
# Poissons Ratio (x) = 0.36902 0.21955
# Poissons Ratio (y) = 0.31735 0.30321
# Poissons Ratio (z) = 0.17228 0.27667
#
# Static dielectric constant tensor:
#      x y z
#    x 4.005960 0.000000 0.165190 
#    y 0.000000 3.565550 0.000000 
#    z 0.165190 0.000000 3.906130 
# 
# 
# High freq. dielectric constant tensor:
#      x y z
#    x 1.801030 0.000000 0.006690 
#    y 0.000000 1.786870 0.000000 
#    z 0.006690 0.000000 1.808150 
# 
# From -- ./inp_files/98679.got.cif
#   From: 2010.06.25/outbox.cif.g09.slc.cpg/sg15_50_cif.got.tgz:98679.got - 2010.06.28 07:06:18.
