data_PCOD8142152
_publ_section_title
;
Structure prediction by ZEFSAII (Michael W. Deem and Ramdas Pophale) SiO2 
 PCOD8142152
Probable space group: C 2/C
;
_chemical_formula_sum "Si O2"
_cell_formula_units_Z 56
_cell_length_a 13.791915
_cell_length_b 13.775225
_cell_length_c 23.691191
_cell_angle_alpha 90.000000
_cell_angle_beta 33.596386
_cell_angle_gamma 90.000000
_cell_volume 2490.585506
_symmetry_space_group_name_H-M "C 2/C"
_symmetry_group_IT_number 15
_symmetry_cell_setting 'monoclinic'
loop_
_space_group_symop_operation_xyz
x,y,z
-x,y,1/2-z
-x,-y,-z
x,-y,1/2+z
1/2+x,1/2+y,z
1/2-x,1/2+y,1/2-z
1/2-x,1/2-y,-z
1/2+x,1/2-y,1/2+z
loop_
_atom_site_type_symbol
_atom_site_label
_atom_site_fract_x
_atom_site_fract_y
_atom_site_fract_z
Si Si1 0.212541 0.130254 0.474890
Si Si2 0.167835 0.343608 0.065597
Si Si3 0.206543 0.466193 0.146678
Si Si4 0.763016 0.036335 0.317370
Si Si5 0.355192 0.487690 0.898343
Si Si6 0.026320 0.295163 0.885915
Si Si7 0.277785 0.127258 0.747563
O O1 0.417973 0.149126 0.389635
O O2 0.111627 0.231182 0.509776
O O3 0.199720 0.060460 0.426480
O O4 0.120398 0.086677 0.577006
O O5 0.246623 0.371969 0.088340
O O6 0.963376 0.327450 0.173876
O O7 0.250000 0.250000 0.000000
O O8 0.208747 0.429791 0.003122
O O9 0.290318 0.439984 0.166782
O O10 0.000000 0.488232 0.250000
O O11 0.771790 0.999020 0.377232
O O12 0.631798 0.127380 0.373255
O O13 0.956014 0.064789 0.199807
O O14 0.695427 0.940911 0.318870
O O15 0.157918 0.219774 0.792592
#
# Coordination Sequence:
#
# PCOD8142152 Si02
#       7
#     8   8   8   8   8   8   8
#     4  10  22  45  66  93 131 172 218 272 333 394
#     4  10  21  38  62  95 127 168 216 261 330 398
#     4   9  20  40  66  90 131 170 207 272 330 384
#     4  11  23  42  66  94 131 174 217 271 331 392
#     4  10  22  43  66  89 135 173 210 273 332 387
#     4  11  23  40  68  97 127 170 220 272 326 390
#     4  11  23  42  65  96 132 168 221 273 329 391
#
# _framework density 22.484673000000001
#
# number of rings (size 3 to 8) (size 9 to 14) (size 15 to 20)
#    0.000    1.714    1.429    3.429    2.000    2.857 
#    0.000   10.000    0.000    0.000    0.000    0.000 
#    0.000    0.000    0.000    0.000    0.000    0.000 
#
# Total GULP energy -347060.716109 kJ/mol
# GULP energy per Si atom -12395.025575 kJ/mol
# Density = 2.243350 g / cm^3
# Si number density = 22.484673 Si / 1000 Ang^3
#
#
#
# Elastic Constant Matrix: (Units=GPa)
#
#
# Indices 1 2 3 4 5 6 
#
# 1 103.2637 38.8133 26.7885 0.0000 12.3156 0.0000
# 2 38.8133 101.7655 23.8800 0.0000 3.1535 -0.0001
# 3 26.7885 23.8800 72.0335 -0.0008 6.0447 -0.0002
# 4 0.0000 0.0000 -0.0008 44.4858 -0.0002 -15.9400
# 5 12.3156 3.1535 6.0447 -0.0002 33.6338 0.0001
# 6 0.0000 -0.0001 -0.0002 -15.9400 0.0001 20.0401
#
#
#
# Elastic Compliance Matrix: (Units=1/GPa)
#
#
# Indices 1 2 3 4 5 6 
#
# 1 0.012359 -0.003897 -0.003000 0.000000 -0.003621 0.000000
# 2 -0.003897 0.011889 -0.002557 0.000000 0.000772 0.000000
# 3 -0.003000 -0.002557 0.015974 0.000000 -0.001533 0.000001
# 4 0.000000 0.000000 0.000000 0.031439 0.000000 0.025007
# 5 -0.003621 0.000772 -0.001533 0.000000 0.031261 0.000000
# 6 0.000000 0.000000 0.000001 0.025007 0.000000 0.069791
#
#
# Mechanical properties :
#
#
# Convention : Reuss Voigt Hill
#
# Bulk Modulus (GPa) = 46.91859 50.66960 48.79410
# Shear Modulus (GPa) = 25.16017 32.13735 28.64876
#
# Velocity S-wave (km/s) = 3.34876 3.78471 3.57339
# Velocity P-wave (km/s) = 5.98870 6.45622 6.22685
#
# Compressibility (1/GPa) = 0.02131351
#
# Stress axis : x y z
#
# Youngs Moduli (GPa) = 80.91247 84.11112 62.60011
#
# Poissons Ratio (x) = 0.32782 0.18782
# Poissons Ratio (y) = 0.31535 0.16005
# Poissons Ratio (z) = 0.24276 0.21505
#
# Static dielectric constant tensor:
#      x y z
#    x 3.999520 0.000000 -0.042250 
#    y 0.000000 3.642790 0.000000 
#    z -0.042250 0.000000 4.208450 
# 
# 
# High freq. dielectric constant tensor:
#      x y z
#    x 1.877370 0.000000 -0.012850 
#    y 0.000000 1.881430 0.000000 
#    z -0.012850 0.000000 1.893900 
# 
# From -- ./inp_files/296543.got.cif
#   From: 2010.06.25/outbox.cif.g09.slc.cpg/sg15_149_cif.got.tgz:296543.got - 2010.06.28 07:06:18.
