data_PCOD8142824
_publ_section_title
;
Structure prediction by ZEFSAII (Michael W. Deem and Ramdas Pophale) SiO2 
 PCOD8142824
Probable space group: C 2/C
;
_chemical_formula_sum "Si O2"
_cell_formula_units_Z 44
_cell_length_a 30.619707
_cell_length_b 5.262411
_cell_length_c 11.632013
_cell_angle_alpha 90.000000
_cell_angle_beta 101.113989
_cell_angle_gamma 90.000000
_cell_volume 1839.155325
_symmetry_space_group_name_H-M "C 2/C"
_symmetry_group_IT_number 15
_symmetry_cell_setting 'monoclinic'
loop_
_space_group_symop_operation_xyz
x,y,z
-x,y,1/2-z
-x,-y,-z
x,-y,1/2+z
1/2+x,1/2+y,z
1/2-x,1/2+y,1/2-z
1/2-x,1/2-y,-z
1/2+x,1/2-y,1/2+z
loop_
_atom_site_type_symbol
_atom_site_label
_atom_site_fract_x
_atom_site_fract_y
_atom_site_fract_z
Si Si1 0.805366 0.706411 0.320358
Si Si2 0.889532 0.358425 0.706161
Si Si3 0.585392 0.658602 0.390595
Si Si4 0.534135 0.189970 0.081543
Si Si5 0.500000 0.461363 0.750000
Si Si6 0.774807 0.789428 0.894212
O O1 0.847771 0.717905 0.261121
O O2 0.807992 0.449197 0.396373
O O3 0.760356 0.703426 0.225598
O O4 0.804232 0.951628 0.404981
O O5 0.880413 0.612922 0.625159
O O6 0.933382 0.420395 0.803613
O O7 0.895352 0.121618 0.622146
O O8 0.568977 0.677489 0.512950
O O9 0.543537 0.709887 0.284111
O O10 0.501657 0.384467 0.130424
O O11 0.500000 0.000000 0.000000
O O12 0.750000 0.750000 0.000000
#
# Coordination Sequence:
#
# PCOD8142824 Si02
#       6
#     8   8   8   8   4   8
#     4  10  22  40  60  92 124 155 200 248 296 359
#     4  11  25  40  60  90 124 156 201 253 299 356
#     4  11  23  39  59  85 116 158 200 249 304 355
#     4  11  22  40  63  87 119 162 205 251 304 358
#     4  10  22  40  60  86 118 156 208 258 298 356
#     4  10  21  39  66  90 121 161 198 242 300 361
#
# _framework density 23.924026000000001
#
# number of rings (size 3 to 8) (size 9 to 14) (size 15 to 20)
#    0.000    1.455    0.000    5.455    0.000    8.000 
#    0.000    0.000    0.000    0.000    0.000    0.000 
#    0.000    0.000    0.000    0.000    0.000    0.000 
#
# Total GULP energy -272643.443449 kJ/mol
# GULP energy per Si atom -12392.883793 kJ/mol
# Density = 2.386957 g / cm^3
# Si number density = 23.924026 Si / 1000 Ang^3
#
#
#
# Elastic Constant Matrix: (Units=GPa)
#
#
# Indices 1 2 3 4 5 6 
#
# 1 58.8430 33.4891 12.0087 0.0000 -32.3430 0.0000
# 2 33.4891 183.3055 70.5898 0.0000 -29.4721 0.0000
# 3 12.0087 70.5898 115.2723 0.0000 -48.0699 0.0000
# 4 0.0000 0.0000 0.0000 5.6184 0.0000 -2.2748
# 5 -32.3430 -29.4721 -48.0699 0.0000 51.5002 0.0000
# 6 0.0000 0.0000 0.0000 -2.2748 0.0000 26.8269
#
#
#
# Elastic Compliance Matrix: (Units=1/GPa)
#
#
# Indices 1 2 3 4 5 6 
#
# 1 0.034516 -0.006432 0.012849 0.000000 0.029989 0.000000
# 2 -0.006432 0.008338 -0.006763 0.000000 -0.005581 0.000000
# 3 0.012849 -0.006763 0.021660 0.000000 0.024416 0.000000
# 4 0.000000 0.000000 0.000000 0.184315 0.000000 0.015629
# 5 0.029989 -0.005581 0.024416 0.000000 0.057847 0.000000
# 6 0.000000 0.000000 0.000000 0.015629 0.000000 0.038601
#
#
# Mechanical properties :
#
#
# Convention : Reuss Voigt Hill
#
# Bulk Modulus (GPa) = 15.66878 65.51067 40.58973
# Shear Modulus (GPa) = 13.61494 32.87797 23.24645
#
# Velocity S-wave (km/s) = 2.38815 3.71113 3.12056
# Velocity P-wave (km/s) = 3.76403 6.76798 5.47602
#
# Compressibility (1/GPa) = 0.06382116
#
# Stress axis : x y z
#
# Youngs Moduli (GPa) = 28.97177 119.93877 46.16863
#
# Poissons Ratio (x) = 0.77149 -0.59322
# Poissons Ratio (y) = 0.18636 0.31223
# Poissons Ratio (z) = -0.37226 0.81112
#
# Static dielectric constant tensor:
#      x y z
#    x 4.191290 0.000000 -0.142290 
#    y 0.000000 2.976020 0.000000 
#    z -0.142290 0.000000 4.348070 
# 
# 
# High freq. dielectric constant tensor:
#      x y z
#    x 1.942480 0.000000 -0.016370 
#    y 0.000000 1.959020 0.000000 
#    z -0.016370 0.000000 1.953420 
# 
# From -- ./inp_files/125001.got.cif
#   From: 2010.06.25/outbox.cif.g09.slc.cpg/sg15_63_cif.got.tgz:125001.got - 2010.06.28 07:06:18.
