data_PCOD8142200
_publ_section_title
;
Structure prediction by ZEFSAII (Michael W. Deem and Ramdas Pophale) SiO2 
 PCOD8142200
Probable space group: C 2/C
;
_chemical_formula_sum "Si O2"
_cell_formula_units_Z 48
_cell_length_a 10.572684
_cell_length_b 19.301033
_cell_length_c 12.316365
_cell_angle_alpha 90.000000
_cell_angle_beta 107.680457
_cell_angle_gamma 90.000000
_cell_volume 2394.606790
_symmetry_space_group_name_H-M "C 2/C"
_symmetry_group_IT_number 15
_symmetry_cell_setting 'monoclinic'
loop_
_space_group_symop_operation_xyz
x,y,z
-x,y,1/2-z
-x,-y,-z
x,-y,1/2+z
1/2+x,1/2+y,z
1/2-x,1/2+y,1/2-z
1/2-x,1/2-y,-z
1/2+x,1/2-y,1/2+z
loop_
_atom_site_type_symbol
_atom_site_label
_atom_site_fract_x
_atom_site_fract_y
_atom_site_fract_z
Si Si1 0.557759 0.778205 0.970313
Si Si2 0.203418 0.857350 0.548632
Si Si3 0.377173 0.835986 0.285606
Si Si4 0.737594 0.220495 0.116917
Si Si5 0.846446 0.086272 0.229531
Si Si6 0.656139 0.569796 0.815156
O O1 0.587689 0.698307 0.002703
O O2 0.562402 0.822581 0.080990
O O3 0.658971 0.813872 0.912375
O O4 0.412892 0.777437 0.879973
O O5 0.190597 0.899229 0.655777
O O6 0.191491 0.911765 0.447845
O O7 0.500000 0.869001 0.250000
O O8 0.331907 0.763035 0.222344
O O9 0.248300 0.885648 0.257087
O O10 0.778125 0.140090 0.129796
O O11 0.750000 0.250000 0.000000
O O12 0.000000 0.093784 0.250000
O O13 0.799669 0.009255 0.188826
O O14 0.500000 0.582496 0.750000
#
# Coordination Sequence:
#
# PCOD8142200 Si02
#       6
#     8   8   8   8   8   8
#     4  10  21  38  63  93 125 165 209 267 320 371
#     4  10  21  42  62  90 132 159 208 276 311 380
#     4  11  21  41  63  95 128 163 215 268 312 371
#     4  12  22  36  66  95 123 166 213 259 320 374
#     4  11  24  42  63  93 128 167 214 265 319 380
#     4  10  24  42  65  92 126 176 212 255 327 386
#
# _framework density 20.045044000000001
#
# number of rings (size 3 to 8) (size 9 to 14) (size 15 to 20)
#    0.000    1.333    3.333    2.500    0.000    4.667 
#    3.000    1.667    0.000    0.000    0.000    0.000 
#    0.000    0.000    0.000    0.000    0.000    0.000 
#
# Total GULP energy -297633.239865 kJ/mol
# GULP energy per Si atom -12401.384994 kJ/mol
# Density = 1.999942 g / cm^3
# Si number density = 20.045044 Si / 1000 Ang^3
#
#
#
# Elastic Constant Matrix: (Units=GPa)
#
#
# Indices 1 2 3 4 5 6 
#
# 1 109.4708 49.7712 21.6491 0.0000 -0.6952 0.0000
# 2 49.7712 140.8946 34.6918 0.0000 -4.6980 0.0000
# 3 21.6491 34.6918 68.9744 0.0000 -11.7839 0.0000
# 4 0.0000 0.0000 0.0000 41.9858 0.0000 -5.6959
# 5 -0.6952 -4.6980 -11.7839 0.0000 32.5929 0.0000
# 6 0.0000 0.0000 0.0000 -5.6959 0.0000 34.1850
#
#
#
# Elastic Compliance Matrix: (Units=1/GPa)
#
#
# Indices 1 2 3 4 5 6 
#
# 1 0.011086 -0.003482 -0.001890 0.000000 -0.000949 0.000000
# 2 -0.003482 0.009198 -0.003538 0.000000 -0.000028 0.000000
# 3 -0.001890 -0.003538 0.017881 0.000000 0.005915 0.000000
# 4 0.000000 0.000000 0.000000 0.024368 0.000000 0.004060
# 5 -0.000949 -0.000028 0.005915 0.000000 0.032796 0.000000
# 6 0.000000 0.000000 0.000000 0.004060 0.000000 0.029929
#
#
# Mechanical properties :
#
#
# Convention : Reuss Voigt Hill
#
# Bulk Modulus (GPa) = 49.15391 59.06267 54.10829
# Shear Modulus (GPa) = 33.36435 35.96793 34.66614
#
# Velocity S-wave (km/s) = 4.08422 4.24058 4.16313
# Velocity P-wave (km/s) = 6.84223 7.31475 7.08243
#
# Compressibility (1/GPa) = 0.02034426
#
# Stress axis : x y z
#
# Youngs Moduli (GPa) = 90.20481 108.72103 55.92416
#
# Poissons Ratio (x) = 0.37860 0.10571
# Poissons Ratio (y) = 0.31412 0.19786
# Poissons Ratio (z) = 0.17050 0.38465
#
# Static dielectric constant tensor:
#      x y z
#    x 3.970110 0.000000 -0.051480 
#    y 0.000000 3.829070 0.000000 
#    z -0.051480 0.000000 3.510610 
# 
# 
# High freq. dielectric constant tensor:
#      x y z
#    x 1.799310 0.000000 -0.004550 
#    y 0.000000 1.777350 0.000000 
#    z -0.004550 0.000000 1.776930 
# 
# From -- ./inp_files/89141.got.cif
#   From: 2010.06.25/outbox.cif.g09.slc.cpg/sg15_45_cif.got.tgz:89141.got - 2010.06.28 07:06:18.
