data_PCOD8142307
_publ_section_title
;
Structure prediction by ZEFSAII (Michael W. Deem and Ramdas Pophale) SiO2 
 PCOD8142307
Probable space group: C 2/C
;
_chemical_formula_sum "Si O2"
_cell_formula_units_Z 40
_cell_length_a 13.002243
_cell_length_b 22.177219
_cell_length_c 8.814031
_cell_angle_alpha 90.000000
_cell_angle_beta 131.140696
_cell_angle_gamma 90.000000
_cell_volume 1914.037494
_symmetry_space_group_name_H-M "C 2/C"
_symmetry_group_IT_number 15
_symmetry_cell_setting 'monoclinic'
loop_
_space_group_symop_operation_xyz
x,y,z
-x,y,1/2-z
-x,-y,-z
x,-y,1/2+z
1/2+x,1/2+y,z
1/2-x,1/2+y,1/2-z
1/2-x,1/2-y,-z
1/2+x,1/2-y,1/2+z
loop_
_atom_site_type_symbol
_atom_site_label
_atom_site_fract_x
_atom_site_fract_y
_atom_site_fract_z
Si Si1 0.648155 0.794832 0.320254
Si Si2 0.346885 0.922980 0.113661
Si Si3 0.645744 0.411057 0.375831
Si Si4 0.273592 0.492289 0.776625
Si Si5 0.348241 0.801048 0.529853
O O1 0.500000 0.786907 0.250000
O O2 0.750000 0.750000 0.500000
O O3 0.724308 0.859595 0.415906
O O4 0.633279 0.784234 0.126987
O O5 0.500000 0.902231 0.250000
O O6 0.340674 0.972505 0.238851
O O7 0.295204 0.946677 0.904598
O O8 0.500000 0.375952 0.250000
O O9 0.644057 0.451909 0.525334
O O10 0.638477 0.457074 0.225740
O O11 0.773671 0.365722 0.486040
O O12 0.500000 0.803143 0.750000
O O13 0.250000 0.750000 0.500000
#
# Coordination Sequence:
#
# PCOD8142307 Si02
#       5
#     8   8   8   8   8
#     4  11  25  46  69  98 136 174 226 277 340 408
#     4  10  21  38  65  97 135 169 223 268 340 395
#     4  11  24  43  68  99 139 179 229 272 341 397
#     4  10  22  40  64  97 135 180 219 276 326 408
#     4  12  27  47  73 102 136 177 231 287 345 408
#
# _framework density 20.898230999999999
#
# number of rings (size 3 to 8) (size 9 to 14) (size 15 to 20)
#    0.000    1.200    2.000    3.000    8.400    3.200 
#    0.000    1.000    0.000    0.000    0.000    0.000 
#    0.000    0.000    0.000    0.000    0.000    0.000 
#
# Total GULP energy -247802.982343 kJ/mol
# GULP energy per Si atom -12390.149117 kJ/mol
# Density = 2.085067 g / cm^3
# Si number density = 20.898231 Si / 1000 Ang^3
#
#
#
# Elastic Constant Matrix: (Units=GPa)
#
#
# Indices 1 2 3 4 5 6 
#
# 1 125.5867 54.1144 89.9790 0.0000 -8.7452 0.0000
# 2 54.1144 115.5248 58.8664 0.0000 0.4993 0.0000
# 3 89.9790 58.8664 121.0246 0.0000 -11.0843 0.0000
# 4 0.0000 0.0000 0.0000 45.2417 0.0000 -8.5754
# 5 -8.7452 0.4993 -11.0843 0.0000 50.4707 0.0000
# 6 0.0000 0.0000 0.0000 -8.5754 0.0000 39.3716
#
#
#
# Elastic Compliance Matrix: (Units=1/GPa)
#
#
# Indices 1 2 3 4 5 6 
#
# 1 0.017413 -0.002103 -0.011884 0.000000 0.000428 0.000000
# 2 -0.002103 0.011856 -0.004335 0.000000 -0.001434 0.000000
# 3 -0.011884 -0.004335 0.019413 0.000000 0.002247 0.000000
# 4 0.000000 0.000000 0.000000 0.023055 0.000000 0.005022
# 5 0.000428 -0.001434 0.002247 0.000000 0.020395 0.000000
# 6 0.000000 0.000000 0.000000 0.005022 0.000000 0.026493
#
#
# Mechanical properties :
#
#
# Convention : Reuss Voigt Hill
#
# Bulk Modulus (GPa) = 83.06801 85.33953 84.20377
# Shear Modulus (GPa) = 31.39080 37.62856 34.50968
#
# Velocity S-wave (km/s) = 3.87987 4.24791 4.06805
# Velocity P-wave (km/s) = 7.73992 8.06127 7.90223
#
# Compressibility (1/GPa) = 0.01203833
#
# Stress axis : x y z
#
# Youngs Moduli (GPa) = 57.42719 84.34439 51.51254
#
# Poissons Ratio (x) = 0.17737 0.61219
# Poissons Ratio (y) = 0.12076 0.22329
# Poissons Ratio (z) = 0.68249 0.36561
#
# Static dielectric constant tensor:
#      x y z
#    x 3.970750 0.000000 -0.136270 
#    y 0.000000 3.536960 0.000000 
#    z -0.136270 0.000000 3.993590 
# 
# 
# High freq. dielectric constant tensor:
#      x y z
#    x 1.832320 0.000000 -0.014440 
#    y 0.000000 1.831620 0.000000 
#    z -0.014440 0.000000 1.818120 
# 
# From -- ./inp_files/42428.got.cif
#   From: 2010.06.25/outbox.cif.g09.slc.cpg/sg15_22_cif.got.tgz:42428.got - 2010.06.28 07:06:18.
