data_PCOD8142562
_publ_section_title
;
Structure prediction by ZEFSAII (Michael W. Deem and Ramdas Pophale) SiO2 
 PCOD8142562
Probable space group: C 2/C
;
_chemical_formula_sum "Si O2"
_cell_formula_units_Z 48
_cell_length_a 19.470664
_cell_length_b 11.402815
_cell_length_c 13.281603
_cell_angle_alpha 90.000000
_cell_angle_beta 133.582847
_cell_angle_gamma 90.000000
_cell_volume 2136.036935
_symmetry_space_group_name_H-M "C 2/C"
_symmetry_group_IT_number 15
_symmetry_cell_setting 'monoclinic'
loop_
_space_group_symop_operation_xyz
x,y,z
-x,y,1/2-z
-x,-y,-z
x,-y,1/2+z
1/2+x,1/2+y,z
1/2-x,1/2+y,1/2-z
1/2-x,1/2-y,-z
1/2+x,1/2-y,1/2+z
loop_
_atom_site_type_symbol
_atom_site_label
_atom_site_fract_x
_atom_site_fract_y
_atom_site_fract_z
Si Si1 0.902067 0.280362 0.965676
Si Si2 0.341187 0.335333 0.985069
Si Si3 0.338148 0.317551 0.201313
Si Si4 0.259794 0.566954 0.130061
Si Si5 0.224045 0.084806 0.584558
Si Si6 0.613045 0.771549 0.166972
O O1 0.010214 0.306393 0.107642
O O2 0.908096 0.227941 0.858585
O O3 0.836237 0.396560 0.906771
O O4 0.855483 0.186064 0.993985
O O5 0.236951 0.284048 0.892154
O O6 0.325340 0.466202 0.924751
O O7 0.399537 0.257560 0.964709
O O8 0.390737 0.338717 0.146362
O O9 0.290079 0.436864 0.194092
O O10 0.345712 0.656624 0.236910
O O11 0.237526 0.566694 0.989046
O O12 0.314199 0.121036 0.744270
#
# Coordination Sequence:
#
# PCOD8142562 Si02
#       6
#     8   8   8   8   8   8
#     4  11  22  37  64  93 119 155 205 257 303 356
#     4  10  21  39  62  85 120 163 199 245 302 362
#     4  10  21  39  62  85 120 163 199 245 302 362
#     4  10  22  40  61  87 124 163 201 247 303 364
#     4  10  22  40  61  87 124 163 201 247 303 364
#     4  11  22  37  64  93 119 155 205 257 303 356
#
# _framework density 22.471520999999999
#
# number of rings (size 3 to 8) (size 9 to 14) (size 15 to 20)
#    0.000    1.667    3.333    3.000    0.000    6.000 
#    0.000    6.667    0.000    6.000    0.000    0.000 
#    0.000    0.000    0.000    0.000    0.000    0.000 
#
# Total GULP energy -297496.480791 kJ/mol
# GULP energy per Si atom -12395.686700 kJ/mol
# Density = 2.242037 g / cm^3
# Si number density = 22.471521 Si / 1000 Ang^3
#
#
#
# Elastic Constant Matrix: (Units=GPa)
#
#
# Indices 1 2 3 4 5 6 
#
# 1 83.1757 4.0536 47.7898 0.0000 7.9757 0.0000
# 2 4.0536 37.5509 1.8469 0.0000 -12.7861 0.0000
# 3 47.7898 1.8469 62.3915 0.0000 1.9794 0.0000
# 4 0.0000 0.0000 0.0000 18.4796 0.0000 -13.9768
# 5 7.9757 -12.7861 1.9794 0.0000 41.0003 0.0000
# 6 0.0000 0.0000 0.0000 -13.9768 0.0000 25.4807
#
#
#
# Elastic Compliance Matrix: (Units=1/GPa)
#
#
# Indices 1 2 3 4 5 6 
#
# 1 0.022271 -0.003105 -0.016825 0.000000 -0.004488 0.000000
# 2 -0.003105 0.030314 0.001164 0.000000 0.010001 0.000000
# 3 -0.016825 0.001164 0.028809 0.000000 0.002245 0.000000
# 4 0.000000 0.000000 0.000000 0.092482 0.000000 0.050729
# 5 -0.004488 0.010001 0.002245 0.000000 0.028274 0.000000
# 6 0.000000 0.000000 0.000000 0.050729 0.000000 0.067071
#
#
# Mechanical properties :
#
#
# Convention : Reuss Voigt Hill
#
# Bulk Modulus (GPa) = 22.79854 32.27765 27.53810
# Shear Modulus (GPa) = 15.55815 25.62063 20.58939
#
# Velocity S-wave (km/s) = 2.63411 3.38026 3.03024
# Velocity P-wave (km/s) = 4.40669 5.44333 4.95221
#
# Compressibility (1/GPa) = 0.04386245
#
# Stress axis : x y z
#
# Youngs Moduli (GPa) = 44.90051 32.98806 34.71082
#
# Poissons Ratio (x) = 0.10243 0.58401
# Poissons Ratio (y) = 0.13942 -0.04039
# Poissons Ratio (z) = 0.75545 -0.03839
#
# Static dielectric constant tensor:
#      x y z
#    x 4.049570 0.000000 -0.497220 
#    y 0.000000 4.114870 0.000000 
#    z -0.497220 0.000000 3.935330 
# 
# 
# High freq. dielectric constant tensor:
#      x y z
#    x 1.879690 0.000000 -0.031510 
#    y 0.000000 1.884060 0.000000 
#    z -0.031510 0.000000 1.870230 
# 
# From -- ./inp_files/167915.got.cif
#   From: 2010.06.25/outbox.cif.g09.slc.cpg/sg15_84_cif.got.tgz:167915.got - 2010.06.28 07:06:18.
