data_PCOD8142518
_publ_section_title
;
Structure prediction by ZEFSAII (Michael W. Deem and Ramdas Pophale) SiO2 
 PCOD8142518
Probable space group: C 2/C
;
_chemical_formula_sum "Si O2"
_cell_formula_units_Z 48
_cell_length_a 5.037929
_cell_length_b 25.433799
_cell_length_c 18.432738
_cell_angle_alpha 90.000000
_cell_angle_beta 90.082367
_cell_angle_gamma 90.000000
_cell_volume 2361.851993
_symmetry_space_group_name_H-M "C 2/C"
_symmetry_group_IT_number 15
_symmetry_cell_setting 'monoclinic'
loop_
_space_group_symop_operation_xyz
x,y,z
-x,y,1/2-z
-x,-y,-z
x,-y,1/2+z
1/2+x,1/2+y,z
1/2-x,1/2+y,1/2-z
1/2-x,1/2-y,-z
1/2+x,1/2-y,1/2+z
loop_
_atom_site_type_symbol
_atom_site_label
_atom_site_fract_x
_atom_site_fract_y
_atom_site_fract_z
Si Si1 0.474773 0.470776 0.075945
Si Si2 0.479489 0.196776 0.666606
Si Si3 0.974697 0.624625 0.100215
Si Si4 0.479562 0.235175 0.166512
Si Si5 0.024285 0.401943 0.433398
Si Si6 0.475640 0.428804 0.664569
O O1 0.680822 0.423010 0.080978
O O2 0.531794 0.511456 0.140689
O O3 0.179332 0.448609 0.084096
O O4 0.500000 0.500000 0.000000
O O5 0.500000 0.179046 0.750000
O O6 0.190600 0.219520 0.648342
O O7 0.537464 0.146253 0.618793
O O8 0.690308 0.242241 0.648775
O O9 0.680263 0.610831 0.126782
O O10 0.036572 0.685181 0.116659
O O11 0.180265 0.586759 0.140815
O O12 0.993459 0.617205 0.014971
O O13 0.500000 0.217070 0.250000
O O14 0.500000 0.423996 0.750000
#
# Coordination Sequence:
#
# PCOD8142518 Si02
#       6
#     8   8   8   8   8   8
#     4  12  23  43  63  87 125 163 202 247 314 364
#     4  10  23  41  61  90 124 162 209 252 298 365
#     4  12  23  40  64  93 125 159 203 253 309 368
#     4  10  21  39  61  86 124 163 199 255 310 354
#     4  12  24  40  67  90 122 166 202 254 310 360
#     4  12  25  40  63  93 123 160 208 254 298 368
#
# _framework density 20.323032999999999
#
# number of rings (size 3 to 8) (size 9 to 14) (size 15 to 20)
#    0.000    0.667    3.333    5.000    0.000    4.000 
#    0.000    0.000    0.000    0.000    0.000    0.000 
#    0.000    0.000    0.000    0.000    0.000    0.000 
#
# Total GULP energy -297823.003631 kJ/mol
# GULP energy per Si atom -12409.291818 kJ/mol
# Density = 2.027678 g / cm^3
# Si number density = 20.323033 Si / 1000 Ang^3
#
#
#
# Elastic Constant Matrix: (Units=GPa)
#
#
# Indices 1 2 3 4 5 6 
#
# 1 83.4667 12.3531 23.1250 0.0000 2.2603 0.0000
# 2 12.3531 102.2646 57.9060 0.0000 -3.1199 0.0000
# 3 23.1250 57.9060 109.2158 0.0000 -2.0032 0.0000
# 4 0.0000 0.0000 0.0000 81.0255 0.0000 -47.5383
# 5 2.2603 -3.1199 -2.0032 0.0000 21.8612 0.0000
# 6 0.0000 0.0000 0.0000 -47.5383 0.0000 56.8942
#
#
#
# Elastic Compliance Matrix: (Units=1/GPa)
#
#
# Indices 1 2 3 4 5 6 
#
# 1 0.012781 -0.000062 -0.002702 0.000000 -0.001578 0.000000
# 2 -0.000062 0.014012 -0.007392 0.000000 0.001329 0.000000
# 3 -0.002702 -0.007392 0.013656 0.000000 0.000476 0.000000
# 4 0.000000 0.000000 0.000000 0.024210 0.000000 0.020229
# 5 -0.001578 0.001329 0.000476 0.000000 0.046139 0.000000
# 6 0.000000 0.000000 0.000000 0.020229 0.000000 0.034479
#
#
# Mechanical properties :
#
#
# Convention : Reuss Voigt Hill
#
# Bulk Modulus (GPa) = 49.65816 53.52391 51.59104
# Shear Modulus (GPa) = 29.01865 45.39372 37.20618
#
# Velocity S-wave (km/s) = 3.78282 4.73123 4.28336
# Velocity P-wave (km/s) = 6.60054 7.49932 7.06424
#
# Compressibility (1/GPa) = 0.02013768
#
# Stress axis : x y z
#
# Youngs Moduli (GPa) = 78.23842 71.36742 73.22708
#
# Poissons Ratio (x) = 0.00441 0.19789
# Poissons Ratio (y) = 0.00484 0.54127
# Poissons Ratio (z) = 0.21144 0.52752
#
# Static dielectric constant tensor:
#      x y z
#    x 3.642790 0.000000 0.181820 
#    y 0.000000 3.687840 0.000000 
#    z 0.181820 0.000000 3.578010 
# 
# 
# High freq. dielectric constant tensor:
#      x y z
#    x 1.813240 0.000000 0.001190 
#    y 0.000000 1.800250 0.000000 
#    z 0.001190 0.000000 1.792110 
# 
# From -- ./inp_files/185343.got.cif
#   From: 2010.06.25/outbox.cif.g09.slc.cpg/sg15_93_cif.got.tgz:185343.got - 2010.06.28 07:06:18.
