data_PCOD8142501
_publ_section_title
;
Structure prediction by ZEFSAII (Michael W. Deem and Ramdas Pophale) SiO2 
 PCOD8142501
Probable space group: C 2/C
;
_chemical_formula_sum "Si O2"
_cell_formula_units_Z 60
_cell_length_a 17.818317
_cell_length_b 15.864555
_cell_length_c 12.116582
_cell_angle_alpha 90.000000
_cell_angle_beta 112.433700
_cell_angle_gamma 90.000000
_cell_volume 3165.904921
_symmetry_space_group_name_H-M "C 2/C"
_symmetry_group_IT_number 15
_symmetry_cell_setting 'monoclinic'
loop_
_space_group_symop_operation_xyz
x,y,z
-x,y,1/2-z
-x,-y,-z
x,-y,1/2+z
1/2+x,1/2+y,z
1/2-x,1/2+y,1/2-z
1/2-x,1/2-y,-z
1/2+x,1/2-y,1/2+z
loop_
_atom_site_type_symbol
_atom_site_label
_atom_site_fract_x
_atom_site_fract_y
_atom_site_fract_z
Si Si1 0.088023 0.969310 0.761532
Si Si2 0.214103 0.187976 0.071799
Si Si3 0.442486 0.326972 0.903455
Si Si4 0.598689 0.390987 0.112745
Si Si5 0.215686 0.259475 0.658613
Si Si6 0.500000 0.199926 0.750000
Si Si7 0.167628 0.646266 0.918601
Si Si8 0.290901 0.494955 0.476787
O O1 0.112789 0.898787 0.685689
O O2 0.000000 0.935857 0.750000
O O3 0.075314 0.065998 0.715291
O O4 0.159275 0.965039 0.889098
O O5 0.118148 0.209614 0.036127
O O6 0.258551 0.195731 0.214448
O O7 0.226597 0.093727 0.033420
O O8 0.250000 0.250000 0.000000
O O9 0.471541 0.255302 0.837100
O O10 0.518831 0.374653 0.997937
O O11 0.646197 0.305175 0.156099
O O12 0.655127 0.464204 0.094283
O O13 0.177006 0.325051 0.550780
O O14 0.290533 0.212716 0.641246
O O15 0.573179 0.140887 0.832845
O O16 0.204866 0.553309 0.927179
#
# Coordination Sequence:
#
# PCOD8142501 Si02
#       8
#     8   8   8   8   8   4   8   8
#     4  12  21  33  58  94 130 161 197 254 320 386
#     4  12  25  42  61  90 134 173 203 251 321 395
#     4  12  21  37  61  93 128 160 206 259 317 373
#     4  11  21  36  58  92 126 163 198 252 317 379
#     4  10  21  39  60  94 124 162 213 256 316 373
#     4  12  20  40  68  92 118 158 218 282 312 342
#     4  10  22  38  67  92 119 160 220 273 304 354
#     4  11  23  39  60  92 123 164 206 254 311 374
#
# _framework density 18.951927000000001
#
# number of rings (size 3 to 8) (size 9 to 14) (size 15 to 20)
#    0.000    0.800    6.000    2.800    1.867    0.000 
#    0.000    0.000    2.933    1.600    0.000    0.000 
#    0.000    0.000    0.000    0.000    0.000    0.000 
#
# Total GULP energy -371948.470501 kJ/mol
# GULP energy per Si atom -12398.282350 kJ/mol
# Density = 1.890879 g / cm^3
# Si number density = 18.951927 Si / 1000 Ang^3
#
#
#
# Elastic Constant Matrix: (Units=GPa)
#
#
# Indices 1 2 3 4 5 6 
#
# 1 108.7886 57.0276 38.0367 0.0000 8.4243 0.0000
# 2 57.0276 81.4754 16.2847 0.0000 8.7686 0.0000
# 3 38.0367 16.2847 69.8176 0.0000 22.7619 0.0000
# 4 0.0000 0.0000 0.0000 23.4607 0.0000 -12.3211
# 5 8.4243 8.7686 22.7619 0.0000 26.3210 0.0000
# 6 0.0000 0.0000 0.0000 -12.3211 0.0000 -3.1723
#
#
#
# Elastic Compliance Matrix: (Units=1/GPa)
#
#
# Indices 1 2 3 4 5 6 
#
# 1 0.017789 -0.011287 -0.008953 0.000000 0.005809 0.000000
# 2 -0.011287 0.020141 0.003427 0.000000 -0.006061 0.000000
# 3 -0.008953 0.003427 0.024843 0.000000 -0.019760 0.000000
# 4 0.000000 0.000000 0.000000 0.014022 0.000000 -0.054462
# 5 0.005809 -0.006061 -0.019760 0.000000 0.055241 0.000000
# 6 0.000000 0.000000 0.000000 -0.054462 0.000000 -0.103701
#
#
# Mechanical properties :
#
#
# Convention : Reuss Voigt Hill
#
# Bulk Modulus (GPa) = 34.30636 53.64218 43.97427
# Shear Modulus (GPa) = 69.75785 19.23740 44.49763
#
# Velocity S-wave (km/s) = 6.07352 3.18946 4.85079
# Velocity P-wave (km/s) = 8.20516 6.47529 7.39101
#
# Compressibility (1/GPa) = 0.02914911
#
# Stress axis : x y z
#
# Youngs Moduli (GPa) = 56.21354 49.64949 40.25232
#
# Poissons Ratio (x) = 0.56040 0.36037
# Poissons Ratio (y) = 0.63449 -0.13796
# Poissons Ratio (z) = 0.50326 -0.17017
#
# Static dielectric constant tensor:
#      x y z
#    x 3.572340 0.000000 -0.049820 
#    y 0.000000 3.485610 0.000000 
#    z -0.049820 0.000000 3.598960 
# 
# 
# High freq. dielectric constant tensor:
#      x y z
#    x 1.734080 0.000000 0.000120 
#    y 0.000000 1.722410 0.000000 
#    z 0.000120 0.000000 1.742560 
# 
# From -- ./inp_files/105381.got.cif
#   From: 2010.06.25/outbox.cif.g09.slc.cpg/sg15_53_cif.got.tgz:105381.got - 2010.06.28 07:06:18.
