data_PCOD8142720
_publ_section_title
;
Structure prediction by ZEFSAII (Michael W. Deem and Ramdas Pophale) SiO2 
 PCOD8142720
Probable space group: C 2/C
;
_chemical_formula_sum "Si O2"
_cell_formula_units_Z 44
_cell_length_a 13.305247
_cell_length_b 6.776651
_cell_length_c 21.099429
_cell_angle_alpha 90.000000
_cell_angle_beta 102.066350
_cell_angle_gamma 90.000000
_cell_volume 1860.398383
_symmetry_space_group_name_H-M "C 2/C"
_symmetry_group_IT_number 15
_symmetry_cell_setting 'monoclinic'
loop_
_space_group_symop_operation_xyz
x,y,z
-x,y,1/2-z
-x,-y,-z
x,-y,1/2+z
1/2+x,1/2+y,z
1/2-x,1/2+y,1/2-z
1/2-x,1/2-y,-z
1/2+x,1/2-y,1/2+z
loop_
_atom_site_type_symbol
_atom_site_label
_atom_site_fract_x
_atom_site_fract_y
_atom_site_fract_z
Si Si1 0.338723 0.733878 0.274273
Si Si2 0.000000 0.043060 0.750000
Si Si3 0.372934 0.606033 0.033444
Si Si4 0.377761 0.824673 0.810528
Si Si5 0.897180 0.138609 0.417621
Si Si6 0.334106 0.065154 0.440322
O O1 0.221941 0.765910 0.237967
O O2 0.401599 0.604356 0.230379
O O3 0.391624 0.947160 0.291629
O O4 0.022429 0.193429 0.694647
O O5 0.485137 0.567519 0.076284
O O6 0.290489 0.543286 0.076020
O O7 0.344649 0.489367 0.965221
O O8 0.365002 0.835460 0.011250
O O9 0.341311 0.382339 0.842269
O O10 0.365717 0.800898 0.884253
O O11 0.892796 0.360558 0.442981
#
# Coordination Sequence:
#
# PCOD8142720 Si02
#       6
#     8   4   8   8   8   8
#     4  11  24  41  67  96 134 171 219 271 330 390
#     4  12  24  44  66  92 134 178 216 274 332 392
#     4  10  21  39  64  90 126 168 209 264 323 379
#     4  11  24  44  66  99 134 171 222 272 331 394
#     4  10  22  39  63  95 123 165 217 263 319 390
#     4  10  22  41  61  91 127 167 212 267 319 385
#
# _framework density 23.650849999999998
#
# number of rings (size 3 to 8) (size 9 to 14) (size 15 to 20)
#    0.000    1.455    1.818    2.727    2.545    0.000 
#    0.000    1.818    0.000    0.000    0.000    0.000 
#    0.000    0.000    0.000    0.000    0.000    0.000 
#
# Total GULP energy -272715.449554 kJ/mol
# GULP energy per Si atom -12396.156798 kJ/mol
# Density = 2.359702 g / cm^3
# Si number density = 23.650850 Si / 1000 Ang^3
#
#
#
# Elastic Constant Matrix: (Units=GPa)
#
#
# Indices 1 2 3 4 5 6 
#
# 1 77.4546 14.9156 39.7555 0.0000 -24.4786 0.0000
# 2 14.9156 61.4314 31.7028 0.0000 -12.6694 0.0000
# 3 39.7555 31.7028 73.0661 0.0000 -13.4821 0.0000
# 4 0.0000 0.0000 0.0000 20.2465 0.0000 -3.1942
# 5 -24.4786 -12.6694 -13.4821 0.0000 41.9382 0.0000
# 6 0.0000 0.0000 0.0000 -3.1942 0.0000 37.6909
#
#
#
# Elastic Compliance Matrix: (Units=1/GPa)
#
#
# Indices 1 2 3 4 5 6 
#
# 1 0.020933 0.002385 -0.010670 0.000000 0.009509 0.000000
# 2 0.002385 0.021779 -0.009861 0.000000 0.004801 0.000000
# 3 -0.010670 -0.009861 0.023464 0.000000 -0.001664 0.000000
# 4 0.000000 0.000000 0.000000 0.050061 0.000000 0.004242
# 5 0.009509 0.004801 -0.001664 0.000000 0.030310 0.000000
# 6 0.000000 0.000000 0.000000 0.004242 0.000000 0.026891
#
#
# Mechanical properties :
#
#
# Convention : Reuss Voigt Hill
#
# Bulk Modulus (GPa) = 33.46449 42.74446 38.10448
# Shear Modulus (GPa) = 22.75922 28.34699 25.55311
#
# Velocity S-wave (km/s) = 3.10546 3.46578 3.29056
# Velocity P-wave (km/s) = 5.19987 5.84191 5.53021
#
# Compressibility (1/GPa) = 0.02988242
#
# Stress axis : x y z
#
# Youngs Moduli (GPa) = 47.77062 45.91682 42.61923
#
# Poissons Ratio (x) = -0.10951 0.45476
# Poissons Ratio (y) = -0.11393 0.42028
# Poissons Ratio (z) = 0.50972 0.45280
#
# Static dielectric constant tensor:
#      x y z
#    x 4.060780 0.000000 -0.285450 
#    y 0.000000 4.487370 0.000000 
#    z -0.285450 0.000000 4.081760 
# 
# 
# High freq. dielectric constant tensor:
#      x y z
#    x 1.919590 0.000000 -0.018610 
#    y 0.000000 1.960910 0.000000 
#    z -0.018610 0.000000 1.923500 
# 
# From -- ./inp_files/294244.got.cif
#   From: 2010.06.25/outbox.cif.g09.slc.cpg/sg15_148_cif.got.tgz:294244.got - 2010.06.28 07:06:18.
