data_PCOD8142984
_publ_section_title
;
Structure prediction by ZEFSAII (Michael W. Deem and Ramdas Pophale) SiO2 
 PCOD8142984
Probable space group: C 2/C
;
_chemical_formula_sum "Si O2"
_cell_formula_units_Z 40
_cell_length_a 11.209456
_cell_length_b 27.479575
_cell_length_c 8.328206
_cell_angle_alpha 90.000000
_cell_angle_beta 136.167418
_cell_angle_gamma 90.000000
_cell_volume 1776.639592
_symmetry_space_group_name_H-M "C 2/C"
_symmetry_group_IT_number 15
_symmetry_cell_setting 'monoclinic'
loop_
_space_group_symop_operation_xyz
x,y,z
-x,y,1/2-z
-x,-y,-z
x,-y,1/2+z
1/2+x,1/2+y,z
1/2-x,1/2+y,1/2-z
1/2-x,1/2-y,-z
1/2+x,1/2-y,1/2+z
loop_
_atom_site_type_symbol
_atom_site_label
_atom_site_fract_x
_atom_site_fract_y
_atom_site_fract_z
Si Si1 0.856772 0.782868 0.223853
Si Si2 0.306308 0.878995 0.763789
Si Si3 0.500248 0.554409 0.940042
Si Si4 0.858565 0.714035 0.496924
Si Si5 0.805076 0.378178 0.381459
O O1 0.944851 0.746924 0.439860
O O2 0.748602 0.823215 0.219923
O O3 0.000000 0.809198 0.250000
O O4 0.750000 0.750000 0.000000
O O5 0.170311 0.920571 0.682373
O O6 0.294668 0.873421 0.562761
O O7 0.253528 0.829876 0.808698
O O8 0.505291 0.892407 0.998904
O O9 0.500000 0.554325 0.750000
O O10 0.326884 0.583003 0.824523
O O11 0.500000 0.500000 0.000000
O O12 0.750000 0.750000 0.500000
O O13 0.000000 0.689782 0.750000
#
# Coordination Sequence:
#
# PCOD8142984 Si02
#       5
#     8   8   8   8   8
#     4  12  22  38  66  94 127 183 235 269 323 414
#     4  10  21  43  65  94 132 176 225 274 328 409
#     4  10  23  45  71  98 128 167 223 283 344 401
#     4  12  26  40  57  98 145 177 218 282 348 394
#     4  10  21  39  72  96 123 175 237 276 314 400
#
# _framework density 22.514416000000001
#
# number of rings (size 3 to 8) (size 9 to 14) (size 15 to 20)
#    0.000    1.200    2.000    5.400    2.800    0.800 
#    7.200    0.000    0.000    0.000    0.000    0.000 
#    0.000    0.000    0.000    0.000    0.000    0.000 
#
# Total GULP energy -247855.464486 kJ/mol
# GULP energy per Si atom -12392.773224 kJ/mol
# Density = 2.246317 g / cm^3
# Si number density = 22.514416 Si / 1000 Ang^3
#
#
#
# Elastic Constant Matrix: (Units=GPa)
#
#
# Indices 1 2 3 4 5 6 
#
# 1 83.0935 50.9818 44.1240 0.0000 23.3587 0.0000
# 2 50.9818 183.7842 73.3510 0.0000 25.6561 0.0000
# 3 44.1240 73.3510 108.9297 0.0000 24.2843 0.0000
# 4 0.0000 0.0000 0.0000 45.2342 0.0000 -0.1734
# 5 23.3587 25.6561 24.2843 0.0000 41.2932 0.0000
# 6 0.0000 0.0000 0.0000 -0.1734 0.0000 34.1544
#
#
#
# Elastic Compliance Matrix: (Units=1/GPa)
#
#
# Indices 1 2 3 4 5 6 
#
# 1 0.017321 -0.002331 -0.004126 0.000000 -0.005923 0.000000
# 2 -0.002331 0.007891 -0.004109 0.000000 -0.001167 0.000000
# 3 -0.004126 -0.004109 0.014419 0.000000 -0.003593 0.000000
# 4 0.000000 0.000000 0.000000 0.022108 0.000000 0.000112
# 5 -0.005923 -0.001167 -0.003593 0.000000 0.030406 0.000000
# 6 0.000000 0.000000 0.000000 0.000112 0.000000 0.029279
#
#
# Mechanical properties :
#
#
# Convention : Reuss Voigt Hill
#
# Bulk Modulus (GPa) = 54.05663 79.19122 66.62393
# Shear Modulus (GPa) = 33.61962 37.95973 35.78967
#
# Velocity S-wave (km/s) = 3.86845 4.11057 3.99135
# Velocity P-wave (km/s) = 6.63439 7.60125 7.13422
#
# Compressibility (1/GPa) = 0.01849912
#
# Stress axis : x y z
#
# Youngs Moduli (GPa) = 57.73338 126.73065 69.35126
#
# Poissons Ratio (x) = 0.29545 0.28613
# Poissons Ratio (y) = 0.13459 0.28496
# Poissons Ratio (z) = 0.23820 0.52072
#
# Static dielectric constant tensor:
#      x y z
#    x 4.510590 0.000000 0.055750 
#    y 0.000000 284.481750 0.000000 
#    z 0.055750 0.000000 5.441400 
# 
# 
# High freq. dielectric constant tensor:
#      x y z
#    x 1.878690 0.000000 0.007140 
#    y 0.000000 1.869150 0.000000 
#    z 0.007140 0.000000 1.894660 
# 
# From -- ./inp_files/35450.got.cif
#   From: 2010.06.25/outbox.cif.g09.slc.cpg/sg15_18_cif.got.tgz:35450.got - 2010.06.28 07:06:18.
