data_PCOD8142306
_publ_section_title
;
Structure prediction by ZEFSAII (Michael W. Deem and Ramdas Pophale) SiO2 
 PCOD8142306
Probable space group: C 2/C
;
_chemical_formula_sum "Si O2"
_cell_formula_units_Z 40
_cell_length_a 16.063224
_cell_length_b 15.842592
_cell_length_c 8.189687
_cell_angle_alpha 90.000000
_cell_angle_beta 65.716598
_cell_angle_gamma 90.000000
_cell_volume 1899.737636
_symmetry_space_group_name_H-M "C 2/C"
_symmetry_group_IT_number 15
_symmetry_cell_setting 'monoclinic'
loop_
_space_group_symop_operation_xyz
x,y,z
-x,y,1/2-z
-x,-y,-z
x,-y,1/2+z
1/2+x,1/2+y,z
1/2-x,1/2+y,1/2-z
1/2-x,1/2-y,-z
1/2+x,1/2-y,1/2+z
loop_
_atom_site_type_symbol
_atom_site_label
_atom_site_fract_x
_atom_site_fract_y
_atom_site_fract_z
Si Si1 0.419368 0.577045 0.702317
Si Si2 0.121748 0.543358 0.252386
Si Si3 0.464519 0.298928 0.597155
Si Si4 0.828710 0.071688 0.097083
Si Si5 0.945403 0.609357 0.532601
O O1 0.500000 0.537175 0.750000
O O2 0.457609 0.661951 0.584944
O O3 0.385259 0.513642 0.590742
O O4 0.337460 0.595209 0.897157
O O5 0.223936 0.561411 0.230953
O O6 0.097885 0.442885 0.280610
O O7 0.053560 0.591263 0.431033
O O8 0.108803 0.576443 0.081306
O O9 0.500000 0.290533 0.750000
O O10 0.373068 0.355136 0.670969
O O11 0.431915 0.208339 0.560967
#
# Coordination Sequence:
#
# PCOD8142306 Si02
#       5
#     8   8   8   8   8
#     4  10  21  38  65  97 132 167 198 259 330 378
#     4  10  23  42  65  91 125 171 215 254 320 376
#     4  11  24  41  64  96 129 167 210 264 323 379
#     4  11  21  40  68  96 129 163 215 263 315 384
#     4  10  24  43  65  90 130 172 212 261 320 381
#
# _framework density 21.055539
#
# number of rings (size 3 to 8) (size 9 to 14) (size 15 to 20)
#    0.000    1.600    0.000    5.400   14.000    0.800 
#    3.600    1.000    0.000    0.000    0.000    0.000 
#    0.000    0.000    0.000    0.000    0.000    0.000 
#
# Total GULP energy -247932.028541 kJ/mol
# GULP energy per Si atom -12396.601427 kJ/mol
# Density = 2.100762 g / cm^3
# Si number density = 21.055539 Si / 1000 Ang^3
#
#
#
# Elastic Constant Matrix: (Units=GPa)
#
#
# Indices 1 2 3 4 5 6 
#
# 1 115.1661 58.0911 48.7143 0.0000 -13.5926 0.0000
# 2 58.0911 158.0389 34.1377 0.0000 5.2430 0.0000
# 3 48.7143 34.1377 85.1569 0.0000 7.9399 0.0000
# 4 0.0000 0.0000 0.0000 26.1316 0.0000 12.5250
# 5 -13.5926 5.2430 7.9399 0.0000 42.9461 0.0000
# 6 0.0000 0.0000 0.0000 12.5250 0.0000 11.8608
#
#
#
# Elastic Compliance Matrix: (Units=1/GPa)
#
#
# Indices 1 2 3 4 5 6 
#
# 1 0.014552 -0.003979 -0.007330 0.000000 0.006447 0.000000
# 2 -0.003979 0.008020 -0.000743 0.000000 -0.002101 0.000000
# 3 -0.007330 -0.000743 0.016730 0.000000 -0.005323 0.000000
# 4 0.000000 0.000000 0.000000 0.077488 0.000000 -0.081827
# 5 0.006447 -0.002101 -0.005323 0.000000 0.026566 0.000000
# 6 0.000000 0.000000 0.000000 -0.081827 0.000000 0.170721
#
#
# Mechanical properties :
#
#
# Convention : Reuss Voigt Hill
#
# Bulk Modulus (GPa) = 65.79971 71.13865 68.46918
# Shear Modulus (GPa) = 14.56668 30.68229 22.62449
#
# Velocity S-wave (km/s) = 2.63310 3.82148 3.28154
# Velocity P-wave (km/s) = 6.36889 7.30282 6.85178
#
# Compressibility (1/GPa) = 0.01519764
#
# Stress axis : x y z
#
# Youngs Moduli (GPa) = 68.71957 124.68120 59.77133
#
# Poissons Ratio (x) = 0.49615 0.43814
# Poissons Ratio (y) = 0.27346 0.04440
# Poissons Ratio (z) = 0.50373 0.09263
#
# Static dielectric constant tensor:
#      x y z
#    x 3.732650 0.000000 0.002620 
#    y 0.000000 3.765310 0.000000 
#    z 0.002620 0.000000 3.981120 
# 
# 
# High freq. dielectric constant tensor:
#      x y z
#    x 1.822310 0.000000 0.006620 
#    y 0.000000 1.813470 0.000000 
#    z 0.006620 0.000000 1.829940 
# 
# From -- ./inp_files/46918.got.cif
#   From: 2010.06.25/outbox.cif.g09.slc.cpg/sg15_24_cif.got.tgz:46918.got - 2010.06.28 07:06:18.
