data_PCOD8142321
_publ_section_title
;
Structure prediction by ZEFSAII (Michael W. Deem and Ramdas Pophale) SiO2 
 PCOD8142321
Probable space group: C 2/C
;
_chemical_formula_sum "Si O2"
_cell_formula_units_Z 56
_cell_length_a 9.424606
_cell_length_b 22.413676
_cell_length_c 14.401240
_cell_angle_alpha 90.000000
_cell_angle_beta 66.263004
_cell_angle_gamma 90.000000
_cell_volume 2784.764334
_symmetry_space_group_name_H-M "C 2/C"
_symmetry_group_IT_number 15
_symmetry_cell_setting 'monoclinic'
loop_
_space_group_symop_operation_xyz
x,y,z
-x,y,1/2-z
-x,-y,-z
x,-y,1/2+z
1/2+x,1/2+y,z
1/2-x,1/2+y,1/2-z
1/2-x,1/2-y,-z
1/2+x,1/2-y,1/2+z
loop_
_atom_site_type_symbol
_atom_site_label
_atom_site_fract_x
_atom_site_fract_y
_atom_site_fract_z
Si Si1 0.347013 0.959936 0.349309
Si Si2 0.605732 0.765630 0.977567
Si Si3 0.313339 0.293737 0.562596
Si Si4 0.393814 0.092613 0.367132
Si Si5 0.168788 0.895598 0.245287
Si Si6 0.521584 0.108364 0.953215
Si Si7 0.652661 0.257922 0.265711
O O1 0.500000 0.950049 0.250000
O O2 0.202830 0.933150 0.329788
O O3 0.382951 0.926578 0.436938
O O4 0.310098 0.029572 0.372849
O O5 0.657945 0.779773 0.859021
O O6 0.750000 0.750000 0.000000
O O7 0.498393 0.705928 0.000219
O O8 0.512145 0.821176 0.044945
O O9 0.250000 0.250000 0.500000
O O10 0.239869 0.358976 0.577708
O O11 0.295614 0.264540 0.668114
O O12 0.500000 0.109874 0.250000
O O13 0.492833 0.087380 0.435757
O O14 0.305535 0.904638 0.132821
O O15 0.162567 0.827889 0.280938
O O16 0.000000 0.915159 0.250000
O O17 0.500000 0.239281 0.250000
#
# Coordination Sequence:
#
# PCOD8142321 Si02
#       7
#     8   8   8   8   8   8   8
#     4   9  21  39  64  91 120 161 203 254 304 358
#     4  12  25  37  59  93 128 155 200 256 309 358
#     4  12  21  39  63  90 120 159 205 244 302 368
#     4  11  22  39  66  92 121 161 209 251 300 369
#     4  10  21  38  66  91 120 155 207 251 299 362
#     4  11  20  41  62  90 122 163 205 249 300 373
#     4  11  20  36  62  88 118 159 196 246 300 362
#
# _framework density 20.109423
#
# number of rings (size 3 to 8) (size 9 to 14) (size 15 to 20)
#    0.000    1.143    4.286    2.571    2.000    0.571 
#    0.000    0.714   12.571    0.000    0.000    0.000 
#    0.000    0.000    0.000    0.000    0.000    0.000 
#
# Total GULP energy -347097.560928 kJ/mol
# GULP energy per Si atom -12396.341462 kJ/mol
# Density = 2.006365 g / cm^3
# Si number density = 20.109423 Si / 1000 Ang^3
#
#
#
# Elastic Constant Matrix: (Units=GPa)
#
#
# Indices 1 2 3 4 5 6 
#
# 1 134.4308 45.3965 55.3093 0.0000 26.0184 0.0000
# 2 45.3965 104.6315 33.9954 0.0000 17.0068 0.0000
# 3 55.3093 33.9954 125.6781 0.0000 21.3685 0.0000
# 4 0.0000 0.0000 0.0000 32.2306 0.0000 3.5228
# 5 26.0184 17.0068 21.3685 0.0000 30.5460 0.0000
# 6 0.0000 0.0000 0.0000 3.5228 0.0000 28.3441
#
#
#
# Elastic Compliance Matrix: (Units=1/GPa)
#
#
# Indices 1 2 3 4 5 6 
#
# 1 0.010667 -0.002763 -0.003023 0.000000 -0.005433 0.000000
# 2 -0.002763 0.011735 -0.001416 0.000000 -0.003189 0.000000
# 3 -0.003023 -0.001416 0.010327 0.000000 -0.003860 0.000000
# 4 0.000000 0.000000 0.000000 0.031454 0.000000 -0.003909
# 5 -0.005433 -0.003189 -0.003860 0.000000 0.041841 0.000000
# 6 0.000000 0.000000 0.000000 -0.003909 0.000000 0.035767
#
#
# Mechanical properties :
#
#
# Convention : Reuss Voigt Hill
#
# Bulk Modulus (GPa) = 54.57298 70.46031 62.51665
# Shear Modulus (GPa) = 30.80664 33.56009 32.18337
#
# Velocity S-wave (km/s) = 3.91826 4.08962 4.00486
# Velocity P-wave (km/s) = 6.90415 7.57723 7.24851
#
# Compressibility (1/GPa) = 0.01832409
#
# Stress axis : x y z
#
# Youngs Moduli (GPa) = 93.74539 85.21861 96.83524
#
# Poissons Ratio (x) = 0.23544 0.29278
# Poissons Ratio (y) = 0.25900 0.13712
# Poissons Ratio (z) = 0.28344 0.12067
#
# Static dielectric constant tensor:
#      x y z
#    x 3.788320 0.000000 0.461220 
#    y 0.000000 3.486590 0.000000 
#    z 0.461220 0.000000 4.679440 
# 
# 
# High freq. dielectric constant tensor:
#      x y z
#    x 1.768440 0.000000 0.014310 
#    y 0.000000 1.778650 0.000000 
#    z 0.014310 0.000000 1.796650 
# 
# From -- ./inp_files/137269.got.cif
#   From: 2010.06.25/outbox.cif.g09.slc.cpg/sg15_69_cif.got.tgz:137269.got - 2010.06.28 07:06:18.
