data_PCOD8142249
_publ_section_title
;
Structure prediction by ZEFSAII (Michael W. Deem and Ramdas Pophale) SiO2 
 PCOD8142249
Probable space group: C 2/C
;
_chemical_formula_sum "Si O2"
_cell_formula_units_Z 36
_cell_length_a 13.175428
_cell_length_b 7.921791
_cell_length_c 21.357219
_cell_angle_alpha 90.000000
_cell_angle_beta 136.872585
_cell_angle_gamma 90.000000
_cell_volume 1523.875618
_symmetry_space_group_name_H-M "C 2/C"
_symmetry_group_IT_number 15
_symmetry_cell_setting 'monoclinic'
loop_
_space_group_symop_operation_xyz
x,y,z
-x,y,1/2-z
-x,-y,-z
x,-y,1/2+z
1/2+x,1/2+y,z
1/2-x,1/2+y,1/2-z
1/2-x,1/2-y,-z
1/2+x,1/2-y,1/2+z
loop_
_atom_site_type_symbol
_atom_site_label
_atom_site_fract_x
_atom_site_fract_y
_atom_site_fract_z
Si Si1 0.860902 0.120366 0.450241
Si Si2 0.252078 0.870900 0.299207
Si Si3 0.595588 0.193775 0.116286
Si Si4 0.781842 0.297198 0.084108
Si Si5 0.000000 0.910819 0.750000
O O1 0.806849 0.210594 0.362910
O O2 0.921011 0.252790 0.530649
O O3 0.725503 0.002290 0.413127
O O4 0.000000 0.000000 0.500000
O O5 0.188749 0.816074 0.203795
O O6 0.390652 0.000913 0.352910
O O7 0.125032 0.969225 0.278990
O O8 0.664602 0.208636 0.078008
O O9 0.942797 0.217788 0.170794
O O10 0.750000 0.250000 0.000000
#
# Coordination Sequence:
#
# PCOD8142249 Si02
#       5
#     8   8   8   8   4
#     4  10  21  39  63  92 122 164 210 258 310 368
#     4  11  22  42  66  95 127 165 212 261 317 375
#     4  10  21  38  64  92 122 164 212 261 309 372
#     4  10  21  39  62  90 126 166 207 256 312 371
#     4  10  24  42  60  94 132 168 210 262 316 378
#
# _framework density 23.623974
#
# number of rings (size 3 to 8) (size 9 to 14) (size 15 to 20)
#    0.000    1.778    0.000    4.667    0.000    6.222 
#    0.000   18.889    0.000    0.000    0.000    0.000 
#    0.000    0.000    0.000    0.000    0.000    0.000 
#
# Total GULP energy -223089.279262 kJ/mol
# GULP energy per Si atom -12393.848848 kJ/mol
# Density = 2.357020 g / cm^3
# Si number density = 23.623974 Si / 1000 Ang^3
#
#
#
# Elastic Constant Matrix: (Units=GPa)
#
#
# Indices 1 2 3 4 5 6 
#
# 1 38.6138 36.5633 41.5897 0.0000 -11.7560 0.0000
# 2 36.5633 124.4356 49.2624 0.0000 -9.5114 0.0000
# 3 41.5897 49.2624 163.7050 0.0000 -27.3706 0.0000
# 4 0.0000 0.0000 0.0000 60.4326 0.0000 6.5070
# 5 -11.7560 -9.5114 -27.3706 0.0000 39.6445 0.0000
# 6 0.0000 0.0000 0.0000 6.5070 0.0000 32.4890
#
#
#
# Elastic Compliance Matrix: (Units=1/GPa)
#
#
# Indices 1 2 3 4 5 6 
#
# 1 0.045069 -0.009820 -0.007523 0.000000 0.005815 0.000000
# 2 -0.009820 0.011267 -0.001052 0.000000 -0.000935 0.000000
# 3 -0.007523 -0.001052 0.008955 0.000000 0.003699 0.000000
# 4 0.000000 0.000000 0.000000 0.016912 0.000000 -0.003387
# 5 0.005815 -0.000935 0.003699 0.000000 0.029278 0.000000
# 6 0.000000 0.000000 0.000000 -0.003387 0.000000 0.031458
#
#
# Mechanical properties :
#
#
# Convention : Reuss Voigt Hill
#
# Bulk Modulus (GPa) = 35.08647 64.62059 49.85353
# Shear Modulus (GPa) = 26.42316 39.80248 33.11282
#
# Velocity S-wave (km/s) = 3.34801 4.10913 3.74794
# Velocity P-wave (km/s) = 5.46167 7.06586 6.31491
#
# Compressibility (1/GPa) = 0.02850102
#
# Stress axis : x y z
#
# Youngs Moduli (GPa) = 22.18832 88.75695 111.67304
#
# Poissons Ratio (x) = 0.87161 0.84006
# Poissons Ratio (y) = 0.21789 0.11747
# Poissons Ratio (z) = 0.16691 0.09337
#
# Static dielectric constant tensor:
#      x y z
#    x 3.790490 0.000000 0.284090 
#    y 0.000000 5.018770 0.000000 
#    z 0.284090 0.000000 4.995690 
# 
# 
# High freq. dielectric constant tensor:
#      x y z
#    x 1.894680 0.000000 -0.003250 
#    y 0.000000 1.955640 0.000000 
#    z -0.003250 0.000000 1.958420 
# 
# From -- ./inp_files/125374.got.cif
#   From: 2010.06.25/outbox.cif.g09.slc.cpg/sg15_63_cif.got.tgz:125374.got - 2010.06.28 07:06:18.
