data_PCOD8142069
_publ_section_title
;
Structure prediction by ZEFSAII (Michael W. Deem and Ramdas Pophale) SiO2 
 PCOD8142069
Probable space group: C 2/C
;
_chemical_formula_sum "Si O2"
_cell_formula_units_Z 56
_cell_length_a 8.879123
_cell_length_b 22.619891
_cell_length_c 13.061341
_cell_angle_alpha 90.000000
_cell_angle_beta 95.489172
_cell_angle_gamma 90.000000
_cell_volume 2611.272655
_symmetry_space_group_name_H-M "C 2/C"
_symmetry_group_IT_number 15
_symmetry_cell_setting 'monoclinic'
loop_
_space_group_symop_operation_xyz
x,y,z
-x,y,1/2-z
-x,-y,-z
x,-y,1/2+z
1/2+x,1/2+y,z
1/2-x,1/2+y,1/2-z
1/2-x,1/2-y,-z
1/2+x,1/2-y,1/2+z
loop_
_atom_site_type_symbol
_atom_site_label
_atom_site_fract_x
_atom_site_fract_y
_atom_site_fract_z
Si Si1 0.985836 0.222214 0.861259
Si Si2 0.221827 0.343855 0.084059
Si Si3 0.792956 0.457766 0.537169
Si Si4 0.129806 0.441662 0.606231
Si Si5 0.739317 0.134508 0.812428
Si Si6 0.904446 0.676317 0.490020
Si Si7 0.166518 0.003400 0.715022
O O1 0.145634 0.204266 0.922345
O O2 0.000000 0.254660 0.750000
O O3 0.907859 0.159497 0.833818
O O4 0.879333 0.259912 0.933443
O O5 0.168832 0.345923 0.198942
O O6 0.265677 0.410470 0.050572
O O7 0.086552 0.325785 0.000590
O O8 0.822218 0.520743 0.488269
O O9 0.656818 0.465048 0.610243
O O10 0.948024 0.441866 0.607866
O O11 0.174065 0.373435 0.585778
O O12 0.221560 0.465738 0.707522
O O13 0.749763 0.063891 0.811568
O O14 0.642849 0.165142 0.896063
O O15 0.000000 0.012874 0.750000
#
# Coordination Sequence:
#
# PCOD8142069 Si02
#       7
#     8   8   8   8   8   8   8
#     4  10  23  41  61  89 124 166 205 258 318 379
#     4  10  21  39  65  92 121 160 212 260 310 380
#     4  10  21  38  61  92 126 163 205 260 322 379
#     4  10  22  38  61  93 123 163 205 262 321 381
#     4  11  22  39  60  91 123 162 211 259 314 376
#     4  11  22  39  65  91 122 163 208 260 316 374
#     4  12  24  38  60  93 130 168 211 265 324 385
#
# _framework density 21.445481999999998
#
# number of rings (size 3 to 8) (size 9 to 14) (size 15 to 20)
#    0.000    1.429    2.857    3.000    0.000    5.143 
#    0.000    0.000    0.000    0.000    0.000    0.000 
#    0.000    0.000    0.000    0.000    0.000    0.000 
#
# Total GULP energy -346916.249674 kJ/mol
# GULP energy per Si atom -12389.866060 kJ/mol
# Density = 2.139667 g / cm^3
# Si number density = 21.445482 Si / 1000 Ang^3
#
#
#
# Elastic Constant Matrix: (Units=GPa)
#
#
# Indices 1 2 3 4 5 6 
#
# 1 66.3996 24.4393 39.6969 0.0000 -15.3063 0.0000
# 2 24.4393 104.6681 49.5600 0.0000 -0.6993 0.0000
# 3 39.6969 49.5600 97.8497 0.0000 -9.8193 0.0000
# 4 0.0000 0.0000 0.0000 32.8854 0.0000 -4.1201
# 5 -15.3063 -0.6993 -9.8193 0.0000 35.1629 0.0000
# 6 0.0000 0.0000 0.0000 -4.1201 0.0000 21.1684
#
#
#
# Elastic Compliance Matrix: (Units=1/GPa)
#
#
# Indices 1 2 3 4 5 6 
#
# 1 0.021680 -0.001577 -0.007256 0.000000 0.007380 0.000000
# 2 -0.001577 0.012768 -0.006040 0.000000 -0.002119 0.000000
# 3 -0.007256 -0.006040 0.016352 0.000000 0.001288 0.000000
# 4 0.000000 0.000000 0.000000 0.031169 0.000000 0.006067
# 5 0.007380 -0.002119 0.001288 0.000000 0.031969 0.000000
# 6 0.000000 0.000000 0.000000 0.006067 0.000000 0.048421
#
#
# Mechanical properties :
#
#
# Convention : Reuss Voigt Hill
#
# Bulk Modulus (GPa) = 47.49709 55.14552 51.32131
# Shear Modulus (GPa) = 25.11029 28.19142 26.65086
#
# Velocity S-wave (km/s) = 3.42554 3.62962 3.52906
# Velocity P-wave (km/s) = 6.15156 6.58298 6.37092
#
# Compressibility (1/GPa) = 0.02105392
#
# Stress axis : x y z
#
# Youngs Moduli (GPa) = 46.12559 78.32172 61.15566
#
# Poissons Ratio (x) = 0.12352 0.44375
# Poissons Ratio (y) = 0.07274 0.36936
# Poissons Ratio (z) = 0.33469 0.47304
#
# Static dielectric constant tensor:
#      x y z
#    x 3.711980 0.000000 -0.097590 
#    y 0.000000 3.815700 0.000000 
#    z -0.097590 0.000000 3.894620 
# 
# 
# High freq. dielectric constant tensor:
#      x y z
#    x 1.828090 0.000000 -0.007060 
#    y 0.000000 1.835010 0.000000 
#    z -0.007060 0.000000 1.847550 
# 
# From -- ./inp_files/81407.got.cif
#   From: 2010.06.25/outbox.cif.g09.slc.cpg/sg15_41_cif.got.tgz:81407.got - 2010.06.28 07:06:18.
