data_PCOD8142717
_publ_section_title
;
Structure prediction by ZEFSAII (Michael W. Deem and Ramdas Pophale) SiO2 
 PCOD8142717
Probable space group: C 2/C
;
_chemical_formula_sum "Si O2"
_cell_formula_units_Z 56
_cell_length_a 20.335302
_cell_length_b 14.999791
_cell_length_c 9.189163
_cell_angle_alpha 90.000000
_cell_angle_beta 97.500264
_cell_angle_gamma 90.000000
_cell_volume 2778.945901
_symmetry_space_group_name_H-M "C 2/C"
_symmetry_group_IT_number 15
_symmetry_cell_setting 'monoclinic'
loop_
_space_group_symop_operation_xyz
x,y,z
-x,y,1/2-z
-x,-y,-z
x,-y,1/2+z
1/2+x,1/2+y,z
1/2-x,1/2+y,1/2-z
1/2-x,1/2-y,-z
1/2+x,1/2-y,1/2+z
loop_
_atom_site_type_symbol
_atom_site_label
_atom_site_fract_x
_atom_site_fract_y
_atom_site_fract_z
Si Si1 0.641737 0.991764 0.464816
Si Si2 0.850086 0.815181 0.101651
Si Si3 0.518513 0.589326 0.920689
Si Si4 0.434671 0.075058 0.307917
Si Si5 0.189999 0.697170 0.912740
Si Si6 0.586548 0.733747 0.594020
Si Si7 0.199693 0.661244 0.586664
O O1 0.574886 0.962535 0.531362
O O2 0.690291 0.907256 0.455615
O O3 0.626386 0.040909 0.308779
O O4 0.677312 0.059515 0.584774
O O5 0.863497 0.815043 0.278987
O O6 0.774954 0.845970 0.049861
O O7 0.904031 0.881334 0.041048
O O8 0.850732 0.715714 0.033111
O O9 0.500000 0.570826 0.750000
O O10 0.474656 0.671191 0.968140
O O11 0.500000 0.500000 0.000000
O O12 0.500000 0.036966 0.250000
O O13 0.439659 0.181534 0.322749
O O14 0.193852 0.708273 0.741412
O O15 0.250000 0.750000 0.000000
O O16 0.122638 0.741345 0.954305
#
# Coordination Sequence:
#
# PCOD8142717 Si02
#       7
#     8   8   8   8   8   8   8
#     4  11  23  37  60  93 125 160 208 258 304 381
#     4  10  21  39  64  89 119 169 204 266 318 369
#     4  10  23  43  65  94 128 169 219 262 316 383
#     4  11  21  38  60  88 126 159 202 253 314 373
#     4  11  23  41  62  91 129 165 206 261 319 377
#     4  10  21  39  66  87 122 170 201 259 319 365
#     4  11  22  40  62  93 125 158 217 256 320 380
#
# _framework density 20.151526
#
# number of rings (size 3 to 8) (size 9 to 14) (size 15 to 20)
#    0.000    1.429    4.286    1.714    0.000    2.286 
#    0.000    0.000    0.000    0.000    0.000    0.000 
#    0.000    0.000    0.000    0.000    0.000    0.000 
#
# Total GULP energy -347063.395275 kJ/mol
# GULP energy per Si atom -12395.121260 kJ/mol
# Density = 2.010566 g / cm^3
# Si number density = 20.151526 Si / 1000 Ang^3
#
#
#
# Elastic Constant Matrix: (Units=GPa)
#
#
# Indices 1 2 3 4 5 6 
#
# 1 115.1342 60.9389 37.7303 0.0000 -11.1489 0.0000
# 2 60.9389 135.8193 35.1045 0.0000 -5.7360 0.0000
# 3 37.7303 35.1045 69.7179 0.0000 -9.5500 0.0000
# 4 0.0000 0.0000 0.0000 35.3163 0.0000 0.3470
# 5 -11.1489 -5.7360 -9.5500 0.0000 27.7217 0.0000
# 6 0.0000 0.0000 0.0000 0.3470 0.0000 29.5640
#
#
#
# Elastic Compliance Matrix: (Units=1/GPa)
#
#
# Indices 1 2 3 4 5 6 
#
# 1 0.012720 -0.004494 -0.004248 0.000000 0.002722 0.000000
# 2 -0.004494 0.010055 -0.002722 0.000000 -0.000665 0.000000
# 3 -0.004248 -0.002722 0.018578 0.000000 0.004129 0.000000
# 4 0.000000 0.000000 0.000000 0.028319 0.000000 -0.000332
# 5 0.002722 -0.000665 0.004129 0.000000 0.038452 0.000000
# 6 0.000000 0.000000 0.000000 -0.000332 0.000000 0.033829
#
#
# Mechanical properties :
#
#
# Convention : Reuss Voigt Hill
#
# Bulk Modulus (GPa) = 54.27301 65.35765 59.81533
# Shear Modulus (GPa) = 29.23598 30.98024 30.10811
#
# Velocity S-wave (km/s) = 3.81308 3.92518 3.86953
# Velocity P-wave (km/s) = 6.81007 7.28328 7.05065
#
# Compressibility (1/GPa) = 0.01842536
#
# Stress axis : x y z
#
# Youngs Moduli (GPa) = 78.61662 99.45780 53.82605
#
# Poissons Ratio (x) = 0.44698 0.22865
# Poissons Ratio (y) = 0.35332 0.14649
# Poissons Ratio (z) = 0.33397 0.27067
#
# Static dielectric constant tensor:
#      x y z
#    x 3.578440 0.000000 -0.166970 
#    y 0.000000 3.658730 0.000000 
#    z -0.166970 0.000000 3.602110 
# 
# 
# High freq. dielectric constant tensor:
#      x y z
#    x 1.781370 0.000000 -0.013600 
#    y 0.000000 1.785700 0.000000 
#    z -0.013600 0.000000 1.784700 
# 
# From -- ./inp_files/55655.got.cif
#   From: 2010.06.25/outbox.cif.g09.slc.cpg/sg15_28_cif.got.tgz:55655.got - 2010.06.28 07:06:18.
