data_PCOD8142381
_publ_section_title
;
Structure prediction by ZEFSAII (Michael W. Deem and Ramdas Pophale) SiO2 
 PCOD8142381
Probable space group: C 2/C
;
_chemical_formula_sum "Si O2"
_cell_formula_units_Z 56
_cell_length_a 5.510733
_cell_length_b 31.654701
_cell_length_c 15.622989
_cell_angle_alpha 90.000000
_cell_angle_beta 115.572140
_cell_angle_gamma 90.000000
_cell_volume 2458.321742
_symmetry_space_group_name_H-M "C 2/C"
_symmetry_group_IT_number 15
_symmetry_cell_setting 'monoclinic'
loop_
_space_group_symop_operation_xyz
x,y,z
-x,y,1/2-z
-x,-y,-z
x,-y,1/2+z
1/2+x,1/2+y,z
1/2-x,1/2+y,1/2-z
1/2-x,1/2-y,-z
1/2+x,1/2-y,1/2+z
loop_
_atom_site_type_symbol
_atom_site_label
_atom_site_fract_x
_atom_site_fract_y
_atom_site_fract_z
Si Si1 0.642849 0.794722 0.011063
Si Si2 0.497492 0.094128 0.649958
Si Si3 0.820482 0.492341 0.308504
Si Si4 0.453515 0.631082 0.492098
Si Si5 0.337243 0.337618 0.646741
Si Si6 0.191440 0.318129 0.195855
Si Si7 0.526527 0.917561 0.651941
O O1 0.550036 0.792053 0.096637
O O2 0.750000 0.750000 0.000000
O O3 0.862169 0.832797 0.044861
O O4 0.409485 0.806654 0.909477
O O5 0.500000 0.083790 0.750000
O O6 0.595285 0.049589 0.623373
O O7 0.703026 0.132708 0.668071
O O8 0.214552 0.107938 0.567463
O O9 0.500000 0.489802 0.250000
O O10 0.885966 0.535999 0.367749
O O11 0.000000 0.494566 0.250000
O O12 0.485224 0.658047 0.410416
O O13 0.240221 0.594214 0.441629
O O14 0.500000 0.316532 0.750000
O O15 0.254618 0.384721 0.660402
O O16 0.500000 0.302037 0.250000
O O17 0.000000 0.311984 0.250000
O O18 0.500000 0.915261 0.750000
#
# Coordination Sequence:
#
# PCOD8142381 Si02
#       7
#     8   8   8   8   8   8   8
#     4  11  26  47  70 106 144 180 239 311 363 440
#     4  10  21  42  68  96 139 188 239 290 358 432
#     4  10  22  39  65 102 141 186 238 304 356 414
#     4  11  23  43  70  99 137 190 243 292 370 436
#     4  11  22  43  71  97 136 191 241 293 367 435
#     4  11  23  45  74 102 140 193 237 285 361 435
#     4  10  21  38  68  95 140 185 240 301 359 426
#
# _framework density 22.779769999999999
#
# number of rings (size 3 to 8) (size 9 to 14) (size 15 to 20)
#    0.000    1.429    2.857    2.571    2.000    2.286 
#    2.571    1.429    0.000    0.000    0.000    0.000 
#    0.000    0.000    0.000    0.000    0.000    0.000 
#
# Total GULP energy -346963.716671 kJ/mol
# GULP energy per Si atom -12391.561310 kJ/mol
# Density = 2.272792 g / cm^3
# Si number density = 22.779770 Si / 1000 Ang^3
#
#
#
# Elastic Constant Matrix: (Units=GPa)
#
#
# Indices 1 2 3 4 5 6 
#
# 1 119.0778 44.4782 46.5830 0.0000 11.2811 0.0000
# 2 44.4782 148.0624 64.4299 0.0000 3.5694 0.0000
# 3 46.5830 64.4299 136.9062 0.0000 12.9354 0.0000
# 4 0.0000 0.0000 0.0000 21.8440 0.0000 -20.4901
# 5 11.2811 3.5694 12.9354 0.0000 43.1957 0.0000
# 6 0.0000 0.0000 0.0000 -20.4901 0.0000 -11.8397
#
#
#
# Elastic Compliance Matrix: (Units=1/GPa)
#
#
# Indices 1 2 3 4 5 6 
#
# 1 0.010244 -0.002001 -0.002374 0.000000 -0.001799 0.000000
# 2 -0.002001 0.008895 -0.003587 0.000000 0.000862 0.000000
# 3 -0.002374 -0.003587 0.009996 0.000000 -0.002077 0.000000
# 4 0.000000 0.000000 0.000000 0.017451 0.000000 -0.030200
# 5 -0.001799 0.000862 -0.002077 0.000000 0.024171 0.000000
# 6 0.000000 0.000000 0.000000 -0.030200 0.000000 -0.032196
#
#
# Mechanical properties :
#
#
# Convention : Reuss Voigt Hill
#
# Bulk Modulus (GPa) = 75.68716 79.44761 77.56739
# Shear Modulus (GPa) = 84.90564 27.21036 56.05800
#
# Velocity S-wave (km/s) = 6.11173 3.45990 4.96610
# Velocity P-wave (km/s) = 9.11604 7.13536 8.18582
#
# Compressibility (1/GPa) = 0.01321228
#
# Stress axis : x y z
#
# Youngs Moduli (GPa) = 97.61371 112.42282 100.03780
#
# Poissons Ratio (x) = 0.22496 0.23749
# Poissons Ratio (y) = 0.19533 0.35880
# Poissons Ratio (z) = 0.23174 0.40322
#
# Static dielectric constant tensor:
#      x y z
#    x 4.048240 0.000000 -0.468750 
#    y 0.000000 4.414110 0.000000 
#    z -0.468750 0.000000 -0.000010 
# 
# 
# High freq. dielectric constant tensor:
#      x y z
#    x 1.897330 0.000000 0.003170 
#    y 0.000000 1.901110 0.000000 
#    z 0.003170 0.000000 1.899410 
# 
# From -- ./inp_files/186796.got.cif
#   From: 2010.06.25/outbox.cif.g09.slc.cpg/sg15_94_cif.got.tgz:186796.got - 2010.06.28 07:06:18.
