data_PCOD8142363
_publ_section_title
;
Structure prediction by ZEFSAII (Michael W. Deem and Ramdas Pophale) SiO2 
 PCOD8142363
Probable space group: C 2/C
;
_chemical_formula_sum "Si O2"
_cell_formula_units_Z 48
_cell_length_a 21.186984
_cell_length_b 15.016350
_cell_length_c 10.712541
_cell_angle_alpha 90.000000
_cell_angle_beta 38.434257
_cell_angle_gamma 90.000000
_cell_volume 2118.597075
_symmetry_space_group_name_H-M "C 2/C"
_symmetry_group_IT_number 15
_symmetry_cell_setting 'monoclinic'
loop_
_space_group_symop_operation_xyz
x,y,z
-x,y,1/2-z
-x,-y,-z
x,-y,1/2+z
1/2+x,1/2+y,z
1/2-x,1/2+y,1/2-z
1/2-x,1/2-y,-z
1/2+x,1/2-y,1/2+z
loop_
_atom_site_type_symbol
_atom_site_label
_atom_site_fract_x
_atom_site_fract_y
_atom_site_fract_z
Si Si1 0.554098 0.277043 0.397626
Si Si2 0.106113 0.910045 0.113332
Si Si3 0.746716 0.339184 0.238759
Si Si4 0.831453 0.171277 0.232775
Si Si5 0.591339 0.104021 0.203874
Si Si6 0.235564 0.459748 0.066553
O O1 0.578354 0.318023 0.224668
O O2 0.632851 0.311284 0.378730
O O3 0.444016 0.311157 0.614102
O O4 0.556949 0.169817 0.370261
O O5 0.000000 0.961081 0.250000
O O6 0.174337 0.969590 0.098980
O O7 0.167098 0.888861 0.893285
O O8 0.785851 0.266480 0.274249
O O9 0.754660 0.431640 0.303272
O O10 0.815442 0.347391 0.009741
O O11 0.755741 0.124086 0.446608
O O12 0.500000 0.084852 0.250000
O O13 0.628459 0.009253 0.204293
#
# Coordination Sequence:
#
# PCOD8142363 Si02
#       6
#     8   8   8   8   8   8
#     4  11  22  43  77  94 126 186 235 278 333 419
#     4  10  21  38  67  96 126 162 222 279 336 397
#     4  12  24  44  68  97 138 183 228 282 348 423
#     4  11  24  45  65 100 136 179 231 281 347 419
#     4  12  23  47  73  99 134 188 243 283 333 421
#     4  12  27  40  64 105 143 170 218 296 358 397
#
# _framework density 22.656503000000001
#
# number of rings (size 3 to 8) (size 9 to 14) (size 15 to 20)
#    0.000    0.667    5.000    3.500    2.333    2.000 
#    3.000    0.000    0.000    0.000    0.000    0.000 
#    0.000    0.000    0.000    0.000    0.000    0.000 
#
# Total GULP energy -297640.496388 kJ/mol
# GULP energy per Si atom -12401.687350 kJ/mol
# Density = 2.260494 g / cm^3
# Si number density = 22.656503 Si / 1000 Ang^3
#
#
#
# Elastic Constant Matrix: (Units=GPa)
#
#
# Indices 1 2 3 4 5 6 
#
# 1 134.4902 44.3064 15.8943 0.0000 -36.1662 0.0000
# 2 44.3064 95.9342 24.3846 0.0000 -11.5472 0.0000
# 3 15.8943 24.3846 30.5561 0.0000 -6.5709 0.0000
# 4 0.0000 0.0000 0.0000 23.0358 0.0000 -2.4715
# 5 -36.1662 -11.5472 -6.5709 0.0000 41.3576 0.0000
# 6 0.0000 0.0000 0.0000 -2.4715 0.0000 44.0413
#
#
#
# Elastic Compliance Matrix: (Units=1/GPa)
#
#
# Indices 1 2 3 4 5 6 
#
# 1 0.011098 -0.003890 -0.000844 0.000000 0.008485 0.000000
# 2 -0.003890 0.014612 -0.009827 0.000000 -0.000883 0.000000
# 3 -0.000844 -0.009827 0.041684 0.000000 0.003141 0.000000
# 4 0.000000 0.000000 0.000000 0.043674 0.000000 0.002451
# 5 0.008485 -0.000883 0.003141 0.000000 0.031852 0.000000
# 6 0.000000 0.000000 0.000000 0.002451 0.000000 0.022843
#
#
# Mechanical properties :
#
#
# Convention : Reuss Voigt Hill
#
# Bulk Modulus (GPa) = 26.12913 47.79457 36.96185
# Shear Modulus (GPa) = 24.07983 33.44663 28.76323
#
# Velocity S-wave (km/s) = 3.26363 3.84637 3.56692
# Velocity P-wave (km/s) = 5.07538 6.39274 5.77177
#
# Compressibility (1/GPa) = 0.03827146
#
# Stress axis : x y z
#
# Youngs Moduli (GPa) = 90.10228 68.43742 23.99024
#
# Poissons Ratio (x) = 0.26621 0.02025
# Poissons Ratio (y) = 0.35048 0.23576
# Poissons Ratio (z) = 0.07606 0.67255
#
# Static dielectric constant tensor:
#      x y z
#    x 4.186790 0.000000 -0.284970 
#    y 0.000000 4.044250 0.000000 
#    z -0.284970 0.000000 3.888730 
# 
# 
# High freq. dielectric constant tensor:
#      x y z
#    x 1.899980 0.000000 -0.014920 
#    y 0.000000 1.894390 0.000000 
#    z -0.014920 0.000000 1.873600 
# 
# From -- ./inp_files/96196.got.cif
#   From: 2010.06.25/outbox.cif.g09.slc.cpg/sg15_49_cif.got.tgz:96196.got - 2010.06.28 07:06:18.
