data_PCOD8142818
_publ_section_title
;
Structure prediction by ZEFSAII (Michael W. Deem and Ramdas Pophale) SiO2 
 PCOD8142818
Probable space group: C 2/C
;
_chemical_formula_sum "Si O2"
_cell_formula_units_Z 60
_cell_length_a 16.869244
_cell_length_b 20.357290
_cell_length_c 8.520965
_cell_angle_alpha 90.000000
_cell_angle_beta 114.026181
_cell_angle_gamma 90.000000
_cell_volume 2672.674795
_symmetry_space_group_name_H-M "C 2/C"
_symmetry_group_IT_number 15
_symmetry_cell_setting 'monoclinic'
loop_
_space_group_symop_operation_xyz
x,y,z
-x,y,1/2-z
-x,-y,-z
x,-y,1/2+z
1/2+x,1/2+y,z
1/2-x,1/2+y,1/2-z
1/2-x,1/2-y,-z
1/2+x,1/2-y,1/2+z
loop_
_atom_site_type_symbol
_atom_site_label
_atom_site_fract_x
_atom_site_fract_y
_atom_site_fract_z
Si Si1 0.500000 0.604774 0.750000
Si Si2 0.472553 0.171813 0.896705
Si Si3 0.678489 0.447944 0.277865
Si Si4 0.726096 0.832407 0.308348
Si Si5 0.237548 0.187362 0.310578
Si Si6 0.261282 0.058345 0.163180
Si Si7 0.046788 0.555795 0.128294
Si Si8 0.536218 0.320392 0.613008
O O1 0.417412 0.559674 0.725859
O O2 0.479901 0.643275 0.568777
O O3 0.500000 0.146907 0.750000
O O4 0.369755 0.157638 0.842635
O O5 0.500739 0.247338 0.944490
O O6 0.535242 0.129430 0.056175
O O7 0.704436 0.387228 0.187091
O O8 0.685721 0.517425 0.192632
O O9 0.749447 0.450667 0.470273
O O10 0.718382 0.834414 0.490694
O O11 0.765999 0.761640 0.288287
O O12 0.262522 0.136097 0.196628
O O13 0.135041 0.186315 0.239788
O O14 0.354622 0.030801 0.283495
O O15 0.000000 0.558797 0.250000
O O16 0.000000 0.500000 0.000000
O O17 0.500000 0.351801 0.750000
#
# Coordination Sequence:
#
# PCOD8142818 Si02
#       8
#     4   8   8   8   8   8   8   8
#     4  12  26  48  72 102 136 180 244 294 352 418
#     4  10  21  39  66 103 138 181 224 275 350 418
#     4  12  27  46  68 100 133 183 233 291 352 414
#     4  10  21  41  70 100 141 180 227 282 347 417
#     4  10  21  42  68 100 133 185 226 279 351 412
#     4  12  25  45  67  95 138 178 229 284 348 416
#     4  12  25  41  64  96 135 180 226 280 343 423
#     4  10  22  43  69 103 143 178 232 293 349 413
#
# _framework density 22.44942
#
# number of rings (size 3 to 8) (size 9 to 14) (size 15 to 20)
#    0.000    1.067    1.333    5.200    0.933    4.267 
#    1.200    0.000    0.000    0.000    0.000    0.000 
#    0.000    0.000    0.000    0.000    0.000    0.000 
#
# Total GULP energy -371755.950589 kJ/mol
# GULP energy per Si atom -12391.865020 kJ/mol
# Density = 2.239832 g / cm^3
# Si number density = 22.449420 Si / 1000 Ang^3
#
#
#
# Elastic Constant Matrix: (Units=GPa)
#
#
# Indices 1 2 3 4 5 6 
#
# 1 95.1048 20.6011 13.6478 0.0000 -0.3826 0.0000
# 2 20.6011 89.1896 28.0307 0.0000 -7.6535 0.0000
# 3 13.6478 28.0307 99.5744 0.0000 -7.9087 0.0000
# 4 0.0000 0.0000 0.0000 33.5648 0.0000 -0.2962
# 5 -0.3826 -7.6535 -7.9087 0.0000 40.9319 0.0000
# 6 0.0000 0.0000 0.0000 -0.2962 0.0000 33.0416
#
#
#
# Elastic Compliance Matrix: (Units=1/GPa)
#
#
# Indices 1 2 3 4 5 6 
#
# 1 0.011149 -0.002332 -0.000912 0.000000 -0.000508 0.000000
# 2 -0.002332 0.012900 -0.003171 0.000000 0.001778 0.000000
# 3 -0.000912 -0.003171 0.011184 0.000000 0.001560 0.000000
# 4 0.000000 0.000000 0.000000 0.029795 0.000000 0.000267
# 5 -0.000508 0.001778 0.001560 0.000000 0.025060 0.000000
# 6 0.000000 0.000000 0.000000 0.000267 0.000000 0.030267
#
#
# Mechanical properties :
#
#
# Convention : Reuss Voigt Hill
#
# Bulk Modulus (GPa) = 44.63598 45.38089 45.00843
# Shear Modulus (GPa) = 35.54872 36.28026 35.91449
#
# Velocity S-wave (km/s) = 3.98364 4.02442 4.00408
# Velocity P-wave (km/s) = 6.40978 6.46941 6.43966
#
# Compressibility (1/GPa) = 0.02240345
#
# Stress axis : x y z
#
# Youngs Moduli (GPa) = 89.69648 77.52106 89.41250
#
# Poissons Ratio (x) = 0.18079 0.08154
# Poissons Ratio (y) = 0.20918 0.28348
# Poissons Ratio (z) = 0.08179 0.24578
#
# Static dielectric constant tensor:
#      x y z
#    x 4.117830 0.000000 0.009850 
#    y 0.000000 4.259630 0.000000 
#    z 0.009850 0.000000 4.153870 
# 
# 
# High freq. dielectric constant tensor:
#      x y z
#    x 1.885950 0.000000 0.005870 
#    y 0.000000 1.885720 0.000000 
#    z 0.005870 0.000000 1.894040 
# 
# From -- ./inp_files/50673.got.cif
#   From: 2010.06.25/outbox.cif.g09.slc.cpg/sg15_26_cif.got.tgz:50673.got - 2010.06.28 07:06:18.
