data_PCOD8142337
_publ_section_title
;
Structure prediction by ZEFSAII (Michael W. Deem and Ramdas Pophale) SiO2 
 PCOD8142337
Probable space group: C 2/C
;
_chemical_formula_sum "Si O2"
_cell_formula_units_Z 64
_cell_length_a 15.491828
_cell_length_b 11.881895
_cell_length_c 17.587625
_cell_angle_alpha 90.000000
_cell_angle_beta 91.428355
_cell_angle_gamma 90.000000
_cell_volume 3236.388186
_symmetry_space_group_name_H-M "C 2/C"
_symmetry_group_IT_number 15
_symmetry_cell_setting 'monoclinic'
loop_
_space_group_symop_operation_xyz
x,y,z
-x,y,1/2-z
-x,-y,-z
x,-y,1/2+z
1/2+x,1/2+y,z
1/2-x,1/2+y,1/2-z
1/2-x,1/2-y,-z
1/2+x,1/2-y,1/2+z
loop_
_atom_site_type_symbol
_atom_site_label
_atom_site_fract_x
_atom_site_fract_y
_atom_site_fract_z
Si Si1 0.651632 0.874318 0.917241
Si Si2 0.920376 0.689404 0.924946
Si Si3 0.259707 0.674790 0.657849
Si Si4 0.663651 0.557987 0.388095
Si Si5 0.549426 0.943786 0.327341
Si Si6 0.194541 0.041669 0.564637
Si Si7 0.521043 0.440690 0.578429
Si Si8 0.287666 0.207325 0.676104
O O1 0.670884 0.752496 0.882859
O O2 0.594462 0.942960 0.856613
O O3 0.740708 0.937009 0.937074
O O4 0.599683 0.859085 0.993138
O O5 0.835816 0.703947 0.872190
O O6 0.967101 0.808375 0.934164
O O7 0.984294 0.599741 0.889416
O O8 0.281775 0.546756 0.639767
O O9 0.266263 0.696468 0.747713
O O10 0.673670 0.578815 0.478351
O O11 0.561093 0.541901 0.367235
O O12 0.701850 0.662522 0.343214
O O13 0.500000 0.975950 0.250000
O O14 0.618916 0.847739 0.310771
O O15 0.234623 0.148192 0.607734
O O16 0.109601 0.999258 0.609345
O O17 0.500000 0.500000 0.500000
#
# Coordination Sequence:
#
# PCOD8142337 Si02
#       8
#     8   8   8   8   8   8   8   8
#     4  11  23  41  67  98 130 168 219 266 323 385
#     4  12  21  42  67  96 127 174 220 262 318 396
#     4  12  25  41  68  97 133 173 217 267 331 387
#     4  11  23  43  65  98 128 170 220 270 322 393
#     4  11  24  43  63  97 131 171 216 270 324 384
#     4  10  21  41  66  97 130 171 212 269 326 384
#     4  10  21  38  66  96 129 159 214 271 313 379
#     4  11  25  41  65  95 134 171 217 269 329 391
#
# _framework density 19.775130999999998
#
# number of rings (size 3 to 8) (size 9 to 14) (size 15 to 20)
#    0.000    1.000    5.000    2.625    3.500    0.000 
#    0.000    6.875    0.000    0.000    0.000    0.000 
#    0.000    0.000    0.000    0.000    0.000    0.000 
#
# Total GULP energy -396919.374503 kJ/mol
# GULP energy per Si atom -12403.730453 kJ/mol
# Density = 1.973012 g / cm^3
# Si number density = 19.775131 Si / 1000 Ang^3
#
#
#
# Elastic Constant Matrix: (Units=GPa)
#
#
# Indices 1 2 3 4 5 6 
#
# 1 95.4081 26.9481 31.3631 0.0000 -2.2417 0.0000
# 2 26.9481 105.4119 27.5879 0.0000 1.6566 0.0000
# 3 31.3631 27.5879 95.6852 0.0000 -9.0983 0.0000
# 4 0.0000 0.0000 0.0000 -4.0132 0.0000 -25.3476
# 5 -2.2417 1.6566 -9.0983 0.0000 32.1377 0.0000
# 6 0.0000 0.0000 0.0000 -25.3476 0.0000 -0.4819
#
#
#
# Elastic Compliance Matrix: (Units=1/GPa)
#
#
# Indices 1 2 3 4 5 6 
#
# 1 0.012219 -0.002246 -0.003356 0.000000 0.000018 0.000000
# 2 -0.002246 0.010736 -0.002494 0.000000 -0.001416 0.000000
# 3 -0.003356 -0.002494 0.012599 0.000000 0.003461 0.000000
# 4 0.000000 0.000000 0.000000 0.000752 0.000000 -0.039571
# 5 0.000018 -0.001416 0.003461 0.000000 0.032170 0.000000
# 6 0.000000 0.000000 0.000000 -0.039571 0.000000 0.006265
#
#
# Mechanical properties :
#
#
# Convention : Reuss Voigt Hill
#
# Bulk Modulus (GPa) = 51.64529 52.03371 51.83950
# Shear Modulus (GPa) = 51.34160 19.56893 35.45527
#
# Velocity S-wave (km/s) = 5.10089 3.14916 4.23888
# Velocity P-wave (km/s) = 7.80161 6.29228 7.08724
#
# Compressibility (1/GPa) = 0.01936285
#
# Stress axis : x y z
#
# Youngs Moduli (GPa) = 81.83833 93.14763 79.37097
#
# Poissons Ratio (x) = 0.20919 0.26636
# Poissons Ratio (y) = 0.18379 0.19794
# Poissons Ratio (z) = 0.27464 0.23229
#
# Static dielectric constant tensor:
#      x y z
#    x 4.058130 0.000000 -0.043470 
#    y 0.000000 3.577840 0.000000 
#    z -0.043470 0.000000 3.517030 
# 
# 
# High freq. dielectric constant tensor:
#      x y z
#    x 1.784450 0.000000 -0.005870 
#    y 0.000000 1.778440 0.000000 
#    z -0.005870 0.000000 1.765270 
# 
# From -- ./inp_files/204468.got.cif
#   From: 2010.06.25/outbox.cif.g09.slc.cpg/sg15_103_cif.got.tgz:204468.got - 2010.06.28 07:06:18.
