data_PCOD8142667
_publ_section_title
;
Structure prediction by ZEFSAII (Michael W. Deem and Ramdas Pophale) SiO2 
 PCOD8142667
Probable space group: C 2/C
;
_chemical_formula_sum "Si O2"
_cell_formula_units_Z 60
_cell_length_a 12.948512
_cell_length_b 20.060339
_cell_length_c 18.710775
_cell_angle_alpha 90.000000
_cell_angle_beta 37.349818
_cell_angle_gamma 90.000000
_cell_volume 2948.556549
_symmetry_space_group_name_H-M "C 2/C"
_symmetry_group_IT_number 15
_symmetry_cell_setting 'monoclinic'
loop_
_space_group_symop_operation_xyz
x,y,z
-x,y,1/2-z
-x,-y,-z
x,-y,1/2+z
1/2+x,1/2+y,z
1/2-x,1/2+y,1/2-z
1/2-x,1/2-y,-z
1/2+x,1/2-y,1/2+z
loop_
_atom_site_type_symbol
_atom_site_label
_atom_site_fract_x
_atom_site_fract_y
_atom_site_fract_z
Si Si1 0.196110 0.883279 0.029178
Si Si2 0.836114 0.500747 0.794547
Si Si3 0.014062 0.550222 0.559174
Si Si4 0.336363 0.465653 0.976072
Si Si5 0.000000 0.197026 0.750000
Si Si6 0.672354 0.279887 0.918998
Si Si7 0.492776 0.850089 0.550378
Si Si8 0.838708 0.115324 0.185199
O O1 0.055841 0.850968 0.156292
O O2 0.124698 0.955455 0.047031
O O3 0.220799 0.835204 0.949325
O O4 0.381087 0.889496 0.965155
O O5 0.736078 0.433252 0.834022
O O6 0.000000 0.478703 0.750000
O O7 0.876664 0.536518 0.697048
O O8 0.727484 0.549412 0.907137
O O9 0.200901 0.551128 0.489854
O O10 0.977235 0.623073 0.546698
O O11 0.000000 0.500000 0.500000
O O12 0.500241 0.421045 0.867277
O O13 0.846036 0.241439 0.805087
O O14 0.604025 0.316215 0.885217
O O15 0.531519 0.228848 0.027744
O O16 0.299761 0.866359 0.678634
#
# Coordination Sequence:
#
# PCOD8142667 Si02
#       8
#     8   8   8   8   4   8   8   8
#     4  11  21  39  63  92 131 157 215 268 321 377
#     4  10  21  39  63  91 131 166 206 257 320 380
#     4  11  21  41  67  93 124 166 210 263 323 377
#     4  11  24  40  62  98 125 166 211 266 322 371
#     4  10  22  34  58  94 124 166 206 270 314 368
#     4  11  23  39  60  89 129 177 209 250 317 390
#     4  11  23  41  62  95 127 171 207 259 326 376
#     4  12  23  38  63  92 130 167 210 261 315 383
#
# _framework density 20.348939999999999
#
# number of rings (size 3 to 8) (size 9 to 14) (size 15 to 20)
#    0.000    1.067    4.000    4.400    0.933    3.733 
#    2.400    0.667    0.000    0.000    0.000    0.000 
#    0.000    0.000    0.000    0.000    0.000    0.000 
#
# Total GULP energy -371968.976062 kJ/mol
# GULP energy per Si atom -12398.965869 kJ/mol
# Density = 2.030263 g / cm^3
# Si number density = 20.348940 Si / 1000 Ang^3
#
#
#
# Elastic Constant Matrix: (Units=GPa)
#
#
# Indices 1 2 3 4 5 6 
#
# 1 98.1106 57.4785 55.9491 0.0111 5.7804 0.0049
# 2 57.4785 96.9951 52.6801 0.0319 -5.8928 -0.0058
# 3 55.9491 52.6801 123.0895 0.0424 -2.7213 -0.0065
# 4 0.0111 0.0319 0.0424 27.0792 -0.0243 4.3708
# 5 5.7804 -5.8928 -2.7213 -0.0243 37.3002 -0.0020
# 6 0.0049 -0.0058 -0.0065 4.3708 -0.0020 36.1317
#
#
#
# Elastic Compliance Matrix: (Units=1/GPa)
#
#
# Indices 1 2 3 4 5 6 
#
# 1 0.018080 -0.008428 -0.004710 0.000007 -0.004477 -0.000006
# 2 -0.008428 0.017470 -0.003562 -0.000009 0.003806 0.000005
# 3 -0.004710 -0.003562 0.011812 -0.000012 0.001029 0.000004
# 4 0.000007 -0.000009 -0.000012 0.037664 0.000021 -0.004556
# 5 -0.004477 0.003806 0.001029 0.000021 0.028180 0.000000
# 6 -0.000006 0.000005 0.000004 -0.004556 0.000000 0.028228
#
#
# Mechanical properties :
#
#
# Convention : Reuss Voigt Hill
#
# Bulk Modulus (GPa) = 71.62052 72.26785 71.94418
# Shear Modulus (GPa) = 27.85722 30.24139 29.04930
#
# Velocity S-wave (km/s) = 3.70398 3.85923 3.78240
# Velocity P-wave (km/s) = 7.31883 7.44645 7.38292
#
# Compressibility (1/GPa) = 0.01396248
#
# Stress axis : x y z
#
# Youngs Moduli (GPa) = 55.31049 57.24166 84.65816
#
# Poissons Ratio (x) = 0.48242 0.39874
# Poissons Ratio (y) = 0.46615 0.30154
# Poissons Ratio (z) = 0.26051 0.20389
#
# Static dielectric constant tensor:
#      x y z
#    x 3.642090 -0.000010 0.152720 
#    y -0.000010 3.739000 0.000030 
#    z 0.152720 0.000030 3.861600 
# 
# 
# High freq. dielectric constant tensor:
#      x y z
#    x 1.783380 0.000000 0.011190 
#    y 0.000000 1.785230 0.000000 
#    z 0.011190 0.000000 1.803760 
# 
# From -- ./inp_files/200507.got.cif
#   From: 2010.06.25/outbox.cif.g09.slc.cpg/sg15_101_cif.got.tgz:200507.got - 2010.06.28 07:06:18.
