data_PCOD8142718
_publ_section_title
;
Structure prediction by ZEFSAII (Michael W. Deem and Ramdas Pophale) SiO2 
 PCOD8142718
Probable space group: C 2/C
;
_chemical_formula_sum "Si O2"
_cell_formula_units_Z 64
_cell_length_a 17.904690
_cell_length_b 17.288489
_cell_length_c 14.391412
_cell_angle_alpha 90.000000
_cell_angle_beta 43.648483
_cell_angle_gamma 90.000000
_cell_volume 3074.839080
_symmetry_space_group_name_H-M "C 2/C"
_symmetry_group_IT_number 15
_symmetry_cell_setting 'monoclinic'
loop_
_space_group_symop_operation_xyz
x,y,z
-x,y,1/2-z
-x,-y,-z
x,-y,1/2+z
1/2+x,1/2+y,z
1/2-x,1/2+y,1/2-z
1/2-x,1/2-y,-z
1/2+x,1/2-y,1/2+z
loop_
_atom_site_type_symbol
_atom_site_label
_atom_site_fract_x
_atom_site_fract_y
_atom_site_fract_z
Si Si1 0.398661 0.164415 0.108562
Si Si2 0.706840 0.348179 0.107030
Si Si3 0.723297 0.009326 0.246158
Si Si4 0.216798 0.774674 0.426167
Si Si5 0.148670 0.342861 0.350331
Si Si6 0.108135 0.993207 0.750323
Si Si7 0.616925 0.806945 0.674153
Si Si8 0.133212 0.059686 0.032672
O O1 0.363222 0.076878 0.163232
O O2 0.342082 0.202211 0.069706
O O3 0.367376 0.207320 0.230702
O O4 0.525639 0.175122 0.982412
O O5 0.771002 0.316640 0.139994
O O6 0.626474 0.417934 0.203349
O O7 0.637668 0.280369 0.119340
O O8 0.798588 0.368542 0.946792
O O9 0.824977 0.028337 0.219743
O O10 0.657512 0.934653 0.335202
O O11 0.774457 0.993796 0.098081
O O12 0.250000 0.750000 0.500000
O O13 0.322164 0.797671 0.271191
O O14 0.139345 0.850757 0.494756
O O15 0.150635 0.940016 0.627740
O O16 0.983236 0.977242 0.886193
O O17 0.500000 0.838044 0.750000
#
# Coordination Sequence:
#
# PCOD8142718 Si02
#       8
#     8   8   8   8   8   8   8   8
#     4  12  23  40  65  94 117 172 208 255 323 383
#     4  10  21  40  59  94 131 161 203 265 315 382
#     4  10  22  40  62  88 125 163 213 256 313 377
#     4  11  25  44  64  90 132 164 218 270 319 374
#     4  10  22  42  61  89 127 164 209 268 310 374
#     4  10  21  39  64  89 122 166 206 261 313 377
#     4  11  22  37  63  94 128 166 202 256 323 386
#     4  10  22  41  61  94 124 164 208 264 317 375
#
# _framework density 20.814097
#
# number of rings (size 3 to 8) (size 9 to 14) (size 15 to 20)
#    0.000    1.500    2.500    2.250    1.750    3.500 
#    2.250    0.000    0.000    0.000    0.000    0.000 
#    0.000    0.000    0.000    0.000    0.000    0.000 
#
# Total GULP energy -396581.115694 kJ/mol
# GULP energy per Si atom -12393.159865 kJ/mol
# Density = 2.076672 g / cm^3
# Si number density = 20.814097 Si / 1000 Ang^3
#
#
#
# Elastic Constant Matrix: (Units=GPa)
#
#
# Indices 1 2 3 4 5 6 
#
# 1 60.2919 18.0027 25.8218 0.0000 13.9178 0.0000
# 2 18.0027 80.9536 37.7750 0.0000 -11.3360 0.0000
# 3 25.8218 37.7750 103.4820 0.0000 12.8972 0.0000
# 4 0.0000 0.0000 0.0000 31.2217 0.0000 5.1534
# 5 13.9178 -11.3360 12.8972 0.0000 30.0000 0.0000
# 6 0.0000 0.0000 0.0000 5.1534 0.0000 22.6345
#
#
#
# Elastic Compliance Matrix: (Units=1/GPa)
#
#
# Indices 1 2 3 4 5 6 
#
# 1 0.021675 -0.005455 -0.002015 0.000000 -0.011251 0.000000
# 2 -0.005455 0.018585 -0.006988 0.000000 0.012558 0.000000
# 3 -0.002015 -0.006988 0.013662 0.000000 -0.007579 0.000000
# 4 0.000000 0.000000 0.000000 0.033280 0.000000 -0.007577
# 5 -0.011251 0.012558 -0.007579 0.000000 0.046556 0.000000
# 6 0.000000 0.000000 0.000000 -0.007577 0.000000 0.045906
#
#
# Mechanical properties :
#
#
# Convention : Reuss Voigt Hill
#
# Bulk Modulus (GPa) = 39.99177 45.32517 42.65847
# Shear Modulus (GPa) = 23.05040 27.64643 25.34842
#
# Velocity S-wave (km/s) = 3.33144 3.64848 3.49355
# Velocity P-wave (km/s) = 5.83553 6.29063 6.06735
#
# Compressibility (1/GPa) = 0.02500515
#
# Stress axis : x y z
#
# Youngs Moduli (GPa) = 46.13609 53.80594 73.19643
#
# Poissons Ratio (x) = 0.29353 0.14748
# Poissons Ratio (y) = 0.25169 0.51151
# Poissons Ratio (z) = 0.09296 0.37601
#
# Static dielectric constant tensor:
#      x y z
#    x 3.674220 0.000000 0.218760 
#    y 0.000000 3.691140 0.000000 
#    z 0.218760 0.000000 3.951840 
# 
# 
# High freq. dielectric constant tensor:
#      x y z
#    x 1.805160 0.000000 0.009810 
#    y 0.000000 1.809480 0.000000 
#    z 0.009810 0.000000 1.832320 
# 
# From -- ./inp_files/163248.got.cif
#   From: 2010.06.25/outbox.cif.g09.slc.cpg/sg15_82_cif.got.tgz:163248.got - 2010.06.28 07:06:18.
