data_PCOD8142203
_publ_section_title
;
Structure prediction by ZEFSAII (Michael W. Deem and Ramdas Pophale) SiO2 
 PCOD8142203
Probable space group: C 2/C
;
_chemical_formula_sum "Si O2"
_cell_formula_units_Z 52
_cell_length_a 16.536864
_cell_length_b 6.561664
_cell_length_c 24.408451
_cell_angle_alpha 90.000000
_cell_angle_beta 78.603494
_cell_angle_gamma 90.000000
_cell_volume 2596.324272
_symmetry_space_group_name_H-M "C 2/C"
_symmetry_group_IT_number 15
_symmetry_cell_setting 'monoclinic'
loop_
_space_group_symop_operation_xyz
x,y,z
-x,y,1/2-z
-x,-y,-z
x,-y,1/2+z
1/2+x,1/2+y,z
1/2-x,1/2+y,1/2-z
1/2-x,1/2-y,-z
1/2+x,1/2-y,1/2+z
loop_
_atom_site_type_symbol
_atom_site_label
_atom_site_fract_x
_atom_site_fract_y
_atom_site_fract_z
Si Si1 0.686081 0.198061 0.319920
Si Si2 0.500000 0.398744 0.750000
Si Si3 0.978920 0.487623 0.192969
Si Si4 0.778454 0.821484 0.071469
Si Si5 0.671117 0.601750 0.710789
Si Si6 0.861576 0.632022 0.381738
Si Si7 0.700475 0.437802 0.030353
O O1 0.609702 0.053491 0.316767
O O2 0.670797 0.321948 0.378390
O O3 0.700761 0.352431 0.268279
O O4 0.770183 0.075255 0.319398
O O5 0.576183 0.535912 0.722286
O O6 0.523595 0.257350 0.799185
O O7 0.000000 0.587945 0.250000
O O8 0.046109 0.550565 0.138988
O O9 0.759092 0.588909 0.057221
O O10 0.693064 0.948106 0.087454
O O11 0.834654 0.931018 0.016744
O O12 0.678712 0.799026 0.670781
O O13 0.867210 0.831914 0.420828
O O14 0.750000 0.250000 0.000000
#
# Coordination Sequence:
#
# PCOD8142203 Si02
#       7
#     8   4   8   8   8   8   8
#     4  12  22  35  58  91 127 156 207 261 304 372
#     4  10  22  40  56  84 132 172 204 242 306 382
#     4  10  22  38  52  85 127 164 203 243 307 378
#     4  10  21  38  63  94 117 158 210 265 302 365
#     4  12  21  35  59  91 124 165 200 248 315 372
#     4  11  20  39  63  88 123 166 201 252 314 375
#     4   9  20  39  65  89 119 159 216 251 311 365
#
# _framework density 20.028314000000002
#
# number of rings (size 3 to 8) (size 9 to 14) (size 15 to 20)
#    0.462    0.923    3.077    3.692    0.000    0.000 
#    0.000    0.769    0.000    8.308    0.000    0.000 
#    0.000    0.000    0.000    0.000    0.000    0.000 
#
# Total GULP energy -322251.271826 kJ/mol
# GULP energy per Si atom -12394.279686 kJ/mol
# Density = 1.998273 g / cm^3
# Si number density = 20.028314 Si / 1000 Ang^3
#
#
#
# Elastic Constant Matrix: (Units=GPa)
#
#
# Indices 1 2 3 4 5 6 
#
# 1 80.5156 15.8433 15.3437 0.0000 -5.2059 0.0000
# 2 15.8433 91.8268 35.2909 0.0000 -4.2717 0.0000
# 3 15.3437 35.2909 118.9599 0.0000 4.3960 0.0000
# 4 0.0000 0.0000 0.0000 42.0119 0.0000 -2.2436
# 5 -5.2059 -4.2717 4.3960 0.0000 24.0623 0.0000
# 6 0.0000 0.0000 0.0000 -2.2436 0.0000 21.8657
#
#
#
# Elastic Compliance Matrix: (Units=1/GPa)
#
#
# Indices 1 2 3 4 5 6 
#
# 1 0.013174 -0.001636 -0.001317 0.000000 0.002800 0.000000
# 2 -0.001636 0.012694 -0.003650 0.000000 0.002566 0.000000
# 3 -0.001317 -0.003650 0.009759 0.000000 -0.002716 0.000000
# 4 0.000000 0.000000 0.000000 0.023934 0.000000 0.002456
# 5 0.002800 0.002566 -0.002716 0.000000 0.043116 0.000000
# 6 0.000000 0.000000 0.000000 0.002456 0.000000 0.045986
#
#
# Mechanical properties :
#
#
# Convention : Reuss Voigt Hill
#
# Bulk Modulus (GPa) = 44.60133 47.13979 45.87056
# Shear Modulus (GPa) = 29.52564 32.57626 31.05095
#
# Velocity S-wave (km/s) = 3.84369 4.03738 3.94172
# Velocity P-wave (km/s) = 6.48198 6.73213 6.60824
#
# Compressibility (1/GPa) = 0.02242086
#
# Stress axis : x y z
#
# Youngs Moduli (GPa) = 75.90676 78.77454 102.46757
#
# Poissons Ratio (x) = 0.12891 0.13497
# Poissons Ratio (y) = 0.12422 0.37398
# Poissons Ratio (z) = 0.09999 0.28751
#
# Static dielectric constant tensor:
#      x y z
#    x 3.166060 0.000000 -0.198590 
#    y 0.000000 3.798370 0.000000 
#    z -0.198590 0.000000 4.112470 
# 
# 
# High freq. dielectric constant tensor:
#      x y z
#    x 1.737420 0.000000 -0.014860 
#    y 0.000000 1.796760 0.000000 
#    z -0.014860 0.000000 1.792530 
# 
# From -- ./inp_files/297498.got.cif
#   From: 2010.06.25/outbox.cif.g09.slc.cpg/sg15_149_cif.got.tgz:297498.got - 2010.06.28 07:06:18.
