data_PCOD8142270
_publ_section_title
;
Structure prediction by ZEFSAII (Michael W. Deem and Ramdas Pophale) SiO2 
 PCOD8142270
Probable space group: C 2/C
;
_chemical_formula_sum "Si O2"
_cell_formula_units_Z 56
_cell_length_a 12.567344
_cell_length_b 14.612163
_cell_length_c 14.560321
_cell_angle_alpha 90.000000
_cell_angle_beta 103.503369
_cell_angle_gamma 90.000000
_cell_volume 2599.886237
_symmetry_space_group_name_H-M "C 2/C"
_symmetry_group_IT_number 15
_symmetry_cell_setting 'monoclinic'
loop_
_space_group_symop_operation_xyz
x,y,z
-x,y,1/2-z
-x,-y,-z
x,-y,1/2+z
1/2+x,1/2+y,z
1/2-x,1/2+y,1/2-z
1/2-x,1/2-y,-z
1/2+x,1/2-y,1/2+z
loop_
_atom_site_type_symbol
_atom_site_label
_atom_site_fract_x
_atom_site_fract_y
_atom_site_fract_z
Si Si1 0.878248 0.852692 0.840055
Si Si2 0.032134 0.005403 0.901816
Si Si3 0.234295 0.776479 0.855808
Si Si4 0.962911 0.802155 0.340358
Si Si5 0.145532 0.371250 0.460376
Si Si6 0.249239 0.557772 0.478722
Si Si7 0.575951 0.804736 0.019756
O O1 0.821527 0.841045 0.730555
O O2 0.800272 0.907584 0.893961
O O3 0.901375 0.752087 0.883661
O O4 0.991730 0.909906 0.847797
O O5 0.967290 0.087795 0.839580
O O6 0.162535 0.023436 0.927249
O O7 0.000000 0.000000 0.000000
O O8 0.340708 0.728533 0.835535
O O9 0.152298 0.696780 0.874273
O O10 0.263861 0.840901 0.947223
O O11 0.000000 0.761778 0.250000
O O12 0.047812 0.766867 0.433728
O O13 0.170188 0.474453 0.434649
O O14 0.025494 0.371524 0.481007
O O15 0.181970 0.638332 0.513494
#
# Coordination Sequence:
#
# PCOD8142270 Si02
#       7
#     8   8   8   8   8   8   8
#     4  11  23  41  69 100 132 171 228 281 330 404
#     4  10  21  38  64  97 133 167 217 279 334 385
#     4  10  23  42  68  94 132 184 221 273 343 406
#     4  11  22  39  65  99 132 175 222 282 338 403
#     4  10  24  44  66  91 139 177 222 272 341 404
#     4  11  22  41  70  99 133 175 219 284 336 390
#     4  11  23  42  68  95 134 178 225 270 337 404
#
# _framework density 21.539404000000001
#
# number of rings (size 3 to 8) (size 9 to 14) (size 15 to 20)
#    0.000    1.429    2.857    3.429    6.000    1.714 
#    2.571    0.000    9.429    0.000    0.000    0.000 
#    0.000    0.000    0.000    0.000    0.000    0.000 
#
# Total GULP energy -347271.880156 kJ/mol
# GULP energy per Si atom -12402.567148 kJ/mol
# Density = 2.149038 g / cm^3
# Si number density = 21.539404 Si / 1000 Ang^3
#
#
#
# Elastic Constant Matrix: (Units=GPa)
#
#
# Indices 1 2 3 4 5 6 
#
# 1 85.0585 39.5632 34.1764 0.0000 -1.5993 0.0000
# 2 39.5632 117.4747 28.4454 0.0000 3.8318 0.0000
# 3 34.1764 28.4454 97.1705 0.0000 6.1649 0.0000
# 4 0.0000 0.0000 0.0000 27.7953 0.0000 -7.0635
# 5 -1.5993 3.8318 6.1649 0.0000 26.9894 0.0000
# 6 0.0000 0.0000 0.0000 -7.0635 0.0000 24.4092
#
#
#
# Elastic Compliance Matrix: (Units=1/GPa)
#
#
# Indices 1 2 3 4 5 6 
#
# 1 0.015544 -0.004257 -0.004381 0.000000 0.002526 0.000000
# 2 -0.004257 0.010340 -0.001442 0.000000 -0.001391 0.000000
# 3 -0.004381 -0.001442 0.012438 0.000000 -0.002896 0.000000
# 4 0.000000 0.000000 0.000000 0.038833 0.000000 0.011237
# 5 0.002526 -0.001391 -0.002896 0.000000 0.038060 0.000000
# 6 0.000000 0.000000 0.000000 0.011237 0.000000 0.044220
#
#
# Mechanical properties :
#
#
# Convention : Reuss Voigt Hill
#
# Bulk Modulus (GPa) = 55.05546 56.00820 55.53183
# Shear Modulus (GPa) = 26.93242 29.00670 27.96956
#
# Velocity S-wave (km/s) = 3.53991 3.67370 3.60742
# Velocity P-wave (km/s) = 6.50567 6.63731 6.57182
#
# Compressibility (1/GPa) = 0.01816350
#
# Stress axis : x y z
#
# Youngs Moduli (GPa) = 64.33180 96.70760 80.39881
#
# Poissons Ratio (x) = 0.41164 0.35226
# Poissons Ratio (y) = 0.27383 0.11591
# Poissons Ratio (z) = 0.28187 0.13942
#
# Static dielectric constant tensor:
#      x y z
#    x 4.035160 0.000000 0.053310 
#    y 0.000000 3.954540 0.000000 
#    z 0.053310 0.000000 3.840890 
# 
# 
# High freq. dielectric constant tensor:
#      x y z
#    x 1.851090 0.000000 -0.008590 
#    y 0.000000 1.849250 0.000000 
#    z -0.008590 0.000000 1.836000 
# 
# From -- ./inp_files/144217.got.cif
#   From: 2010.06.25/outbox.cif.g09.slc.cpg/sg15_73_cif.got.tgz:144217.got - 2010.06.28 07:06:18.
