data_PCOD8142392
_publ_section_title
;
Structure prediction by ZEFSAII (Michael W. Deem and Ramdas Pophale) SiO2 
 PCOD8142392
Probable space group: C 2/C
;
_chemical_formula_sum "Si O2"
_cell_formula_units_Z 36
_cell_length_a 23.474906
_cell_length_b 14.814716
_cell_length_c 14.742711
_cell_angle_alpha 90.000000
_cell_angle_beta 159.937810
_cell_angle_gamma 90.000000
_cell_volume 1758.811050
_symmetry_space_group_name_H-M "C 2/C"
_symmetry_group_IT_number 15
_symmetry_cell_setting 'monoclinic'
loop_
_space_group_symop_operation_xyz
x,y,z
-x,y,1/2-z
-x,-y,-z
x,-y,1/2+z
1/2+x,1/2+y,z
1/2-x,1/2+y,1/2-z
1/2-x,1/2-y,-z
1/2+x,1/2-y,1/2+z
loop_
_atom_site_type_symbol
_atom_site_label
_atom_site_fract_x
_atom_site_fract_y
_atom_site_fract_z
Si Si1 0.434369 0.217949 0.753028
Si Si2 0.914593 0.512139 0.776824
Si Si3 0.835717 0.776863 0.246372
Si Si4 0.142193 0.116231 0.889065
Si Si5 0.500000 0.882599 0.750000
O O1 0.500000 0.239980 0.750000
O O2 0.250000 0.250000 0.500000
O O3 0.438882 0.111899 0.776164
O O4 0.555032 0.273018 0.000374
O O5 0.718431 0.483879 0.487191
O O6 0.005888 0.444633 0.846282
O O7 0.000000 0.500000 0.000000
O O8 0.930139 0.838256 0.311477
O O9 0.801457 0.675935 0.158604
O O10 0.657302 0.819140 0.998478
O O11 0.000000 0.109293 0.750000
#
# Coordination Sequence:
#
# PCOD8142392 Si02
#       5
#     8   8   8   8   4
#     4  12  29  46  66  98 142 184 219 273 347 410
#     4  11  23  42  66  95 134 173 214 275 339 396
#     4  10  22  40  70  98 129 172 225 278 330 400
#     4  10  21  38  70 101 125 165 231 284 323 390
#     4  10  22  44  70 100 126 170 226 280 326 392
#
# _framework density 20.468371999999999
#
# number of rings (size 3 to 8) (size 9 to 14) (size 15 to 20)
#    0.000    1.333    4.444    0.000    6.222    0.889 
#    0.000    2.222    0.000    0.000    0.000    0.000 
#    0.000    0.000    0.000    0.000    0.000    0.000 
#
# Total GULP energy -223151.133966 kJ/mol
# GULP energy per Si atom -12397.285220 kJ/mol
# Density = 2.042179 g / cm^3
# Si number density = 20.468372 Si / 1000 Ang^3
#
#
#
# Elastic Constant Matrix: (Units=GPa)
#
#
# Indices 1 2 3 4 5 6 
#
# 1 182.0818 43.0018 75.0483 0.0000 -4.7824 0.0000
# 2 43.0018 71.3732 41.5640 0.0000 -4.0545 0.0000
# 3 75.0483 41.5640 111.7092 0.0000 -14.2786 0.0000
# 4 0.0000 0.0000 0.0000 18.5390 0.0000 -5.9570
# 5 -4.7824 -4.0545 -14.2786 0.0000 47.4336 0.0000
# 6 0.0000 0.0000 0.0000 -5.9570 0.0000 31.5863
#
#
#
# Elastic Compliance Matrix: (Units=1/GPa)
#
#
# Indices 1 2 3 4 5 6 
#
# 1 0.007864 -0.002104 -0.004599 0.000000 -0.000771 0.000000
# 2 -0.002104 0.018460 -0.005492 0.000000 -0.000287 0.000000
# 3 -0.004599 -0.005492 0.014525 0.000000 0.003439 0.000000
# 4 0.000000 0.000000 0.000000 0.057420 0.000000 0.010829
# 5 -0.000771 -0.000287 0.003439 0.000000 0.022015 0.000000
# 6 0.000000 0.000000 0.000000 0.010829 0.000000 0.033702
#
#
# Mechanical properties :
#
#
# Convention : Reuss Voigt Hill
#
# Bulk Modulus (GPa) = 60.75567 76.04359 68.39963
# Shear Modulus (GPa) = 27.19433 33.21514 30.20473
#
# Velocity S-wave (km/s) = 3.64895 4.03271 3.84562
# Velocity P-wave (km/s) = 6.89205 7.67568 7.29440
#
# Compressibility (1/GPa) = 0.01645937
#
# Stress axis : x y z
#
# Youngs Moduli (GPa) = 127.15782 54.17057 68.84821
#
# Poissons Ratio (x) = 0.11395 0.31665
# Poissons Ratio (y) = 0.26749 0.37812
# Poissons Ratio (z) = 0.58483 0.29751
#
# Static dielectric constant tensor:
#      x y z
#    x 4.082640 0.000000 0.035020 
#    y 0.000000 -1.070130 0.000000 
#    z 0.035020 0.000000 3.653380 
# 
# 
# High freq. dielectric constant tensor:
#      x y z
#    x 1.823960 0.000000 0.000220 
#    y 0.000000 1.806970 0.000000 
#    z 0.000220 0.000000 1.781470 
# 
# From -- ./inp_files/85084.got.cif
#   From: 2010.06.25/outbox.cif.g09.slc.cpg/sg15_43_cif.got.tgz:85084.got - 2010.06.28 07:06:18.
