data_PCOD8142706
_publ_section_title
;
Structure prediction by ZEFSAII (Michael W. Deem and Ramdas Pophale) SiO2 
 PCOD8142706
Probable space group: C 2/C
;
_chemical_formula_sum "Si O2"
_cell_formula_units_Z 48
_cell_length_a 29.065905
_cell_length_b 14.743665
_cell_length_c 9.292408
_cell_angle_alpha 90.000000
_cell_angle_beta 144.461983
_cell_angle_gamma 90.000000
_cell_volume 2314.596640
_symmetry_space_group_name_H-M "C 2/C"
_symmetry_group_IT_number 15
_symmetry_cell_setting 'monoclinic'
loop_
_space_group_symop_operation_xyz
x,y,z
-x,y,1/2-z
-x,-y,-z
x,-y,1/2+z
1/2+x,1/2+y,z
1/2-x,1/2+y,1/2-z
1/2-x,1/2-y,-z
1/2+x,1/2-y,1/2+z
loop_
_atom_site_type_symbol
_atom_site_label
_atom_site_fract_x
_atom_site_fract_y
_atom_site_fract_z
Si Si1 0.324162 0.822161 0.025989
Si Si2 0.555578 0.967679 0.268103
Si Si3 0.701497 0.610793 0.993454
Si Si4 0.702056 0.931797 0.259862
Si Si5 0.443014 0.522314 0.728603
Si Si6 0.330955 0.357755 0.397364
O O1 0.395271 0.886780 0.170081
O O2 0.297368 0.850610 0.119348
O O3 0.253033 0.830311 0.732643
O O4 0.354865 0.719987 0.074894
O O5 0.500000 0.928083 0.250000
O O6 0.612873 0.044925 0.482024
O O7 0.500000 0.000000 0.000000
O O8 0.748815 0.520139 0.059785
O O9 0.622334 0.592612 0.883002
O O10 0.681282 0.671160 0.800790
O O11 0.747243 0.898348 0.234154
O O12 0.500000 0.563952 0.750000
O O13 0.400694 0.430909 0.568051
O O14 0.500000 0.500000 0.000000
#
# Coordination Sequence:
#
# PCOD8142706 Si02
#       6
#     8   8   8   8   8   8
#     4  11  23  39  61  91 121 156 202 259 305 354
#     4  11  22  40  65  87 120 161 205 245 301 372
#     4  10  21  39  64  89 119 164 209 242 303 372
#     4  10  21  39  64  87 120 164 209 242 300 371
#     4  11  22  40  65  87 121 163 207 247 303 372
#     4  11  23  39  61  90 123 157 201 260 303 355
#
# _framework density 20.737953999999998
#
# number of rings (size 3 to 8) (size 9 to 14) (size 15 to 20)
#    0.000    1.333    3.333    4.000    4.667    0.667 
#    0.000    0.000    0.000    0.000    0.000    0.000 
#    0.000    0.000    0.000    0.000    0.000    0.000 
#
# Total GULP energy -297440.600195 kJ/mol
# GULP energy per Si atom -12393.358341 kJ/mol
# Density = 2.069075 g / cm^3
# Si number density = 20.737954 Si / 1000 Ang^3
#
#
#
# Elastic Constant Matrix: (Units=GPa)
#
#
# Indices 1 2 3 4 5 6 
#
# 1 139.5545 13.4399 43.4690 0.0000 -3.2102 0.0000
# 2 13.4399 43.5059 -0.5667 0.0000 -0.0509 0.0000
# 3 43.4690 -0.5667 104.0772 0.0000 2.0302 0.0000
# 4 0.0000 0.0000 0.0000 13.9814 0.0000 -13.1916
# 5 -3.2102 -0.0509 2.0302 0.0000 35.3514 0.0000
# 6 0.0000 0.0000 0.0000 -13.1916 0.0000 20.9878
#
#
#
# Elastic Compliance Matrix: (Units=1/GPa)
#
#
# Indices 1 2 3 4 5 6 
#
# 1 0.008574 -0.002695 -0.003615 0.000000 0.000982 0.000000
# 2 -0.002695 0.023834 0.001261 0.000000 -0.000283 0.000000
# 3 -0.003615 0.001261 0.011144 0.000000 -0.000966 0.000000
# 4 0.000000 0.000000 0.000000 0.175746 0.000000 0.110463
# 5 0.000982 -0.000283 -0.000966 0.000000 0.028432 0.000000
# 6 0.000000 0.000000 0.000000 0.110463 0.000000 0.117077
#
#
# Mechanical properties :
#
#
# Convention : Reuss Voigt Hill
#
# Bulk Modulus (GPa) = 29.89169 44.42467 37.15818
# Shear Modulus (GPa) = 12.95154 29.45049 21.20101
#
# Velocity S-wave (km/s) = 2.50178 3.77254 3.20086
# Velocity P-wave (km/s) = 4.77394 6.35960 5.62294
#
# Compressibility (1/GPa) = 0.03345411
#
# Stress axis : x y z
#
# Youngs Moduli (GPa) = 116.63593 41.95711 89.73678
#
# Poissons Ratio (x) = 0.11305 0.32437
# Poissons Ratio (y) = 0.31428 -0.11313
# Poissons Ratio (z) = 0.42161 -0.05290
#
# Static dielectric constant tensor:
#      x y z
#    x 3.918540 0.000000 -0.063640 
#    y 0.000000 3.697930 0.000000 
#    z -0.063640 0.000000 3.833470 
# 
# 
# High freq. dielectric constant tensor:
#      x y z
#    x 1.835070 0.000000 -0.001600 
#    y 0.000000 1.778980 0.000000 
#    z -0.001600 0.000000 1.820060 
# 
# From -- ./inp_files/66384.got.cif
#   From: 2010.06.25/outbox.cif.g09.slc.cpg/sg15_34_cif.got.tgz:66384.got - 2010.06.28 07:06:18.
