data_PCOD8142573
_publ_section_title
;
Structure prediction by ZEFSAII (Michael W. Deem and Ramdas Pophale) SiO2 
 PCOD8142573
Probable space group: C 2/C
;
_chemical_formula_sum "Si O2"
_cell_formula_units_Z 60
_cell_length_a 15.153733
_cell_length_b 8.403762
_cell_length_c 25.546108
_cell_angle_alpha 90.000000
_cell_angle_beta 67.652703
_cell_angle_gamma 90.000000
_cell_volume 3008.923171
_symmetry_space_group_name_H-M "C 2/C"
_symmetry_group_IT_number 15
_symmetry_cell_setting 'monoclinic'
loop_
_space_group_symop_operation_xyz
x,y,z
-x,y,1/2-z
-x,-y,-z
x,-y,1/2+z
1/2+x,1/2+y,z
1/2-x,1/2+y,1/2-z
1/2-x,1/2-y,-z
1/2+x,1/2-y,1/2+z
loop_
_atom_site_type_symbol
_atom_site_label
_atom_site_fract_x
_atom_site_fract_y
_atom_site_fract_z
Si Si1 0.113250 0.486683 0.647316
Si Si2 0.000000 0.314696 0.250000
Si Si3 0.571631 0.457753 0.438695
Si Si4 0.985916 0.822372 0.356868
Si Si5 0.117303 0.065854 0.273160
Si Si6 0.199461 0.011321 0.643148
Si Si7 0.701834 0.316166 0.854631
Si Si8 0.257602 0.783670 0.437325
O O1 0.081936 0.577556 0.706584
O O2 0.027721 0.367852 0.648547
O O3 0.204644 0.386554 0.641115
O O4 0.146678 0.611463 0.594889
O O5 0.961628 0.205173 0.211137
O O6 0.500000 0.500000 0.500000
O O7 0.517399 0.346319 0.409496
O O8 0.604916 0.622082 0.403739
O O9 0.663187 0.373063 0.441167
O O10 0.885138 0.905714 0.369667
O O11 0.067749 0.897667 0.300409
O O12 0.161629 0.058098 0.205934
O O13 0.197905 0.126079 0.295208
O O14 0.240755 0.876574 0.596601
O O15 0.287462 0.127361 0.639096
O O16 0.250000 0.750000 0.500000
#
# Coordination Sequence:
#
# PCOD8142573 Si02
#       8
#     8   4   8   8   8   8   8   8
#     4  10  23  40  58  95 123 164 205 255 309 382
#     4  12  22  34  58  88 130 152 202 248 306 366
#     4  10  22  42  63  86 117 157 210 260 302 367
#     4  10  21  39  62  88 123 161 204 253 314 369
#     4  11  21  37  58  90 123 166 197 254 308 376
#     4  11  21  39  60  87 121 161 203 250 315 371
#     4   9  24  38  60  87 122 160 207 245 314 370
#     4  11  23  42  64  88 123 165 208 262 315 372
#
# _framework density 19.940688999999999
#
# number of rings (size 3 to 8) (size 9 to 14) (size 15 to 20)
#    0.000    1.600    2.667    0.800    5.600    4.267 
#    0.000    5.333    0.000    0.000    0.000    0.000 
#    0.000    0.000    0.000    0.000    0.000    0.000 
#
# Total GULP energy -371929.856196 kJ/mol
# GULP energy per Si atom -12397.661873 kJ/mol
# Density = 1.989530 g / cm^3
# Si number density = 19.940689 Si / 1000 Ang^3
#
#
#
# Elastic Constant Matrix: (Units=GPa)
#
#
# Indices 1 2 3 4 5 6 
#
# 1 67.9143 35.8116 37.3758 0.0000 10.2710 0.0000
# 2 35.8116 122.6251 53.1499 -0.0001 -0.5187 0.0000
# 3 37.3758 53.1499 144.6963 0.0000 4.5475 0.0000
# 4 0.0000 -0.0001 0.0000 23.5787 0.0000 -2.2103
# 5 10.2710 -0.5187 4.5475 0.0000 30.6700 0.0000
# 6 0.0000 0.0000 0.0000 -2.2103 0.0000 32.1208
#
#
#
# Elastic Compliance Matrix: (Units=1/GPa)
#
#
# Indices 1 2 3 4 5 6 
#
# 1 0.019791 -0.004371 -0.003311 0.000000 -0.006211 0.000000
# 2 -0.004371 0.010679 -0.002859 0.000000 0.002068 0.000000
# 3 -0.003311 -0.002859 0.008824 0.000000 -0.000248 0.000000
# 4 0.000000 0.000000 0.000000 0.042687 0.000000 0.002937
# 5 -0.006211 0.002068 -0.000248 0.000000 0.034757 0.000000
# 6 0.000000 0.000000 0.000000 0.002937 0.000000 0.031335
#
#
# Mechanical properties :
#
#
# Convention : Reuss Voigt Hill
#
# Bulk Modulus (GPa) = 54.90727 65.32336 60.11531
# Shear Modulus (GPa) = 28.53481 31.20046 29.86763
#
# Velocity S-wave (km/s) = 3.78694 3.95987 3.87437
# Velocity P-wave (km/s) = 6.83493 7.33058 7.08709
#
# Compressibility (1/GPa) = 0.01821252
#
# Stress axis : x y z
#
# Youngs Moduli (GPa) = 50.52854 93.64023 113.32436
#
# Poissons Ratio (x) = 0.40928 0.37526
# Poissons Ratio (y) = 0.22085 0.32396
# Poissons Ratio (z) = 0.16732 0.26769
#
# Static dielectric constant tensor:
#      x y z
#    x 3.769990 0.000000 -0.013480 
#    y 0.000000 4.001100 0.000000 
#    z -0.013480 0.000000 3.595970 
# 
# 
# High freq. dielectric constant tensor:
#      x y z
#    x 1.779390 0.000000 0.003720 
#    y 0.000000 1.784670 0.000000 
#    z 0.003720 0.000000 1.773490 
# 
# From -- ./inp_files/272808.got.cif
#   From: 2010.06.25/outbox.cif.g09.slc.cpg/sg15_137_cif.got.tgz:272808.got - 2010.06.28 07:06:18.
