data_PCOD8142527
_publ_section_title
;
Structure prediction by ZEFSAII (Michael W. Deem and Ramdas Pophale) SiO2 
 PCOD8142527
Probable space group: C 2/C
;
_chemical_formula_sum "Si O2"
_cell_formula_units_Z 48
_cell_length_a 17.768276
_cell_length_b 8.819187
_cell_length_c 31.160237
_cell_angle_alpha 90.000000
_cell_angle_beta 150.972039
_cell_angle_gamma 90.000000
_cell_volume 2369.343105
_symmetry_space_group_name_H-M "C 2/C"
_symmetry_group_IT_number 15
_symmetry_cell_setting 'monoclinic'
loop_
_space_group_symop_operation_xyz
x,y,z
-x,y,1/2-z
-x,-y,-z
x,-y,1/2+z
1/2+x,1/2+y,z
1/2-x,1/2+y,1/2-z
1/2-x,1/2-y,-z
1/2+x,1/2-y,1/2+z
loop_
_atom_site_type_symbol
_atom_site_label
_atom_site_fract_x
_atom_site_fract_y
_atom_site_fract_z
Si Si1 0.821282 0.154405 0.249868
Si Si2 0.306524 0.697033 0.734254
Si Si3 0.807994 0.153355 0.405567
Si Si4 0.838591 0.785062 0.087608
Si Si5 0.389886 0.596327 0.155810
Si Si6 0.664813 0.306439 0.095292
O O1 0.809412 0.211006 0.292705
O O2 0.699720 0.246208 0.160178
O O3 0.997678 0.182257 0.321875
O O4 0.775847 0.979424 0.225140
O O5 0.275404 0.737530 0.669639
O O6 0.481755 0.741653 0.832897
O O7 0.723573 0.165428 0.408959
O O8 0.984200 0.209628 0.495798
O O9 0.786681 0.980900 0.380808
O O10 0.809524 0.954146 0.092082
O O11 0.750000 0.750000 0.000000
O O12 0.500000 0.539185 0.250000
O O13 0.258666 0.711676 0.106276
#
# Coordination Sequence:
#
# PCOD8142527 Si02
#       6
#     8   8   8   8   8   8
#     4  10  21  39  61  88 118 155 195 240 289 344
#     4  11  23  38  61  88 119 154 196 241 290 350
#     4  11  23  39  59  88 119 153 196 241 290 348
#     4  11  23  39  60  86 117 152 195 244 293 348
#     4   9  20  40  62  85 118 156 194 240 291 347
#     4  10  22  39  60  86 120 155 194 241 289 345
#
# _framework density 20.258780000000002
#
# number of rings (size 3 to 8) (size 9 to 14) (size 15 to 20)
#    0.000    1.667    0.000    5.500    0.000   13.333 
#    0.000    1.667    0.000    0.000    0.000    0.000 
#    0.000    0.000    0.000    0.000    0.000    0.000 
#
# Total GULP energy -297695.247001 kJ/mol
# GULP energy per Si atom -12403.968625 kJ/mol
# Density = 2.021267 g / cm^3
# Si number density = 20.258780 Si / 1000 Ang^3
#
#
#
# Elastic Constant Matrix: (Units=GPa)
#
#
# Indices 1 2 3 4 5 6 
#
# 1 125.6525 43.8570 35.9208 0.0000 -11.7142 0.0002
# 2 43.8570 101.4185 51.5310 0.0000 1.6031 0.0004
# 3 35.9208 51.5310 99.2444 -0.0002 -11.8536 0.0000
# 4 0.0000 0.0000 -0.0002 33.1723 0.0000 -2.8175
# 5 -11.7142 1.6031 -11.8536 0.0000 33.2234 0.0000
# 6 0.0002 0.0004 0.0000 -2.8175 0.0000 39.3848
#
#
#
# Elastic Compliance Matrix: (Units=1/GPa)
#
#
# Indices 1 2 3 4 5 6 
#
# 1 0.009912 -0.003680 -0.001293 0.000000 0.003211 0.000000
# 2 -0.003680 0.015108 -0.007055 0.000000 -0.004544 0.000000
# 3 -0.001293 -0.007055 0.014826 0.000000 0.005174 0.000000
# 4 0.000000 0.000000 0.000000 0.030330 0.000000 0.002170
# 5 0.003211 -0.004544 0.005174 0.000000 0.033297 0.000000
# 6 0.000000 0.000000 0.000000 0.002170 0.000000 0.025546
#
#
# Mechanical properties :
#
#
# Convention : Reuss Voigt Hill
#
# Bulk Modulus (GPa) = 63.33756 65.43699 64.38727
# Shear Modulus (GPa) = 31.57796 34.15652 32.86724
#
# Velocity S-wave (km/s) = 3.95236 4.11056 4.03224
# Velocity P-wave (km/s) = 7.22221 7.40943 7.31642
#
# Compressibility (1/GPa) = 0.01578842
#
# Stress axis : x y z
#
# Youngs Moduli (GPa) = 100.88833 66.18931 67.45071
#
# Poissons Ratio (x) = 0.24357 0.08723
# Poissons Ratio (y) = 0.37126 0.47590
# Poissons Ratio (z) = 0.13048 0.46700
#
# Static dielectric constant tensor:
#      x y z
#    x 3.897110 0.000000 0.057580 
#    y 0.000000 3.639290 0.000000 
#    z 0.057580 0.000000 3.544280 
# 
# 
# High freq. dielectric constant tensor:
#      x y z
#    x 1.810480 0.000000 0.002450 
#    y 0.000000 1.795280 0.000000 
#    z 0.002450 0.000000 1.782540 
# 
# From -- ./inp_files/224535.got.cif
#   From: 2010.06.25/outbox.cif.g09.slc.cpg/sg15_113_cif.got.tgz:224535.got - 2010.06.28 07:06:18.
