data_PCOD8142330
_publ_section_title
;
Structure prediction by ZEFSAII (Michael W. Deem and Ramdas Pophale) SiO2 
 PCOD8142330
Probable space group: C 2/C
;
_chemical_formula_sum "Si O2"
_cell_formula_units_Z 36
_cell_length_a 7.798560
_cell_length_b 23.078425
_cell_length_c 14.271878
_cell_angle_alpha 90.000000
_cell_angle_beta 137.226945
_cell_angle_gamma 90.000000
_cell_volume 1744.347436
_symmetry_space_group_name_H-M "C 2/C"
_symmetry_group_IT_number 15
_symmetry_cell_setting 'monoclinic'
loop_
_space_group_symop_operation_xyz
x,y,z
-x,y,1/2-z
-x,-y,-z
x,-y,1/2+z
1/2+x,1/2+y,z
1/2-x,1/2+y,1/2-z
1/2-x,1/2-y,-z
1/2+x,1/2-y,1/2+z
loop_
_atom_site_type_symbol
_atom_site_label
_atom_site_fract_x
_atom_site_fract_y
_atom_site_fract_z
Si Si1 0.710409 0.787242 0.112624
Si Si2 0.180839 0.624354 0.742160
Si Si3 0.181289 0.833497 0.533505
Si Si4 0.218957 0.495512 0.166812
Si Si5 0.000000 0.431809 0.750000
O O1 0.553979 0.824873 0.126494
O O2 0.660578 0.718401 0.101977
O O3 0.000000 0.802529 0.250000
O O4 0.641030 0.809743 0.980019
O O5 0.258342 0.571684 0.706607
O O6 0.000000 0.600527 0.750000
O O7 0.408533 0.652321 0.888437
O O8 0.287154 0.891636 0.620190
O O9 0.500000 0.518735 0.250000
O O10 0.130557 0.529645 0.223123
O O11 0.000000 0.500000 0.000000
#
# Coordination Sequence:
#
# PCOD8142330 Si02
#       5
#     8   8   8   8   4
#     4   9  18  39  63  90 125 170 218 263 332 394
#     4  11  23  40  63  94 132 171 219 273 331 393
#     4  10  21  38  66  93 126 171 217 270 329 394
#     4  12  27  46  69  98 136 181 226 279 335 398
#     4  12  24  42  70 100 132 170 230 270 332 402
#
# _framework density 20.638090999999999
#
# number of rings (size 3 to 8) (size 9 to 14) (size 15 to 20)
#    0.000    1.333    2.222    4.667    3.111    2.667 
#    0.000    1.111    0.000    0.000    0.000    0.000 
#    0.000    0.000    0.000    0.000    0.000    0.000 
#
# Total GULP energy -223095.437215 kJ/mol
# GULP energy per Si atom -12394.190956 kJ/mol
# Density = 2.059112 g / cm^3
# Si number density = 20.638091 Si / 1000 Ang^3
#
#
#
# Elastic Constant Matrix: (Units=GPa)
#
#
# Indices 1 2 3 4 5 6 
#
# 1 112.4033 51.3358 42.1298 0.0000 -10.8718 0.0000
# 2 51.3358 133.6855 38.2347 0.0000 -14.8840 0.0000
# 3 42.1298 38.2347 86.4815 0.0000 -13.8635 0.0000
# 4 0.0000 0.0000 0.0000 57.8666 0.0000 -4.2403
# 5 -10.8718 -14.8840 -13.8635 0.0000 20.6018 0.0000
# 6 0.0000 0.0000 0.0000 -4.2403 0.0000 33.5842
#
#
#
# Elastic Compliance Matrix: (Units=1/GPa)
#
#
# Indices 1 2 3 4 5 6 
#
# 1 0.012112 -0.003307 -0.004256 0.000000 0.001139 0.000000
# 2 -0.003307 0.009783 -0.002086 0.000000 0.003919 0.000000
# 3 -0.004256 -0.002086 0.015645 0.000000 0.006775 0.000000
# 4 0.000000 0.000000 0.000000 0.017442 0.000000 0.002202
# 5 0.001139 0.003919 0.006775 0.000000 0.056530 0.000000
# 6 0.000000 0.000000 0.000000 0.002202 0.000000 0.030054
#
#
# Mechanical properties :
#
#
# Convention : Reuss Voigt Hill
#
# Bulk Modulus (GPa) = 54.81812 66.21898 60.51855
# Shear Modulus (GPa) = 29.94989 35.80187 32.87588
#
# Velocity S-wave (km/s) = 3.81359 4.16955 3.99553
# Velocity P-wave (km/s) = 6.78311 7.43879 7.11850
#
# Compressibility (1/GPa) = 0.01824214
#
# Stress axis : x y z
#
# Youngs Moduli (GPa) = 82.56125 102.21686 63.91950
#
# Poissons Ratio (x) = 0.33805 0.27203
# Poissons Ratio (y) = 0.27305 0.13333
# Poissons Ratio (z) = 0.35137 0.21322
#
# Static dielectric constant tensor:
#      x y z
#    x 4.032240 0.000000 -0.682350 
#    y 0.000000 3.856870 0.000000 
#    z -0.682350 0.000000 4.687460 
# 
# 
# High freq. dielectric constant tensor:
#      x y z
#    x 1.786480 0.000000 -0.022760 
#    y 0.000000 1.825280 0.000000 
#    z -0.022760 0.000000 1.809950 
# 
# From -- ./inp_files/77587.got.cif
#   From: 2010.06.25/outbox.cif.g09.slc.cpg/sg15_39_cif.got.tgz:77587.got - 2010.06.28 07:06:18.
