data_PCOD8142852
_publ_section_title
;
Structure prediction by ZEFSAII (Michael W. Deem and Ramdas Pophale) SiO2 
 PCOD8142852
Probable space group: C 2/C
;
_chemical_formula_sum "Si O2"
_cell_formula_units_Z 40
_cell_length_a 18.605615
_cell_length_b 6.474976
_cell_length_c 15.924989
_cell_angle_alpha 90.000000
_cell_angle_beta 101.523837
_cell_angle_gamma 90.000000
_cell_volume 1879.824223
_symmetry_space_group_name_H-M "C 2/C"
_symmetry_group_IT_number 15
_symmetry_cell_setting 'monoclinic'
loop_
_space_group_symop_operation_xyz
x,y,z
-x,y,1/2-z
-x,-y,-z
x,-y,1/2+z
1/2+x,1/2+y,z
1/2-x,1/2+y,1/2-z
1/2-x,1/2-y,-z
1/2+x,1/2-y,1/2+z
loop_
_atom_site_type_symbol
_atom_site_label
_atom_site_fract_x
_atom_site_fract_y
_atom_site_fract_z
Si Si1 0.151032 0.167715 0.391663
Si Si2 0.720235 0.101386 0.615572
Si Si3 0.297596 0.042013 0.205674
Si Si4 0.081113 0.506878 0.481097
Si Si5 0.426104 0.712908 0.684162
O O1 0.177114 0.329586 0.328795
O O2 0.113919 0.282755 0.462475
O O3 0.220929 0.018275 0.431787
O O4 0.086533 0.028161 0.337195
O O5 0.738861 0.344967 0.630285
O O6 0.637439 0.093652 0.563439
O O7 0.732600 0.995902 0.708845
O O8 0.364442 0.201904 0.232340
O O9 0.077699 0.659612 0.402483
O O10 0.000000 0.500000 0.500000
O O11 0.500000 0.748159 0.750000
#
# Coordination Sequence:
#
# PCOD8142852 Si02
#       5
#     8   8   8   8   8
#     4  10  23  41  63  92 126 172 208 267 319 379
#     4  11  21  40  66  96 127 165 215 258 321 380
#     4  10  21  39  66  94 122 164 210 261 315 379
#     4  11  25  42  63  95 131 168 212 268 316 384
#     4  10  23  42  62  92 126 168 213 259 321 379
#
# _framework density 21.278585
#
# number of rings (size 3 to 8) (size 9 to 14) (size 15 to 20)
#    0.000    1.600    2.000    1.800    0.000   14.400 
#    0.000    0.000    0.000    0.000    0.000    0.000 
#    0.000    0.000    0.000    0.000    0.000    0.000 
#
# Total GULP energy -247920.237335 kJ/mol
# GULP energy per Si atom -12396.011867 kJ/mol
# Density = 2.123015 g / cm^3
# Si number density = 21.278585 Si / 1000 Ang^3
#
#
#
# Elastic Constant Matrix: (Units=GPa)
#
#
# Indices 1 2 3 4 5 6 
#
# 1 125.7567 29.6517 45.8216 0.0000 12.1236 0.0000
# 2 29.6517 114.5889 40.8563 0.0000 2.4291 0.0000
# 3 45.8216 40.8563 71.9316 0.0000 14.7265 0.0000
# 4 0.0000 0.0000 0.0000 -52.9490 0.0000 24.2689
# 5 12.1236 2.4291 14.7265 0.0000 46.9909 0.0000
# 6 0.0000 0.0000 0.0000 24.2689 0.0000 19.1665
#
#
#
# Elastic Compliance Matrix: (Units=1/GPa)
#
#
# Indices 1 2 3 4 5 6 
#
# 1 0.010393 -0.000458 -0.006215 0.000000 -0.000710 0.000000
# 2 -0.000458 0.011060 -0.006301 0.000000 0.001521 0.000000
# 3 -0.006215 -0.006301 0.022488 0.000000 -0.005118 0.000000
# 4 0.000000 0.000000 0.000000 -0.011950 0.000000 0.015132
# 5 -0.000710 0.001521 -0.005118 0.000000 0.022989 0.000000
# 6 0.000000 0.000000 0.000000 0.015132 0.000000 0.033014
#
#
# Mechanical properties :
#
#
# Convention : Reuss Voigt Hill
#
# Bulk Modulus (GPa) = 55.58086 60.54850 58.06468
# Shear Modulus (GPa) = 41.68759 15.70486 28.69623
#
# Velocity S-wave (km/s) = 4.43101 2.71967 3.67631
# Velocity P-wave (km/s) = 7.23573 6.19508 6.73553
#
# Compressibility (1/GPa) = 0.01799181
#
# Stress axis : x y z
#
# Youngs Moduli (GPa) = 96.22033 90.41625 44.46834
#
# Poissons Ratio (x) = 0.04145 0.27635
# Poissons Ratio (y) = 0.04411 0.28021
# Poissons Ratio (z) = 0.59797 0.56974
#
# Static dielectric constant tensor:
#      x y z
#    x 4.099520 0.000000 -0.149180 
#    y 0.000000 4.180450 0.000000 
#    z -0.149180 0.000000 3.611820 
# 
# 
# High freq. dielectric constant tensor:
#      x y z
#    x 1.841130 0.000000 -0.004790 
#    y 0.000000 1.850850 0.000000 
#    z -0.004790 0.000000 1.818710 
# 
# From -- ./inp_files/207973.got.cif
#   From: 2010.06.25/outbox.cif.g09.slc.cpg/sg15_104_cif.got.tgz:207973.got - 2010.06.28 07:06:18.
