data_PCOD8142132
_publ_section_title
;
Structure prediction by ZEFSAII (Michael W. Deem and Ramdas Pophale) SiO2 
 PCOD8142132
Probable space group: C 2/C
;
_chemical_formula_sum "Si O2"
_cell_formula_units_Z 64
_cell_length_a 19.676516
_cell_length_b 12.500930
_cell_length_c 18.976780
_cell_angle_alpha 90.000000
_cell_angle_beta 137.670978
_cell_angle_gamma 90.000000
_cell_volume 3143.242034
_symmetry_space_group_name_H-M "C 2/C"
_symmetry_group_IT_number 15
_symmetry_cell_setting 'monoclinic'
loop_
_space_group_symop_operation_xyz
x,y,z
-x,y,1/2-z
-x,-y,-z
x,-y,1/2+z
1/2+x,1/2+y,z
1/2-x,1/2+y,1/2-z
1/2-x,1/2-y,-z
1/2+x,1/2-y,1/2+z
loop_
_atom_site_type_symbol
_atom_site_label
_atom_site_fract_x
_atom_site_fract_y
_atom_site_fract_z
Si Si1 0.675165 0.224380 0.737504
Si Si2 0.419891 0.019709 0.876697
Si Si3 0.495840 0.145603 0.331352
Si Si4 0.380957 0.775268 0.149131
Si Si5 0.247608 0.080717 0.459715
Si Si6 0.209836 0.048378 0.272811
Si Si7 0.657464 0.323148 0.239203
Si Si8 0.776389 0.345564 0.470309
O O1 0.589241 0.147955 0.638818
O O2 0.678546 0.203236 0.823780
O O3 0.646470 0.348117 0.698665
O O4 0.787390 0.209115 0.791150
O O5 0.448954 0.963958 0.825091
O O6 0.306607 0.976991 0.799855
O O7 0.500000 0.000000 0.000000
O O8 0.500000 0.144852 0.250000
O O9 0.438443 0.250256 0.317133
O O10 0.605036 0.148303 0.448617
O O11 0.500000 0.774860 0.250000
O O12 0.346552 0.658460 0.092307
O O13 0.349621 0.869977 0.071724
O O14 0.261314 0.075658 0.386749
O O15 0.232510 0.956259 0.471012
O O16 0.129874 0.949852 0.212800
O O17 0.736836 0.315776 0.363348
O O18 0.750000 0.250000 0.500000
#
# Coordination Sequence:
#
# PCOD8142132 Si02
#       8
#     8   8   8   8   8   8   8   8
#     4  10  21  38  62  91 127 166 209 264 315 380
#     4  11  23  38  64  95 125 167 213 265 318 381
#     4  12  24  39  69  98 124 170 221 267 317 386
#     4  10  22  38  63  94 122 167 211 265 322 380
#     4   9  21  41  59  88 132 156 211 267 316 375
#     4   9  19  40  63  84 127 174 202 259 321 377
#     4  10  21  43  61  89 133 166 218 256 324 387
#     4  11  23  41  61  90 128 169 204 271 317 372
#
# _framework density 20.361142999999998
#
# number of rings (size 3 to 8) (size 9 to 14) (size 15 to 20)
#    0.000    1.750    2.500    2.250    5.250    0.000 
#    6.750    0.000    0.000    4.500    0.000    0.000 
#    0.000    0.000    0.000    0.000    0.000    0.000 
#
# Total GULP energy -396520.441586 kJ/mol
# GULP energy per Si atom -12391.263800 kJ/mol
# Density = 2.031480 g / cm^3
# Si number density = 20.361143 Si / 1000 Ang^3
#
#
#
# Elastic Constant Matrix: (Units=GPa)
#
#
# Indices 1 2 3 4 5 6 
#
# 1 90.4746 53.1217 9.0012 0.0000 -9.6546 0.0000
# 2 53.1217 188.6318 45.2911 0.0000 -4.1599 0.0000
# 3 9.0012 45.2911 56.1246 0.0000 4.5184 0.0000
# 4 0.0000 0.0000 0.0000 32.8790 0.0000 0.1063
# 5 -9.6546 -4.1599 4.5184 0.0000 19.8395 0.0000
# 6 0.0000 0.0000 0.0000 0.1063 0.0000 32.4418
#
#
#
# Elastic Compliance Matrix: (Units=1/GPa)
#
#
# Indices 1 2 3 4 5 6 
#
# 1 0.013922 -0.003897 0.000441 0.000000 0.005858 0.000000
# 2 -0.003897 0.007804 -0.005758 0.000000 0.001051 0.000000
# 3 0.000441 -0.005758 0.022893 0.000000 -0.006207 0.000000
# 4 0.000000 0.000000 0.000000 0.030415 0.000000 -0.000100
# 5 0.005858 0.001051 -0.006207 0.000000 0.054889 0.000000
# 6 0.000000 0.000000 0.000000 -0.000100 0.000000 0.030825
#
#
# Mechanical properties :
#
#
# Convention : Reuss Voigt Hill
#
# Bulk Modulus (GPa) = 38.18113 61.11766 49.64939
# Shear Modulus (GPa) = 26.60892 32.21987 29.41439
#
# Velocity S-wave (km/s) = 3.61896 3.98228 3.80496
# Velocity P-wave (km/s) = 6.02122 7.15728 6.61369
#
# Compressibility (1/GPa) = 0.02619095
#
# Stress axis : x y z
#
# Youngs Moduli (GPa) = 71.82681 128.13135 43.68205
#
# Poissons Ratio (x) = 0.49938 -0.01925
# Poissons Ratio (y) = 0.27994 0.25150
# Poissons Ratio (z) = -0.03165 0.73773
#
# Static dielectric constant tensor:
#      x y z
#    x 3.847050 0.000000 -0.104750 
#    y 0.000000 4.468130 0.000000 
#    z -0.104750 0.000000 3.512170 
# 
# 
# High freq. dielectric constant tensor:
#      x y z
#    x 1.790340 0.000000 -0.011900 
#    y 0.000000 1.820390 0.000000 
#    z -0.011900 0.000000 1.770480 
# 
# From -- ./inp_files/252582.got.cif
#   From: 2010.06.25/outbox.cif.g09.slc.cpg/sg15_127_cif.got.tgz:252582.got - 2010.06.28 07:06:18.
