data_PCOD8142036
_publ_section_title
;
Structure prediction by ZEFSAII (Michael W. Deem and Ramdas Pophale) SiO2 
 PCOD8142036
Probable space group: C 2/C
;
_chemical_formula_sum "Si O2"
_cell_formula_units_Z 64
_cell_length_a 21.685540
_cell_length_b 18.202168
_cell_length_c 8.362831
_cell_angle_alpha 90.000000
_cell_angle_beta 95.697972
_cell_angle_gamma 90.000000
_cell_volume 3284.698780
_symmetry_space_group_name_H-M "C 2/C"
_symmetry_group_IT_number 15
_symmetry_cell_setting 'monoclinic'
loop_
_space_group_symop_operation_xyz
x,y,z
-x,y,1/2-z
-x,-y,-z
x,-y,1/2+z
1/2+x,1/2+y,z
1/2-x,1/2+y,1/2-z
1/2-x,1/2-y,-z
1/2+x,1/2-y,1/2+z
loop_
_atom_site_type_symbol
_atom_site_label
_atom_site_fract_x
_atom_site_fract_y
_atom_site_fract_z
Si Si1 0.677495 0.183906 0.391679
Si Si2 0.254732 0.598962 0.875081
Si Si3 0.208520 0.744126 0.743010
Si Si4 0.068171 0.959624 0.738489
Si Si5 0.244234 0.450178 0.019523
Si Si6 0.873820 0.837907 0.544488
Si Si7 0.927156 0.229814 0.759072
Si Si8 0.879860 0.913301 0.071073
O O1 0.724515 0.220226 0.275375
O O2 0.680126 0.221435 0.566370
O O3 0.691744 0.097171 0.414378
O O4 0.608295 0.195646 0.304228
O O5 0.216863 0.675315 0.867599
O O6 0.233082 0.537369 0.995760
O O7 0.242506 0.559855 0.706224
O O8 0.326814 0.616759 0.920064
O O9 0.162772 0.798797 0.821095
O O10 0.078018 0.892610 0.862285
O O11 0.073292 0.933680 0.557989
O O12 0.000000 0.991356 0.750000
O O13 0.115406 0.026135 0.786873
O O14 0.310463 0.416482 0.978856
O O15 0.914048 0.783628 0.443667
O O16 0.897164 0.165853 0.643651
O O17 0.000000 0.238764 0.750000
#
# Coordination Sequence:
#
# PCOD8142036 Si02
#       8
#     8   8   8   8   8   8   8   8
#     4  10  21  40  58  86 118 157 189 246 311 344
#     4  11  22  36  55  90 117 147 190 235 309 353
#     4  10  21  38  61  87 119 148 194 256 305 350
#     4  12  24  35  51  75 112 161 200 232 275 345
#     4  11  22  36  59  83 117 151 185 246 301 354
#     4  12  22  37  57  85 117 153 203 248 289 346
#     4  12  24  39  57  81 117 161 204 240 285 353
#     4  12  21  38  52  75 113 153 196 240 284 339
#
# _framework density 19.484282
#
# number of rings (size 3 to 8) (size 9 to 14) (size 15 to 20)
#    0.000    0.750    3.750    6.375    1.750    0.000 
#    0.000    0.000    0.000    0.000    0.000    8.750 
#    0.000    0.000    0.000    0.000    0.000    0.000 
#
# Total GULP energy -396785.036932 kJ/mol
# GULP energy per Si atom -12399.532404 kJ/mol
# Density = 1.943993 g / cm^3
# Si number density = 19.484282 Si / 1000 Ang^3
#
#
#
# Elastic Constant Matrix: (Units=GPa)
#
#
# Indices 1 2 3 4 5 6 
#
# 1 83.8937 35.1514 22.0101 0.0000 1.4514 0.0000
# 2 35.1514 68.2544 11.3538 0.0000 11.2355 0.0000
# 3 22.0101 11.3538 49.7729 0.0000 -3.8973 0.0000
# 4 0.0000 0.0000 0.0000 32.3604 0.0000 2.6370
# 5 1.4514 11.2355 -3.8973 0.0000 22.9876 0.0000
# 6 0.0000 0.0000 0.0000 2.6370 0.0000 24.1260
#
#
#
# Elastic Compliance Matrix: (Units=1/GPa)
#
#
# Indices 1 2 3 4 5 6 
#
# 1 0.016651 -0.008000 -0.005386 0.000000 0.001946 0.000000
# 2 -0.008000 0.020740 -0.001974 0.000000 -0.009967 0.000000
# 3 -0.005386 -0.001974 0.023335 0.000000 0.005261 0.000000
# 4 0.000000 0.000000 0.000000 0.031180 0.000000 -0.003408
# 5 0.001946 -0.009967 0.005261 0.000000 0.049142 0.000000
# 6 0.000000 0.000000 0.000000 -0.003408 0.000000 0.041822
#
#
# Mechanical properties :
#
#
# Convention : Reuss Voigt Hill
#
# Bulk Modulus (GPa) = 33.32566 37.66130 35.49348
# Shear Modulus (GPa) = 22.36218 24.78848 23.57533
#
# Velocity S-wave (km/s) = 3.39145 3.57070 3.48223
# Velocity P-wave (km/s) = 5.69885 6.03083 5.86719
#
# Compressibility (1/GPa) = 0.03000691
#
# Stress axis : x y z
#
# Youngs Moduli (GPa) = 60.05579 48.21611 42.85352
#
# Poissons Ratio (x) = 0.38572 0.23082
# Poissons Ratio (y) = 0.48043 0.08459
# Poissons Ratio (z) = 0.32347 0.09517
#
# Static dielectric constant tensor:
#      x y z
#    x 3.323210 0.000000 0.056470 
#    y 0.000000 3.621830 0.000000 
#    z 0.056470 0.000000 3.719910 
# 
# 
# High freq. dielectric constant tensor:
#      x y z
#    x 1.722390 0.000000 0.000650 
#    y 0.000000 1.748270 0.000000 
#    z 0.000650 0.000000 1.778900 
# 
# From -- ./inp_files/56621.got.cif
#   From: 2010.06.25/outbox.cif.g09.slc.cpg/sg15_29_cif.got.tgz:56621.got - 2010.06.28 07:06:18.
