data_PCOD8142806
_publ_section_title
;
Structure prediction by ZEFSAII (Michael W. Deem and Ramdas Pophale) SiO2 
 PCOD8142806
Probable space group: C 2/C
;
_chemical_formula_sum "Si O2"
_cell_formula_units_Z 48
_cell_length_a 18.458445
_cell_length_b 12.059444
_cell_length_c 22.812941
_cell_angle_alpha 90.000000
_cell_angle_beta 25.971142
_cell_angle_gamma 90.000000
_cell_volume 2223.805837
_symmetry_space_group_name_H-M "C 2/C"
_symmetry_group_IT_number 15
_symmetry_cell_setting 'monoclinic'
loop_
_space_group_symop_operation_xyz
x,y,z
-x,y,1/2-z
-x,-y,-z
x,-y,1/2+z
1/2+x,1/2+y,z
1/2-x,1/2+y,1/2-z
1/2-x,1/2-y,-z
1/2+x,1/2-y,1/2+z
loop_
_atom_site_type_symbol
_atom_site_label
_atom_site_fract_x
_atom_site_fract_y
_atom_site_fract_z
Si Si1 0.182224 0.688179 0.285514
Si Si2 0.762030 0.560425 0.491842
Si Si3 0.506173 0.036772 0.893238
Si Si4 0.480187 0.266696 0.330756
Si Si5 0.839183 0.390592 0.337669
Si Si6 0.951613 0.757337 0.996202
O O1 0.092724 0.570257 0.358344
O O2 0.120824 0.763293 0.385101
O O3 0.139998 0.752596 0.255692
O O4 0.380718 0.672648 0.137100
O O5 0.572756 0.602658 0.626867
O O6 0.851613 0.674739 0.446197
O O7 0.803882 0.503578 0.399562
O O8 0.819038 0.481021 0.503687
O O9 0.625582 0.073790 0.753902
O O10 0.490744 0.129807 0.953490
O O11 0.500000 0.230693 0.250000
O O12 0.683819 0.307231 0.450684
O O13 0.000000 0.330911 0.250000
#
# Coordination Sequence:
#
# PCOD8142806 Si02
#       6
#     8   8   8   8   8   8
#     4  11  26  41  71  96 139 169 220 274 336 399
#     4   9  20  38  65  92 126 171 223 273 323 384
#     4  10  22  44  65  94 133 172 220 278 328 388
#     4  10  21  39  65  96 129 171 220 274 329 390
#     4  10  22  43  69  93 127 178 224 271 325 395
#     4  12  25  46  65 100 132 181 215 276 336 398
#
# _framework density 21.584617000000001
#
# number of rings (size 3 to 8) (size 9 to 14) (size 15 to 20)
#    0.000    1.667    1.667    3.000    9.333    4.667 
#    3.000    0.000    0.000    0.000    0.000    0.000 
#    0.000    0.000    0.000    0.000    0.000    0.000 
#
# Total GULP energy -297336.292663 kJ/mol
# GULP energy per Si atom -12389.012194 kJ/mol
# Density = 2.153549 g / cm^3
# Si number density = 21.584617 Si / 1000 Ang^3
#
#
#
# Elastic Constant Matrix: (Units=GPa)
#
#
# Indices 1 2 3 4 5 6 
#
# 1 113.4434 39.6168 44.2758 -0.0003 -11.6897 0.0002
# 2 39.6168 80.2391 30.6633 -0.0025 -20.9926 0.0008
# 3 44.2758 30.6633 70.0505 -0.0113 -22.0171 0.0015
# 4 -0.0003 -0.0025 -0.0113 28.5539 -0.0001 -1.7614
# 5 -11.6897 -20.9926 -22.0171 -0.0001 41.2041 0.0006
# 6 0.0002 0.0008 0.0015 -1.7614 0.0006 27.2829
#
#
#
# Elastic Compliance Matrix: (Units=1/GPa)
#
#
# Indices 1 2 3 4 5 6 
#
# 1 0.012765 -0.004246 -0.006912 -0.000003 -0.002235 0.000000
# 2 -0.004246 0.017271 -0.002992 0.000000 0.005996 0.000000
# 3 -0.006912 -0.002992 0.022665 0.000009 0.008626 -0.000001
# 4 -0.000003 0.000000 0.000009 0.035162 0.000004 0.002270
# 5 -0.002235 0.005996 0.008626 0.000004 0.031299 -0.000001
# 6 0.000000 0.000000 -0.000001 0.002270 -0.000001 0.036800
#
#
# Mechanical properties :
#
#
# Convention : Reuss Voigt Hill
#
# Bulk Modulus (GPa) = 40.98154 54.76053 47.87103
# Shear Modulus (GPa) = 25.98812 29.35331 27.67071
#
# Velocity S-wave (km/s) = 3.47365 3.69171 3.58434
# Velocity P-wave (km/s) = 5.92588 6.60279 6.27347
#
# Compressibility (1/GPa) = 0.02440123
#
# Stress axis : x y z
#
# Youngs Moduli (GPa) = 78.33808 57.89994 44.12079
#
# Poissons Ratio (x) = 0.24584 0.30498
# Poissons Ratio (y) = 0.33261 0.13201
# Poissons Ratio (z) = 0.54149 0.17323
#
# Static dielectric constant tensor:
#      x y z
#    x 4.056620 0.000000 -0.300060 
#    y 0.000000 3.902800 0.000010 
#    z -0.300060 0.000010 3.876290 
# 
# 
# High freq. dielectric constant tensor:
#      x y z
#    x 1.857040 0.000000 -0.005440 
#    y 0.000000 1.833500 0.000000 
#    z -0.005440 0.000000 1.832320 
# 
# From -- ./inp_files/277202.got.cif
#   From: 2010.06.25/outbox.cif.g09.slc.cpg/sg15_139_cif.got.tgz:277202.got - 2010.06.28 07:06:18.
