data_PCOD8142399
_publ_section_title
;
Structure prediction by ZEFSAII (Michael W. Deem and Ramdas Pophale) SiO2 
 PCOD8142399
Probable space group: C 2/C
;
_chemical_formula_sum "Si O2"
_cell_formula_units_Z 48
_cell_length_a 26.094799
_cell_length_b 9.192165
_cell_length_c 14.307621
_cell_angle_alpha 90.000000
_cell_angle_beta 39.273278
_cell_angle_gamma 90.000000
_cell_volume 2172.483838
_symmetry_space_group_name_H-M "C 2/C"
_symmetry_group_IT_number 15
_symmetry_cell_setting 'monoclinic'
loop_
_space_group_symop_operation_xyz
x,y,z
-x,y,1/2-z
-x,-y,-z
x,-y,1/2+z
1/2+x,1/2+y,z
1/2-x,1/2+y,1/2-z
1/2-x,1/2-y,-z
1/2+x,1/2-y,1/2+z
loop_
_atom_site_type_symbol
_atom_site_label
_atom_site_fract_x
_atom_site_fract_y
_atom_site_fract_z
Si Si1 0.464282 0.646456 0.093542
Si Si2 0.190844 0.729518 0.773593
Si Si3 0.382083 0.260905 0.185605
Si Si4 0.579931 0.563698 0.697581
Si Si5 0.245378 0.530228 0.852840
Si Si6 0.239632 0.478198 0.580765
O O1 0.399719 0.719994 0.117077
O O2 0.425132 0.597738 0.247210
O O3 0.500000 0.500000 0.000000
O O4 0.540915 0.759716 0.993637
O O5 0.187221 0.632858 0.873059
O O6 0.223112 0.639829 0.639077
O O7 0.251773 0.867887 0.694417
O O8 0.419815 0.298864 0.233396
O O9 0.335202 0.404542 0.216459
O O10 0.322192 0.125088 0.275808
O O11 0.500000 0.586238 0.750000
O O12 0.667777 0.565281 0.521746
O O13 0.221297 0.533967 0.996129
#
# Coordination Sequence:
#
# PCOD8142399 Si02
#       6
#     8   8   8   8   8   8
#     4  10  21  41  65  97 136 175 228 282 338 415
#     4  12  24  42  71  98 136 183 230 287 346 412
#     4  10  22  40  64  97 140 171 227 283 338 413
#     4  10  21  38  70  98 129 183 229 279 342 412
#     4  11  23  41  67 100 131 179 231 282 339 412
#     4  11  24  43  66 103 141 175 234 288 348 415
#
# _framework density 22.094524
#
# number of rings (size 3 to 8) (size 9 to 14) (size 15 to 20)
#    0.000    1.333    5.000    3.500    2.333    6.000 
#    0.000    0.000    0.000    1.000    0.000    0.000 
#    0.000    0.000    0.000    0.000    0.000    0.000 
#
# Total GULP energy -297371.659681 kJ/mol
# GULP energy per Si atom -12390.485820 kJ/mol
# Density = 2.204424 g / cm^3
# Si number density = 22.094524 Si / 1000 Ang^3
#
#
#
# Elastic Constant Matrix: (Units=GPa)
#
#
# Indices 1 2 3 4 5 6 
#
# 1 127.8950 40.3034 25.4309 0.0001 -13.8477 0.0000
# 2 40.3034 118.3715 28.8970 0.0002 -8.6035 0.0000
# 3 25.4309 28.8970 72.1742 0.0001 -28.9748 0.0000
# 4 0.0001 0.0002 0.0001 40.5776 0.0000 1.9969
# 5 -13.8477 -8.6035 -28.9748 0.0000 34.5303 0.0000
# 6 0.0000 0.0000 0.0000 1.9969 0.0000 39.9586
#
#
#
# Elastic Compliance Matrix: (Units=1/GPa)
#
#
# Indices 1 2 3 4 5 6 
#
# 1 0.009128 -0.002625 -0.001445 0.000000 0.001794 0.000000
# 2 -0.002625 0.010152 -0.003841 0.000000 -0.001746 0.000000
# 3 -0.001445 -0.003841 0.023050 0.000000 0.017805 0.000000
# 4 0.000000 0.000000 0.000000 0.024705 0.000000 -0.001235
# 5 0.001794 -0.001746 0.017805 0.000000 0.044185 0.000000
# 6 0.000000 0.000000 0.000000 -0.001235 0.000000 0.025088
#
#
# Mechanical properties :
#
#
# Convention : Reuss Voigt Hill
#
# Bulk Modulus (GPa) = 37.72299 56.41147 47.06723
# Shear Modulus (GPa) = 31.06252 37.93394 34.49823
#
# Velocity S-wave (km/s) = 3.75359 4.14804 3.95573
# Velocity P-wave (km/s) = 5.99136 6.96627 6.49713
#
# Compressibility (1/GPa) = 0.02650903
#
# Stress axis : x y z
#
# Youngs Moduli (GPa) = 109.55794 98.49916 43.38308
#
# Poissons Ratio (x) = 0.25852 0.06270
# Poissons Ratio (y) = 0.28755 0.16663
# Poissons Ratio (z) = 0.15833 0.37833
#
# Static dielectric constant tensor:
#      x y z
#    x 4.070840 0.000000 -0.171910 
#    y 0.000000 4.123010 0.000000 
#    z -0.171910 0.000000 4.477410 
# 
# 
# High freq. dielectric constant tensor:
#      x y z
#    x 1.867840 0.000000 -0.008770 
#    y 0.000000 1.857120 0.000000 
#    z -0.008770 0.000000 1.865080 
# 
# From -- ./inp_files/176878.got.cif
#   From: 2010.06.25/outbox.cif.g09.slc.cpg/sg15_89_cif.got.tgz:176878.got - 2010.06.28 07:06:18.
