data_PCOD8142459
_publ_section_title
;
Structure prediction by ZEFSAII (Michael W. Deem and Ramdas Pophale) SiO2 
 PCOD8142459
Probable space group: C 2/C
;
_chemical_formula_sum "Si O2"
_cell_formula_units_Z 52
_cell_length_a 26.242025
_cell_length_b 8.103019
_cell_length_c 10.938719
_cell_angle_alpha 90.000000
_cell_angle_beta 89.003728
_cell_angle_gamma 90.000000
_cell_volume 2325.653504
_symmetry_space_group_name_H-M "C 2/C"
_symmetry_group_IT_number 15
_symmetry_cell_setting 'monoclinic'
loop_
_space_group_symop_operation_xyz
x,y,z
-x,y,1/2-z
-x,-y,-z
x,-y,1/2+z
1/2+x,1/2+y,z
1/2-x,1/2+y,1/2-z
1/2-x,1/2-y,-z
1/2+x,1/2-y,1/2+z
loop_
_atom_site_type_symbol
_atom_site_label
_atom_site_fract_x
_atom_site_fract_y
_atom_site_fract_z
Si Si1 0.783829 0.104358 0.760742
Si Si2 0.176883 0.660332 0.445610
Si Si3 0.478708 0.423111 0.876144
Si Si4 0.500000 0.105886 0.750000
Si Si5 0.390491 0.014310 0.730877
Si Si6 0.132572 0.854698 0.669842
Si Si7 0.202880 0.583823 0.124307
O O1 0.791545 0.237462 0.652997
O O2 0.780599 0.222678 0.882158
O O3 0.831947 0.984426 0.762135
O O4 0.731952 0.006939 0.736847
O O5 0.126419 0.572866 0.393865
O O6 0.162818 0.782305 0.554710
O O7 0.213412 0.512316 0.497102
O O8 0.500000 0.510328 0.750000
O O9 0.493865 0.227419 0.869083
O O10 0.417749 0.445452 0.877547
O O11 0.500000 0.500000 0.000000
O O12 0.451052 0.985640 0.742648
O O13 0.381479 0.212681 0.731260
O O14 0.357689 0.932775 0.842705
#
# Coordination Sequence:
#
# PCOD8142459 Si02
#       7
#     8   8   8   4   8   8   8
#     4  11  23  40  62  89 127 162 211 261 320 384
#     4  10  22  38  63  89 124 162 212 257 324 390
#     4   9  20  37  63  92 132 170 218 267 325 384
#     4   8  18  36  62  86 122 168 212 262 320 378
#     4   9  19  40  60  86 124 160 208 260 316 384
#     4  10  22  40  63  91 124 167 211 268 319 388
#     4  10  21  39  59  90 122 163 207 260 316 388
#
# _framework density 22.359307000000001
#
# number of rings (size 3 to 8) (size 9 to 14) (size 15 to 20)
#    0.462    1.846    0.000    2.308    2.154    3.692 
#    0.000   14.615    0.000    0.000    0.000    0.000 
#    0.000    0.000    0.000    0.000    0.000    0.000 
#
# Total GULP energy -322187.024655 kJ/mol
# GULP energy per Si atom -12391.808641 kJ/mol
# Density = 2.230842 g / cm^3
# Si number density = 22.359307 Si / 1000 Ang^3
#
#
#
# Elastic Constant Matrix: (Units=GPa)
#
#
# Indices 1 2 3 4 5 6 
#
# 1 96.4355 21.3008 -2.5384 0.0000 12.3598 0.0000
# 2 21.3008 71.7438 9.5208 0.0000 5.1243 0.0000
# 3 -2.5384 9.5208 62.6973 0.0000 8.3146 0.0000
# 4 0.0000 0.0000 0.0000 33.8860 0.0000 11.9584
# 5 12.3598 5.1243 8.3146 0.0000 20.8637 0.0000
# 6 0.0000 0.0000 0.0000 11.9584 0.0000 36.5019
#
#
#
# Elastic Compliance Matrix: (Units=1/GPa)
#
#
# Indices 1 2 3 4 5 6 
#
# 1 0.012067 -0.003332 0.001936 0.000000 -0.007102 0.000000
# 2 -0.003332 0.015300 -0.002346 0.000000 -0.000849 0.000000
# 3 0.001936 -0.002346 0.017378 0.000000 -0.007497 0.000000
# 4 0.000000 0.000000 0.000000 0.033369 0.000000 -0.010932
# 5 -0.007102 -0.000849 -0.007497 0.000000 0.055333 0.000000
# 6 0.000000 0.000000 0.000000 -0.010932 0.000000 0.030977
#
#
# Mechanical properties :
#
#
# Convention : Reuss Voigt Hill
#
# Bulk Modulus (GPa) = 26.83723 31.93810 29.38767
# Shear Modulus (GPa) = 27.12556 31.75655 29.44106
#
# Velocity S-wave (km/s) = 3.48683 3.77275 3.63261
# Velocity P-wave (km/s) = 5.31408 5.77003 5.54674
#
# Compressibility (1/GPa) = 0.03726166
#
# Stress axis : x y z
#
# Youngs Moduli (GPa) = 82.87158 65.36038 57.54272
#
# Poissons Ratio (x) = 0.21781 -0.11142
# Poissons Ratio (y) = 0.27616 0.13498
# Poissons Ratio (z) = -0.16047 0.15331
#
# Static dielectric constant tensor:
#      x y z
#    x 4.027570 0.000000 0.137550 
#    y 0.000000 4.166360 0.000000 
#    z 0.137550 0.000000 3.925350 
# 
# 
# High freq. dielectric constant tensor:
#      x y z
#    x 1.881480 0.000000 0.002030 
#    y 0.000000 1.874970 0.000000 
#    z 0.002030 0.000000 1.863990 
# 
# From -- ./inp_files/121527.got.cif
#   From: 2010.06.25/outbox.cif.g09.slc.cpg/sg15_61_cif.got.tgz:121527.got - 2010.06.28 07:06:18.
