data_PCOD8142804
_publ_section_title
;
Structure prediction by ZEFSAII (Michael W. Deem and Ramdas Pophale) SiO2 
 PCOD8142804
Probable space group: C 2/C
;
_chemical_formula_sum "Si O2"
_cell_formula_units_Z 40
_cell_length_a 13.189296
_cell_length_b 30.673675
_cell_length_c 5.058806
_cell_angle_alpha 90.000000
_cell_angle_beta 102.931563
_cell_angle_gamma 90.000000
_cell_volume 1994.705658
_symmetry_space_group_name_H-M "C 2/C"
_symmetry_group_IT_number 15
_symmetry_cell_setting 'monoclinic'
loop_
_space_group_symop_operation_xyz
x,y,z
-x,y,1/2-z
-x,-y,-z
x,-y,1/2+z
1/2+x,1/2+y,z
1/2-x,1/2+y,1/2-z
1/2-x,1/2-y,-z
1/2+x,1/2-y,1/2+z
loop_
_atom_site_type_symbol
_atom_site_label
_atom_site_fract_x
_atom_site_fract_y
_atom_site_fract_z
Si Si1 0.283838 0.117518 0.706088
Si Si2 0.431911 0.659662 0.948627
Si Si3 0.880291 0.527661 0.676803
Si Si4 0.112232 0.344144 0.732299
Si Si5 0.323253 0.250450 0.291474
O O1 0.165400 0.127866 0.556790
O O2 0.302298 0.065844 0.720652
O O3 0.361679 0.136305 0.535240
O O4 0.304551 0.140342 0.000534
O O5 0.500000 0.639895 0.750000
O O6 0.397028 0.707895 0.843149
O O7 0.500000 0.662289 0.250000
O O8 0.857863 0.511829 0.366285
O O9 0.000000 0.543656 0.750000
O O10 0.106100 0.292358 0.688029
O O11 0.000000 0.362204 0.750000
O O12 0.250000 0.250000 0.500000
O O13 0.250000 0.250000 0.000000
#
# Coordination Sequence:
#
# PCOD8142804 Si02
#       5
#     8   8   8   8   8
#     4  12  24  42  64  93 129 161 212 262 309 380
#     4  12  25  42  64  87 123 174 220 260 305 357
#     4  10  21  39  65  96 127 158 193 245 324 399
#     4  12  23  38  62  92 126 165 205 259 319 372
#     4  12  22  41  60  85 126 168 211 264 310 358
#
# _framework density 20.053083000000001
#
# number of rings (size 3 to 8) (size 9 to 14) (size 15 to 20)
#    0.000    0.400    4.000    6.000    0.000    3.200 
#    0.000    0.000    0.000    3.600    0.000    0.000 
#    0.000    0.000    0.000    0.000    0.000    0.000 
#
# Total GULP energy -248096.747547 kJ/mol
# GULP energy per Si atom -12404.837377 kJ/mol
# Density = 2.000744 g / cm^3
# Si number density = 20.053083 Si / 1000 Ang^3
#
#
#
# Elastic Constant Matrix: (Units=GPa)
#
#
# Indices 1 2 3 4 5 6 
#
# 1 94.8810 39.4188 18.0406 0.0000 0.3513 0.0000
# 2 39.4188 107.6289 22.2677 0.0000 7.0641 0.0000
# 3 18.0406 22.2677 111.0936 0.0000 1.5898 0.0000
# 4 0.0000 0.0000 0.0000 21.3761 0.0000 -9.1427
# 5 0.3513 7.0641 1.5898 0.0000 40.5444 0.0000
# 6 0.0000 0.0000 0.0000 -9.1427 0.0000 8.6870
#
#
#
# Elastic Compliance Matrix: (Units=1/GPa)
#
#
# Indices 1 2 3 4 5 6 
#
# 1 0.012594 -0.004417 -0.001170 0.000000 0.000706 0.000000
# 2 -0.004417 0.011349 -0.001531 0.000000 -0.001879 0.000000
# 3 -0.001170 -0.001531 0.009500 0.000000 -0.000096 0.000000
# 4 0.000000 0.000000 0.000000 0.085079 0.000000 0.089542
# 5 0.000706 -0.001879 -0.000096 0.000000 0.024989 0.000000
# 6 0.000000 0.000000 0.000000 0.089542 0.000000 0.209353
#
#
# Mechanical properties :
#
#
# Convention : Reuss Voigt Hill
#
# Bulk Modulus (GPa) = 52.06232 52.56196 52.31214
# Shear Modulus (GPa) = 13.38684 29.71328 21.55006
#
# Velocity S-wave (km/s) = 2.58654 3.85350 3.28174
# Velocity P-wave (km/s) = 5.91091 6.78731 6.36422
#
# Compressibility (1/GPa) = 0.01920775
#
# Stress axis : x y z
#
# Youngs Moduli (GPa) = 79.40034 88.11441 105.26777
#
# Poissons Ratio (x) = 0.38920 0.12316
# Poissons Ratio (y) = 0.35071 0.16113
# Poissons Ratio (z) = 0.09290 0.13487
#
# Static dielectric constant tensor:
#      x y z
#    x 3.742500 0.000000 -0.058050 
#    y 0.000000 3.516710 0.000000 
#    z -0.058050 0.000000 3.810140 
# 
# 
# High freq. dielectric constant tensor:
#      x y z
#    x 1.780090 0.000000 -0.015000 
#    y 0.000000 1.770760 0.000000 
#    z -0.015000 0.000000 1.801780 
# 
# From -- ./inp_files/5705.got.cif
#   From: 2010.06.25/outbox.cif.g09.slc.cpg/sg15_3_cif.got.tgz:5705.got - 2010.06.28 07:06:18.
