data_PCOD8142936
_publ_section_title
;
Structure prediction by ZEFSAII (Michael W. Deem and Ramdas Pophale) SiO2 
 PCOD8142936
Probable space group: C 2/C
;
_chemical_formula_sum "Si O2"
_cell_formula_units_Z 44
_cell_length_a 13.577405
_cell_length_b 17.456392
_cell_length_c 8.792177
_cell_angle_alpha 90.000000
_cell_angle_beta 101.625386
_cell_angle_gamma 90.000000
_cell_volume 2041.107796
_symmetry_space_group_name_H-M "C 2/C"
_symmetry_group_IT_number 15
_symmetry_cell_setting 'monoclinic'
loop_
_space_group_symop_operation_xyz
x,y,z
-x,y,1/2-z
-x,-y,-z
x,-y,1/2+z
1/2+x,1/2+y,z
1/2-x,1/2+y,1/2-z
1/2-x,1/2-y,-z
1/2+x,1/2-y,1/2+z
loop_
_atom_site_type_symbol
_atom_site_label
_atom_site_fract_x
_atom_site_fract_y
_atom_site_fract_z
Si Si1 0.887784 0.556933 0.706688
Si Si2 0.349431 0.788644 0.096175
Si Si3 0.110853 0.093990 0.014593
Si Si4 0.161211 0.587984 0.477119
Si Si5 0.564302 0.761485 0.046595
Si Si6 0.000000 0.986414 0.750000
O O1 0.828122 0.619417 0.585984
O O2 0.833842 0.554002 0.852056
O O3 0.900386 0.473295 0.640513
O O4 0.000000 0.593238 0.750000
O O5 0.444394 0.768551 0.021549
O O6 0.373867 0.762078 0.275918
O O7 0.250000 0.750000 0.000000
O O8 0.081795 0.181180 0.967650
O O9 0.064373 0.068355 0.160873
O O10 0.230089 0.090539 0.064156
O O11 0.074957 0.039548 0.868070
O O12 0.106641 0.670228 0.453256
#
# Coordination Sequence:
#
# PCOD8142936 Si02
#       6
#     8   8   8   8   8   4
#     4  11  22  42  66  91 137 168 218 272 323 399
#     4  10  21  39  68  94 130 181 220 261 343 394
#     4  11  23  43  65  93 133 171 226 279 335 394
#     4  11  23  40  66  94 130 176 215 270 339 388
#     4  10  22  42  61  98 136 166 221 289 316 401
#     4  10  24  42  66  92 128 180 228 276 332 408
#
# _framework density 21.556920999999999
#
# number of rings (size 3 to 8) (size 9 to 14) (size 15 to 20)
#    0.000    1.455    3.636    3.273    0.000    8.727 
#    1.636    0.000    0.000    0.000    0.000    0.000 
#    0.000    0.000    0.000    0.000    0.000    0.000 
#
# Total GULP energy -272805.949524 kJ/mol
# GULP energy per Si atom -12400.270433 kJ/mol
# Density = 2.150786 g / cm^3
# Si number density = 21.556921 Si / 1000 Ang^3
#
#
#
# Elastic Constant Matrix: (Units=GPa)
#
#
# Indices 1 2 3 4 5 6 
#
# 1 145.3385 50.9948 41.0824 0.0000 4.5441 0.0000
# 2 50.9948 180.6689 49.4578 0.0000 0.6294 0.0000
# 3 41.0824 49.4578 56.0909 0.0000 -3.5453 0.0000
# 4 0.0000 0.0000 0.0000 15.3165 0.0000 0.4593
# 5 4.5441 0.6294 -3.5453 0.0000 26.0193 0.0000
# 6 0.0000 0.0000 0.0000 0.4593 0.0000 30.4420
#
#
#
# Elastic Compliance Matrix: (Units=1/GPa)
#
#
# Indices 1 2 3 4 5 6 
#
# 1 0.008937 -0.000899 -0.005901 0.000000 -0.002343 0.000000
# 2 -0.000899 0.007416 -0.005933 0.000000 -0.000831 0.000000
# 3 -0.005901 -0.005933 0.027695 0.000000 0.004948 0.000000
# 4 0.000000 0.000000 0.000000 0.065319 0.000000 -0.000985
# 5 -0.002343 -0.000831 0.004948 0.000000 0.039536 0.000000
# 6 0.000000 0.000000 0.000000 -0.000985 0.000000 0.032864
#
#
# Mechanical properties :
#
#
# Convention : Reuss Voigt Hill
#
# Bulk Modulus (GPa) = 53.81790 73.90758 63.86274
# Shear Modulus (GPa) = 23.42722 30.39311 26.91017
#
# Velocity S-wave (km/s) = 3.30018 3.75894 3.53701
# Velocity P-wave (km/s) = 6.28819 7.29375 6.80955
#
# Compressibility (1/GPa) = 0.01858118
#
# Stress axis : x y z
#
# Youngs Moduli (GPa) = 111.89079 134.84848 36.10821
#
# Poissons Ratio (x) = 0.12122 0.21309
# Poissons Ratio (y) = 0.10058 0.21423
# Poissons Ratio (z) = 0.66031 0.80004
#
# Static dielectric constant tensor:
#      x y z
#    x 3.908620 0.000000 -0.184510 
#    y 0.000000 4.127900 0.000000 
#    z -0.184510 0.000000 3.614600 
# 
# 
# High freq. dielectric constant tensor:
#      x y z
#    x 1.852650 0.000000 -0.012750 
#    y 0.000000 1.868170 0.000000 
#    z -0.012750 0.000000 1.823820 
# 
# From -- ./inp_files/39233.got.cif
#   From: 2010.06.25/outbox.cif.g09.slc.cpg/sg15_20_cif.got.tgz:39233.got - 2010.06.28 07:06:18.
