data_PCOD8142393
_publ_section_title
;
Structure prediction by ZEFSAII (Michael W. Deem and Ramdas Pophale) SiO2 
 PCOD8142393
Probable space group: C 2/C
;
_chemical_formula_sum "Si O2"
_cell_formula_units_Z 36
_cell_length_a 19.492082
_cell_length_b 5.284685
_cell_length_c 28.667429
_cell_angle_alpha 90.000000
_cell_angle_beta 150.089079
_cell_angle_gamma 90.000000
_cell_volume 1472.531145
_symmetry_space_group_name_H-M "C 2/C"
_symmetry_group_IT_number 15
_symmetry_cell_setting 'monoclinic'
loop_
_space_group_symop_operation_xyz
x,y,z
-x,y,1/2-z
-x,-y,-z
x,-y,1/2+z
1/2+x,1/2+y,z
1/2-x,1/2+y,1/2-z
1/2-x,1/2-y,-z
1/2+x,1/2-y,1/2+z
loop_
_atom_site_type_symbol
_atom_site_label
_atom_site_fract_x
_atom_site_fract_y
_atom_site_fract_z
Si Si1 0.407096 0.252468 0.035305
Si Si2 0.875684 0.466528 0.891968
Si Si3 0.339454 0.559801 0.082147
Si Si4 0.772409 0.042236 0.370399
Si Si5 0.000000 0.373768 0.250000
O O1 0.548456 0.089461 0.113005
O O2 0.418946 0.376808 0.093065
O O3 0.388463 0.446679 0.980423
O O4 0.268179 0.086833 0.948494
O O5 0.787909 0.726606 0.842222
O O6 0.782748 0.225831 0.850469
O O7 0.000000 0.500000 0.000000
O O8 0.451412 0.698159 0.179053
O O9 0.250000 0.750000 0.000000
O O10 0.621030 0.057393 0.303924
#
# Coordination Sequence:
#
# PCOD8142393 Si02
#       5
#     8   8   8   8   4
#     4  10  22  42  70 106 141 183 248 294 364 436
#     4  10  21  38  70 102 137 179 234 289 359 433
#     4  11  24  43  70 106 140 195 239 305 360 432
#     4  11  23  39  69 105 135 186 231 294 364 428
#     4  12  24  44  72 102 152 186 254 300 374 436
#
# _framework density 24.447700000000001
#
# number of rings (size 3 to 8) (size 9 to 14) (size 15 to 20)
#    0.000    1.333    2.222    5.333    3.111    3.556 
#    0.000    0.000    4.889    0.000    0.000    0.000 
#    0.000    0.000    0.000    0.000    0.000    0.000 
#
# Total GULP energy -223152.843436 kJ/mol
# GULP energy per Si atom -12397.380191 kJ/mol
# Density = 2.439206 g / cm^3
# Si number density = 24.447700 Si / 1000 Ang^3
#
#
#
# Elastic Constant Matrix: (Units=GPa)
#
#
# Indices 1 2 3 4 5 6 
#
# 1 160.6950 64.8280 30.3694 -0.0152 33.4652 0.0289
# 2 64.8280 153.9188 34.1901 -0.0296 17.9176 0.0927
# 3 30.3694 34.1901 82.1329 -0.0050 1.5014 0.0279
# 4 -0.0152 -0.0296 -0.0050 28.8425 0.0093 10.8888
# 5 33.4652 17.9176 1.5014 0.0093 34.1834 -0.0161
# 6 0.0289 0.0927 0.0279 10.8888 -0.0161 38.2056
#
#
#
# Elastic Compliance Matrix: (Units=1/GPa)
#
#
# Indices 1 2 3 4 5 6 
#
# 1 0.009249 -0.002509 -0.002236 0.000006 -0.007641 -0.000004
# 2 -0.002509 0.008318 -0.002502 0.000016 -0.001794 -0.000022
# 3 -0.002236 -0.002502 0.013991 -0.000002 0.002886 -0.000001
# 4 0.000006 0.000016 -0.000002 0.038851 -0.000030 -0.011073
# 5 -0.007641 -0.001794 0.002886 -0.000030 0.037548 0.000032
# 6 -0.000004 -0.000022 -0.000001 -0.011073 0.000032 0.029330
#
#
# Mechanical properties :
#
#
# Convention : Reuss Voigt Hill
#
# Bulk Modulus (GPa) = 58.60267 72.83574 65.71921
# Shear Modulus (GPa) = 31.75197 38.07023 34.91110
#
# Velocity S-wave (km/s) = 3.60776 3.95043 3.78298
# Velocity P-wave (km/s) = 6.43251 7.11794 6.78389
#
# Compressibility (1/GPa) = 0.01706407
#
# Stress axis : x y z
#
# Youngs Moduli (GPa) = 108.11768 120.21422 71.47523
#
# Poissons Ratio (x) = 0.30167 0.15979
# Poissons Ratio (y) = 0.27132 0.17884
# Poissons Ratio (z) = 0.24171 0.30079
#
# Static dielectric constant tensor:
#      x y z
#    x 6.460090 -0.000670 0.353530 
#    y -0.000670 4.683130 -0.000020 
#    z 0.353530 -0.000020 3.841860 
# 
# 
# High freq. dielectric constant tensor:
#      x y z
#    x 1.991340 -0.000010 0.018700 
#    y -0.000010 1.978120 0.000010 
#    z 0.018700 0.000010 1.929520 
# 
# From -- ./inp_files/317052.got.cif
#   From: 2010.06.25/outbox.cif.g09.slc.cpg/sg15_159_cif.got.tgz:317052.got - 2010.06.28 07:06:18.
