data_PCOD8142058
_publ_section_title
;
Structure prediction by ZEFSAII (Michael W. Deem and Ramdas Pophale) SiO2 
 PCOD8142058
Probable space group: C 2/C
;
_chemical_formula_sum "Si O2"
_cell_formula_units_Z 56
_cell_length_a 9.172126
_cell_length_b 11.650894
_cell_length_c 26.584027
_cell_angle_alpha 90.000000
_cell_angle_beta 108.176106
_cell_angle_gamma 90.000000
_cell_volume 2699.108645
_symmetry_space_group_name_H-M "C 2/C"
_symmetry_group_IT_number 15
_symmetry_cell_setting 'monoclinic'
loop_
_space_group_symop_operation_xyz
x,y,z
-x,y,1/2-z
-x,-y,-z
x,-y,1/2+z
1/2+x,1/2+y,z
1/2-x,1/2+y,1/2-z
1/2-x,1/2-y,-z
1/2+x,1/2-y,1/2+z
loop_
_atom_site_type_symbol
_atom_site_label
_atom_site_fract_x
_atom_site_fract_y
_atom_site_fract_z
Si Si1 0.545736 0.178393 0.672669
Si Si2 0.676573 0.849067 0.437340
Si Si3 0.000000 0.849129 0.750000
Si Si4 0.768857 0.029471 0.757318
Si Si5 0.212513 0.641371 0.337646
Si Si6 0.781974 0.400331 0.544193
Si Si7 0.500000 0.282871 0.250000
Si Si8 0.491751 0.743775 0.989443
O O1 0.417010 0.124578 0.623256
O O2 0.460922 0.267351 0.699610
O O3 0.664680 0.255925 0.654580
O O4 0.616013 0.070388 0.711485
O O5 0.568680 0.772873 0.461387
O O6 0.840592 0.791437 0.441429
O O7 0.714586 0.966763 0.469901
O O8 0.846738 0.924661 0.736043
O O9 0.745133 0.979344 0.811314
O O10 0.878737 0.140409 0.767831
O O11 0.195541 0.616257 0.394166
O O12 0.060042 0.697584 0.299156
O O13 0.617408 0.356566 0.507396
O O14 0.925621 0.347475 0.530044
#
# Coordination Sequence:
#
# PCOD8142058 Si02
#       8
#     8   8   4   8   8   8   4   8
#     4  10  21  38  61  90 122 158 204 249 306 365
#     4  11  23  41  67  91 122 165 206 256 315 367
#     4   9  20  37  54  84 126 157 196 247 298 368
#     4   9  20  37  56  82 124 161 197 246 298 368
#     4  10  21  38  61  90 122 158 204 249 306 365
#     4  11  23  41  67  91 122 165 206 256 315 367
#     4   9  20  37  54  84 126 157 196 247 298 368
#     4  10  24  46  62  90 130 158 212 266 302 370
#
# _framework density 20.747589000000001
#
# number of rings (size 3 to 8) (size 9 to 14) (size 15 to 20)
#    0.000    2.000    1.429    0.857    4.000    2.286 
#    2.571    0.000    0.000    0.000    0.000    0.000 
#    0.000    0.000    0.000    0.000    0.000    0.000 
#
# Total GULP energy -347019.276749 kJ/mol
# GULP energy per Si atom -12393.545598 kJ/mol
# Density = 2.070037 g / cm^3
# Si number density = 20.747589 Si / 1000 Ang^3
#
#
#
# Elastic Constant Matrix: (Units=GPa)
#
#
# Indices 1 2 3 4 5 6 
#
# 1 106.4051 21.0089 32.0356 0.0000 12.0933 0.0000
# 2 21.0089 75.8102 -0.4599 0.0000 9.6719 0.0000
# 3 32.0356 -0.4599 67.4588 0.0000 16.4814 0.0000
# 4 0.0000 0.0000 0.0000 25.5551 0.0000 7.0589
# 5 12.0933 9.6719 16.4814 0.0000 22.7473 0.0000
# 6 0.0000 0.0000 0.0000 7.0589 0.0000 25.7320
#
#
#
# Elastic Compliance Matrix: (Units=1/GPa)
#
#
# Indices 1 2 3 4 5 6 
#
# 1 0.011749 -0.003157 -0.005350 0.000000 -0.001027 0.000000
# 2 -0.003157 0.014994 0.003340 0.000000 -0.007117 0.000000
# 3 -0.005350 0.003340 0.020704 0.000000 -0.013577 0.000000
# 4 0.000000 0.000000 0.000000 0.042339 0.000000 -0.011615
# 5 -0.001027 -0.007117 -0.013577 0.000000 0.057371 0.000000
# 6 0.000000 0.000000 0.000000 -0.011615 0.000000 0.042048
#
#
# Mechanical properties :
#
#
# Convention : Reuss Voigt Hill
#
# Bulk Modulus (GPa) = 26.94417 39.42702 33.18559
# Shear Modulus (GPa) = 23.59482 27.94618 25.77050
#
# Velocity S-wave (km/s) = 3.37595 3.67408 3.52816
# Velocity P-wave (km/s) = 5.31139 6.08629 5.71199
#
# Compressibility (1/GPa) = 0.03711378
#
# Stress axis : x y z
#
# Youngs Moduli (GPa) = 85.11416 66.69306 48.29872
#
# Poissons Ratio (x) = 0.21057 0.25840
# Poissons Ratio (y) = 0.26873 -0.16134
# Poissons Ratio (z) = 0.45536 -0.22278
#
# Static dielectric constant tensor:
#      x y z
#    x 3.622750 0.000000 -0.205260 
#    y 0.000000 3.981340 0.000000 
#    z -0.205260 0.000000 3.307210 
# 
# 
# High freq. dielectric constant tensor:
#      x y z
#    x 1.822920 0.000000 0.002830 
#    y 0.000000 1.826620 0.000000 
#    z 0.002830 0.000000 1.795510 
# 
# From -- ./inp_files/288113.got.cif
#   From: 2010.06.25/outbox.cif.g09.slc.cpg/sg15_145_cif.got.tgz:288113.got - 2010.06.28 07:06:18.
