data_PCOD8142091
_publ_section_title
;
Structure prediction by ZEFSAII (Michael W. Deem and Ramdas Pophale) SiO2 
 PCOD8142091
Probable space group: C 2/C
;
_chemical_formula_sum "Si O2"
_cell_formula_units_Z 28
_cell_length_a 9.732030
_cell_length_b 24.790485
_cell_length_c 4.866202
_cell_angle_alpha 90.000000
_cell_angle_beta 73.156828
_cell_angle_gamma 90.000000
_cell_volume 1123.664256
_symmetry_space_group_name_H-M "C 2/C"
_symmetry_group_IT_number 15
_symmetry_cell_setting 'monoclinic'
loop_
_space_group_symop_operation_xyz
x,y,z
-x,y,1/2-z
-x,-y,-z
x,-y,1/2+z
1/2+x,1/2+y,z
1/2-x,1/2+y,1/2-z
1/2-x,1/2-y,-z
1/2+x,1/2-y,1/2+z
loop_
_atom_site_type_symbol
_atom_site_label
_atom_site_fract_x
_atom_site_fract_y
_atom_site_fract_z
Si Si1 0.652174 0.695754 0.565583
Si Si2 0.335779 0.535638 0.327476
Si Si3 0.206346 0.647007 0.513558
Si Si4 0.000000 0.697812 0.250000
O O1 0.500000 0.671056 0.750000
O O2 0.674447 0.678381 0.238225
O O3 0.637119 0.762188 0.601796
O O4 0.775453 0.667410 0.684153
O O5 0.500000 0.556009 0.250000
O O6 0.305743 0.483821 0.536166
O O7 0.227959 0.583174 0.473970
O O8 0.047799 0.661654 0.483158
#
# Coordination Sequence:
#
# PCOD8142091 Si02
#       4
#     8   8   8   4
#     4  10  23  36  63  87 123 158 200 244 291 354
#     4  10  21  38  62  86 113 150 202 253 296 342
#     4  12  22  42  60  91 124 161 197 248 301 352
#     4  10  26  38  62  90 128 162 198 238 296 374
#
# _framework density 24.918479000000001
#
# number of rings (size 3 to 8) (size 9 to 14) (size 15 to 20)
#    0.857    0.571    0.000    6.000    0.000    5.714 
#    0.000    1.429    0.000    0.000    0.000    0.000 
#    0.000    0.000    0.000    0.000    0.000    0.000 
#
# Total GULP energy -173669.877494 kJ/mol
# GULP energy per Si atom -12404.991250 kJ/mol
# Density = 2.486176 g / cm^3
# Si number density = 24.918479 Si / 1000 Ang^3
#
#
#
# Elastic Constant Matrix: (Units=GPa)
#
#
# Indices 1 2 3 4 5 6 
#
# 1 127.1833 41.1022 -6.9837 0.0000 19.3266 0.0000
# 2 41.1022 130.8132 9.5736 0.0000 9.4555 0.0000
# 3 -6.9837 9.5736 70.3284 0.0000 16.5258 0.0000
# 4 0.0000 0.0000 0.0000 36.1460 0.0000 -10.8015
# 5 19.3266 9.4555 16.5258 0.0000 28.1889 0.0000
# 6 0.0000 0.0000 0.0000 -10.8015 0.0000 30.3441
#
#
#
# Elastic Compliance Matrix: (Units=1/GPa)
#
#
# Indices 1 2 3 4 5 6 
#
# 1 0.010171 -0.002862 0.003262 0.000000 -0.007926 0.000000
# 2 -0.002862 0.008656 -0.001440 0.000000 -0.000098 0.000000
# 3 0.003262 -0.001440 0.017572 0.000000 -0.012055 0.000000
# 4 0.000000 0.000000 0.000000 0.030959 0.000000 0.011020
# 5 -0.007926 -0.000098 -0.012055 0.000000 0.048009 0.000000
# 6 0.000000 0.000000 0.000000 0.011020 0.000000 0.036878
#
#
# Mechanical properties :
#
#
# Convention : Reuss Voigt Hill
#
# Bulk Modulus (GPa) = 29.13740 46.18990 37.66365
# Shear Modulus (GPa) = 30.16358 37.91133 34.03745
#
# Velocity S-wave (km/s) = 3.48298 3.90476 3.69989
# Velocity P-wave (km/s) = 5.28142 6.23748 5.77926
#
# Compressibility (1/GPa) = 0.03432016
#
# Stress axis : x y z
#
# Youngs Moduli (GPa) = 98.31905 115.52639 56.91017
#
# Poissons Ratio (x) = 0.33059 -0.18564
# Poissons Ratio (y) = 0.28135 0.08192
# Poissons Ratio (z) = -0.32071 0.16630
#
# Static dielectric constant tensor:
#      x y z
#    x 4.644120 0.000000 -0.168530 
#    y 0.000000 4.088890 0.000000 
#    z -0.168530 0.000000 4.317320 
# 
# 
# High freq. dielectric constant tensor:
#      x y z
#    x 2.013950 0.000000 -0.017090 
#    y 0.000000 1.978610 0.000000 
#    z -0.017090 0.000000 2.008580 
# 
# From -- ./inp_files/3864.got.cif
#   From: 2010.06.25/outbox.cif.g09.slc.cpg/sg15_2_cif.got.tgz:3864.got - 2010.06.28 07:06:18.
