data_PCOD8142689
_publ_section_title
;
Structure prediction by ZEFSAII (Michael W. Deem and Ramdas Pophale) SiO2 
 PCOD8142689
Probable space group: C 2/C
;
_chemical_formula_sum "Si O2"
_cell_formula_units_Z 32
_cell_length_a 4.870642
_cell_length_b 19.964425
_cell_length_c 14.983894
_cell_angle_alpha 90.000000
_cell_angle_beta 116.392940
_cell_angle_gamma 90.000000
_cell_volume 1305.156362
_symmetry_space_group_name_H-M "C 2/C"
_symmetry_group_IT_number 15
_symmetry_cell_setting 'monoclinic'
loop_
_space_group_symop_operation_xyz
x,y,z
-x,y,1/2-z
-x,-y,-z
x,-y,1/2+z
1/2+x,1/2+y,z
1/2-x,1/2+y,1/2-z
1/2-x,1/2-y,-z
1/2+x,1/2-y,1/2+z
loop_
_atom_site_type_symbol
_atom_site_label
_atom_site_fract_x
_atom_site_fract_y
_atom_site_fract_z
Si Si1 0.185851 0.166329 0.366912
Si Si2 0.896088 0.099570 0.633795
Si Si3 0.693225 0.253299 0.365619
Si Si4 0.745903 0.558751 0.524177
O O1 0.525692 0.196125 0.400505
O O2 0.171718 0.099954 0.424301
O O3 0.000000 0.148075 0.250000
O O4 0.029628 0.227529 0.395210
O O5 0.757168 0.172505 0.588000
O O6 0.000000 0.089794 0.750000
O O7 0.188789 0.095879 0.610645
O O8 0.617346 0.044794 0.574710
O O9 0.500000 0.264995 0.250000
O O10 0.500000 0.500000 0.500000
#
# Coordination Sequence:
#
# PCOD8142689 Si02
#       4
#     8   8   8   8
#     4  10  21  39  63  94 131 166 208 271 329 382
#     4  11  24  44  67  94 129 166 212 276 332 383
#     4   9  19  37  64  96 126 161 209 263 334 399
#     4  12  26  42  63  94 129 175 228 258 308 395
#
# _framework density 24.518135000000001
#
# number of rings (size 3 to 8) (size 9 to 14) (size 15 to 20)
#    0.000    1.500    0.000    4.500    0.000   11.000 
#    0.000    7.500    0.000    0.000    0.000    0.000 
#    0.000    0.000    0.000    0.000    0.000    0.000 
#
# Total GULP energy -198217.493549 kJ/mol
# GULP energy per Si atom -12388.593347 kJ/mol
# Density = 2.446233 g / cm^3
# Si number density = 24.518135 Si / 1000 Ang^3
#
#
#
# Elastic Constant Matrix: (Units=GPa)
#
#
# Indices 1 2 3 4 5 6 
#
# 1 108.6198 -7.7255 21.3836 0.0000 -10.0004 0.0000
# 2 -7.7255 58.3608 -9.9650 0.0000 12.0294 0.0000
# 3 21.3836 -9.9650 58.4218 0.0000 6.1894 0.0000
# 4 0.0000 0.0000 0.0000 -1.8428 0.0000 6.6832
# 5 -10.0004 12.0294 6.1894 0.0000 35.2444 0.0000
# 6 0.0000 0.0000 0.0000 6.6832 0.0000 51.2040
#
#
#
# Elastic Compliance Matrix: (Units=1/GPa)
#
#
# Indices 1 2 3 4 5 6 
#
# 1 0.010369 -0.000113 -0.004209 0.000000 0.003720 0.000000
# 2 -0.000113 0.019340 0.004119 0.000000 -0.007356 0.000000
# 3 -0.004209 0.004119 0.020008 0.000000 -0.006114 0.000000
# 4 0.000000 0.000000 0.000000 -0.368305 0.000000 0.048072
# 5 0.003720 -0.007356 -0.006114 0.000000 0.033013 0.000000
# 6 0.000000 0.000000 0.000000 0.048072 0.000000 0.013255
#
#
# Mechanical properties :
#
#
# Convention : Reuss Voigt Hill
#
# Bulk Modulus (GPa) = 20.27883 25.86538 23.07210
# Shear Modulus (GPa) = -19.57121 31.70172 6.06525
#
# Velocity S-wave (km/s) = -2.82837 3.59972 1.57453
# Velocity P-wave (km/s) = 1.54186 5.27728 3.56878
#
# Compressibility (1/GPa) = 0.04931252
#
# Stress axis : x y z
#
# Youngs Moduli (GPa) = 96.43703 51.70754 49.98054
#
# Poissons Ratio (x) = 0.00583 0.21036
# Poissons Ratio (y) = 0.01087 -0.20589
# Poissons Ratio (z) = 0.40588 -0.21300
#
# Static dielectric constant tensor:
#      x y z
#    x 4.836330 0.000000 -0.538420 
#    y 0.000000 4.354930 0.000000 
#    z -0.538420 0.000000 4.571290 
# 
# 
# High freq. dielectric constant tensor:
#      x y z
#    x 1.994340 0.000000 -0.011800 
#    y 0.000000 1.962350 0.000000 
#    z -0.011800 0.000000 1.992370 
# 
# From -- ./inp_files/128343.got.cif
#   From: 2010.06.25/outbox.cif.g09.slc.cpg/sg15_65_cif.got.tgz:128343.got - 2010.06.28 07:06:18.
