data_PCOD8142237
_publ_section_title
;
Structure prediction by ZEFSAII (Michael W. Deem and Ramdas Pophale) SiO2 
 PCOD8142237
Probable space group: C 2/C
;
_chemical_formula_sum "Si O2"
_cell_formula_units_Z 44
_cell_length_a 28.623722
_cell_length_b 5.413232
_cell_length_c 17.167068
_cell_angle_alpha 90.000000
_cell_angle_beta 123.056915
_cell_angle_gamma 90.000000
_cell_volume 2229.409313
_symmetry_space_group_name_H-M "C 2/C"
_symmetry_group_IT_number 15
_symmetry_cell_setting 'monoclinic'
loop_
_space_group_symop_operation_xyz
x,y,z
-x,y,1/2-z
-x,-y,-z
x,-y,1/2+z
1/2+x,1/2+y,z
1/2-x,1/2+y,1/2-z
1/2-x,1/2-y,-z
1/2+x,1/2-y,1/2+z
loop_
_atom_site_type_symbol
_atom_site_label
_atom_site_fract_x
_atom_site_fract_y
_atom_site_fract_z
Si Si1 0.598775 0.994165 0.421042
Si Si2 0.188474 0.267025 0.911685
Si Si3 0.143249 0.238166 0.324835
Si Si4 0.000000 0.739867 0.250000
Si Si5 0.455406 0.804825 0.987733
Si Si6 0.451840 0.523590 0.344030
O O1 0.645187 0.205998 0.445379
O O2 0.536691 0.074687 0.340714
O O3 0.614330 0.753270 0.383940
O O4 0.595427 0.928539 0.509951
O O5 0.180782 0.511412 0.848778
O O6 0.178034 0.016659 0.853194
O O7 0.250000 0.250000 0.000000
O O8 0.095852 0.231924 0.213653
O O9 0.042279 0.892483 0.234209
O O10 0.487821 0.622018 0.075971
O O11 0.429457 0.660742 0.890836
O O12 0.500000 0.000000 0.000000
#
# Coordination Sequence:
#
# PCOD8142237 Si02
#       6
#     8   8   8   4   8   8
#     4  10  22  34  62  88 128 161 206 257 316 371
#     4  10  22  39  63  94 118 153 216 272 316 350
#     4  10  21  38  64  90 117 164 206 267 299 375
#     4  12  18  38  58  90 126 156 206 246 310 378
#     4  11  23  35  52  89 131 172 193 252 309 398
#     4  11  22  34  56  87 131 166 208 241 321 381
#
# _framework density 19.736170000000001
#
# number of rings (size 3 to 8) (size 9 to 14) (size 15 to 20)
#    1.091    0.364    3.636    2.727    2.545    0.000 
#    0.000    0.000    0.000    0.000    9.455    0.000 
#    0.000    0.000    0.000    0.000    0.000    0.000 
#
# Total GULP energy -272596.554486 kJ/mol
# GULP energy per Si atom -12390.752477 kJ/mol
# Density = 1.969125 g / cm^3
# Si number density = 19.736170 Si / 1000 Ang^3
#
#
#
# Elastic Constant Matrix: (Units=GPa)
#
#
# Indices 1 2 3 4 5 6 
#
# 1 61.0238 16.2170 29.1917 -0.0001 11.3171 0.0001
# 2 16.2170 112.6223 28.8879 -0.0001 6.9375 0.0006
# 3 29.1917 28.8879 79.9814 -0.0001 1.5865 0.0000
# 4 -0.0001 -0.0001 -0.0001 37.1474 -0.0001 5.6596
# 5 11.3171 6.9375 1.5865 -0.0001 34.7995 0.0000
# 6 0.0001 0.0006 0.0000 5.6596 0.0000 23.1479
#
#
#
# Elastic Compliance Matrix: (Units=1/GPa)
#
#
# Indices 1 2 3 4 5 6 
#
# 1 0.021314 -0.000782 -0.007369 0.000000 -0.006440 0.000000
# 2 -0.000782 0.009927 -0.003269 0.000000 -0.001576 0.000000
# 3 -0.007369 -0.003269 0.016327 0.000000 0.002304 0.000000
# 4 0.000000 0.000000 0.000000 0.027961 0.000000 -0.006836
# 5 -0.006440 -0.001576 0.002304 0.000000 0.031039 0.000000
# 6 0.000000 0.000000 0.000000 -0.006836 0.000000 0.044872
#
#
# Mechanical properties :
#
#
# Convention : Reuss Voigt Hill
#
# Bulk Modulus (GPa) = 40.43865 44.69119 42.56492
# Shear Modulus (GPa) = 27.39350 30.97435 29.18392
#
# Velocity S-wave (km/s) = 3.72961 3.96589 3.84956
# Velocity P-wave (km/s) = 6.25146 6.60791 6.43215
#
# Compressibility (1/GPa) = 0.02472882
#
# Stress axis : x y z
#
# Youngs Moduli (GPa) = 46.91684 100.73127 61.24666
#
# Poissons Ratio (x) = 0.07880 0.45133
# Poissons Ratio (y) = 0.03670 0.20020
# Poissons Ratio (z) = 0.34573 0.32927
#
# Static dielectric constant tensor:
#      x y z
#    x 3.370270 -0.000010 0.076830 
#    y -0.000010 3.808090 0.000010 
#    z 0.076830 0.000010 3.665790 
# 
# 
# High freq. dielectric constant tensor:
#      x y z
#    x 1.728850 0.000000 0.002080 
#    y 0.000000 1.781770 0.000000 
#    z 0.002080 0.000000 1.751460 
# 
# From -- ./inp_files/175500.got.cif
#   From: 2010.06.25/outbox.cif.g09.slc.cpg/sg15_88_cif.got.tgz:175500.got - 2010.06.28 07:06:18.
