data_PCOD8142826
_publ_section_title
;
Structure prediction by ZEFSAII (Michael W. Deem and Ramdas Pophale) SiO2 
 PCOD8142826
Probable space group: C 2/C
;
_chemical_formula_sum "Si O2"
_cell_formula_units_Z 60
_cell_length_a 16.296418
_cell_length_b 10.530532
_cell_length_c 17.421662
_cell_angle_alpha 90.000000
_cell_angle_beta 86.706567
_cell_angle_gamma 90.000000
_cell_volume 2984.792751
_symmetry_space_group_name_H-M "C 2/C"
_symmetry_group_IT_number 15
_symmetry_cell_setting 'monoclinic'
loop_
_space_group_symop_operation_xyz
x,y,z
-x,y,1/2-z
-x,-y,-z
x,-y,1/2+z
1/2+x,1/2+y,z
1/2-x,1/2+y,1/2-z
1/2-x,1/2-y,-z
1/2+x,1/2-y,1/2+z
loop_
_atom_site_type_symbol
_atom_site_label
_atom_site_fract_x
_atom_site_fract_y
_atom_site_fract_z
Si Si1 0.453025 0.947085 0.075418
Si Si2 0.362813 0.570861 0.722182
Si Si3 0.209520 0.384212 0.496477
Si Si4 0.860409 0.365010 0.688203
Si Si5 0.695647 0.450910 0.619019
Si Si6 0.695758 0.002058 0.160905
Si Si7 0.500000 0.406005 0.750000
Si Si8 0.910415 0.267996 0.363573
O O1 0.510849 0.836034 0.104931
O O2 0.432862 0.060723 0.137083
O O3 0.368514 0.879788 0.055894
O O4 0.500000 0.000000 0.000000
O O5 0.379376 0.716613 0.698881
O O6 0.343180 0.546616 0.814385
O O7 0.291457 0.508582 0.675123
O O8 0.447133 0.496985 0.696147
O O9 0.250000 0.250000 0.500000
O O10 0.279365 0.473113 0.457632
O O11 0.180814 0.431095 0.580794
O O12 0.774388 0.379573 0.649820
O O13 0.855902 0.422331 0.773283
O O14 0.634423 0.343899 0.585343
O O15 0.659268 0.862546 0.160144
O O16 0.565839 0.312412 0.711194
#
# Coordination Sequence:
#
# PCOD8142826 Si02
#       8
#     8   8   8   8   8   8   4   8
#     4  11  24  42  61  93 126 162 202 257 310 358
#     4  10  21  40  61  95 120 158 209 257 302 367
#     4  11  24  42  63  90 123 163 206 254 303 369
#     4  10  21  39  66  90 122 159 208 255 298 364
#     4   9  21  40  64  89 122 168 201 251 308 365
#     4  11  22  37  67  91 116 165 210 243 308 369
#     4  10  24  38  64  90 128 158 198 266 312 348
#     4  11  21  41  60  89 123 160 205 246 309 370
#
# _framework density 20.101897000000001
#
# number of rings (size 3 to 8) (size 9 to 14) (size 15 to 20)
#    0.000    1.600    2.667    1.600    1.867    2.667 
#    4.800    0.667    0.000    0.000    0.000    0.000 
#    0.000    0.000    0.000    0.000    0.000    0.000 
#
# Total GULP energy -371770.140482 kJ/mol
# GULP energy per Si atom -12392.338016 kJ/mol
# Density = 2.005614 g / cm^3
# Si number density = 20.101897 Si / 1000 Ang^3
#
#
#
# Elastic Constant Matrix: (Units=GPa)
#
#
# Indices 1 2 3 4 5 6 
#
# 1 100.2791 55.9841 18.7134 0.0000 7.7733 0.0000
# 2 55.9841 153.8546 45.6670 0.0000 0.6834 0.0000
# 3 18.7134 45.6670 84.4867 0.0000 -4.6768 0.0000
# 4 0.0000 0.0000 0.0000 16.4939 0.0000 -4.1260
# 5 7.7733 0.6834 -4.6768 0.0000 28.9256 0.0000
# 6 0.0000 0.0000 0.0000 -4.1260 0.0000 48.8180
#
#
#
# Elastic Compliance Matrix: (Units=1/GPa)
#
#
# Indices 1 2 3 4 5 6 
#
# 1 0.012855 -0.004479 -0.000617 0.000000 -0.003449 0.000000
# 2 -0.004479 0.009324 -0.004029 0.000000 0.000332 0.000000
# 3 -0.000617 -0.004029 0.014293 0.000000 0.002572 0.000000
# 4 0.000000 0.000000 0.000000 0.061938 0.000000 0.005235
# 5 -0.003449 0.000332 0.002572 0.000000 0.035906 0.000000
# 6 0.000000 0.000000 0.000000 0.005235 0.000000 0.020927
#
#
# Mechanical properties :
#
#
# Convention : Reuss Voigt Hill
#
# Bulk Modulus (GPa) = 54.88153 64.37218 59.62686
# Shear Modulus (GPa) = 27.84446 33.39789 30.62117
#
# Velocity S-wave (km/s) = 3.72582 4.08049 3.90718
# Velocity P-wave (km/s) = 6.77273 7.36837 7.07682
#
# Compressibility (1/GPa) = 0.01822107
#
# Stress axis : x y z
#
# Youngs Moduli (GPa) = 77.78861 107.24952 69.96329
#
# Poissons Ratio (x) = 0.48040 0.04318
# Poissons Ratio (y) = 0.34843 0.28191
# Poissons Ratio (z) = 0.04801 0.43215
#
# Static dielectric constant tensor:
#      x y z
#    x 5.968150 0.000000 0.122450 
#    y 0.000000 4.037550 0.000000 
#    z 0.122450 0.000000 3.803690 
# 
# 
# High freq. dielectric constant tensor:
#      x y z
#    x 1.798130 0.000000 -0.006360 
#    y 0.000000 1.798080 0.000000 
#    z -0.006360 0.000000 1.767010 
# 
# From -- ./inp_files/209593.got.cif
#   From: 2010.06.25/outbox.cif.g09.slc.cpg/sg15_105_cif.got.tgz:209593.got - 2010.06.28 07:06:18.
