data_PCOD8142453
_publ_section_title
;
Structure prediction by ZEFSAII (Michael W. Deem and Ramdas Pophale) SiO2 
 PCOD8142453
Probable space group: C 2/C
;
_chemical_formula_sum "Si O2"
_cell_formula_units_Z 52
_cell_length_a 12.590285
_cell_length_b 29.508440
_cell_length_c 8.216207
_cell_angle_alpha 90.000000
_cell_angle_beta 60.946893
_cell_angle_gamma 90.000000
_cell_volume 2668.388529
_symmetry_space_group_name_H-M "C 2/C"
_symmetry_group_IT_number 15
_symmetry_cell_setting 'monoclinic'
loop_
_space_group_symop_operation_xyz
x,y,z
-x,y,1/2-z
-x,-y,-z
x,-y,1/2+z
1/2+x,1/2+y,z
1/2-x,1/2+y,1/2-z
1/2-x,1/2-y,-z
1/2+x,1/2-y,1/2+z
loop_
_atom_site_type_symbol
_atom_site_label
_atom_site_fract_x
_atom_site_fract_y
_atom_site_fract_z
Si Si1 0.824820 0.347338 0.202561
Si Si2 0.249725 0.629035 0.385362
Si Si3 0.000000 0.171692 0.250000
Si Si4 0.852776 0.538256 0.018880
Si Si5 0.881622 0.554072 0.620119
Si Si6 0.556995 0.812337 0.874209
Si Si7 0.583070 0.707880 0.843651
O O1 0.816188 0.356989 0.399111
O O2 0.830501 0.396489 0.107377
O O3 0.709823 0.318602 0.224894
O O4 0.949762 0.319197 0.086729
O O5 0.390351 0.639619 0.283085
O O6 0.244463 0.575490 0.348942
O O7 0.177285 0.657807 0.306264
O O8 0.972771 0.199895 0.434477
O O9 0.809447 0.486488 0.082000
O O10 0.868817 0.545064 0.818203
O O11 0.975504 0.549969 0.028818
O O12 0.500000 0.829336 0.750000
O O13 0.605836 0.761281 0.824073
O O14 0.500000 0.693455 0.750000
#
# Coordination Sequence:
#
# PCOD8142453 Si02
#       7
#     8   8   4   8   8   8   8
#     4  10  21  39  60  83 119 159 191 241 301 349
#     4  10  21  39  59  86 118 155 199 243 288 362
#     4  10  24  40  64  82 116 170 202 234 304 352
#     4   9  17  32  54  81 116 141 185 246 288 346
#     4   9  17  32  54  84 111 147 185 236 301 344
#     4  11  24  35  59  91 115 151 197 251 294 347
#     4  10  25  41  59  86 123 158 202 249 289 357
#
# _framework density 19.487417000000001
#
# number of rings (size 3 to 8) (size 9 to 14) (size 15 to 20)
#    0.000    2.154    1.538    0.462    6.462    3.692 
#    0.000    0.000    1.692    2.769    0.000    0.000 
#    0.000    0.000    0.000    0.000    0.000    0.000 
#
# Total GULP energy -322198.674600 kJ/mol
# GULP energy per Si atom -12392.256715 kJ/mol
# Density = 1.944306 g / cm^3
# Si number density = 19.487417 Si / 1000 Ang^3
#
#
#
# Elastic Constant Matrix: (Units=GPa)
#
#
# Indices 1 2 3 4 5 6 
#
# 1 111.0032 66.1134 28.3332 0.0000 -8.0358 0.0000
# 2 66.1134 147.3822 19.2098 0.0000 -9.6966 0.0000
# 3 28.3332 19.2098 41.8742 0.0000 -8.6083 0.0000
# 4 0.0000 0.0000 0.0000 24.1281 0.0000 1.8487
# 5 -8.0358 -9.6966 -8.6083 0.0000 25.4233 0.0000
# 6 0.0000 0.0000 0.0000 1.8487 0.0000 24.9316
#
#
#
# Elastic Compliance Matrix: (Units=1/GPa)
#
#
# Indices 1 2 3 4 5 6 
#
# 1 0.013991 -0.005363 -0.007006 0.000000 0.000005 0.000000
# 2 -0.005363 0.009346 -0.000295 0.000000 0.001770 0.000000
# 3 -0.007006 -0.000295 0.030394 0.000000 0.007964 0.000000
# 4 0.000000 0.000000 0.000000 0.041682 0.000000 -0.003091
# 5 0.000005 0.001770 0.007964 0.000000 0.042707 0.000000
# 6 0.000000 0.000000 0.000000 -0.003091 0.000000 0.040339
#
#
# Mechanical properties :
#
#
# Convention : Reuss Voigt Hill
#
# Bulk Modulus (GPa) = 35.20640 58.61915 46.91277
# Shear Modulus (GPa) = 23.44619 27.33681 25.39150
#
# Velocity S-wave (km/s) = 3.47240 3.74945 3.61358
# Velocity P-wave (km/s) = 5.84655 6.99216 6.44486
#
# Compressibility (1/GPa) = 0.02840393
#
# Stress axis : x y z
#
# Youngs Moduli (GPa) = 71.47237 107.00171 32.90140
#
# Poissons Ratio (x) = 0.57384 0.23050
# Poissons Ratio (y) = 0.38330 0.00970
# Poissons Ratio (z) = 0.50072 0.03155
#
# Static dielectric constant tensor:
#      x y z
#    x 3.492540 0.000000 0.087310 
#    y 0.000000 3.903140 0.000000 
#    z 0.087310 0.000000 3.534780 
# 
# 
# High freq. dielectric constant tensor:
#      x y z
#    x 1.742330 0.000000 0.012780 
#    y 0.000000 1.770360 0.000000 
#    z 0.012780 0.000000 1.747630 
# 
# From -- ./inp_files/34107.got.cif
#   From: 2010.06.25/outbox.cif.g09.slc.cpg/sg15_18_cif.got.tgz:34107.got - 2010.06.28 07:06:18.
