data_PCOD8142574
_publ_section_title
;
Structure prediction by ZEFSAII (Michael W. Deem and Ramdas Pophale) SiO2 
 PCOD8142574
Probable space group: C 2/C
;
_chemical_formula_sum "Si O2"
_cell_formula_units_Z 48
_cell_length_a 19.493112
_cell_length_b 17.026131
_cell_length_c 15.292141
_cell_angle_alpha 90.000000
_cell_angle_beta 151.303585
_cell_angle_gamma 90.000000
_cell_volume 2437.020661
_symmetry_space_group_name_H-M "C 2/C"
_symmetry_group_IT_number 15
_symmetry_cell_setting 'monoclinic'
loop_
_space_group_symop_operation_xyz
x,y,z
-x,y,1/2-z
-x,-y,-z
x,-y,1/2+z
1/2+x,1/2+y,z
1/2-x,1/2+y,1/2-z
1/2-x,1/2-y,-z
1/2+x,1/2-y,1/2+z
loop_
_atom_site_type_symbol
_atom_site_label
_atom_site_fract_x
_atom_site_fract_y
_atom_site_fract_z
Si Si1 0.717094 0.453816 0.881406
Si Si2 0.984080 0.314966 0.484946
Si Si3 0.674957 0.934639 0.309532
Si Si4 0.808509 0.159647 0.306766
Si Si5 0.038493 0.566866 0.390678
Si Si6 0.935158 0.986661 0.022208
O O1 0.698493 0.381979 0.794846
O O2 0.567274 0.498215 0.736562
O O3 0.785780 0.418415 0.045804
O O4 0.816027 0.518119 0.945790
O O5 0.913592 0.360686 0.324507
O O6 0.921354 0.228641 0.421215
O O7 0.943732 0.356798 0.530488
O O8 0.153955 0.308264 0.661887
O O9 0.582400 0.013535 0.200013
O O10 0.814857 0.948377 0.407529
O O11 0.867993 0.100911 0.449249
O O12 0.000000 0.594080 0.250000
O O13 0.000000 0.000000 0.000000
#
# Coordination Sequence:
#
# PCOD8142574 Si02
#       6
#     8   8   8   8   8   8
#     4  10  22  40  64  96 119 154 213 257 306 357
#     4  12  24  40  61  89 127 166 204 244 319 365
#     4  11  21  40  68  88 120 164 204 260 302 365
#     4  11  25  39  60  90 128 166 199 253 303 376
#     4  10  21  41  67  89 115 158 212 260 304 362
#     4  10  21  39  62  89 120 158 210 253 295 355
#
# _framework density 19.696182
#
# number of rings (size 3 to 8) (size 9 to 14) (size 15 to 20)
#    0.000    1.333    3.333    3.000    7.000    0.667 
#    0.000    2.500    0.000    0.000    0.000    0.000 
#    0.000    0.000    0.000    0.000    0.000    0.000 
#
# Total GULP energy -297616.751447 kJ/mol
# GULP energy per Si atom -12400.697977 kJ/mol
# Density = 1.965135 g / cm^3
# Si number density = 19.696182 Si / 1000 Ang^3
#
#
#
# Elastic Constant Matrix: (Units=GPa)
#
#
# Indices 1 2 3 4 5 6 
#
# 1 62.8206 25.7637 23.9899 0.0000 23.3528 0.0000
# 2 25.7637 104.8308 46.3797 0.0000 3.3761 0.0000
# 3 23.9899 46.3797 111.6478 0.0000 22.9818 0.0000
# 4 0.0000 0.0000 0.0000 31.6510 0.0001 8.2593
# 5 23.3528 3.3761 22.9818 0.0001 40.0194 0.0000
# 6 0.0000 0.0000 0.0000 8.2593 0.0000 22.5275
#
#
#
# Elastic Compliance Matrix: (Units=1/GPa)
#
#
# Indices 1 2 3 4 5 6 
#
# 1 0.022844 -0.005142 -0.000133 0.000000 -0.012820 0.000000
# 2 -0.005142 0.012994 -0.005313 0.000000 0.004956 0.000000
# 3 -0.000133 -0.005313 0.012570 0.000000 -0.006692 0.000000
# 4 0.000000 0.000000 0.000000 0.034937 0.000000 -0.012809
# 5 -0.012820 0.004956 -0.006692 0.000000 0.035894 0.000000
# 6 0.000000 0.000000 0.000000 -0.012809 0.000000 0.049086
#
#
# Mechanical properties :
#
#
# Convention : Reuss Voigt Hill
#
# Bulk Modulus (GPa) = 36.72362 52.39619 44.55991
# Shear Modulus (GPa) = 25.17884 31.05066 28.11475
#
# Velocity S-wave (km/s) = 3.57930 3.97480 3.78222
# Velocity P-wave (km/s) = 5.98058 6.90835 6.46114
#
# Compressibility (1/GPa) = 0.02723043
#
# Stress axis : x y z
#
# Youngs Moduli (GPa) = 43.77542 76.95886 79.55414
#
# Poissons Ratio (x) = 0.39575 0.01062
# Poissons Ratio (y) = 0.22511 0.42267
# Poissons Ratio (z) = 0.00584 0.40888
#
# Static dielectric constant tensor:
#      x y z
#    x 3.561830 0.000000 0.125730 
#    y 0.000000 3.381880 0.000000 
#    z 0.125730 0.000000 4.278420 
# 
# 
# High freq. dielectric constant tensor:
#      x y z
#    x 1.773490 0.000000 0.011610 
#    y 0.000000 1.742870 0.000000 
#    z 0.011610 0.000000 1.790020 
# 
# From -- ./inp_files/47933.got.cif
#   From: 2010.06.25/outbox.cif.g09.slc.cpg/sg15_24_cif.got.tgz:47933.got - 2010.06.28 07:06:18.
