data_PCOD8142636
_publ_section_title
;
Structure prediction by ZEFSAII (Michael W. Deem and Ramdas Pophale) SiO2 
 PCOD8142636
Probable space group: C 2/C
;
_chemical_formula_sum "Si O2"
_cell_formula_units_Z 36
_cell_length_a 14.916427
_cell_length_b 8.943369
_cell_length_c 17.307205
_cell_angle_alpha 90.000000
_cell_angle_beta 130.424513
_cell_angle_gamma 90.000000
_cell_volume 1757.625918
_symmetry_space_group_name_H-M "C 2/C"
_symmetry_group_IT_number 15
_symmetry_cell_setting 'monoclinic'
loop_
_space_group_symop_operation_xyz
x,y,z
-x,y,1/2-z
-x,-y,-z
x,-y,1/2+z
1/2+x,1/2+y,z
1/2-x,1/2+y,1/2-z
1/2-x,1/2-y,-z
1/2+x,1/2-y,1/2+z
loop_
_atom_site_type_symbol
_atom_site_label
_atom_site_fract_x
_atom_site_fract_y
_atom_site_fract_z
Si Si1 0.776922 0.601138 0.697013
Si Si2 0.354986 0.294270 0.877630
Si Si3 0.000000 0.454449 0.750000
Si Si4 0.100351 0.311255 0.526730
Si Si5 0.075323 0.617178 0.448917
O O1 0.692533 0.459432 0.659207
O O2 0.784051 0.679620 0.784069
O O3 0.905088 0.560096 0.737743
O O4 0.717559 0.714375 0.602762
O O5 0.494034 0.291260 0.932693
O O6 0.341520 0.237469 0.960014
O O7 0.939494 0.348811 0.650830
O O8 0.129352 0.449861 0.486509
O O9 0.055128 0.380218 0.584037
#
# Coordination Sequence:
#
# PCOD8142636 Si02
#       5
#     8   8   4   8   8
#     4  12  22  37  66  85 120 149 203 230 301 334
#     4  10  21  39  63  87 108 165 192 241 269 371
#     4  12  22  36  56  92 120 160 176 256 290 336
#     4   9  19  41  61  86 111 160 195 238 273 370
#     4   9  19  39  59  84 121 143 200 233 296 324
#
# _framework density 20.482175999999999
#
# number of rings (size 3 to 8) (size 9 to 14) (size 15 to 20)
#    1.333    0.444    2.222    3.333    0.000    1.778 
#    0.000    0.000    0.000    4.000    0.000    0.000 
#    0.000    0.000    0.000    0.000    0.000    0.000 
#
# Total GULP energy -223048.579012 kJ/mol
# GULP energy per Si atom -12391.587723 kJ/mol
# Density = 2.043556 g / cm^3
# Si number density = 20.482176 Si / 1000 Ang^3
#
#
#
# Elastic Constant Matrix: (Units=GPa)
#
#
# Indices 1 2 3 4 5 6 
#
# 1 17.3538 -0.5488 11.6535 0.0000 3.7997 0.0000
# 2 -0.5488 57.8350 41.9575 0.0000 4.9741 0.0000
# 3 11.6535 41.9575 144.0522 0.0000 -9.2915 0.0000
# 4 0.0000 0.0000 0.0000 31.1695 0.0000 12.7218
# 5 3.7997 4.9741 -9.2915 0.0000 34.0484 0.0000
# 6 0.0000 0.0000 0.0000 12.7218 0.0000 16.6942
#
#
#
# Elastic Compliance Matrix: (Units=1/GPa)
#
#
# Indices 1 2 3 4 5 6 
#
# 1 0.065684 0.007472 -0.008177 0.000000 -0.010653 0.000000
# 2 0.007472 0.023655 -0.007910 0.000000 -0.006448 0.000000
# 3 -0.008177 -0.007910 0.010221 0.000000 0.004857 0.000000
# 4 0.000000 0.000000 0.000000 0.046566 0.000000 -0.035486
# 5 -0.010653 -0.006448 0.004857 0.000000 0.032826 0.000000
# 6 0.000000 0.000000 0.000000 -0.035486 0.000000 0.086943
#
#
# Mechanical properties :
#
#
# Convention : Reuss Voigt Hill
#
# Bulk Modulus (GPa) = 12.14647 36.15173 24.14910
# Shear Modulus (GPa) = 16.09950 27.46100 21.78025
#
# Velocity S-wave (km/s) = 2.80665 3.66557 3.26448
# Velocity P-wave (km/s) = 4.05539 5.96689 5.10147
#
# Compressibility (1/GPa) = 0.08232847
#
# Stress axis : x y z
#
# Youngs Moduli (GPa) = 15.22437 42.27506 97.84067
#
# Poissons Ratio (x) = -0.31587 0.80006
# Poissons Ratio (y) = -0.11375 0.77393
# Poissons Ratio (z) = 0.12449 0.33440
#
# Static dielectric constant tensor:
#      x y z
#    x 3.217240 0.000000 0.040690 
#    y 0.000000 3.482510 0.000000 
#    z 0.040690 0.000000 3.957460 
# 
# 
# High freq. dielectric constant tensor:
#      x y z
#    x 1.751150 0.000000 0.007450 
#    y 0.000000 1.786820 0.000000 
#    z 0.007450 0.000000 1.821780 
# 
# From -- ./inp_files/208779.got.cif
#   From: 2010.06.25/outbox.cif.g09.slc.cpg/sg15_105_cif.got.tgz:208779.got - 2010.06.28 07:06:18.
