data_PCOD8142908
_publ_section_title
;
Structure prediction by ZEFSAII (Michael W. Deem and Ramdas Pophale) SiO2 
 PCOD8142908
Probable space group: C 2/C
;
_chemical_formula_sum "Si O2"
_cell_formula_units_Z 48
_cell_length_a 21.008207
_cell_length_b 11.209807
_cell_length_c 15.025334
_cell_angle_alpha 90.000000
_cell_angle_beta 37.850945
_cell_angle_gamma 90.000000
_cell_volume 2171.217100
_symmetry_space_group_name_H-M "C 2/C"
_symmetry_group_IT_number 15
_symmetry_cell_setting 'monoclinic'
loop_
_space_group_symop_operation_xyz
x,y,z
-x,y,1/2-z
-x,-y,-z
x,-y,1/2+z
1/2+x,1/2+y,z
1/2-x,1/2+y,1/2-z
1/2-x,1/2-y,-z
1/2+x,1/2-y,1/2+z
loop_
_atom_site_type_symbol
_atom_site_label
_atom_site_fract_x
_atom_site_fract_y
_atom_site_fract_z
Si Si1 0.949790 0.372074 0.553765
Si Si2 0.586396 0.246808 0.225490
Si Si3 0.740659 0.134394 0.345093
Si Si4 0.754279 0.559096 0.518850
Si Si5 0.150123 0.862202 0.532239
Si Si6 0.948203 0.816255 0.674865
O O1 0.967039 0.294793 0.623650
O O2 0.825388 0.381936 0.672332
O O3 0.000000 0.500000 0.500000
O O4 0.007727 0.309351 0.407446
O O5 0.500000 0.285977 0.250000
O O6 0.661831 0.358615 0.159577
O O7 0.648444 0.135140 0.118429
O O8 0.721560 0.267435 0.403223
O O9 0.866631 0.125872 0.193597
O O10 0.704227 0.029395 0.451051
O O11 0.712766 0.483756 0.480279
O O12 0.115690 0.800106 0.662957
O O13 0.049150 0.898128 0.583862
#
# Coordination Sequence:
#
# PCOD8142908 Si02
#       6
#     8   8   8   8   8   8
#     4  11  25  40  61  94 130 166 207 265 316 376
#     4  11  26  43  63  88 130 173 213 250 316 391
#     4  10  21  39  67  94 124 160 215 264 314 372
#     4  10  22  42  65  92 122 171 210 258 312 379
#     4   9  19  37  67  97 120 157 212 260 312 373
#     4   9  19  36  63  95 121 155 206 261 313 367
#
# _framework density 22.107417000000002
#
# number of rings (size 3 to 8) (size 9 to 14) (size 15 to 20)
#    0.000    2.000    0.000    3.000    9.333    4.000 
#    3.000    3.333    0.000    0.000    0.000    0.000 
#    0.000    0.000    0.000    0.000    0.000    0.000 
#
# Total GULP energy -297479.402973 kJ/mol
# GULP energy per Si atom -12394.975124 kJ/mol
# Density = 2.205710 g / cm^3
# Si number density = 22.107417 Si / 1000 Ang^3
#
#
#
# Elastic Constant Matrix: (Units=GPa)
#
#
# Indices 1 2 3 4 5 6 
#
# 1 126.1121 5.7262 9.6712 0.0000 -20.5256 0.0000
# 2 5.7262 77.6630 5.4789 0.0000 0.7853 0.0000
# 3 9.6712 5.4789 43.1579 0.0000 -7.4530 0.0000
# 4 0.0000 0.0000 0.0000 22.1294 0.0000 1.1988
# 5 -20.5256 0.7853 -7.4530 0.0000 27.6758 0.0000
# 6 0.0000 0.0000 0.0000 1.1988 0.0000 30.0136
#
#
#
# Elastic Compliance Matrix: (Units=1/GPa)
#
#
# Indices 1 2 3 4 5 6 
#
# 1 0.009087 -0.000678 -0.000821 0.000000 0.006538 0.000000
# 2 -0.000678 0.013062 -0.001738 0.000000 -0.001342 0.000000
# 3 -0.000821 -0.001738 0.024624 0.000000 0.006071 0.000000
# 4 0.000000 0.000000 0.000000 0.045287 0.000000 -0.001809
# 5 0.006538 -0.001342 0.006071 0.000000 0.042654 0.000000
# 6 0.000000 0.000000 0.000000 -0.001809 0.000000 0.033390
#
#
# Mechanical properties :
#
#
# Convention : Reuss Voigt Hill
#
# Bulk Modulus (GPa) = 24.81477 32.07618 28.44547
# Shear Modulus (GPa) = 26.59394 31.03419 28.81406
#
# Velocity S-wave (km/s) = 3.47211 3.75078 3.61413
# Velocity P-wave (km/s) = 5.22715 5.77049 5.50553
#
# Compressibility (1/GPa) = 0.04029858
#
# Stress axis : x y z
#
# Youngs Moduli (GPa) = 110.04408 76.55606 40.61097
#
# Poissons Ratio (x) = 0.05192 0.03335
# Poissons Ratio (y) = 0.07463 0.07058
# Poissons Ratio (z) = 0.09038 0.13305
#
# Static dielectric constant tensor:
#      x y z
#    x 4.512160 0.000000 -0.338390 
#    y 0.000000 3.813090 0.000000 
#    z -0.338390 0.000000 3.793590 
# 
# 
# High freq. dielectric constant tensor:
#      x y z
#    x 1.885200 0.000000 -0.024710 
#    y 0.000000 1.863530 0.000000 
#    z -0.024710 0.000000 1.846180 
# 
# From -- ./inp_files/167830.got.cif
#   From: 2010.06.25/outbox.cif.g09.slc.cpg/sg15_84_cif.got.tgz:167830.got - 2010.06.28 07:06:18.
