data_PCOD8142675
_publ_section_title
;
Structure prediction by ZEFSAII (Michael W. Deem and Ramdas Pophale) SiO2 
 PCOD8142675
Probable space group: C 2/C
;
_chemical_formula_sum "Si O2"
_cell_formula_units_Z 44
_cell_length_a 13.465900
_cell_length_b 20.943229
_cell_length_c 7.819417
_cell_angle_alpha 90.000000
_cell_angle_beta 119.694369
_cell_angle_gamma 90.000000
_cell_volume 1915.637478
_symmetry_space_group_name_H-M "C 2/C"
_symmetry_group_IT_number 15
_symmetry_cell_setting 'monoclinic'
loop_
_space_group_symop_operation_xyz
x,y,z
-x,y,1/2-z
-x,-y,-z
x,-y,1/2+z
1/2+x,1/2+y,z
1/2-x,1/2+y,1/2-z
1/2-x,1/2-y,-z
1/2+x,1/2-y,1/2+z
loop_
_atom_site_type_symbol
_atom_site_label
_atom_site_fract_x
_atom_site_fract_y
_atom_site_fract_z
Si Si1 0.750749 0.094811 0.057145
Si Si2 0.119229 0.172104 0.588772
Si Si3 0.578696 0.185920 0.072531
Si Si4 0.500000 0.588444 0.750000
Si Si5 0.730560 0.464008 0.562247
Si Si6 0.660263 0.151489 0.500453
O O1 0.641583 0.140269 0.990223
O O2 0.787198 0.060691 0.261858
O O3 0.852905 0.137204 0.066358
O O4 0.726060 0.037407 0.900851
O O5 0.074214 0.242041 0.499121
O O6 0.019707 0.134282 0.603230
O O7 0.231604 0.177702 0.804122
O O8 0.644532 0.190189 0.310315
O O9 0.451879 0.157589 0.979691
O O10 0.392560 0.542209 0.632676
O O11 0.823218 0.422490 0.537667
#
# Coordination Sequence:
#
# PCOD8142675 Si02
#       6
#     8   8   8   4   8   8
#     4  11  24  40  61  88 124 156 201 254 296 358
#     4  11  22  39  61  92 124 158 199 245 299 362
#     4  10  21  39  63  93 122 159 196 243 305 356
#     4  10  22  40  66  88 120 162 200 248 302 356
#     4  10  22  41  61  90 120 159 205 247 298 353
#     4   9  20  39  64  89 123 159 197 243 295 364
#
# _framework density 22.968855000000001
#
# number of rings (size 3 to 8) (size 9 to 14) (size 15 to 20)
#    0.000    1.818    0.000    4.364    0.000    8.000 
#    0.000    5.455    0.000    0.000    0.000    0.000 
#    0.000    0.000    0.000    0.000    0.000    0.000 
#
# Total GULP energy -272822.488583 kJ/mol
# GULP energy per Si atom -12401.022208 kJ/mol
# Density = 2.291658 g / cm^3
# Si number density = 22.968855 Si / 1000 Ang^3
#
#
#
# Elastic Constant Matrix: (Units=GPa)
#
#
# Indices 1 2 3 4 5 6 
#
# 1 156.6657 82.3374 13.2441 0.0000 -29.5658 0.0000
# 2 82.3374 149.1788 10.3924 0.0000 -27.1755 0.0000
# 3 13.2441 10.3924 51.2658 0.0000 -15.3283 0.0000
# 4 0.0000 0.0000 0.0000 18.7568 0.0000 -13.0204
# 5 -29.5658 -27.1755 -15.3283 0.0000 31.4789 0.0000
# 6 0.0000 0.0000 0.0000 -13.0204 0.0000 36.8514
#
#
#
# Elastic Compliance Matrix: (Units=1/GPa)
#
#
# Indices 1 2 3 4 5 6 
#
# 1 0.009688 -0.004379 -0.000029 0.000000 0.005305 0.000000
# 2 -0.004379 0.009945 0.000530 0.000000 0.004731 0.000000
# 3 -0.000029 0.000530 0.022864 0.000000 0.011563 0.000000
# 4 0.000000 0.000000 0.000000 0.070639 0.000000 0.024959
# 5 0.005305 0.004731 0.011563 0.000000 0.046464 0.000000
# 6 0.000000 0.000000 0.000000 0.024959 0.000000 0.035954
#
#
# Mechanical properties :
#
#
# Convention : Reuss Voigt Hill
#
# Bulk Modulus (GPa) = 28.78488 63.22868 46.00678
# Shear Modulus (GPa) = 23.26761 34.15985 28.71373
#
# Velocity S-wave (km/s) = 3.18623 3.86064 3.53953
# Velocity P-wave (km/s) = 5.10837 6.88916 6.06448
#
# Compressibility (1/GPa) = 0.03474046
#
# Stress axis : x y z
#
# Youngs Moduli (GPa) = 103.22175 100.55267 43.73755
#
# Poissons Ratio (x) = 0.44029 0.00127
# Poissons Ratio (y) = 0.45198 -0.02317
# Poissons Ratio (z) = 0.00300 -0.05326
#
# Static dielectric constant tensor:
#      x y z
#    x 4.174010 0.000000 -0.240900 
#    y 0.000000 4.194370 0.000000 
#    z -0.240900 0.000000 3.910950 
# 
# 
# High freq. dielectric constant tensor:
#      x y z
#    x 1.913140 0.000000 -0.018850 
#    y 0.000000 1.912960 0.000000 
#    z -0.018850 0.000000 1.891560 
# 
# From -- ./inp_files/31001.got.cif
#   From: 2010.06.25/outbox.cif.g09.slc.cpg/sg15_16_cif.got.tgz:31001.got - 2010.06.28 07:06:18.
