data_PCOD8142555
_publ_section_title
;
Structure prediction by ZEFSAII (Michael W. Deem and Ramdas Pophale) SiO2 
 PCOD8142555
Probable space group: C 2/C
;
_chemical_formula_sum "Si O2"
_cell_formula_units_Z 48
_cell_length_a 22.439161
_cell_length_b 19.933592
_cell_length_c 13.388575
_cell_angle_alpha 90.000000
_cell_angle_beta 23.171372
_cell_angle_gamma 90.000000
_cell_volume 2356.416639
_symmetry_space_group_name_H-M "C 2/C"
_symmetry_group_IT_number 15
_symmetry_cell_setting 'monoclinic'
loop_
_space_group_symop_operation_xyz
x,y,z
-x,y,1/2-z
-x,-y,-z
x,-y,1/2+z
1/2+x,1/2+y,z
1/2-x,1/2+y,1/2-z
1/2-x,1/2-y,-z
1/2+x,1/2-y,1/2+z
loop_
_atom_site_type_symbol
_atom_site_label
_atom_site_fract_x
_atom_site_fract_y
_atom_site_fract_z
Si Si1 0.949082 0.709418 0.721843
Si Si2 0.424717 0.947548 0.971938
Si Si3 0.621897 0.337451 0.775683
Si Si4 0.397824 0.598193 0.991505
Si Si5 0.064237 0.049551 0.043030
Si Si6 0.924117 0.585344 0.066333
O O1 0.967845 0.769607 0.613387
O O2 0.000000 0.739262 0.750000
O O3 0.065511 0.651932 0.514862
O O4 0.785253 0.673069 0.972926
O O5 0.500000 0.927745 0.750000
O O6 0.493028 0.901897 0.955656
O O7 0.243762 0.936525 0.249412
O O8 0.485141 0.021982 0.908358
O O9 0.637275 0.346081 0.871020
O O10 0.534608 0.404236 0.877211
O O11 0.469970 0.529231 0.925672
O O12 0.254029 0.573119 0.148601
O O13 0.500000 0.633201 0.750000
O O14 0.000000 0.069558 0.250000
#
# Coordination Sequence:
#
# PCOD8142555 Si02
#       6
#     8   8   8   8   8   8
#     4  11  22  40  64  90 122 162 211 257 308 368
#     4  10  22  37  64  94 124 164 207 259 313 370
#     4  11  23  38  65  91 120 164 210 258 305 372
#     4  10  22  39  61  90 124 163 203 253 317 373
#     4  10  21  39  61  95 128 159 204 264 310 370
#     4  10  21  40  61  88 127 161 205 254 311 372
#
# _framework density 20.369911999999999
#
# number of rings (size 3 to 8) (size 9 to 14) (size 15 to 20)
#    0.000    1.667    1.667    2.500    4.667    2.667 
#    0.000    1.667    0.000    0.000    0.000    0.000 
#    0.000    0.000    0.000    0.000    0.000    0.000 
#
# Total GULP energy -297421.176446 kJ/mol
# GULP energy per Si atom -12392.549019 kJ/mol
# Density = 2.032355 g / cm^3
# Si number density = 20.369912 Si / 1000 Ang^3
#
#
#
# Elastic Constant Matrix: (Units=GPa)
#
#
# Indices 1 2 3 4 5 6 
#
# 1 102.0436 33.1276 36.1499 0.0054 4.2171 -0.0024
# 2 33.1276 77.0420 25.4392 0.0145 1.4241 -0.0029
# 3 36.1499 25.4392 100.5610 0.0124 13.8025 -0.0039
# 4 0.0054 0.0145 0.0124 22.0326 -0.0022 0.9543
# 5 4.2171 1.4241 13.8025 -0.0022 29.2895 0.0012
# 6 -0.0024 -0.0029 -0.0039 0.9543 0.0012 32.9150
#
#
#
# Elastic Compliance Matrix: (Units=1/GPa)
#
#
# Indices 1 2 3 4 5 6 
#
# 1 0.012361 -0.004198 -0.003384 0.000002 0.000019 0.000000
# 2 -0.004198 0.015620 -0.002589 -0.000008 0.001065 0.000001
# 3 -0.003384 -0.002589 0.012543 -0.000005 -0.005298 0.000001
# 4 0.000002 -0.000008 -0.000005 0.045444 0.000006 -0.001318
# 5 0.000019 0.001065 -0.005298 0.000006 0.036584 -0.000002
# 6 0.000000 0.000001 0.000001 -0.001318 -0.000002 0.030419
#
#
# Mechanical properties :
#
#
# Convention : Reuss Voigt Hill
#
# Bulk Modulus (GPa) = 49.54841 52.12001 50.83421
# Shear Modulus (GPa) = 27.77169 29.17609 28.47389
#
# Velocity S-wave (km/s) = 3.69639 3.78870 3.74283
# Velocity P-wave (km/s) = 6.52647 6.69188 6.60969
#
# Compressibility (1/GPa) = 0.02018228
#
# Stress axis : x y z
#
# Youngs Moduli (GPa) = 80.90222 64.02028 79.72784
#
# Poissons Ratio (x) = 0.26875 0.26981
# Poissons Ratio (y) = 0.33962 0.20638
# Poissons Ratio (z) = 0.27378 0.16572
#
# Static dielectric constant tensor:
#      x y z
#    x 3.712720 0.000000 -0.054830 
#    y 0.000000 3.524760 0.000010 
#    z -0.054830 0.000010 3.603460 
# 
# 
# High freq. dielectric constant tensor:
#      x y z
#    x 1.804050 0.000000 -0.008140 
#    y 0.000000 1.775980 0.000000 
#    z -0.008140 0.000000 1.789790 
# 
# From -- ./inp_files/114181.got.cif
#   From: 2010.06.25/outbox.cif.g09.slc.cpg/sg15_58_cif.got.tgz:114181.got - 2010.06.28 07:06:18.
