data_PCOD8142426
_publ_section_title
;
Structure prediction by ZEFSAII (Michael W. Deem and Ramdas Pophale) SiO2 
 PCOD8142426
Probable space group: C 2/C
;
_chemical_formula_sum "Si O2"
_cell_formula_units_Z 56
_cell_length_a 8.417817
_cell_length_b 12.308760
_cell_length_c 29.592632
_cell_angle_alpha 90.000000
_cell_angle_beta 61.679609
_cell_angle_gamma 90.000000
_cell_volume 2699.182872
_symmetry_space_group_name_H-M "C 2/C"
_symmetry_group_IT_number 15
_symmetry_cell_setting 'monoclinic'
loop_
_space_group_symop_operation_xyz
x,y,z
-x,y,1/2-z
-x,-y,-z
x,-y,1/2+z
1/2+x,1/2+y,z
1/2-x,1/2+y,1/2-z
1/2-x,1/2-y,-z
1/2+x,1/2-y,1/2+z
loop_
_atom_site_type_symbol
_atom_site_label
_atom_site_fract_x
_atom_site_fract_y
_atom_site_fract_z
Si Si1 0.272700 0.905909 0.518602
Si Si2 0.593437 0.272669 0.072853
Si Si3 0.372593 0.966983 0.688720
Si Si4 0.963724 0.530688 0.076255
Si Si5 0.884846 0.212428 0.686966
Si Si6 0.500000 0.569275 0.750000
Si Si7 0.524055 0.706320 0.485448
Si Si8 0.500000 0.109790 0.750000
O O1 0.300840 0.978068 0.560614
O O2 0.364067 0.790473 0.515941
O O3 0.060085 0.888323 0.535337
O O4 0.367387 0.959460 0.462434
O O5 0.529464 0.152445 0.070618
O O6 0.462942 0.325419 0.127856
O O7 0.802489 0.263837 0.061533
O O8 0.583548 0.340950 0.027049
O O9 0.400349 0.009853 0.633864
O O10 0.417360 0.840549 0.688649
O O11 0.498468 0.035101 0.705581
O O12 0.167416 0.988508 0.729730
O O13 0.006043 0.148191 0.706241
O O14 0.674206 0.186318 0.721636
#
# Coordination Sequence:
#
# PCOD8142426 Si02
#       8
#     8   8   8   8   8   4   8   4
#     4   9  18  33  53  78 110 145 188 224 278 344
#     4   9  19  34  52  78 111 145 180 235 291 328
#     4  10  21  39  59  84 118 145 193 242 286 348
#     4   9  19  34  52  77 111 147 178 236 283 335
#     4  10  21  39  58  84 118 144 190 245 283 345
#     4  10  22  38  60  86 108 156 188 234 298 336
#     4   9  18  33  53  79 109 145 188 228 272 350
#     4  10  22  38  62  86 106 158 192 230 306 346
#
# _framework density 20.747019000000002
#
# number of rings (size 3 to 8) (size 9 to 14) (size 15 to 20)
#    0.000    2.571    0.000    0.857    4.000    0.571 
#    0.000    7.143    0.000    0.000    0.000    0.000 
#    0.000    0.000    0.000    0.000    0.000    0.000 
#
# Total GULP energy -347068.367685 kJ/mol
# GULP energy per Si atom -12395.298846 kJ/mol
# Density = 2.069980 g / cm^3
# Si number density = 20.747019 Si / 1000 Ang^3
#
#
#
# Elastic Constant Matrix: (Units=GPa)
#
#
# Indices 1 2 3 4 5 6 
#
# 1 104.3885 8.2836 35.1238 0.0000 5.9453 0.0000
# 2 8.2836 31.6572 21.5728 0.0000 8.5942 0.0000
# 3 35.1238 21.5728 111.1983 0.0000 14.7960 0.0000
# 4 0.0000 0.0000 0.0000 25.1664 0.0000 0.0566
# 5 5.9453 8.5942 14.7960 0.0000 29.1939 0.0000
# 6 0.0000 0.0000 0.0000 0.0566 0.0000 18.5779
#
#
#
# Elastic Compliance Matrix: (Units=1/GPa)
#
#
# Indices 1 2 3 4 5 6 
#
# 1 0.010732 -0.000491 -0.003242 0.000000 -0.000398 0.000000
# 2 -0.000491 0.038091 -0.006172 0.000000 -0.007985 0.000000
# 3 -0.003242 -0.006172 0.011672 0.000000 -0.003438 0.000000
# 4 0.000000 0.000000 0.000000 0.039736 0.000000 -0.000121
# 5 -0.000398 -0.007985 -0.003438 0.000000 0.038428 0.000000
# 6 0.000000 0.000000 0.000000 -0.000121 0.000000 0.053828
#
#
# Mechanical properties :
#
#
# Convention : Reuss Voigt Hill
#
# Bulk Modulus (GPa) = 24.57925 41.91159 33.24542
# Shear Modulus (GPa) = 22.13789 26.73856 24.43823
#
# Velocity S-wave (km/s) = 3.27010 3.59387 3.43580
# Velocity P-wave (km/s) = 5.11184 6.12097 5.63903
#
# Compressibility (1/GPa) = 0.04068473
#
# Stress axis : x y z
#
# Youngs Moduli (GPa) = 93.17969 26.25319 85.67682
#
# Poissons Ratio (x) = 0.01289 0.27773
# Poissons Ratio (y) = 0.04576 0.52880
# Poissons Ratio (z) = 0.30205 0.16204
#
# Static dielectric constant tensor:
#      x y z
#    x 4.073110 0.000000 0.363180 
#    y 0.000000 3.580480 0.000000 
#    z 0.363180 0.000000 3.981090 
# 
# 
# High freq. dielectric constant tensor:
#      x y z
#    x 1.817130 0.000000 0.008950 
#    y 0.000000 1.801800 0.000000 
#    z 0.008950 0.000000 1.802970 
# 
# From -- ./inp_files/288486.got.cif
#   From: 2010.06.25/outbox.cif.g09.slc.cpg/sg15_145_cif.got.tgz:288486.got - 2010.06.28 07:06:18.
