data_PCOD8142853
_publ_section_title
;
Structure prediction by ZEFSAII (Michael W. Deem and Ramdas Pophale) SiO2 
 PCOD8142853
Probable space group: C 2/C
;
_chemical_formula_sum "Si O2"
_cell_formula_units_Z 48
_cell_length_a 24.607165
_cell_length_b 5.234112
_cell_length_c 18.278441
_cell_angle_alpha 90.000000
_cell_angle_beta 83.947399
_cell_angle_gamma 90.000000
_cell_volume 2341.078638
_symmetry_space_group_name_H-M "C 2/C"
_symmetry_group_IT_number 15
_symmetry_cell_setting 'monoclinic'
loop_
_space_group_symop_operation_xyz
x,y,z
-x,y,1/2-z
-x,-y,-z
x,-y,1/2+z
1/2+x,1/2+y,z
1/2-x,1/2+y,1/2-z
1/2-x,1/2-y,-z
1/2+x,1/2-y,1/2+z
loop_
_atom_site_type_symbol
_atom_site_label
_atom_site_fract_x
_atom_site_fract_y
_atom_site_fract_z
Si Si1 0.692558 0.495004 0.064071
Si Si2 0.477441 0.704024 0.948796
Si Si3 0.400349 0.642556 0.825623
Si Si4 0.183640 0.509169 0.474521
Si Si5 0.076356 0.492133 0.413734
Si Si6 0.062515 0.647383 0.758151
O O1 0.662196 0.423798 0.143907
O O2 0.756957 0.515969 0.071317
O O3 0.674664 0.772992 0.037026
O O4 0.676615 0.274482 0.008294
O O5 0.435513 0.608673 0.894311
O O6 0.531927 0.794020 0.898353
O O7 0.500000 0.500000 0.000000
O O8 0.444635 0.900533 0.004073
O O9 0.421516 0.426694 0.769421
O O10 0.403310 0.920315 0.786607
O O11 0.139284 0.570180 0.417613
O O12 0.075092 0.315891 0.342441
O O13 0.000000 0.585805 0.750000
#
# Coordination Sequence:
#
# PCOD8142853 Si02
#       6
#     8   8   8   8   8   8
#     4  10  21  40  65  94 123 163 209 268 319 364
#     4  11  23  38  66  90 124 160 219 267 302 376
#     4  12  24  42  63  91 128 172 208 253 322 384
#     4  10  21  39  66  94 124 157 216 270 311 365
#     4  11  24  40  61  98 122 168 212 268 314 372
#     4  12  26  42  60  91 136 172 201 254 326 387
#
# _framework density 20.50337
#
# number of rings (size 3 to 8) (size 9 to 14) (size 15 to 20)
#    0.000    1.000    3.333    3.500    4.667    0.000 
#    0.000    1.667    0.000    0.000    0.000    0.000 
#    0.000    0.000    0.000    0.000    0.000    0.000 
#
# Total GULP energy -297392.833665 kJ/mol
# GULP energy per Si atom -12391.368069 kJ/mol
# Density = 2.045670 g / cm^3
# Si number density = 20.503370 Si / 1000 Ang^3
#
#
#
# Elastic Constant Matrix: (Units=GPa)
#
#
# Indices 1 2 3 4 5 6 
#
# 1 120.4644 8.1390 39.6106 0.0000 -2.7265 0.0000
# 2 8.1390 80.8175 9.1394 0.0000 -2.2553 0.0000
# 3 39.6106 9.1394 87.1183 0.0000 2.8307 0.0000
# 4 0.0000 0.0000 0.0000 37.1874 0.0000 -1.3019
# 5 -2.7265 -2.2553 2.8307 0.0000 28.2554 0.0000
# 6 0.0000 0.0000 0.0000 -1.3019 0.0000 19.5709
#
#
#
# Elastic Compliance Matrix: (Units=1/GPa)
#
#
# Indices 1 2 3 4 5 6 
#
# 1 0.009831 -0.000447 -0.004467 0.000000 0.001361 0.000000
# 2 -0.000447 0.012579 -0.001151 0.000000 0.001076 0.000000
# 3 -0.004467 -0.001151 0.013692 0.000000 -0.001895 0.000000
# 4 0.000000 0.000000 0.000000 0.026954 0.000000 0.001793
# 5 0.001361 0.001076 -0.001895 0.000000 0.035798 0.000000
# 6 0.000000 0.000000 0.000000 0.001793 0.000000 0.051216
#
#
# Mechanical properties :
#
#
# Convention : Reuss Voigt Hill
#
# Bulk Modulus (GPa) = 41.71723 44.68646 43.20184
# Shear Modulus (GPa) = 29.37873 32.43683 30.90778
#
# Velocity S-wave (km/s) = 3.78944 3.98178 3.88680
# Velocity P-wave (km/s) = 6.28786 6.55602 6.42334
#
# Compressibility (1/GPa) = 0.02397091
#
# Stress axis : x y z
#
# Youngs Moduli (GPa) = 101.71783 79.49876 73.03445
#
# Poissons Ratio (x) = 0.03553 0.32627
# Poissons Ratio (y) = 0.04546 0.08409
# Poissons Ratio (z) = 0.45440 0.09153
#
# Static dielectric constant tensor:
#      x y z
#    x 3.941110 0.000000 -0.060900 
#    y 0.000000 3.693760 0.000000 
#    z -0.060900 0.000000 3.296160 
# 
# 
# High freq. dielectric constant tensor:
#      x y z
#    x 1.808540 0.000000 -0.012790 
#    y 0.000000 1.806680 0.000000 
#    z -0.012790 0.000000 1.790890 
# 
# From -- ./inp_files/217472.got.cif
#   From: 2010.06.25/outbox.cif.g09.slc.cpg/sg15_109_cif.got.tgz:217472.got - 2010.06.28 07:06:18.
