data_PCOD8142062
_publ_section_title
;
Structure prediction by ZEFSAII (Michael W. Deem and Ramdas Pophale) SiO2 
 PCOD8142062
Probable space group: C 2/C
;
_chemical_formula_sum "Si O2"
_cell_formula_units_Z 48
_cell_length_a 18.786986
_cell_length_b 7.735344
_cell_length_c 30.580055
_cell_angle_alpha 90.000000
_cell_angle_beta 33.634094
_cell_angle_gamma 90.000000
_cell_volume 2461.479614
_symmetry_space_group_name_H-M "C 2/C"
_symmetry_group_IT_number 15
_symmetry_cell_setting 'monoclinic'
loop_
_space_group_symop_operation_xyz
x,y,z
-x,y,1/2-z
-x,-y,-z
x,-y,1/2+z
1/2+x,1/2+y,z
1/2-x,1/2+y,1/2-z
1/2-x,1/2-y,-z
1/2+x,1/2-y,1/2+z
loop_
_atom_site_type_symbol
_atom_site_label
_atom_site_fract_x
_atom_site_fract_y
_atom_site_fract_z
Si Si1 0.475359 0.188065 0.193827
Si Si2 0.072264 0.948987 0.506549
Si Si3 0.293483 0.844083 0.865807
Si Si4 0.127175 0.598644 0.809957
Si Si5 0.095073 0.001462 0.829279
Si Si6 0.925063 0.629807 0.567611
O O1 0.615917 0.226298 0.141734
O O2 0.378987 0.114372 0.280002
O O3 0.428073 0.372405 0.199916
O O4 0.477616 0.033325 0.156982
O O5 0.038278 0.749074 0.529862
O O6 0.223561 0.986060 0.422093
O O7 0.000000 0.000000 0.500000
O O8 0.014288 0.045938 0.578829
O O9 0.181598 0.711641 0.909687
O O10 0.267367 0.547079 0.719195
O O11 0.140028 0.555128 0.855298
O O12 0.093299 0.798456 0.816280
O O13 0.000000 0.500000 0.500000
#
# Coordination Sequence:
#
# PCOD8142062 Si02
#       6
#     8   8   8   8   8   8
#     4  11  23  41  63  86 127 162 198 257 306 366
#     4   9  20  37  59  85 118 156 197 249 302 357
#     4  10  22  43  58  88 124 160 200 250 320 354
#     4  11  21  38  63  92 114 163 208 246 304 364
#     4  11  21  37  61  89 122 154 209 253 294 368
#     4  10  21  38  61  91 118 156 207 250 298 370
#
# _framework density 19.500465999999999
#
# number of rings (size 3 to 8) (size 9 to 14) (size 15 to 20)
#    0.000    1.667    3.333    2.000    4.667    2.000 
#    3.000    3.333    0.000    0.000    0.000    0.000 
#    0.000    0.000    0.000    0.000    0.000    0.000 
#
# Total GULP energy -297352.629816 kJ/mol
# GULP energy per Si atom -12389.692909 kJ/mol
# Density = 1.945608 g / cm^3
# Si number density = 19.500466 Si / 1000 Ang^3
#
#
#
# Elastic Constant Matrix: (Units=GPa)
#
#
# Indices 1 2 3 4 5 6 
#
# 1 114.2979 51.7447 38.8530 0.0006 -12.9651 0.1185
# 2 51.7447 104.6294 37.4589 0.0340 -2.3369 -0.0173
# 3 38.8530 37.4589 108.9447 0.0056 -1.7318 -0.0131
# 4 0.0006 0.0340 0.0056 29.1628 -0.0047 2.9407
# 5 -12.9651 -2.3369 -1.7318 -0.0047 29.0344 -0.0237
# 6 0.1185 -0.0173 -0.0131 2.9407 -0.0237 26.1141
#
#
#
# Elastic Compliance Matrix: (Units=1/GPa)
#
#
# Indices 1 2 3 4 5 6 
#
# 1 0.012544 -0.005152 -0.002622 0.000013 0.005030 -0.000059
# 2 -0.005152 0.013028 -0.002664 -0.000018 -0.001411 0.000031
# 3 -0.002622 -0.002664 0.011019 -0.000001 -0.000728 0.000015
# 4 0.000013 -0.000018 -0.000001 0.034684 0.000007 -0.003906
# 5 0.005030 -0.001411 -0.000728 0.000007 0.036531 0.000008
# 6 -0.000059 0.000031 0.000015 -0.003906 0.000008 0.038734
#
#
# Mechanical properties :
#
#
# Convention : Reuss Voigt Hill
#
# Bulk Modulus (GPa) = 63.64261 64.88724 64.26492
# Shear Modulus (GPa) = 28.95964 30.18328 29.57146
#
# Velocity S-wave (km/s) = 3.85785 3.93851 3.89839
# Velocity P-wave (km/s) = 7.24923 7.35047 7.30002
#
# Compressibility (1/GPa) = 0.01571274
#
# Stress axis : x y z
#
# Youngs Moduli (GPa) = 79.72216 76.75715 90.75597
#
# Poissons Ratio (x) = 0.39549 0.23795
# Poissons Ratio (y) = 0.41076 0.24181
# Poissons Ratio (z) = 0.20902 0.20451
#
# Static dielectric constant tensor:
#      x y z
#    x 4.021990 0.000270 -0.016860 
#    y 0.000270 3.795990 -0.000590 
#    z -0.016860 -0.000590 2.978350 
# 
# 
# High freq. dielectric constant tensor:
#      x y z
#    x 1.749830 0.000010 0.011050 
#    y 0.000010 1.745480 0.000000 
#    z 0.011050 0.000000 1.769570 
# 
# From -- ./inp_files/315614.got.cif
#   From: 2010.06.25/outbox.cif.g09.slc.cpg/sg15_158_cif.got.tgz:315614.got - 2010.06.28 07:06:18.
