data_PCOD8142194
_publ_section_title
;
Structure prediction by ZEFSAII (Michael W. Deem and Ramdas Pophale) SiO2 
 PCOD8142194
Probable space group: C 2/C
;
_chemical_formula_sum "Si O2"
_cell_formula_units_Z 52
_cell_length_a 15.082523
_cell_length_b 14.692183
_cell_length_c 11.887397
_cell_angle_alpha 90.000000
_cell_angle_beta 113.786822
_cell_angle_gamma 90.000000
_cell_volume 2410.422012
_symmetry_space_group_name_H-M "C 2/C"
_symmetry_group_IT_number 15
_symmetry_cell_setting 'monoclinic'
loop_
_space_group_symop_operation_xyz
x,y,z
-x,y,1/2-z
-x,-y,-z
x,-y,1/2+z
1/2+x,1/2+y,z
1/2-x,1/2+y,1/2-z
1/2-x,1/2-y,-z
1/2+x,1/2-y,1/2+z
loop_
_atom_site_type_symbol
_atom_site_label
_atom_site_fract_x
_atom_site_fract_y
_atom_site_fract_z
Si Si1 0.319314 0.727416 0.248445
Si Si2 0.744663 0.444493 0.919040
Si Si3 0.908022 0.939894 0.480433
Si Si4 0.692827 0.610456 0.771876
Si Si5 0.000000 0.802308 0.250000
Si Si6 0.511469 0.258322 0.501909
Si Si7 0.418520 0.860230 0.129140
O O1 0.263929 0.637144 0.176520
O O2 0.241387 0.796195 0.259121
O O3 0.390200 0.704913 0.389064
O O4 0.378207 0.771789 0.174816
O O5 0.639153 0.456106 0.922729
O O6 0.765177 0.545356 0.880123
O O7 0.829932 0.426113 0.052494
O O8 0.828180 0.956731 0.343698
O O9 0.930836 0.833804 0.480334
O O10 0.000000 0.000000 0.500000
O O11 0.593243 0.632938 0.785401
O O12 0.979042 0.741049 0.127782
O O13 0.472650 0.167247 0.541490
O O14 0.500000 0.908973 0.250000
#
# Coordination Sequence:
#
# PCOD8142194 Si02
#       7
#     8   8   8   8   4   8   8
#     4  11  22  40  66  98 129 170 231 267 320 395
#     4  12  21  38  67  95 131 176 209 269 339 375
#     4  11  21  36  60  97 132 162 209 266 333 396
#     4  11  24  38  60  96 135 167 216 276 321 394
#     4  10  22  42  58  94 146 166 202 274 342 392
#     4  10  21  38  63  92 130 174 213 268 320 389
#     4  10  21  40  66  94 123 170 236 273 307 389
#
# _framework density 21.572986
#
# number of rings (size 3 to 8) (size 9 to 14) (size 15 to 20)
#    0.000    1.231    3.077    5.077    0.000    1.846 
#    0.000    4.615    1.692    0.000    0.000    0.000 
#    0.000    0.000    0.000    0.000    0.000    0.000 
#
# Total GULP energy -322232.143557 kJ/mol
# GULP energy per Si atom -12393.543983 kJ/mol
# Density = 2.152388 g / cm^3
# Si number density = 21.572986 Si / 1000 Ang^3
#
#
#
# Elastic Constant Matrix: (Units=GPa)
#
#
# Indices 1 2 3 4 5 6 
#
# 1 93.9132 47.5931 50.6119 0.0000 0.3501 0.0000
# 2 47.5931 77.9221 45.7589 0.0000 -6.0618 0.0000
# 3 50.6119 45.7589 153.0850 0.0000 3.5094 0.0000
# 4 0.0000 0.0000 0.0000 31.2179 0.0000 4.8696
# 5 0.3501 -6.0618 3.5094 0.0000 39.2897 0.0000
# 6 0.0000 0.0000 0.0000 4.8696 0.0000 29.8308
#
#
#
# Elastic Compliance Matrix: (Units=1/GPa)
#
#
# Indices 1 2 3 4 5 6 
#
# 1 0.016509 -0.008475 -0.002897 0.000000 -0.001196 0.000000
# 2 -0.008475 0.020235 -0.003327 0.000000 0.003495 0.000000
# 3 -0.002897 -0.003327 0.008513 0.000000 -0.001248 0.000000
# 4 0.000000 0.000000 0.000000 0.032870 0.000000 -0.005366
# 5 -0.001196 0.003495 -0.001248 0.000000 0.026113 0.000000
# 6 0.000000 0.000000 0.000000 -0.005366 0.000000 0.034398
#
#
# Mechanical properties :
#
#
# Convention : Reuss Voigt Hill
#
# Bulk Modulus (GPa) = 63.05470 68.09424 65.57447
# Shear Modulus (GPa) = 28.84789 32.13145 30.48967
#
# Velocity S-wave (km/s) = 3.66077 3.86350 3.76350
# Velocity P-wave (km/s) = 6.86734 7.17881 7.02480
#
# Compressibility (1/GPa) = 0.01585925
#
# Stress axis : x y z
#
# Youngs Moduli (GPa) = 60.57328 49.41932 117.46411
#
# Poissons Ratio (x) = 0.41882 0.34034
# Poissons Ratio (y) = 0.51335 0.39077
# Poissons Ratio (z) = 0.17551 0.16440
#
# Static dielectric constant tensor:
#      x y z
#    x 3.850970 0.000000 0.048420 
#    y 0.000000 3.508570 0.000000 
#    z 0.048420 0.000000 4.546180 
# 
# 
# High freq. dielectric constant tensor:
#      x y z
#    x 1.844940 0.000000 0.003020 
#    y 0.000000 1.809060 0.000000 
#    z 0.003020 0.000000 1.863880 
# 
# From -- ./inp_files/96927.got.cif
#   From: 2010.06.25/outbox.cif.g09.slc.cpg/sg15_49_cif.got.tgz:96927.got - 2010.06.28 07:06:18.
