data_PCOD8142068
_publ_section_title
;
Structure prediction by ZEFSAII (Michael W. Deem and Ramdas Pophale) SiO2 
 PCOD8142068
Probable space group: C 2/C
;
_chemical_formula_sum "Si O2"
_cell_formula_units_Z 56
_cell_length_a 15.766233
_cell_length_b 21.528771
_cell_length_c 9.099514
_cell_angle_alpha 90.000000
_cell_angle_beta 118.964209
_cell_angle_gamma 90.000000
_cell_volume 2702.308351
_symmetry_space_group_name_H-M "C 2/C"
_symmetry_group_IT_number 15
_symmetry_cell_setting 'monoclinic'
loop_
_space_group_symop_operation_xyz
x,y,z
-x,y,1/2-z
-x,-y,-z
x,-y,1/2+z
1/2+x,1/2+y,z
1/2-x,1/2+y,1/2-z
1/2-x,1/2-y,-z
1/2+x,1/2-y,1/2+z
loop_
_atom_site_type_symbol
_atom_site_label
_atom_site_fract_x
_atom_site_fract_y
_atom_site_fract_z
Si Si1 0.709149 0.388978 0.428490
Si Si2 0.094682 0.214797 0.423635
Si Si3 0.098711 0.633790 0.257757
Si Si4 0.426207 0.506384 0.571209
Si Si5 0.596563 0.275095 0.265385
Si Si6 0.779695 0.900136 0.408221
Si Si7 0.601259 0.854740 0.411983
O O1 0.807323 0.402745 0.602124
O O2 0.619556 0.425969 0.429581
O O3 0.684207 0.315608 0.405191
O O4 0.724836 0.404671 0.271121
O O5 0.071702 0.218643 0.574497
O O6 0.173064 0.160351 0.474024
O O7 0.133941 0.283028 0.409165
O O8 0.000000 0.196992 0.250000
O O9 0.114211 0.704207 0.325040
O O10 0.000000 0.607427 0.250000
O O11 0.094165 0.628305 0.078120
O O12 0.500000 0.481683 0.750000
O O13 0.500000 0.500000 0.500000
O O14 0.335013 0.461459 0.500220
O O15 0.500000 0.303487 0.250000
O O16 0.673514 0.901739 0.390375
O O17 0.500000 0.866975 0.250000
#
# Coordination Sequence:
#
# PCOD8142068 Si02
#       7
#     8   8   8   8   8   8   8
#     4  11  23  39  62  88 123 163 207 253 305 363
#     4   9  19  35  57  91 125 162 201 248 302 366
#     4  10  21  38  61  92 124 161 202 251 304 367
#     4  12  26  45  65  91 124 161 207 258 303 357
#     4   9  19  34  58  89 126 162 200 246 307 363
#     4  11  23  39  62  88 122 164 205 253 307 360
#     4  10  21  38  62  91 126 160 202 252 305 365
#
# _framework density 20.723023999999999
#
# number of rings (size 3 to 8) (size 9 to 14) (size 15 to 20)
#    0.000    1.714    1.429    2.571    4.000    2.286 
#    0.000    0.714    0.000    3.429    0.000    0.000 
#    0.000    0.000    0.000    0.000    0.000    0.000 
#
# Total GULP energy -346887.323460 kJ/mol
# GULP energy per Si atom -12388.832981 kJ/mol
# Density = 2.067586 g / cm^3
# Si number density = 20.723024 Si / 1000 Ang^3
#
#
#
# Elastic Constant Matrix: (Units=GPa)
#
#
# Indices 1 2 3 4 5 6 
#
# 1 134.8569 46.7119 47.5147 0.0000 -1.6851 0.0000
# 2 46.7119 62.6059 32.4375 0.0000 3.2424 0.0000
# 3 47.5147 32.4375 125.9531 0.0000 15.8006 0.0000
# 4 0.0000 0.0000 0.0000 41.3778 0.0000 11.3356
# 5 -1.6851 3.2424 15.8006 0.0000 29.9337 0.0000
# 6 0.0000 0.0000 0.0000 11.3356 0.0000 33.3814
#
#
#
# Elastic Compliance Matrix: (Units=1/GPa)
#
#
# Indices 1 2 3 4 5 6 
#
# 1 0.010728 -0.006776 -0.002645 0.000000 0.002734 0.000000
# 2 -0.006776 0.022720 -0.003147 0.000000 -0.001181 0.000000
# 3 -0.002645 -0.003147 0.010413 0.000000 -0.005305 0.000000
# 4 0.000000 0.000000 0.000000 0.026646 0.000000 -0.009049
# 5 0.002734 -0.001181 -0.005305 0.000000 0.036489 0.000000
# 6 0.000000 0.000000 0.000000 -0.009049 0.000000 0.033030
#
#
# Mechanical properties :
#
#
# Convention : Reuss Voigt Hill
#
# Bulk Modulus (GPa) = 53.40175 64.08266 58.74220
# Shear Modulus (GPa) = 29.17067 34.05537 31.61302
#
# Velocity S-wave (km/s) = 3.75593 4.05823 3.91001
# Velocity P-wave (km/s) = 6.68091 7.27665 6.98513
#
# Compressibility (1/GPa) = 0.01872598
#
# Stress axis : x y z
#
# Youngs Moduli (GPa) = 93.21012 44.01356 96.03143
#
# Poissons Ratio (x) = 0.29823 0.25402
# Poissons Ratio (y) = 0.63158 0.30221
# Poissons Ratio (z) = 0.24656 0.13851
#
# Static dielectric constant tensor:
#      x y z
#    x 3.604350 0.000000 0.264540 
#    y 0.000000 3.975380 0.000000 
#    z 0.264540 0.000000 3.594710 
# 
# 
# High freq. dielectric constant tensor:
#      x y z
#    x 1.815560 0.000000 0.001290 
#    y 0.000000 1.790850 0.000000 
#    z 0.001290 0.000000 1.823340 
# 
# From -- ./inp_files/42721.got.cif
#   From: 2010.06.25/outbox.cif.g09.slc.cpg/sg15_22_cif.got.tgz:42721.got - 2010.06.28 07:06:18.
