data_PCOD8142022
_publ_section_title
;
Structure prediction by ZEFSAII (Michael W. Deem and Ramdas Pophale) SiO2 
 PCOD8142022
Probable space group: C 2/C
;
_chemical_formula_sum "Si O2"
_cell_formula_units_Z 32
_cell_length_a 16.481830
_cell_length_b 14.127229
_cell_length_c 12.214578
_cell_angle_alpha 90.000000
_cell_angle_beta 33.657599
_cell_angle_gamma 90.000000
_cell_volume 1576.267113
_symmetry_space_group_name_H-M "C 2/C"
_symmetry_group_IT_number 15
_symmetry_cell_setting 'monoclinic'
loop_
_space_group_symop_operation_xyz
x,y,z
-x,y,1/2-z
-x,-y,-z
x,-y,1/2+z
1/2+x,1/2+y,z
1/2-x,1/2+y,1/2-z
1/2-x,1/2-y,-z
1/2+x,1/2-y,1/2+z
loop_
_atom_site_type_symbol
_atom_site_label
_atom_site_fract_x
_atom_site_fract_y
_atom_site_fract_z
Si Si1 0.668899 0.338120 0.038096
Si Si2 0.418280 0.200958 0.730803
Si Si3 0.217869 0.342664 0.829584
Si Si4 0.663336 0.985148 0.067981
O O1 0.500000 0.324743 0.250000
O O2 0.750000 0.250000 0.000000
O O3 0.693368 0.344695 0.881317
O O4 0.720472 0.435651 0.033315
O O5 0.500000 0.234442 0.750000
O O6 0.297918 0.274188 0.826424
O O7 0.550680 0.191204 0.493656
O O8 0.338402 0.100286 0.841521
O O9 0.209343 0.445616 0.896563
O O10 0.500000 0.030191 0.250000
#
# Coordination Sequence:
#
# PCOD8142022 Si02
#       4
#     8   8   8   8
#     4  12  26  40  57  84 117 154 195 236 284 342
#     4   9  18  36  64  90 113 146 191 237 283 341
#     4  10  21  38  61  86 117 153 185 237 291 329
#     4   9  21  39  60  86 114 149 192 234 283 343
#
# _framework density 20.301127000000001
#
# number of rings (size 3 to 8) (size 9 to 14) (size 15 to 20)
#    0.000    2.500    0.000    5.250    0.000   10.000 
#    0.000    0.000    0.000    0.000    0.000    0.000 
#    0.000    0.000    0.000    0.000    0.000    0.000 
#
# Total GULP energy -198321.056979 kJ/mol
# GULP energy per Si atom -12395.066061 kJ/mol
# Density = 2.025492 g / cm^3
# Si number density = 20.301127 Si / 1000 Ang^3
#
#
#
# Elastic Constant Matrix: (Units=GPa)
#
#
# Indices 1 2 3 4 5 6 
#
# 1 80.8717 69.7477 51.2952 0.0000 -6.8168 0.0000
# 2 69.7477 102.6588 56.7984 0.0000 -12.2664 0.0000
# 3 51.2952 56.7984 165.0430 0.0000 -2.0608 0.0000
# 4 0.0000 0.0000 0.0000 22.6604 0.0000 -15.9440
# 5 -6.8168 -12.2664 -2.0608 0.0000 41.1619 0.0000
# 6 0.0000 0.0000 0.0000 -15.9440 0.0000 36.7571
#
#
#
# Elastic Compliance Matrix: (Units=1/GPa)
#
#
# Indices 1 2 3 4 5 6 
#
# 1 0.031010 -0.019554 -0.002919 0.000000 -0.000838 0.000000
# 2 -0.019554 0.024851 -0.002424 0.000000 0.004046 0.000000
# 3 -0.002919 -0.002424 0.007790 0.000000 -0.000816 0.000000
# 4 0.000000 0.000000 0.000000 0.063515 0.000000 0.027551
# 5 -0.000838 0.004046 -0.000816 0.000000 0.025320 0.000000
# 6 0.000000 0.000000 0.000000 0.027551 0.000000 0.039156
#
#
# Mechanical properties :
#
#
# Convention : Reuss Voigt Hill
#
# Bulk Modulus (GPa) = 72.16602 78.25068 75.20835
# Shear Modulus (GPa) = 20.32049 31.49803 25.90926
#
# Velocity S-wave (km/s) = 3.16722 3.94323 3.57634
# Velocity P-wave (km/s) = 7.00000 7.70460 7.36073
#
# Compressibility (1/GPa) = 0.01385694
#
# Stress axis : x y z
#
# Youngs Moduli (GPa) = 32.24724 40.23985 128.36208
#
# Poissons Ratio (x) = 0.78685 0.37470
# Poissons Ratio (y) = 0.63056 0.31121
# Poissons Ratio (z) = 0.09413 0.09756
#
# Static dielectric constant tensor:
#      x y z
#    x 3.466070 0.000000 -0.107080 
#    y 0.000000 3.558120 0.000000 
#    z -0.107080 0.000000 3.944490 
# 
# 
# High freq. dielectric constant tensor:
#      x y z
#    x 1.777890 0.000000 -0.008160 
#    y 0.000000 1.783040 0.000000 
#    z -0.008160 0.000000 1.815310 
# 
# From -- ./inp_files/37695.got.cif
#   From: 2010.06.25/outbox.cif.g09.slc.cpg/sg15_19_cif.got.tgz:37695.got - 2010.06.28 07:06:18.
