data_PCOD8142331
_publ_section_title
;
Structure prediction by ZEFSAII (Michael W. Deem and Ramdas Pophale) SiO2 
 PCOD8142331
Probable space group: C 2/C
;
_chemical_formula_sum "Si O2"
_cell_formula_units_Z 44
_cell_length_a 11.082249
_cell_length_b 20.705030
_cell_length_c 14.322063
_cell_angle_alpha 90.000000
_cell_angle_beta 36.425818
_cell_angle_gamma 90.000000
_cell_volume 1951.353825
_symmetry_space_group_name_H-M "C 2/C"
_symmetry_group_IT_number 15
_symmetry_cell_setting 'monoclinic'
loop_
_space_group_symop_operation_xyz
x,y,z
-x,y,1/2-z
-x,-y,-z
x,-y,1/2+z
1/2+x,1/2+y,z
1/2-x,1/2+y,1/2-z
1/2-x,1/2-y,-z
1/2+x,1/2-y,1/2+z
loop_
_atom_site_type_symbol
_atom_site_label
_atom_site_fract_x
_atom_site_fract_y
_atom_site_fract_z
Si Si1 0.000000 0.265203 0.250000
Si Si2 0.641232 0.835322 0.986103
Si Si3 0.342387 0.329209 0.525054
Si Si4 0.706132 0.982311 0.926104
Si Si5 0.030031 0.301919 0.865418
Si Si6 0.542652 0.530352 0.573961
O O1 0.192933 0.219496 0.138842
O O2 0.987725 0.314341 0.344219
O O3 0.730044 0.907003 0.938673
O O4 0.498343 0.835579 0.984633
O O5 0.257594 0.314795 0.682642
O O6 0.494601 0.274724 0.393188
O O7 0.473536 0.393778 0.436484
O O8 0.141849 0.335360 0.588307
O O9 0.741560 0.015953 0.006509
O O10 0.875737 0.004145 0.748211
O O11 0.500000 0.000000 0.000000
O O12 0.500000 0.500000 0.500000
#
# Coordination Sequence:
#
# PCOD8142331 Si02
#       6
#     4   8   8   8   8   8
#     4  10  24  38  64  90 122 162 208 268 312 382
#     4  11  22  42  62  92 124 163 212 258 325 375
#     4  10  22  39  63  99 127 165 218 262 333 387
#     4  11  26  44  67  95 132 174 216 268 323 396
#     4  10  21  38  66  93 129 166 208 277 321 386
#     4  11  25  44  68  95 131 174 217 270 325 394
#
# _framework density 22.548448
#
# number of rings (size 3 to 8) (size 9 to 14) (size 15 to 20)
#    0.000    1.455    0.000    4.364    0.000   15.273 
#    0.000    0.000    0.000    0.000    0.000    0.000 
#    0.000    0.000    0.000    0.000    0.000    0.000 
#
# Total GULP energy -272633.079389 kJ/mol
# GULP energy per Si atom -12392.412700 kJ/mol
# Density = 2.249713 g / cm^3
# Si number density = 22.548448 Si / 1000 Ang^3
#
#
#
# Elastic Constant Matrix: (Units=GPa)
#
#
# Indices 1 2 3 4 5 6 
#
# 1 129.8919 24.5212 36.5342 -0.0056 31.6512 -0.0009
# 2 24.5212 162.8713 60.3414 -0.0028 13.9220 0.0002
# 3 36.5342 60.3414 114.3870 -0.0143 28.0890 0.0010
# 4 -0.0056 -0.0028 -0.0143 34.9432 0.0101 5.6506
# 5 31.6512 13.9220 28.0890 0.0101 39.9884 -0.0007
# 6 -0.0009 0.0002 0.0010 5.6506 -0.0007 4.9149
#
#
#
# Elastic Compliance Matrix: (Units=1/GPa)
#
#
# Indices 1 2 3 4 5 6 
#
# 1 0.009764 -0.000437 -0.001242 0.000003 -0.006704 -0.000003
# 2 -0.000437 0.007652 -0.004022 -0.000002 0.000507 0.000002
# 3 -0.001242 -0.004022 0.012900 0.000009 -0.006678 -0.000014
# 4 0.000003 -0.000002 0.000009 0.035153 -0.000018 -0.040415
# 5 -0.006704 0.000507 -0.006678 -0.000018 0.034828 0.000026
# 6 -0.000003 0.000002 -0.000014 -0.040415 0.000026 0.249929
#
#
# Mechanical properties :
#
#
# Convention : Reuss Voigt Hill
#
# Bulk Modulus (GPa) = 52.86533 72.21598 62.54066
# Shear Modulus (GPa) = 13.58944 35.01951 24.30448
#
# Velocity S-wave (km/s) = 2.45761 3.94519 3.28667
# Velocity P-wave (km/s) = 5.61687 7.26975 6.49609
#
# Compressibility (1/GPa) = 0.01891599
#
# Stress axis : x y z
#
# Youngs Moduli (GPa) = 102.41655 130.68107 77.51751
#
# Poissons Ratio (x) = 0.05709 0.09627
# Poissons Ratio (y) = 0.04475 0.31174
# Poissons Ratio (z) = 0.12719 0.52554
#
# Static dielectric constant tensor:
#      x y z
#    x 4.955790 -0.000010 0.184740 
#    y -0.000010 4.136020 0.000130 
#    z 0.184740 0.000130 4.171470 
# 
# 
# High freq. dielectric constant tensor:
#      x y z
#    x 1.904100 0.000000 0.014780 
#    y 0.000000 1.897330 0.000000 
#    z 0.014780 0.000000 1.880700 
# 
# From -- ./inp_files/146994.got.cif
#   From: 2010.06.25/outbox.cif.g09.slc.cpg/sg15_74_cif.got.tgz:146994.got - 2010.06.28 07:06:18.
