data_PCOD8142097
_publ_section_title
;
Structure prediction by ZEFSAII (Michael W. Deem and Ramdas Pophale) SiO2 
 PCOD8142097
Probable space group: C 2/C
;
_chemical_formula_sum "Si O2"
_cell_formula_units_Z 56
_cell_length_a 21.207556
_cell_length_b 18.429619
_cell_length_c 15.878419
_cell_angle_alpha 90.000000
_cell_angle_beta 153.603218
_cell_angle_gamma 90.000000
_cell_volume 2759.109378
_symmetry_space_group_name_H-M "C 2/C"
_symmetry_group_IT_number 15
_symmetry_cell_setting 'monoclinic'
loop_
_space_group_symop_operation_xyz
x,y,z
-x,y,1/2-z
-x,-y,-z
x,-y,1/2+z
1/2+x,1/2+y,z
1/2-x,1/2+y,1/2-z
1/2-x,1/2-y,-z
1/2+x,1/2-y,1/2+z
loop_
_atom_site_type_symbol
_atom_site_label
_atom_site_fract_x
_atom_site_fract_y
_atom_site_fract_z
Si Si1 0.225046 0.745676 0.150719
Si Si2 0.608253 0.009679 0.455596
Si Si3 0.320688 0.483092 0.435620
Si Si4 0.569801 0.283400 0.748900
Si Si5 0.367252 0.448289 0.676937
Si Si6 0.369645 0.127250 0.891790
Si Si7 0.352853 0.901698 0.864822
O O1 0.298415 0.755837 0.143582
O O2 0.317103 0.789594 0.329735
O O3 0.223170 0.660603 0.170620
O O4 0.069243 0.780774 0.975927
O O5 0.500000 0.010605 0.250000
O O6 0.753803 0.968208 0.611011
O O7 0.554114 0.959364 0.467903
O O8 0.638161 0.091054 0.524647
O O9 0.315551 0.488605 0.530633
O O10 0.484800 0.474505 0.607092
O O11 0.227335 0.416175 0.290863
O O12 0.267865 0.558446 0.333326
O O13 0.500000 0.244955 0.750000
O O14 0.621620 0.363687 0.832684
O O15 0.533789 0.131947 0.062676
#
# Coordination Sequence:
#
# PCOD8142097 Si02
#       7
#     8   8   8   8   8   8   8
#     4  12  24  40  61  88 127 169 205 242 316 370
#     4  11  23  38  64  91 116 160 210 257 307 363
#     4  10  21  38  62  87 124 158 199 256 309 359
#     4  12  23  40  60  93 130 164 199 255 307 377
#     4  11  20  38  63  93 119 154 205 260 312 356
#     4  11  22  41  60  86 127 165 200 256 302 371
#     4  11  23  39  61  89 123 163 203 251 310 364
#
# _framework density 20.296405
#
# number of rings (size 3 to 8) (size 9 to 14) (size 15 to 20)
#    0.000    0.857    5.714    3.857    0.000    4.000 
#    0.000    0.000    3.143    1.714    0.000    0.000 
#    0.000    0.000    0.000    0.000    0.000    0.000 
#
# Total GULP energy -347016.496127 kJ/mol
# GULP energy per Si atom -12393.446290 kJ/mol
# Density = 2.025021 g / cm^3
# Si number density = 20.296405 Si / 1000 Ang^3
#
#
#
# Elastic Constant Matrix: (Units=GPa)
#
#
# Indices 1 2 3 4 5 6 
#
# 1 68.7158 19.4413 21.0372 0.0000 7.3015 0.0000
# 2 19.4413 83.3347 20.5944 0.0000 -20.5853 0.0000
# 3 21.0372 20.5944 85.1644 0.0000 -8.8426 0.0000
# 4 0.0000 0.0000 0.0000 25.9844 0.0000 1.1894
# 5 7.3015 -20.5853 -8.8426 0.0000 28.8046 0.0000
# 6 0.0000 0.0000 0.0000 1.1894 0.0000 28.3832
#
#
#
# Elastic Compliance Matrix: (Units=1/GPa)
#
#
# Indices 1 2 3 4 5 6 
#
# 1 0.018567 -0.005790 -0.004240 0.000000 -0.010146 0.000000
# 2 -0.005790 0.016922 -0.001295 0.000000 0.013164 0.000000
# 3 -0.004240 -0.001295 0.013550 0.000000 0.004309 0.000000
# 4 0.000000 0.000000 0.000000 0.038559 0.000000 -0.001616
# 5 -0.010146 0.013164 0.004309 0.000000 0.048018 0.000000
# 6 0.000000 0.000000 0.000000 -0.001616 0.000000 0.035300
#
#
# Mechanical properties :
#
#
# Convention : Reuss Voigt Hill
#
# Bulk Modulus (GPa) = 37.89390 39.92897 38.91143
# Shear Modulus (GPa) = 24.70824 28.37726 26.54275
#
# Velocity S-wave (km/s) = 3.49287 3.74323 3.62021
# Velocity P-wave (km/s) = 5.91419 6.19661 6.05705
#
# Compressibility (1/GPa) = 0.02638947
#
# Stress axis : x y z
#
# Youngs Moduli (GPa) = 53.85960 59.09370 73.80171
#
# Poissons Ratio (x) = 0.34215 0.31289
# Poissons Ratio (y) = 0.31184 0.09558
# Poissons Ratio (z) = 0.22835 0.07654
#
# Static dielectric constant tensor:
#      x y z
#    x 3.770360 0.000000 0.227740 
#    y 0.000000 3.542450 0.000000 
#    z 0.227740 0.000000 3.701450 
# 
# 
# High freq. dielectric constant tensor:
#      x y z
#    x 1.792580 0.000000 0.021060 
#    y 0.000000 1.771430 0.000000 
#    z 0.021060 0.000000 1.795700 
# 
# From -- ./inp_files/169162.got.cif
#   From: 2010.06.25/outbox.cif.g09.slc.cpg/sg15_85_cif.got.tgz:169162.got - 2010.06.28 07:06:18.
