data_PCOD8142629
_publ_section_title
;
Structure prediction by ZEFSAII (Michael W. Deem and Ramdas Pophale) SiO2 
 PCOD8142629
Probable space group: C 2/C
;
_chemical_formula_sum "Si O2"
_cell_formula_units_Z 56
_cell_length_a 33.660468
_cell_length_b 14.387402
_cell_length_c 12.050143
_cell_angle_alpha 90.000000
_cell_angle_beta 26.923446
_cell_angle_gamma 90.000000
_cell_volume 2642.413426
_symmetry_space_group_name_H-M "C 2/C"
_symmetry_group_IT_number 15
_symmetry_cell_setting 'monoclinic'
loop_
_space_group_symop_operation_xyz
x,y,z
-x,y,1/2-z
-x,-y,-z
x,-y,1/2+z
1/2+x,1/2+y,z
1/2-x,1/2+y,1/2-z
1/2-x,1/2-y,-z
1/2+x,1/2-y,1/2+z
loop_
_atom_site_type_symbol
_atom_site_label
_atom_site_fract_x
_atom_site_fract_y
_atom_site_fract_z
Si Si1 0.101256 0.433835 0.473878
Si Si2 0.685608 0.672791 0.753868
Si Si3 0.128871 0.689628 0.111778
Si Si4 0.096933 0.115697 0.756613
Si Si5 0.557706 0.557944 0.212720
Si Si6 0.397548 0.135346 0.986418
Si Si7 0.956341 0.398763 0.108309
O O1 0.141828 0.365209 0.464325
O O2 0.141871 0.537816 0.368197
O O3 0.107196 0.384716 0.339702
O O4 0.000000 0.451965 0.750000
O O5 0.788952 0.665816 0.515647
O O6 0.666675 0.622286 0.683935
O O7 0.634249 0.625525 0.982651
O O8 0.658402 0.781439 0.821226
O O9 0.116615 0.799820 0.122856
O O10 0.041258 0.666737 0.398534
O O11 0.105920 0.025478 0.657090
O O12 0.001054 0.115650 0.053242
O O13 0.500000 0.523358 0.250000
O O14 0.500000 0.153665 0.750000
O O15 0.389622 0.124854 0.873058
O O16 0.000000 0.500000 0.000000
#
# Coordination Sequence:
#
# PCOD8142629 Si02
#       7
#     8   8   8   8   8   8   8
#     4   9  20  35  57  86 114 149 191 238 284 345
#     4  11  23  37  56  91 118 149 193 241 295 342
#     4  11  22  37  55  91 122 145 189 242 291 347
#     4  10  21  39  63  83 112 161 200 235 283 344
#     4   9  20  41  62  84 110 155 205 241 278 339
#     4  11  19  35  62  83 114 151 194 237 279 350
#     4  11  19  38  60  85 111 153 192 228 289 344
#
# _framework density 21.192747000000001
#
# number of rings (size 3 to 8) (size 9 to 14) (size 15 to 20)
#    0.000    1.714    4.286    3.429    0.000    2.857 
#    2.571    2.143    0.000    0.000    0.000    0.000 
#    0.000    0.000    0.000    0.000    0.000    0.000 
#
# Total GULP energy -346985.248745 kJ/mol
# GULP energy per Si atom -12392.330312 kJ/mol
# Density = 2.114451 g / cm^3
# Si number density = 21.192747 Si / 1000 Ang^3
#
#
#
# Elastic Constant Matrix: (Units=GPa)
#
#
# Indices 1 2 3 4 5 6 
#
# 1 121.6004 66.8466 40.2526 0.0000 -7.2493 0.0000
# 2 66.8466 121.0934 26.6220 0.0000 -13.6714 0.0000
# 3 40.2526 26.6220 39.9249 0.0000 -8.8519 0.0000
# 4 0.0000 0.0000 0.0000 11.9470 0.0000 -0.2762
# 5 -7.2493 -13.6714 -8.8519 0.0000 23.9061 0.0000
# 6 0.0000 0.0000 0.0000 -0.2762 0.0000 33.4451
#
#
#
# Elastic Compliance Matrix: (Units=1/GPa)
#
#
# Indices 1 2 3 4 5 6 
#
# 1 0.015503 -0.006257 -0.012212 0.000000 -0.003399 0.000000
# 2 -0.006257 0.012467 -0.000920 0.000000 0.004891 0.000000
# 3 -0.012212 -0.000920 0.040347 0.000000 0.010711 0.000000
# 4 0.000000 0.000000 0.000000 0.083719 0.000000 0.000691
# 5 -0.003399 0.004891 0.010711 0.000000 0.047563 0.000000
# 6 0.000000 0.000000 0.000000 0.000691 0.000000 0.029905
#
#
# Mechanical properties :
#
#
# Convention : Reuss Voigt Hill
#
# Bulk Modulus (GPa) = 33.85299 61.11790 47.48545
# Shear Modulus (GPa) = 17.97739 23.78615 20.88177
#
# Velocity S-wave (km/s) = 2.91568 3.35382 3.14240
# Velocity P-wave (km/s) = 5.22910 6.62564 5.96836
#
# Compressibility (1/GPa) = 0.02953949
#
# Stress axis : x y z
#
# Youngs Moduli (GPa) = 64.50343 80.21418 24.78506
#
# Poissons Ratio (x) = 0.50191 0.30267
# Poissons Ratio (y) = 0.40361 0.02280
# Poissons Ratio (z) = 0.78769 0.07378
#
# Static dielectric constant tensor:
#      x y z
#    x 3.244450 0.000000 -0.017070 
#    y 0.000000 4.224870 0.000000 
#    z -0.017070 0.000000 3.567730 
# 
# 
# High freq. dielectric constant tensor:
#      x y z
#    x 1.838050 0.000000 0.015280 
#    y 0.000000 1.828980 0.000000 
#    z 0.015280 0.000000 1.805350 
# 
# From -- ./inp_files/126960.got.cif
#   From: 2010.06.25/outbox.cif.g09.slc.cpg/sg15_64_cif.got.tgz:126960.got - 2010.06.28 07:06:18.
