data_PCOD8142267
_publ_section_title
;
Structure prediction by ZEFSAII (Michael W. Deem and Ramdas Pophale) SiO2 
 PCOD8142267
Probable space group: C 2/C
;
_chemical_formula_sum "Si O2"
_cell_formula_units_Z 44
_cell_length_a 17.343933
_cell_length_b 7.934222
_cell_length_c 25.406798
_cell_angle_alpha 90.000000
_cell_angle_beta 143.865956
_cell_angle_gamma 90.000000
_cell_volume 2061.653026
_symmetry_space_group_name_H-M "C 2/C"
_symmetry_group_IT_number 15
_symmetry_cell_setting 'monoclinic'
loop_
_space_group_symop_operation_xyz
x,y,z
-x,y,1/2-z
-x,-y,-z
x,-y,1/2+z
1/2+x,1/2+y,z
1/2-x,1/2+y,1/2-z
1/2-x,1/2-y,-z
1/2+x,1/2-y,1/2+z
loop_
_atom_site_type_symbol
_atom_site_label
_atom_site_fract_x
_atom_site_fract_y
_atom_site_fract_z
Si Si1 0.715438 0.655883 0.805087
Si Si2 0.435041 0.211301 0.631458
Si Si3 0.500000 0.467328 0.750000
Si Si4 0.859619 0.672507 0.990351
Si Si5 0.119604 0.531064 0.185146
Si Si6 0.704922 0.499925 0.991851
O O1 0.585078 0.583385 0.759083
O O2 0.830574 0.674398 0.911924
O O3 0.762084 0.523438 0.787086
O O4 0.674921 0.831465 0.755967
O O5 0.418395 0.337158 0.670459
O O6 0.380131 0.327826 0.553596
O O7 0.576841 0.135659 0.695021
O O8 0.345414 0.048039 0.594057
O O9 0.736597 0.581281 0.951550
O O10 0.869721 0.866394 0.013639
O O11 0.998057 0.588873 0.081428
#
# Coordination Sequence:
#
# PCOD8142267 Si02
#       6
#     8   8   4   8   8   8
#     4  12  26  45  66 101 132 183 220 280 328 404
#     4  10  21  38  64  95 134 171 212 281 320 397
#     4  12  24  38  70  96 132 172 234 264 338 386
#     4  10  21  42  70  96 133 179 218 275 331 397
#     4  11  26  45  67  94 145 170 225 274 344 385
#     4   9  19  39  64 101 131 165 227 272 325 394
#
# _framework density 21.342096999999999
#
# number of rings (size 3 to 8) (size 9 to 14) (size 15 to 20)
#    0.000    1.455    1.818    2.727    7.636    0.000 
#    0.000    1.818    0.000    0.000    0.000    0.000 
#    0.000    0.000    0.000    0.000    0.000    0.000 
#
# Total GULP energy -272667.896014 kJ/mol
# GULP energy per Si atom -12393.995273 kJ/mol
# Density = 2.129352 g / cm^3
# Si number density = 21.342097 Si / 1000 Ang^3
#
#
#
# Elastic Constant Matrix: (Units=GPa)
#
#
# Indices 1 2 3 4 5 6 
#
# 1 115.1003 61.0445 25.0233 0.0000 2.2202 0.0000
# 2 61.0445 131.9707 34.6803 0.0001 1.1052 -0.0001
# 3 25.0233 34.6803 76.5023 0.0000 -14.9954 0.0000
# 4 0.0000 0.0001 0.0000 24.4001 0.0000 27.9112
# 5 2.2202 1.1052 -14.9954 0.0000 29.6377 0.0000
# 6 0.0000 -0.0001 0.0000 27.9112 0.0000 -15.6508
#
#
#
# Elastic Compliance Matrix: (Units=1/GPa)
#
#
# Indices 1 2 3 4 5 6 
#
# 1 0.011747 -0.004908 -0.001947 0.000000 -0.001682 0.000000
# 2 -0.004908 0.010829 -0.003675 0.000000 -0.001896 0.000000
# 3 -0.001947 -0.003675 0.017129 0.000000 0.008949 0.000000
# 4 0.000000 0.000000 0.000000 0.013481 0.000000 0.024042
# 5 -0.001682 -0.001896 0.008949 0.000000 0.038466 0.000000
# 6 0.000000 0.000000 0.000000 0.024042 0.000000 -0.021018
#
#
# Mechanical properties :
#
#
# Convention : Reuss Voigt Hill
#
# Bulk Modulus (GPa) = 53.63675 62.78550 58.21113
# Shear Modulus (GPa) = 51.06760 21.19908 36.13334
#
# Velocity S-wave (km/s) = 4.89694 3.15508 4.11914
# Velocity P-wave (km/s) = 7.56041 6.53875 7.06807
#
# Compressibility (1/GPa) = 0.01864393
#
# Stress axis : x y z
#
# Youngs Moduli (GPa) = 85.13000 92.34163 58.38129
#
# Poissons Ratio (x) = 0.45319 0.11368
# Poissons Ratio (y) = 0.41780 0.21458
# Poissons Ratio (z) = 0.16576 0.33940
#
# Static dielectric constant tensor:
#      x y z
#    x 3.778870 0.000000 0.272670 
#    y 0.000000 3.999150 0.000000 
#    z 0.272670 0.000000 4.659940 
# 
# 
# High freq. dielectric constant tensor:
#      x y z
#    x 1.813450 0.000000 0.001800 
#    y 0.000000 1.856100 0.000000 
#    z 0.001800 0.000000 1.835910 
# 
# From -- ./inp_files/298217.got.cif
#   From: 2010.06.25/outbox.cif.g09.slc.cpg/sg15_150_cif.got.tgz:298217.got - 2010.06.28 07:06:18.
