data_PCOD8142622
_publ_section_title
;
Structure prediction by ZEFSAII (Michael W. Deem and Ramdas Pophale) SiO2 
 PCOD8142622
Probable space group: C 2/C
;
_chemical_formula_sum "Si O2"
_cell_formula_units_Z 40
_cell_length_a 18.438890
_cell_length_b 14.472566
_cell_length_c 7.703819
_cell_angle_alpha 90.000000
_cell_angle_beta 118.212690
_cell_angle_gamma 90.000000
_cell_volume 1811.591459
_symmetry_space_group_name_H-M "C 2/C"
_symmetry_group_IT_number 15
_symmetry_cell_setting 'monoclinic'
loop_
_space_group_symop_operation_xyz
x,y,z
-x,y,1/2-z
-x,-y,-z
x,-y,1/2+z
1/2+x,1/2+y,z
1/2-x,1/2+y,1/2-z
1/2-x,1/2-y,-z
1/2+x,1/2-y,1/2+z
loop_
_atom_site_type_symbol
_atom_site_label
_atom_site_fract_x
_atom_site_fract_y
_atom_site_fract_z
Si Si1 0.886782 0.819311 0.251139
Si Si2 0.592298 0.118016 0.159804
Si Si3 0.000000 0.034057 0.750000
Si Si4 0.720015 0.399381 0.673487
Si Si5 0.000000 0.471543 0.250000
Si Si6 0.156779 0.918695 0.980955
O O1 0.928299 0.718624 0.284611
O O2 0.958327 0.896536 0.341367
O O3 0.838634 0.832037 0.381207
O O4 0.825312 0.835030 0.019361
O O5 0.685443 0.127789 0.199967
O O6 0.576956 0.037906 0.285002
O O7 0.529600 0.096509 0.933618
O O8 0.069536 0.969821 0.909933
O O9 0.673220 0.385492 0.803780
O O10 0.723560 0.505733 0.616072
#
# Coordination Sequence:
#
# PCOD8142622 Si02
#       6
#     8   8   4   8   4   8
#     4  11  24  39  66 101 131 174 219 273 326 392
#     4  11  24  48  65  97 126 170 235 276 327 397
#     4  10  21  39  62  96 142 168 208 261 327 410
#     4  11  22  41  66  98 136 174 214 270 333 397
#     4  10  25  47  72  86 124 186 218 281 347 370
#     4  11  22  38  64 100 133 182 208 261 346 388
#
# _framework density 22.080034000000001
#
# number of rings (size 3 to 8) (size 9 to 14) (size 15 to 20)
#    0.000    1.200    4.000    3.000    2.800    1.600 
#    7.200    0.000    0.000    0.000    0.000    0.000 
#    0.000    0.000    0.000    0.000    0.000    0.000 
#
# Total GULP energy -247899.883756 kJ/mol
# GULP energy per Si atom -12394.994188 kJ/mol
# Density = 2.202978 g / cm^3
# Si number density = 22.080034 Si / 1000 Ang^3
#
#
#
# Elastic Constant Matrix: (Units=GPa)
#
#
# Indices 1 2 3 4 5 6 
#
# 1 95.0647 27.1377 56.7535 0.0000 0.9270 0.0000
# 2 27.1377 102.3532 54.0235 0.0000 -5.5146 0.0000
# 3 56.7535 54.0235 108.3245 0.0000 -26.3915 0.0000
# 4 0.0000 0.0000 0.0000 186.7228 0.0000 -152.6147
# 5 0.9270 -5.5146 -26.3915 0.0000 38.7646 0.0000
# 6 0.0000 0.0000 0.0000 -152.6147 0.0000 159.7371
#
#
#
# Elastic Compliance Matrix: (Units=1/GPa)
#
#
# Indices 1 2 3 4 5 6 
#
# 1 0.017152 0.001085 -0.011496 0.000000 -0.008083 0.000000
# 2 0.001085 0.013655 -0.008286 0.000000 -0.003725 0.000000
# 3 -0.011496 -0.008286 0.022978 0.000000 0.014740 0.000000
# 4 0.000000 0.000000 0.000000 0.024442 0.000000 0.023352
# 5 -0.008083 -0.003725 0.014740 0.000000 0.035495 0.000000
# 6 0.000000 0.000000 0.000000 0.023352 0.000000 0.028571
#
#
# Mechanical properties :
#
#
# Convention : Reuss Voigt Hill
#
# Bulk Modulus (GPa) = 61.01187 64.61909 62.81548
# Shear Modulus (GPa) = 27.00478 88.23341 57.61909
#
# Velocity S-wave (km/s) = 3.50099 6.32831 5.11392
# Velocity P-wave (km/s) = 6.63587 9.09538 7.96118
#
# Compressibility (1/GPa) = 0.01639025
#
# Stress axis : x y z
#
# Youngs Moduli (GPa) = 58.30368 73.23210 43.51933
#
# Poissons Ratio (x) = -0.07945 0.50031
# Poissons Ratio (y) = -0.06326 0.36060
# Poissons Ratio (z) = 0.67028 0.60680
#
# Static dielectric constant tensor:
#      x y z
#    x 4.046710 0.000000 -0.171380 
#    y 0.000000 3.896380 0.000000 
#    z -0.171380 0.000000 3.905500 
# 
# 
# High freq. dielectric constant tensor:
#      x y z
#    x 1.871850 0.000000 -0.011140 
#    y 0.000000 1.861220 0.000000 
#    z -0.011140 0.000000 1.864730 
# 
# From -- ./inp_files/47297.got.cif
#   From: 2010.06.25/outbox.cif.g09.slc.cpg/sg15_24_cif.got.tgz:47297.got - 2010.06.28 07:06:18.
