data_PCOD8142140
_publ_section_title
;
Structure prediction by ZEFSAII (Michael W. Deem and Ramdas Pophale) SiO2 
 PCOD8142140
Probable space group: C 2/C
;
_chemical_formula_sum "Si O2"
_cell_formula_units_Z 48
_cell_length_a 21.768162
_cell_length_b 15.011755
_cell_length_c 12.680191
_cell_angle_alpha 90.000000
_cell_angle_beta 141.617573
_cell_angle_gamma 90.000000
_cell_volume 2572.798956
_symmetry_space_group_name_H-M "C 2/C"
_symmetry_group_IT_number 15
_symmetry_cell_setting 'monoclinic'
loop_
_space_group_symop_operation_xyz
x,y,z
-x,y,1/2-z
-x,-y,-z
x,-y,1/2+z
1/2+x,1/2+y,z
1/2-x,1/2+y,1/2-z
1/2-x,1/2-y,-z
1/2+x,1/2-y,1/2+z
loop_
_atom_site_type_symbol
_atom_site_label
_atom_site_fract_x
_atom_site_fract_y
_atom_site_fract_z
Si Si1 0.880191 0.216838 0.896852
Si Si2 0.500000 0.220168 0.750000
Si Si3 0.726768 0.631584 0.230125
Si Si4 0.000000 0.001835 0.750000
Si Si5 0.297589 0.153784 0.547405
Si Si6 0.012564 0.828681 0.382988
Si Si7 0.301222 0.441223 0.404913
O O1 0.813074 0.304616 0.803390
O O2 0.814720 0.127312 0.825318
O O3 0.936440 0.214550 0.861737
O O4 0.956670 0.219473 0.097495
O O5 0.414442 0.158122 0.683223
O O6 0.741931 0.609692 0.373280
O O7 0.730943 0.538781 0.174149
O O8 0.623894 0.683455 0.074472
O O9 0.990005 0.065259 0.840553
O O10 0.902924 0.941912 0.608848
O O11 0.250000 0.250000 0.500000
O O12 0.284025 0.094319 0.632681
O O13 0.000000 0.782720 0.250000
#
# Coordination Sequence:
#
# PCOD8142140 Si02
#       7
#     8   4   8   4   8   8   8
#     4  11  22  37  64  89 117 163 193 251 303 353
#     4  10  21  38  62  93 114 150 217 248 290 359
#     4  10  23  38  59  93 119 154 209 246 297 369
#     4   8  21  36  54  95 110 150 197 248 306 351
#     4  11  21  39  62  89 121 160 200 253 301 352
#     4   9  21  39  56  86 123 158 192 251 299 364
#     4  11  22  36  62  90 121 154 191 260 304 344
#
# _framework density 18.656724000000001
#
# number of rings (size 3 to 8) (size 9 to 14) (size 15 to 20)
#    0.500    1.333    3.333    1.500    4.667    2.000 
#    0.000    3.333    1.833    0.000    0.000    0.000 
#    0.000    0.000    0.000    0.000    0.000    0.000 
#
# Total GULP energy -297528.042778 kJ/mol
# GULP energy per Si atom -12397.001782 kJ/mol
# Density = 1.861426 g / cm^3
# Si number density = 18.656724 Si / 1000 Ang^3
#
#
#
# Elastic Constant Matrix: (Units=GPa)
#
#
# Indices 1 2 3 4 5 6 
#
# 1 163.6341 54.0867 50.6920 0.0000 -3.6866 0.0000
# 2 54.0867 92.7454 36.2265 0.0000 4.4234 0.0000
# 3 50.6920 36.2265 80.8559 0.0000 6.7769 0.0000
# 4 0.0000 0.0000 0.0000 23.9233 0.0000 -3.5339
# 5 -3.6866 4.4234 6.7769 0.0000 24.8195 0.0000
# 6 0.0000 0.0000 0.0000 -3.5339 0.0000 27.7543
#
#
#
# Elastic Compliance Matrix: (Units=1/GPa)
#
#
# Indices 1 2 3 4 5 6 
#
# 1 0.008620 -0.003590 -0.004050 0.000000 0.003026 0.000000
# 2 -0.003590 0.014578 -0.004113 0.000000 -0.002008 0.000000
# 3 -0.004050 -0.004113 0.017130 0.000000 -0.004546 0.000000
# 4 0.000000 0.000000 0.000000 0.042602 0.000000 0.005424
# 5 0.003026 -0.002008 -0.004546 0.000000 0.042340 0.000000
# 6 0.000000 0.000000 0.000000 0.005424 0.000000 0.036721
#
#
# Mechanical properties :
#
#
# Convention : Reuss Voigt Hill
#
# Bulk Modulus (GPa) = 59.43749 68.80510 64.12130
# Shear Modulus (GPa) = 26.16389 28.38143 27.27266
#
# Velocity S-wave (km/s) = 3.74890 3.90454 3.82752
# Velocity P-wave (km/s) = 7.11805 7.56881 7.34689
#
# Compressibility (1/GPa) = 0.01682440
#
# Stress axis : x y z
#
# Youngs Moduli (GPa) = 116.00274 68.59761 58.37609
#
# Poissons Ratio (x) = 0.24624 0.23641
# Poissons Ratio (y) = 0.41641 0.24007
# Poissons Ratio (z) = 0.46979 0.28211
#
# Static dielectric constant tensor:
#      x y z
#    x 3.744080 0.000000 -0.073560 
#    y 0.000000 3.195930 0.000000 
#    z -0.073560 0.000000 3.484540 
# 
# 
# High freq. dielectric constant tensor:
#      x y z
#    x 1.727160 0.000000 -0.000280 
#    y 0.000000 1.706520 0.000000 
#    z -0.000280 0.000000 1.721520 
# 
# From -- ./inp_files/113004.got.cif
#   From: 2010.06.25/outbox.cif.g09.slc.cpg/sg15_57_cif.got.tgz:113004.got - 2010.06.28 07:06:18.
