data_PCOD8142138
_publ_section_title
;
Structure prediction by ZEFSAII (Michael W. Deem and Ramdas Pophale) SiO2 
 PCOD8142138
Probable space group: C 2/C
;
_chemical_formula_sum "Si O2"
_cell_formula_units_Z 56
_cell_length_a 8.946549
_cell_length_b 23.607132
_cell_length_c 13.929292
_cell_angle_alpha 90.000000
_cell_angle_beta 114.931965
_cell_angle_gamma 90.000000
_cell_volume 2667.740782
_symmetry_space_group_name_H-M "C 2/C"
_symmetry_group_IT_number 15
_symmetry_cell_setting 'monoclinic'
loop_
_space_group_symop_operation_xyz
x,y,z
-x,y,1/2-z
-x,-y,-z
x,-y,1/2+z
1/2+x,1/2+y,z
1/2-x,1/2+y,1/2-z
1/2-x,1/2-y,-z
1/2+x,1/2-y,1/2+z
loop_
_atom_site_type_symbol
_atom_site_label
_atom_site_fract_x
_atom_site_fract_y
_atom_site_fract_z
Si Si1 0.502741 0.212360 0.358304
Si Si2 0.389990 0.085536 0.497739
Si Si3 0.456318 0.294416 0.496169
Si Si4 0.811060 0.147866 0.192771
Si Si5 0.079060 0.692300 0.875883
Si Si6 0.080760 0.522887 0.378226
Si Si7 0.271932 0.378057 0.891098
O O1 0.500000 0.235883 0.250000
O O2 0.560184 0.264272 0.439644
O O3 0.318173 0.200098 0.351807
O O4 0.623767 0.158895 0.397595
O O5 0.213703 0.107376 0.407018
O O6 0.481491 0.141043 0.569079
O O7 0.475184 0.055200 0.430458
O O8 0.371635 0.040602 0.578593
O O9 0.274875 0.313102 0.417314
O O10 0.465405 0.254071 0.592750
O O11 0.550049 0.352880 0.540319
O O12 0.747379 0.116935 0.270491
O O13 0.000000 0.168431 0.250000
O O14 0.000000 0.685477 0.750000
O O15 0.252617 0.557931 0.422918
O O16 0.000000 0.522557 0.250000
#
# Coordination Sequence:
#
# PCOD8142138 Si02
#       7
#     8   8   8   8   8   8   8
#     4  10  21  38  62  92 127 171 214 259 319 380
#     4  11  22  41  68  94 129 167 214 273 324 388
#     4  11  24  39  64  92 133 174 211 267 321 381
#     4  11  21  37  64  94 129 165 215 268 312 390
#     4  11  25  41  59  97 134 171 213 258 330 393
#     4  11  21  42  71  95 120 171 223 267 328 388
#     4  11  21  38  65  95 126 164 223 270 309 390
#
# _framework density 20.991544999999999
#
# number of rings (size 3 to 8) (size 9 to 14) (size 15 to 20)
#    0.000    1.143    4.286    2.143    6.000    0.000 
#    0.000    2.857    0.000    0.000    0.000    0.000 
#    0.000    0.000    0.000    0.000    0.000    0.000 
#
# Total GULP energy -346878.606582 kJ/mol
# GULP energy per Si atom -12388.521664 kJ/mol
# Density = 2.094377 g / cm^3
# Si number density = 20.991545 Si / 1000 Ang^3
#
#
#
# Elastic Constant Matrix: (Units=GPa)
#
#
# Indices 1 2 3 4 5 6 
#
# 1 85.4631 37.7146 41.1123 0.0000 9.0170 0.0000
# 2 37.7146 94.4915 64.5433 0.0000 7.5991 0.0000
# 3 41.1123 64.5433 138.3263 0.0000 0.0991 0.0000
# 4 0.0000 0.0000 0.0000 32.0717 0.0000 -2.5496
# 5 9.0170 7.5991 0.0991 0.0000 30.4827 0.0000
# 6 0.0000 0.0000 0.0000 -2.5496 0.0000 24.4148
#
#
#
# Elastic Compliance Matrix: (Units=1/GPa)
#
#
# Indices 1 2 3 4 5 6 
#
# 1 0.015074 -0.003932 -0.002643 0.000000 -0.003470 0.000000
# 2 -0.003932 0.017025 -0.006773 0.000000 -0.003059 0.000000
# 3 -0.002643 -0.006773 0.011173 0.000000 0.002434 0.000000
# 4 0.000000 0.000000 0.000000 0.031441 0.000000 0.003283
# 5 -0.003470 -0.003059 0.002434 0.000000 0.034587 0.000000
# 6 0.000000 0.000000 0.000000 0.003283 0.000000 0.041302
#
#
# Mechanical properties :
#
#
# Convention : Reuss Voigt Hill
#
# Bulk Modulus (GPa) = 60.32846 67.22459 63.77653
# Shear Modulus (GPa) = 27.34901 29.05456 28.20179
#
# Velocity S-wave (km/s) = 3.61343 3.72440 3.66933
# Velocity P-wave (km/s) = 6.79786 7.11259 6.95701
#
# Compressibility (1/GPa) = 0.01657592
#
# Stress axis : x y z
#
# Youngs Moduli (GPa) = 66.34090 58.73829 89.49916
#
# Poissons Ratio (x) = 0.23096 0.23654
# Poissons Ratio (y) = 0.26086 0.60617
# Poissons Ratio (z) = 0.17533 0.39783
#
# Static dielectric constant tensor:
#      x y z
#    x 3.694740 0.000000 -0.228710 
#    y 0.000000 3.913670 0.000000 
#    z -0.228710 0.000000 4.102660 
# 
# 
# High freq. dielectric constant tensor:
#      x y z
#    x 1.810350 0.000000 -0.019470 
#    y 0.000000 1.809330 0.000000 
#    z -0.019470 0.000000 1.836490 
# 
# From -- ./inp_files/137443.got.cif
#   From: 2010.06.25/outbox.cif.g09.slc.cpg/sg15_69_cif.got.tgz:137443.got - 2010.06.28 07:06:18.
