data_PCOD8142778
_publ_section_title
;
Structure prediction by ZEFSAII (Michael W. Deem and Ramdas Pophale) SiO2 
 PCOD8142778
Probable space group: C 2/C
;
_chemical_formula_sum "Si O2"
_cell_formula_units_Z 40
_cell_length_a 7.585095
_cell_length_b 14.981115
_cell_length_c 20.596354
_cell_angle_alpha 90.000000
_cell_angle_beta 129.839761
_cell_angle_gamma 90.000000
_cell_volume 1797.073124
_symmetry_space_group_name_H-M "C 2/C"
_symmetry_group_IT_number 15
_symmetry_cell_setting 'monoclinic'
loop_
_space_group_symop_operation_xyz
x,y,z
-x,y,1/2-z
-x,-y,-z
x,-y,1/2+z
1/2+x,1/2+y,z
1/2-x,1/2+y,1/2-z
1/2-x,1/2-y,-z
1/2+x,1/2-y,1/2+z
loop_
_atom_site_type_symbol
_atom_site_label
_atom_site_fract_x
_atom_site_fract_y
_atom_site_fract_z
Si Si1 0.039694 0.364353 0.486604
Si Si2 0.719787 0.749634 0.756598
Si Si3 0.527355 0.671129 0.070077
Si Si4 0.738500 0.063746 0.695822
Si Si5 0.990707 0.608545 0.122326
O O1 0.294740 0.387570 0.519246
O O2 0.013115 0.257373 0.484826
O O3 0.846415 0.403408 0.394497
O O4 0.998414 0.407276 0.547305
O O5 0.500000 0.742942 0.750000
O O6 0.793057 0.646298 0.760038
O O7 0.646662 0.803915 0.675179
O O8 0.918529 0.800847 0.842694
O O9 0.730583 0.614589 0.085835
O O10 0.000000 0.033104 0.750000
O O11 0.595203 0.977291 0.684379
#
# Coordination Sequence:
#
# PCOD8142778 Si02
#       5
#     8   8   8   8   8
#     4  10  21  39  65  92 123 166 205 260 315 370
#     4   8  18  38  60  86 128 165 200 262 311 363
#     4   9  20  38  62  90 128 158 207 257 309 368
#     4  10  22  39  60  95 128 163 211 264 310 371
#     4  11  21  37  70  90 120 173 210 250 317 375
#
# _framework density 22.258414999999999
#
# number of rings (size 3 to 8) (size 9 to 14) (size 15 to 20)
#    0.000    2.400    0.000    2.400    2.800    0.800 
#    0.000    0.000   39.600    0.000    0.000    0.000 
#    0.000    0.000    0.000    0.000    0.000    0.000 
#
# Total GULP energy -247946.993797 kJ/mol
# GULP energy per Si atom -12397.349690 kJ/mol
# Density = 2.220775 g / cm^3
# Si number density = 22.258415 Si / 1000 Ang^3
#
#
#
# Elastic Constant Matrix: (Units=GPa)
#
#
# Indices 1 2 3 4 5 6 
#
# 1 114.9501 48.1310 42.4704 0.0000 27.9046 0.0000
# 2 48.1310 113.4737 30.6498 0.0000 11.3782 0.0000
# 3 42.4704 30.6498 92.8675 0.0000 22.3253 0.0000
# 4 0.0000 0.0000 0.0000 27.0034 0.0000 6.2343
# 5 27.9046 11.3782 22.3253 0.0000 33.5175 0.0000
# 6 0.0000 0.0000 0.0000 6.2343 0.0000 24.6797
#
#
#
# Elastic Compliance Matrix: (Units=1/GPa)
#
#
# Indices 1 2 3 4 5 6 
#
# 1 0.013388 -0.004115 -0.002882 0.000000 -0.007829 0.000000
# 2 -0.004115 0.010994 -0.001992 0.000000 0.001021 0.000000
# 3 -0.002882 -0.001992 0.014293 0.000000 -0.006444 0.000000
# 4 0.000000 0.000000 0.000000 0.039326 0.000000 -0.009934
# 5 -0.007829 0.001021 -0.006444 0.000000 0.040299 0.000000
# 6 0.000000 0.000000 0.000000 -0.009934 0.000000 0.043029
#
#
# Mechanical properties :
#
#
# Convention : Reuss Voigt Hill
#
# Bulk Modulus (GPa) = 48.31843 62.64374 55.48109
# Shear Modulus (GPa) = 26.85213 30.37614 28.61414
#
# Velocity S-wave (km/s) = 3.47707 3.69820 3.58934
# Velocity P-wave (km/s) = 6.15427 6.81473 6.49290
#
# Compressibility (1/GPa) = 0.02069604
#
# Stress axis : x y z
#
# Youngs Moduli (GPa) = 74.69401 90.96117 69.96554
#
# Poissons Ratio (x) = 0.37431 0.20167
# Poissons Ratio (y) = 0.30737 0.13936
# Poissons Ratio (z) = 0.21530 0.18117
#
# Static dielectric constant tensor:
#      x y z
#    x 3.614620 0.000000 0.417820 
#    y 0.000000 4.348720 0.000000 
#    z 0.417820 0.000000 4.222640 
# 
# 
# High freq. dielectric constant tensor:
#      x y z
#    x 1.848040 0.000000 0.031840 
#    y 0.000000 1.875520 0.000000 
#    z 0.031840 0.000000 1.880620 
# 
# From -- ./inp_files/133181.got.cif
#   From: 2010.06.25/outbox.cif.g09.slc.cpg/sg15_67_cif.got.tgz:133181.got - 2010.06.28 07:06:18.
