data_PCOD8142842
_publ_section_title
;
Structure prediction by ZEFSAII (Michael W. Deem and Ramdas Pophale) SiO2 
 PCOD8142842
Probable space group: C 2/C
;
_chemical_formula_sum "Si O2"
_cell_formula_units_Z 56
_cell_length_a 16.570262
_cell_length_b 8.677176
_cell_length_c 19.089845
_cell_angle_alpha 90.000000
_cell_angle_beta 94.864952
_cell_angle_gamma 90.000000
_cell_volume 2734.908190
_symmetry_space_group_name_H-M "C 2/C"
_symmetry_group_IT_number 15
_symmetry_cell_setting 'monoclinic'
loop_
_space_group_symop_operation_xyz
x,y,z
-x,y,1/2-z
-x,-y,-z
x,-y,1/2+z
1/2+x,1/2+y,z
1/2-x,1/2+y,1/2-z
1/2-x,1/2-y,-z
1/2+x,1/2-y,1/2+z
loop_
_atom_site_type_symbol
_atom_site_label
_atom_site_fract_x
_atom_site_fract_y
_atom_site_fract_z
Si Si1 0.742887 0.834416 0.173181
Si Si2 0.048188 0.830118 0.103813
Si Si3 0.606643 0.335891 0.588831
Si Si4 0.964436 0.650467 0.533965
Si Si5 0.806215 0.315017 0.815430
Si Si6 0.809905 0.759584 0.569253
Si Si7 0.130467 0.100645 0.930240
O O1 0.669811 0.722605 0.150067
O O2 0.793269 0.765757 0.240654
O O3 0.796581 0.827862 0.107595
O O4 0.709865 0.003500 0.189096
O O5 0.099539 0.713527 0.156517
O O6 0.952372 0.840014 0.113126
O O7 0.085347 0.997432 0.115405
O O8 0.058423 0.779041 0.024753
O O9 0.531085 0.219707 0.590725
O O10 0.636676 0.339233 0.510467
O O11 0.878792 0.623676 0.568776
O O12 0.000000 0.500000 0.500000
O O13 0.743771 0.236434 0.865519
O O14 0.750000 0.750000 0.500000
O O15 0.861668 0.916729 0.573708
#
# Coordination Sequence:
#
# PCOD8142842 Si02
#       7
#     8   8   8   8   8   8   8
#     4  11  25  42  62  90 123 170 208 256 312 381
#     4  11  20  41  64  91 126 157 202 265 308 370
#     4  11  20  39  66  93 126 153 208 259 313 367
#     4  11  21  36  60  99 125 157 199 259 313 369
#     4  11  24  42  64  87 127 163 213 253 315 373
#     4  11  20  39  66  93 124 165 204 254 316 374
#     4  10  21  39  66  93 121 164 210 253 316 366
#
# _framework density 20.476008
#
# number of rings (size 3 to 8) (size 9 to 14) (size 15 to 20)
#    0.000    1.143    4.286    3.000    2.000    0.571 
#   10.286    0.714    3.143    0.000    0.000    0.000 
#    0.000    0.000    0.000    0.000    0.000    0.000 
#
# Total GULP energy -347127.267723 kJ/mol
# GULP energy per Si atom -12397.402419 kJ/mol
# Density = 2.042940 g / cm^3
# Si number density = 20.476008 Si / 1000 Ang^3
#
#
#
# Elastic Constant Matrix: (Units=GPa)
#
#
# Indices 1 2 3 4 5 6 
#
# 1 65.0521 14.7938 -3.1942 0.0000 19.8235 0.0000
# 2 14.7938 66.9615 -7.3428 0.0000 5.4521 0.0000
# 3 -3.1942 -7.3428 49.1893 0.0000 14.9844 0.0000
# 4 0.0000 0.0000 0.0000 33.4834 0.0000 7.9093
# 5 19.8235 5.4521 14.9844 0.0000 34.1319 0.0000
# 6 0.0000 0.0000 0.0000 7.9093 0.0000 39.3029
#
#
#
# Elastic Compliance Matrix: (Units=1/GPa)
#
#
# Indices 1 2 3 4 5 6 
#
# 1 0.020419 -0.002848 0.005050 0.000000 -0.013621 0.000000
# 2 -0.002848 0.016055 0.002873 0.000000 -0.002172 0.000000
# 3 0.005050 0.002873 0.025535 0.000000 -0.014602 0.000000
# 4 0.000000 0.000000 0.000000 0.031356 0.000000 -0.006310
# 5 -0.013621 -0.002172 -0.014602 0.000000 0.043966 0.000000
# 6 0.000000 0.000000 0.000000 -0.006310 0.000000 0.026713
#
#
# Mechanical properties :
#
#
# Convention : Reuss Voigt Hill
#
# Bulk Modulus (GPa) = 13.85836 21.07962 17.46899
# Shear Modulus (GPa) = 28.09821 33.18003 30.63912
#
# Velocity S-wave (km/s) = 3.70841 4.02983 3.87246
# Velocity P-wave (km/s) = 5.01190 5.65419 5.34271
#
# Compressibility (1/GPa) = 0.07215860
#
# Stress axis : x y z
#
# Youngs Moduli (GPa) = 48.97447 62.28538 39.16247
#
# Poissons Ratio (x) = 0.17741 -0.19777
# Poissons Ratio (y) = 0.13949 -0.11252
# Poissons Ratio (z) = -0.24732 -0.17896
#
# Static dielectric constant tensor:
#      x y z
#    x 4.133390 0.000000 0.114600 
#    y 0.000000 3.778200 0.000000 
#    z 0.114600 0.000000 3.528980 
# 
# 
# High freq. dielectric constant tensor:
#      x y z
#    x 1.815450 0.000000 0.015450 
#    y 0.000000 1.801150 0.000000 
#    z 0.015450 0.000000 1.778600 
# 
# From -- ./inp_files/209648.got.cif
#   From: 2010.06.25/outbox.cif.g09.slc.cpg/sg15_105_cif.got.tgz:209648.got - 2010.06.28 07:06:18.
