data_PCOD8142594
_publ_section_title
;
Structure prediction by ZEFSAII (Michael W. Deem and Ramdas Pophale) SiO2 
 PCOD8142594
Probable space group: C 2/C
;
_chemical_formula_sum "Si O2"
_cell_formula_units_Z 64
_cell_length_a 17.524682
_cell_length_b 24.595171
_cell_length_c 15.175867
_cell_angle_alpha 90.000000
_cell_angle_beta 150.170584
_cell_angle_gamma 90.000000
_cell_volume 3253.690458
_symmetry_space_group_name_H-M "C 2/C"
_symmetry_group_IT_number 15
_symmetry_cell_setting 'monoclinic'
loop_
_space_group_symop_operation_xyz
x,y,z
-x,y,1/2-z
-x,-y,-z
x,-y,1/2+z
1/2+x,1/2+y,z
1/2-x,1/2+y,1/2-z
1/2-x,1/2-y,-z
1/2+x,1/2-y,1/2+z
loop_
_atom_site_type_symbol
_atom_site_label
_atom_site_fract_x
_atom_site_fract_y
_atom_site_fract_z
Si Si1 0.817212 0.145856 0.558513
Si Si2 0.682697 0.590094 0.437634
Si Si3 0.678726 0.197485 0.247883
Si Si4 0.681689 0.188914 0.602151
Si Si5 0.676559 0.100698 0.743358
Si Si6 0.817752 0.608046 0.390588
Si Si7 0.325685 0.528482 0.601818
Si Si8 0.675492 0.504271 0.701501
O O1 0.769397 0.177675 0.424188
O O2 0.744664 0.175224 0.569321
O O3 0.753402 0.083455 0.488018
O O4 0.000000 0.146086 0.750000
O O5 0.500000 0.590879 0.250000
O O6 0.741519 0.620180 0.584215
O O7 0.747210 0.620079 0.415921
O O8 0.750284 0.527931 0.506980
O O9 0.735849 0.257216 0.279719
O O10 0.720448 0.159761 0.207281
O O11 0.499042 0.197809 0.087479
O O12 0.723275 0.141911 0.713052
O O13 0.497145 0.098270 0.579932
O O14 0.735089 0.040225 0.780071
O O15 0.743574 0.555993 0.269593
O O16 0.500000 0.525178 0.750000
O O17 0.307054 0.533655 0.687709
O O18 0.500000 0.500000 0.500000
#
# Coordination Sequence:
#
# PCOD8142594 Si02
#       8
#     8   8   8   8   8   8   8   8
#     4  11  22  37  61  88 124 161 202 248 298 356
#     4  10  21  39  62  91 123 159 202 245 301 365
#     4  11  25  41  65  84 123 159 204 257 297 363
#     4  11  24  44  60  91 118 160 209 247 308 355
#     4  11  22  40  62  87 126 158 196 257 305 361
#     4  10  24  40  59  92 120 158 202 249 313 357
#     4   9  19  34  52  90 122 155 201 237 289 352
#     4  11  21  35  61  88 124 160 206 248 293 366
#
# _framework density 19.669972000000001
#
# number of rings (size 3 to 8) (size 9 to 14) (size 15 to 20)
#    0.000    1.500    1.250    4.500    5.250    3.000 
#    0.000    1.875    0.000    0.000    0.000    0.000 
#    0.000    0.000    0.000    0.000    0.000    0.000 
#
# Total GULP energy -396854.033533 kJ/mol
# GULP energy per Si atom -12401.688548 kJ/mol
# Density = 1.962520 g / cm^3
# Si number density = 19.669972 Si / 1000 Ang^3
#
#
#
# Elastic Constant Matrix: (Units=GPa)
#
#
# Indices 1 2 3 4 5 6 
#
# 1 114.7626 21.0436 31.1051 0.0000 -3.6973 0.0000
# 2 21.0436 60.8047 24.9841 0.0000 6.2778 0.0000
# 3 31.1051 24.9841 100.4757 0.0000 -4.9651 0.0000
# 4 0.0000 0.0000 0.0000 41.5503 0.0000 0.6314
# 5 -3.6973 6.2778 -4.9651 0.0000 27.2976 0.0000
# 6 0.0000 0.0000 0.0000 0.6314 0.0000 27.3955
#
#
#
# Elastic Compliance Matrix: (Units=1/GPa)
#
#
# Indices 1 2 3 4 5 6 
#
# 1 0.009874 -0.002616 -0.002332 0.000000 0.001515 0.000000
# 2 -0.002616 0.019738 -0.004380 0.000000 -0.005690 0.000000
# 3 -0.002332 -0.004380 0.011905 0.000000 0.002857 0.000000
# 4 0.000000 0.000000 0.000000 0.024076 0.000000 -0.000555
# 5 0.001515 -0.005690 0.002857 0.000000 0.038667 0.000000
# 6 0.000000 0.000000 0.000000 -0.000555 0.000000 0.036515
#
#
# Mechanical properties :
#
#
# Convention : Reuss Voigt Hill
#
# Bulk Modulus (GPa) = 43.73775 47.81207 45.77491
# Shear Modulus (GPa) = 29.93134 32.50935 31.22034
#
# Velocity S-wave (km/s) = 3.90510 4.06980 3.98830
# Velocity P-wave (km/s) = 6.52818 6.81500 6.67313
#
# Compressibility (1/GPa) = 0.02286355
#
# Stress axis : x y z
#
# Youngs Moduli (GPa) = 101.27612 50.66281 84.00099
#
# Poissons Ratio (x) = 0.13252 0.19585
# Poissons Ratio (y) = 0.26490 0.36789
# Poissons Ratio (z) = 0.23613 0.22188
#
# Static dielectric constant tensor:
#      x y z
#    x 3.758920 0.000000 -0.018070 
#    y 0.000000 3.092790 0.000000 
#    z -0.018070 0.000000 3.500850 
# 
# 
# High freq. dielectric constant tensor:
#      x y z
#    x 1.783290 0.000000 0.000000 
#    y 0.000000 1.762530 0.000000 
#    z 0.000000 0.000000 1.762340 
# 
# From -- ./inp_files/164252.got.cif
#   From: 2010.06.25/outbox.cif.g09.slc.cpg/sg15_83_cif.got.tgz:164252.got - 2010.06.28 07:06:18.
