data_PCOD8142659
_publ_section_title
;
Structure prediction by ZEFSAII (Michael W. Deem and Ramdas Pophale) SiO2 
 PCOD8142659
Probable space group: C 2/C
;
_chemical_formula_sum "Si O2"
_cell_formula_units_Z 32
_cell_length_a 23.655623
_cell_length_b 7.211067
_cell_length_c 16.192042
_cell_angle_alpha 90.000000
_cell_angle_beta 150.723441
_cell_angle_gamma 90.000000
_cell_volume 1350.725695
_symmetry_space_group_name_H-M "C 2/C"
_symmetry_group_IT_number 15
_symmetry_cell_setting 'monoclinic'
loop_
_space_group_symop_operation_xyz
x,y,z
-x,y,1/2-z
-x,-y,-z
x,-y,1/2+z
1/2+x,1/2+y,z
1/2-x,1/2+y,1/2-z
1/2-x,1/2-y,-z
1/2+x,1/2-y,1/2+z
loop_
_atom_site_type_symbol
_atom_site_label
_atom_site_fract_x
_atom_site_fract_y
_atom_site_fract_z
Si Si1 0.513549 0.415559 0.670868
Si Si2 0.860691 0.260246 0.423264
Si Si3 0.791684 0.853489 0.133069
Si Si4 0.884500 0.638621 0.393644
O O1 0.500000 0.372341 0.750000
O O2 0.447027 0.601660 0.560889
O O3 0.647317 0.454066 0.816459
O O4 0.472681 0.241480 0.566429
O O5 0.821235 0.382305 0.453357
O O6 0.914876 0.416125 0.429799
O O7 0.747785 0.161107 0.239294
O O8 0.885601 0.726034 0.302990
O O9 0.750000 0.750000 0.000000
#
# Coordination Sequence:
#
# PCOD8142659 Si02
#       4
#     8   8   8   8
#     4  12  22  40  66  92 128 164 209 260 309 369
#     4  10  21  40  64  87 128 163 204 258 311 367
#     4  10  21  40  64  93 128 166 203 263 313 362
#     4  10  21  39  63  90 125 166 203 251 314 371
#
# _framework density 23.69097
#
# number of rings (size 3 to 8) (size 9 to 14) (size 15 to 20)
#    1.500    0.000    5.000    0.750    0.000    2.000 
#    0.000    3.750    0.000    0.000    0.000    0.000 
#    0.000    0.000    0.000    0.000    0.000    0.000 
#
# Total GULP energy -198266.230605 kJ/mol
# GULP energy per Si atom -12391.639413 kJ/mol
# Density = 2.363705 g / cm^3
# Si number density = 23.690970 Si / 1000 Ang^3
#
#
#
# Elastic Constant Matrix: (Units=GPa)
#
#
# Indices 1 2 3 4 5 6 
#
# 1 37.8767 6.6195 -3.3656 0.0000 -14.0676 0.0000
# 2 6.6195 99.2146 45.7887 0.0000 -21.5754 0.0000
# 3 -3.3656 45.7887 96.3912 0.0000 -26.5839 0.0000
# 4 0.0000 0.0000 0.0000 46.2831 0.0000 3.0943
# 5 -14.0676 -21.5754 -26.5839 0.0000 36.6686 0.0000
# 6 0.0000 0.0000 0.0000 3.0943 0.0000 28.6325
#
#
#
# Elastic Compliance Matrix: (Units=1/GPa)
#
#
# Indices 1 2 3 4 5 6 
#
# 1 0.033427 -0.001630 0.006517 0.000000 0.016589 0.000000
# 2 -0.001630 0.013460 -0.005549 0.000000 0.003272 0.000000
# 3 0.006517 -0.005549 0.016282 0.000000 0.011040 0.000000
# 4 0.000000 0.000000 0.000000 0.021763 0.000000 -0.002352
# 5 0.016589 0.003272 0.011040 0.000000 0.043564 0.000000
# 6 0.000000 0.000000 0.000000 -0.002352 0.000000 0.035180
#
#
# Mechanical properties :
#
#
# Convention : Reuss Voigt Hill
#
# Bulk Modulus (GPa) = 16.16948 36.84086 26.50517
# Shear Modulus (GPa) = 26.93741 34.61282 30.77511
#
# Velocity S-wave (km/s) = 3.37565 3.82647 3.60811
# Velocity P-wave (km/s) = 4.69397 5.92510 5.34510
#
# Compressibility (1/GPa) = 0.06184489
#
# Stress axis : x y z
#
# Youngs Moduli (GPa) = 29.91623 74.29338 61.41629
#
# Poissons Ratio (x) = 0.12112 -0.40023
# Poissons Ratio (y) = 0.04877 0.34077
# Poissons Ratio (z) = -0.19495 0.41222
#
# Static dielectric constant tensor:
#      x y z
#    x 4.640470 0.000000 0.187000 
#    y 0.000000 4.276850 0.000000 
#    z 0.187000 0.000000 4.188630 
# 
# 
# High freq. dielectric constant tensor:
#      x y z
#    x 1.951420 0.000000 0.009990 
#    y 0.000000 1.923200 0.000000 
#    z 0.009990 0.000000 1.934120 
# 
# From -- ./inp_files/149795.got.cif
#   From: 2010.06.25/outbox.cif.g09.slc.cpg/sg15_75_cif.got.tgz:149795.got - 2010.06.28 07:06:18.
