data_PCOD8142388
_publ_section_title
;
Structure prediction by ZEFSAII (Michael W. Deem and Ramdas Pophale) SiO2 
 PCOD8142388
Probable space group: C 2/C
;
_chemical_formula_sum "Si O2"
_cell_formula_units_Z 56
_cell_length_a 12.088805
_cell_length_b 18.928615
_cell_length_c 15.409723
_cell_angle_alpha 90.000000
_cell_angle_beta 129.688496
_cell_angle_gamma 90.000000
_cell_volume 2713.447055
_symmetry_space_group_name_H-M "C 2/C"
_symmetry_group_IT_number 15
_symmetry_cell_setting 'monoclinic'
loop_
_space_group_symop_operation_xyz
x,y,z
-x,y,1/2-z
-x,-y,-z
x,-y,1/2+z
1/2+x,1/2+y,z
1/2-x,1/2+y,1/2-z
1/2-x,1/2-y,-z
1/2+x,1/2-y,1/2+z
loop_
_atom_site_type_symbol
_atom_site_label
_atom_site_fract_x
_atom_site_fract_y
_atom_site_fract_z
Si Si1 0.364317 0.121162 0.357993
Si Si2 0.283882 0.448710 0.877198
Si Si3 0.809348 0.800122 0.103202
Si Si4 0.851156 0.074565 0.124176
Si Si5 0.400892 0.597172 0.948845
Si Si6 0.660132 0.941225 0.995327
Si Si7 0.394983 0.276663 0.324298
O O1 0.270195 0.095254 0.230505
O O2 0.250829 0.131413 0.379520
O O3 0.491326 0.063671 0.437639
O O4 0.431779 0.198987 0.378926
O O5 0.310527 0.530970 0.865605
O O6 0.431374 0.414952 0.987815
O O7 0.165515 0.442499 0.893366
O O8 0.730739 0.873285 0.071103
O O9 0.784853 0.767053 0.187938
O O10 0.972335 0.813548 0.156765
O O11 0.750000 0.750000 0.000000
O O12 0.000000 0.061368 0.250000
O O13 0.750213 0.005710 0.079041
O O14 0.881165 0.101586 0.042722
O O15 0.344246 0.669359 0.875109
#
# Coordination Sequence:
#
# PCOD8142388 Si02
#       7
#     8   8   8   8   8   8   8
#     4  12  24  40  65  97 132 171 213 271 341 384
#     4  10  21  38  69  92 131 169 216 278 318 393
#     4  11  22  38  61  97 135 159 208 263 337 397
#     4  11  25  43  67  90 125 183 228 264 314 396
#     4  10  22  43  64  95 126 173 229 258 317 393
#     4  11  23  39  65  98 129 163 215 285 330 387
#     4  11  25  37  66  98 130 174 207 271 330 391
#
# _framework density 20.637955999999999
#
# number of rings (size 3 to 8) (size 9 to 14) (size 15 to 20)
#    0.000    1.143    4.286    1.714    6.000    0.571 
#    0.000    0.000    0.000    0.000    0.000    0.000 
#    0.000    0.000    0.000    0.000    0.000    0.000 
#
# Total GULP energy -347019.588330 kJ/mol
# GULP energy per Si atom -12393.556726 kJ/mol
# Density = 2.059098 g / cm^3
# Si number density = 20.637956 Si / 1000 Ang^3
#
#
#
# Elastic Constant Matrix: (Units=GPa)
#
#
# Indices 1 2 3 4 5 6 
#
# 1 95.3136 26.7027 31.0869 -0.0001 1.1192 0.0000
# 2 26.7027 89.2806 52.6678 0.0000 -4.3446 0.0000
# 3 31.0869 52.6678 99.7303 -0.0001 -13.1545 -0.0001
# 4 -0.0001 0.0000 -0.0001 29.3350 -0.0001 -1.7212
# 5 1.1192 -4.3446 -13.1545 -0.0001 25.3930 0.0000
# 6 0.0000 0.0000 -0.0001 -1.7212 0.0000 22.7471
#
#
#
# Elastic Compliance Matrix: (Units=1/GPa)
#
#
# Indices 1 2 3 4 5 6 
#
# 1 0.012058 -0.001914 -0.003071 0.000000 -0.002450 0.000000
# 2 -0.001914 0.016649 -0.008382 0.000000 -0.001409 0.000000
# 3 -0.003071 -0.008382 0.016357 0.000000 0.007175 0.000000
# 4 0.000000 0.000000 0.000000 0.034241 0.000000 0.002591
# 5 -0.002450 -0.001409 0.007175 0.000000 0.042965 0.000000
# 6 0.000000 0.000000 0.000000 0.002591 0.000000 0.044158
#
#
# Mechanical properties :
#
#
# Convention : Reuss Voigt Hill
#
# Bulk Modulus (GPa) = 54.55252 56.13770 55.34511
# Shear Modulus (GPa) = 25.09142 27.08615 26.08878
#
# Velocity S-wave (km/s) = 3.49060 3.62670 3.55930
# Velocity P-wave (km/s) = 6.53729 6.69309 6.61565
#
# Compressibility (1/GPa) = 0.01833096
#
# Stress axis : x y z
#
# Youngs Moduli (GPa) = 82.93040 60.06383 61.13589
#
# Poissons Ratio (x) = 0.11497 0.18775
# Poissons Ratio (y) = 0.15874 0.51242
# Poissons Ratio (z) = 0.25468 0.50343
#
# Static dielectric constant tensor:
#      x y z
#    x 3.705200 0.000000 0.136400 
#    y 0.000000 3.135340 0.000000 
#    z 0.136400 0.000000 4.066290 
# 
# 
# High freq. dielectric constant tensor:
#      x y z
#    x 1.804240 0.000000 -0.005400 
#    y 0.000000 1.798170 0.000000 
#    z -0.005400 0.000000 1.812320 
# 
# From -- ./inp_files/119842.got.cif
#   From: 2010.06.25/outbox.cif.g09.slc.cpg/sg15_60_cif.got.tgz:119842.got - 2010.06.28 07:06:18.
