data_PCOD8142786
_publ_section_title
;
Structure prediction by ZEFSAII (Michael W. Deem and Ramdas Pophale) SiO2 
 PCOD8142786
Probable space group: C 2/C
;
_chemical_formula_sum "Si O2"
_cell_formula_units_Z 64
_cell_length_a 22.074796
_cell_length_b 19.754603
_cell_length_c 9.950527
_cell_angle_alpha 90.000000
_cell_angle_beta 141.514110
_cell_angle_gamma 90.000000
_cell_volume 2700.387964
_symmetry_space_group_name_H-M "C 2/C"
_symmetry_group_IT_number 15
_symmetry_cell_setting 'monoclinic'
loop_
_space_group_symop_operation_xyz
x,y,z
-x,y,1/2-z
-x,-y,-z
x,-y,1/2+z
1/2+x,1/2+y,z
1/2-x,1/2+y,1/2-z
1/2-x,1/2-y,-z
1/2+x,1/2-y,1/2+z
loop_
_atom_site_type_symbol
_atom_site_label
_atom_site_fract_x
_atom_site_fract_y
_atom_site_fract_z
Si Si1 0.666430 0.881424 0.711988
Si Si2 0.914576 0.024960 0.190324
Si Si3 0.027180 0.377063 0.953382
Si Si4 0.201886 0.533402 0.723466
Si Si5 0.519871 0.599799 0.581433
Si Si6 0.457086 0.737425 0.399651
Si Si7 0.853033 0.248190 0.951698
Si Si8 0.220337 0.867792 0.333127
O O1 0.562172 0.889185 0.602043
O O2 0.675199 0.827714 0.605080
O O3 0.689722 0.953572 0.686192
O O4 0.745488 0.853603 0.956216
O O5 0.929462 0.942300 0.207732
O O6 0.000000 0.059964 0.250000
O O7 0.934965 0.051051 0.376691
O O8 0.805743 0.048755 0.972600
O O9 0.000000 0.385924 0.750000
O O10 0.110713 0.431419 0.140629
O O11 0.066829 0.301031 0.047113
O O12 0.209847 0.570526 0.592981
O O13 0.469250 0.672571 0.521281
O O14 0.607903 0.610495 0.628557
O O15 0.555269 0.746126 0.487676
O O16 0.372519 0.727277 0.140378
O O17 0.769438 0.198547 0.745456
#
# Coordination Sequence:
#
# PCOD8142786 Si02
#       8
#     8   8   8   8   8   8   8   8
#     4  11  23  42  65  98 132 179 230 273 333 402
#     4  11  22  38  62  95 130 172 221 271 339 400
#     4  11  24  45  66  93 136 181 222 282 335 391
#     4  12  24  40  65  97 131 173 226 274 337 399
#     4  10  21  39  65  92 131 170 213 279 337 398
#     4   9  20  40  66  93 126 175 223 269 335 403
#     4   9  20  39  65  96 128 172 224 273 330 400
#     4  11  20  39  67  95 131 176 222 274 336 407
#
# _framework density 23.700299000000001
#
# number of rings (size 3 to 8) (size 9 to 14) (size 15 to 20)
#    0.000    1.500    3.750    1.500    1.750    1.500 
#    4.500    3.750    0.000    0.000    0.000    0.000 
#    0.000    0.000    0.000    0.000    0.000    0.000 
#
# Total GULP energy -396421.339473 kJ/mol
# GULP energy per Si atom -12388.166859 kJ/mol
# Density = 2.364636 g / cm^3
# Si number density = 23.700299 Si / 1000 Ang^3
#
#
#
# Elastic Constant Matrix: (Units=GPa)
#
#
# Indices 1 2 3 4 5 6 
#
# 1 34.2342 10.5819 17.5810 0.0000 10.7229 0.0000
# 2 10.5819 142.1986 46.2671 0.0000 10.8720 0.0000
# 3 17.5810 46.2671 110.5877 0.0000 7.6911 0.0000
# 4 0.0000 0.0000 0.0000 36.3092 0.0000 -5.2355
# 5 10.7229 10.8720 7.6911 0.0000 19.7969 0.0000
# 6 0.0000 0.0000 0.0000 -5.2355 0.0000 25.7699
#
#
#
# Elastic Compliance Matrix: (Units=1/GPa)
#
#
# Indices 1 2 3 4 5 6 
#
# 1 0.037382 0.000171 -0.004727 0.000000 -0.018505 0.000000
# 2 0.000171 0.008348 -0.003283 0.000000 -0.003402 0.000000
# 3 -0.004727 -0.003283 0.011166 0.000000 0.000026 0.000000
# 4 0.000000 0.000000 0.000000 0.028372 0.000000 0.005764
# 5 -0.018505 -0.003402 0.000026 0.000000 0.062394 0.000000
# 6 0.000000 0.000000 0.000000 0.005764 0.000000 0.039976
#
#
# Mechanical properties :
#
#
# Convention : Reuss Voigt Hill
#
# Bulk Modulus (GPa) = 24.26208 48.43116 36.34662
# Shear Modulus (GPa) = 23.03551 30.54790 26.79171
#
# Velocity S-wave (km/s) = 3.12099 3.59405 3.36585
# Velocity P-wave (km/s) = 4.82149 6.14021 5.52037
#
# Compressibility (1/GPa) = 0.04121658
#
# Stress axis : x y z
#
# Youngs Moduli (GPa) = 26.75110 119.78879 89.55764
#
# Poissons Ratio (x) = -0.02051 0.42338
# Poissons Ratio (y) = -0.00458 0.29404
# Poissons Ratio (z) = 0.12647 0.39329
#
# Static dielectric constant tensor:
#      x y z
#    x 3.803620 0.000000 0.108270 
#    y 0.000000 4.604830 0.000000 
#    z 0.108270 0.000000 4.289500 
# 
# 
# High freq. dielectric constant tensor:
#      x y z
#    x 1.900250 0.000000 0.008560 
#    y 0.000000 1.951140 0.000000 
#    z 0.008560 0.000000 1.939080 
# 
# From -- ./inp_files/124301.got.cif
#   From: 2010.06.25/outbox.cif.g09.slc.cpg/sg15_63_cif.got.tgz:124301.got - 2010.06.28 07:06:18.
