data_PCOD8142035
_publ_section_title
;
Structure prediction by ZEFSAII (Michael W. Deem and Ramdas Pophale) SiO2 
 PCOD8142035
Probable space group: C 2/C
;
_chemical_formula_sum "Si O2"
_cell_formula_units_Z 48
_cell_length_a 17.896739
_cell_length_b 26.020677
_cell_length_c 5.007994
_cell_angle_alpha 90.000000
_cell_angle_beta 73.887422
_cell_angle_gamma 90.000000
_cell_volume 2240.538124
_symmetry_space_group_name_H-M "C 2/C"
_symmetry_group_IT_number 15
_symmetry_cell_setting 'monoclinic'
loop_
_space_group_symop_operation_xyz
x,y,z
-x,y,1/2-z
-x,-y,-z
x,-y,1/2+z
1/2+x,1/2+y,z
1/2-x,1/2+y,1/2-z
1/2-x,1/2-y,-z
1/2+x,1/2-y,1/2+z
loop_
_atom_site_type_symbol
_atom_site_label
_atom_site_fract_x
_atom_site_fract_y
_atom_site_fract_z
Si Si1 0.664301 0.466309 0.063796
Si Si2 0.160036 0.808748 0.560544
Si Si3 0.909519 0.859344 0.370552
Si Si4 0.841131 0.308214 0.351150
Si Si5 0.911345 0.641556 0.281677
Si Si6 0.842249 0.466396 0.934401
O O1 0.646673 0.511600 0.289321
O O2 0.608529 0.418524 0.176549
O O3 0.753327 0.447227 0.997717
O O4 0.137190 0.822080 0.281261
O O5 0.133821 0.750825 0.646748
O O6 0.251408 0.816102 0.511684
O O7 0.115857 0.847123 0.802934
O O8 0.000000 0.848777 0.250000
O O9 0.891827 0.342928 0.499092
O O10 0.856393 0.326396 0.034954
O O11 0.899055 0.580915 0.327422
O O12 0.000000 0.655692 0.250000
O O13 0.859361 0.487799 0.211297
#
# Coordination Sequence:
#
# PCOD8142035 Si02
#       6
#     8   8   8   8   8   8
#     4  10  21  38  61  87 118 160 206 249 296 358
#     4  11  24  43  66  90 121 165 212 253 298 363
#     4  12  25  40  63  95 129 161 198 255 316 365
#     4  11  24  43  66  90 121 165 212 253 298 363
#     4  12  25  40  63  95 129 161 198 255 316 365
#     4  10  21  38  61  87 118 160 206 249 296 358
#
# _framework density 21.423425999999999
#
# number of rings (size 3 to 8) (size 9 to 14) (size 15 to 20)
#    0.000    1.000    0.000    7.000    0.000   10.667 
#    0.000    0.000    0.000    0.000    0.000    0.000 
#    0.000    0.000    0.000    0.000    0.000    0.000 
#
# Total GULP energy -297857.171541 kJ/mol
# GULP energy per Si atom -12410.715481 kJ/mol
# Density = 2.137467 g / cm^3
# Si number density = 21.423426 Si / 1000 Ang^3
#
#
#
# Elastic Constant Matrix: (Units=GPa)
#
#
# Indices 1 2 3 4 5 6 
#
# 1 80.5606 25.2746 10.7108 0.0000 -2.5086 0.0000
# 2 25.2746 92.8777 8.9632 0.0000 -8.3757 0.0000
# 3 10.7108 8.9632 79.1533 0.0000 2.7960 0.0000
# 4 0.0000 0.0000 0.0000 24.3510 0.0000 0.5468
# 5 -2.5086 -8.3757 2.7960 0.0000 29.5712 0.0000
# 6 0.0000 0.0000 0.0000 0.5468 0.0000 12.4575
#
#
#
# Elastic Compliance Matrix: (Units=1/GPa)
#
#
# Indices 1 2 3 4 5 6 
#
# 1 0.013737 -0.003570 -0.001465 0.000000 0.000293 0.000000
# 2 -0.003570 0.012126 -0.001004 0.000000 0.003227 0.000000
# 3 -0.001465 -0.001004 0.013003 0.000000 -0.001638 0.000000
# 4 0.000000 0.000000 0.000000 0.041107 0.000000 -0.001804
# 5 0.000293 0.003227 -0.001638 0.000000 0.034910 0.000000
# 6 0.000000 0.000000 0.000000 -0.001804 0.000000 0.080352
#
#
# Mechanical properties :
#
#
# Convention : Reuss Voigt Hill
#
# Bulk Modulus (GPa) = 37.32989 38.05431 37.69210
# Shear Modulus (GPa) = 23.12205 27.11883 25.12044
#
# Velocity S-wave (km/s) = 3.28882 3.56174 3.42799
# Velocity P-wave (km/s) = 5.64663 5.89204 5.77064
#
# Compressibility (1/GPa) = 0.02678819
#
# Stress axis : x y z
#
# Youngs Moduli (GPa) = 72.79579 82.46506 76.90239
#
# Poissons Ratio (x) = 0.29444 0.11265
# Poissons Ratio (y) = 0.25992 0.07721
# Poissons Ratio (z) = 0.10664 0.08280
#
# Static dielectric constant tensor:
#      x y z
#    x 3.776020 0.000000 0.053990 
#    y 0.000000 3.761610 0.000000 
#    z 0.053990 0.000000 3.896300 
# 
# 
# High freq. dielectric constant tensor:
#      x y z
#    x 1.836440 0.000000 0.006450 
#    y 0.000000 1.847970 0.000000 
#    z 0.006450 0.000000 1.853630 
# 
# From -- ./inp_files/10885.got.cif
#   From: 2010.06.25/outbox.cif.g09.slc.cpg/sg15_6_cif.got.tgz:10885.got - 2010.06.28 07:06:18.
