data_PCOD8142761
_publ_section_title
;
Structure prediction by ZEFSAII (Michael W. Deem and Ramdas Pophale) SiO2 
 PCOD8142761
Probable space group: C 2/C
;
_chemical_formula_sum "Si O2"
_cell_formula_units_Z 36
_cell_length_a 18.083783
_cell_length_b 9.751589
_cell_length_c 16.436919
_cell_angle_alpha 90.000000
_cell_angle_beta 151.320553
_cell_angle_gamma 90.000000
_cell_volume 1391.053462
_symmetry_space_group_name_H-M "C 2/C"
_symmetry_group_IT_number 15
_symmetry_cell_setting 'monoclinic'
loop_
_space_group_symop_operation_xyz
x,y,z
-x,y,1/2-z
-x,-y,-z
x,-y,1/2+z
1/2+x,1/2+y,z
1/2-x,1/2+y,1/2-z
1/2-x,1/2-y,-z
1/2+x,1/2-y,1/2+z
loop_
_atom_site_type_symbol
_atom_site_label
_atom_site_fract_x
_atom_site_fract_y
_atom_site_fract_z
Si Si1 0.164607 0.375031 0.039117
Si Si2 0.453563 0.107505 0.878883
Si Si3 0.105775 0.108581 0.554374
Si Si4 0.986636 0.898189 0.143323
Si Si5 0.500000 0.971374 0.250000
O O1 0.135709 0.431292 0.918706
O O2 0.052113 0.465763 0.991053
O O3 0.117594 0.217023 0.000560
O O4 0.343845 0.390433 0.235136
O O5 0.283585 0.108810 0.755077
O O6 0.434168 0.120081 0.761132
O O7 0.546163 0.237412 0.001207
O O8 0.000000 0.000000 0.500000
O O9 0.092183 0.046005 0.449315
O O10 0.000000 0.866713 0.250000
#
# Coordination Sequence:
#
# PCOD8142761 Si02
#       5
#     8   8   8   8   4
#     4  10  21  39  65 104 134 173 222 285 334 396
#     4  10  23  46  67  96 137 175 228 274 343 400
#     4  12  28  45  67 101 137 184 226 277 343 410
#     4  12  22  38  69 100 136 177 230 282 334 390
#     4   8  20  40  72 100 138 166 234 276 346 384
#
# _framework density 25.879666
#
# number of rings (size 3 to 8) (size 9 to 14) (size 15 to 20)
#    1.333    0.000    1.111    4.667    1.556    4.444 
#    0.000    3.333    0.000    0.000    0.000    0.000 
#    0.000    0.000    0.000    0.000    0.000    0.000 
#
# Total GULP energy -223196.376446 kJ/mol
# GULP energy per Si atom -12399.798691 kJ/mol
# Density = 2.582076 g / cm^3
# Si number density = 25.879666 Si / 1000 Ang^3
#
#
#
# Elastic Constant Matrix: (Units=GPa)
#
#
# Indices 1 2 3 4 5 6 
#
# 1 95.4696 22.3245 18.9018 0.0000 26.9159 0.0000
# 2 22.3245 178.8739 74.8876 0.0000 12.4332 0.0000
# 3 18.9018 74.8876 188.2252 -0.0001 33.6342 0.0000
# 4 0.0000 0.0000 -0.0001 52.8715 0.0000 -2.7169
# 5 26.9159 12.4332 33.6342 0.0000 37.3279 0.0000
# 6 0.0000 0.0000 0.0000 -2.7169 0.0000 33.3497
#
#
#
# Elastic Compliance Matrix: (Units=1/GPa)
#
#
# Indices 1 2 3 4 5 6 
#
# 1 0.013465 -0.001402 0.001022 0.000000 -0.010163 0.000000
# 2 -0.001402 0.006855 -0.002812 0.000000 0.001261 0.000000
# 3 0.001022 -0.002812 0.007501 0.000000 -0.006559 0.000000
# 4 0.000000 0.000000 0.000000 0.018993 0.000000 0.001547
# 5 -0.010163 0.001261 -0.006559 0.000000 0.039607 0.000000
# 6 0.000000 0.000000 0.000000 0.001547 0.000000 0.030111
#
#
# Mechanical properties :
#
#
# Convention : Reuss Voigt Hill
#
# Bulk Modulus (GPa) = 46.64854 77.19962 61.92408
# Shear Modulus (GPa) = 38.44275 47.80681 43.12478
#
# Velocity S-wave (km/s) = 3.85832 4.30265 4.08653
# Velocity P-wave (km/s) = 6.15737 7.38774 6.80044
#
# Compressibility (1/GPa) = 0.02143690
#
# Stress axis : x y z
#
# Youngs Moduli (GPa) = 74.26472 145.87702 133.31620
#
# Poissons Ratio (x) = 0.20450 -0.13619
# Poissons Ratio (y) = 0.10411 0.37488
# Poissons Ratio (z) = -0.07587 0.41020
#
# Static dielectric constant tensor:
#      x y z
#    x 5.122410 0.000000 -0.351100 
#    y 0.000000 4.580930 0.000000 
#    z -0.351100 0.000000 4.825800 
# 
# 
# High freq. dielectric constant tensor:
#      x y z
#    x 2.075080 0.000000 -0.023270 
#    y 0.000000 2.020810 0.000000 
#    z -0.023270 0.000000 2.054920 
# 
# From -- ./inp_files/252078.got.cif
#   From: 2010.06.25/outbox.cif.g09.slc.cpg/sg15_127_cif.got.tgz:252078.got - 2010.06.28 07:06:18.
