data_PCOD8142703
_publ_section_title
;
Structure prediction by ZEFSAII (Michael W. Deem and Ramdas Pophale) SiO2 
 PCOD8142703
Probable space group: C 2/C
;
_chemical_formula_sum "Si O2"
_cell_formula_units_Z 56
_cell_length_a 16.428733
_cell_length_b 14.339179
_cell_length_c 13.855973
_cell_angle_alpha 90.000000
_cell_angle_beta 53.873556
_cell_angle_gamma 90.000000
_cell_volume 2636.483598
_symmetry_space_group_name_H-M "C 2/C"
_symmetry_group_IT_number 15
_symmetry_cell_setting 'monoclinic'
loop_
_space_group_symop_operation_xyz
x,y,z
-x,y,1/2-z
-x,-y,-z
x,-y,1/2+z
1/2+x,1/2+y,z
1/2-x,1/2+y,1/2-z
1/2-x,1/2-y,-z
1/2+x,1/2-y,1/2+z
loop_
_atom_site_type_symbol
_atom_site_label
_atom_site_fract_x
_atom_site_fract_y
_atom_site_fract_z
Si Si1 0.078136 0.486278 0.278020
Si Si2 0.887317 0.017186 0.364218
Si Si3 0.087308 0.685892 0.355573
Si Si4 0.187596 0.851615 0.201540
Si Si5 0.806653 0.014891 0.624962
Si Si6 0.401339 0.187283 0.607752
Si Si7 0.697918 0.351320 0.726355
O O1 0.051494 0.589025 0.334339
O O2 0.193498 0.483022 0.160542
O O3 0.065268 0.412132 0.372808
O O4 0.000000 0.458325 0.250000
O O5 0.844187 0.916566 0.364543
O O6 0.883578 0.025263 0.482303
O O7 0.000000 0.028222 0.250000
O O8 0.823068 0.099944 0.360999
O O9 0.116964 0.759918 0.251221
O O10 0.183967 0.673373 0.357453
O O11 0.994530 0.727143 0.481584
O O12 0.304581 0.824415 0.105153
O O13 0.174648 0.900819 0.314639
O O14 0.826809 0.918537 0.666213
O O15 0.371627 0.259756 0.713524
#
# Coordination Sequence:
#
# PCOD8142703 Si02
#       7
#     8   8   8   8   8   8   8
#     4  10  22  37  58  92 116 148 201 242 294 352
#     4  11  24  37  65  88 118 157 195 241 301 340
#     4  10  21  39  64  82 118 163 189 240 301 338
#     4   9  22  42  58  91 119 151 204 236 287 363
#     4   9  21  41  61  85 121 153 190 252 287 343
#     4  10  21  39  64  82 118 163 189 240 301 338
#     4   9  22  42  58  91 119 151 204 236 287 363
#
# _framework density 21.240413
#
# number of rings (size 3 to 8) (size 9 to 14) (size 15 to 20)
#    0.000    2.286    0.000    1.286    8.000    2.286 
#    0.000    4.286    0.000    0.000    0.000    0.000 
#    0.000    0.000    0.000    0.000    0.000    0.000 
#
# Total GULP energy -347281.152983 kJ/mol
# GULP energy per Si atom -12402.898321 kJ/mol
# Density = 2.119207 g / cm^3
# Si number density = 21.240413 Si / 1000 Ang^3
#
#
#
# Elastic Constant Matrix: (Units=GPa)
#
#
# Indices 1 2 3 4 5 6 
#
# 1 45.7696 -0.2577 19.1558 0.0000 -8.7878 0.0000
# 2 -0.2577 81.7692 1.3567 0.0000 -7.4582 0.0000
# 3 19.1558 1.3567 103.6736 0.0000 -15.0159 0.0000
# 4 0.0000 0.0000 0.0000 22.4036 0.0000 -3.8074
# 5 -8.7878 -7.4582 -15.0159 0.0000 30.8534 0.0000
# 6 0.0000 0.0000 0.0000 -3.8074 0.0000 8.1152
#
#
#
# Elastic Compliance Matrix: (Units=1/GPa)
#
#
# Indices 1 2 3 4 5 6 
#
# 1 0.024439 0.000621 -0.003759 0.000000 0.005282 0.000000
# 2 0.000621 0.012529 0.000200 0.000000 0.003303 0.000000
# 3 -0.003759 0.000200 0.010962 0.000000 0.004313 0.000000
# 4 0.000000 0.000000 0.000000 0.048503 0.000000 0.022756
# 5 0.005282 0.003303 0.004313 0.000000 0.036813 0.000000
# 6 0.000000 0.000000 0.000000 0.022756 0.000000 0.133902
#
#
# Mechanical properties :
#
#
# Convention : Reuss Voigt Hill
#
# Bulk Modulus (GPa) = 23.77842 30.19135 26.98488
# Shear Modulus (GPa) = 17.41897 26.33827 21.87862
#
# Velocity S-wave (km/s) = 2.86682 3.52519 3.21292
# Velocity P-wave (km/s) = 4.70929 5.55106 5.14741
#
# Compressibility (1/GPa) = 0.04205494
#
# Stress axis : x y z
#
# Youngs Moduli (GPa) = 40.91765 79.81205 91.22239
#
# Poissons Ratio (x) = -0.04957 0.34289
# Poissons Ratio (y) = -0.02542 -0.01821
# Poissons Ratio (z) = 0.15380 -0.01593
#
# Static dielectric constant tensor:
#      x y z
#    x 3.764010 0.000000 -0.202770 
#    y 0.000000 4.027480 0.000000 
#    z -0.202770 0.000000 3.524110 
# 
# 
# High freq. dielectric constant tensor:
#      x y z
#    x 1.825150 0.000000 -0.020720 
#    y 0.000000 1.845320 0.000000 
#    z -0.020720 0.000000 1.813630 
# 
# From -- ./inp_files/162189.got.cif
#   From: 2010.06.25/outbox.cif.g09.slc.cpg/sg15_82_cif.got.tgz:162189.got - 2010.06.28 07:06:18.
