data_PCOD8142964
_publ_section_title
;
Structure prediction by ZEFSAII (Michael W. Deem and Ramdas Pophale) SiO2 
 PCOD8142964
Probable space group: C 2/C
;
_chemical_formula_sum "Si O2"
_cell_formula_units_Z 56
_cell_length_a 11.886253
_cell_length_b 15.302237
_cell_length_c 13.641311
_cell_angle_alpha 90.000000
_cell_angle_beta 90.226712
_cell_angle_gamma 90.000000
_cell_volume 2481.147622
_symmetry_space_group_name_H-M "C 2/C"
_symmetry_group_IT_number 15
_symmetry_cell_setting 'monoclinic'
loop_
_space_group_symop_operation_xyz
x,y,z
-x,y,1/2-z
-x,-y,-z
x,-y,1/2+z
1/2+x,1/2+y,z
1/2-x,1/2+y,1/2-z
1/2-x,1/2-y,-z
1/2+x,1/2-y,1/2+z
loop_
_atom_site_type_symbol
_atom_site_label
_atom_site_fract_x
_atom_site_fract_y
_atom_site_fract_z
Si Si1 0.734418 0.498114 0.056131
Si Si2 0.032391 0.533191 0.394437
Si Si3 0.698687 0.023153 0.663587
Si Si4 0.956937 0.269422 0.639154
Si Si5 0.737003 0.216359 0.717362
Si Si6 0.127406 0.098601 0.216954
Si Si7 0.671420 0.304374 0.070307
O O1 0.845505 0.489209 0.129131
O O2 0.644127 0.562201 0.106778
O O3 0.678101 0.404828 0.043196
O O4 0.770066 0.533468 0.950549
O O5 0.057367 0.634532 0.401791
O O6 0.000000 0.500000 0.500000
O O7 0.927378 0.516450 0.320504
O O8 0.684636 0.120731 0.705531
O O9 0.789726 0.958462 0.713077
O O10 0.833706 0.225912 0.635064
O O11 0.000000 0.268528 0.750000
O O12 0.039569 0.220385 0.563173
O O13 0.649625 0.297241 0.714331
O O14 0.792617 0.221668 0.822419
O O15 0.000000 0.081583 0.250000
O O16 0.750000 0.250000 0.000000
#
# Coordination Sequence:
#
# PCOD8142964 Si02
#       7
#     8   8   8   8   8   8   8
#     4  11  24  44  70 102 141 181 229 292 352 423
#     4  10  21  42  68  98 131 174 230 289 339 411
#     4  11  25  46  72 102 137 186 236 283 357 418
#     4  10  21  39  69  93 134 184 231 276 339 424
#     4  11  24  45  67  99 136 189 230 288 354 412
#     4  12  27  47  68 102 146 181 235 295 358 417
#     4  11  22  40  69 105 138 179 240 283 343 417
#
# _framework density 22.570201999999998
#
# number of rings (size 3 to 8) (size 9 to 14) (size 15 to 20)
#    0.000    1.143    2.857    4.286    2.000    2.286 
#    2.571    0.000    0.000    0.000    0.000    0.000 
#    0.000    0.000    0.000    0.000    0.000    0.000 
#
# Total GULP energy -347051.239379 kJ/mol
# GULP energy per Si atom -12394.687121 kJ/mol
# Density = 2.251883 g / cm^3
# Si number density = 22.570202 Si / 1000 Ang^3
#
#
#
# Elastic Constant Matrix: (Units=GPa)
#
#
# Indices 1 2 3 4 5 6 
#
# 1 139.3163 44.9245 41.4774 0.0000 -27.9572 0.0000
# 2 44.9245 152.7623 21.0476 0.0000 -8.5674 0.0000
# 3 41.4774 21.0476 42.9707 0.0000 -15.3597 0.0000
# 4 0.0000 0.0000 0.0000 22.9388 0.0000 -3.4334
# 5 -27.9572 -8.5674 -15.3597 0.0000 35.9901 0.0000
# 6 0.0000 0.0000 0.0000 -3.4334 0.0000 36.2953
#
#
#
# Elastic Compliance Matrix: (Units=1/GPa)
#
#
# Indices 1 2 3 4 5 6 
#
# 1 0.011170 -0.001895 -0.008158 0.000000 0.004744 0.000000
# 2 -0.001895 0.007343 -0.001970 0.000000 -0.000564 0.000000
# 3 -0.008158 -0.001970 0.035020 0.000000 0.008140 0.000000
# 4 0.000000 0.000000 0.000000 0.044220 0.000000 0.004183
# 5 0.004744 -0.000564 0.008140 0.000000 0.034810 0.000000
# 6 0.000000 0.000000 0.000000 0.004183 0.000000 0.027947
#
#
# Mechanical properties :
#
#
# Convention : Reuss Voigt Hill
#
# Bulk Modulus (GPa) = 33.91101 61.10537 47.50819
# Shear Modulus (GPa) = 25.72224 34.21817 29.97020
#
# Velocity S-wave (km/s) = 3.37954 3.89791 3.64794
# Velocity P-wave (km/s) = 5.50324 6.88408 6.23202
#
# Compressibility (1/GPa) = 0.02948895
#
# Stress axis : x y z
#
# Youngs Moduli (GPa) = 89.52869 136.18337 28.55498
#
# Poissons Ratio (x) = 0.25803 0.23294
# Poissons Ratio (y) = 0.16963 0.05624
# Poissons Ratio (z) = 0.73034 0.26822
#
# Static dielectric constant tensor:
#      x y z
#    x 4.539890 0.000000 -0.211570 
#    y 0.000000 4.019010 0.000000 
#    z -0.211570 0.000000 4.166310 
# 
# 
# High freq. dielectric constant tensor:
#      x y z
#    x 1.896940 0.000000 -0.022400 
#    y 0.000000 1.894940 0.000000 
#    z -0.022400 0.000000 1.893710 
# 
# From -- ./inp_files/144247.got.cif
#   From: 2010.06.25/outbox.cif.g09.slc.cpg/sg15_73_cif.got.tgz:144247.got - 2010.06.28 07:06:18.
