data_PCOD8142719
_publ_section_title
;
Structure prediction by ZEFSAII (Michael W. Deem and Ramdas Pophale) SiO2 
 PCOD8142719
Probable space group: C 2/C
;
_chemical_formula_sum "Si O2"
_cell_formula_units_Z 32
_cell_length_a 11.639463
_cell_length_b 7.987762
_cell_length_c 15.202137
_cell_angle_alpha 90.000000
_cell_angle_beta 59.465377
_cell_angle_gamma 90.000000
_cell_volume 1217.386262
_symmetry_space_group_name_H-M "C 2/C"
_symmetry_group_IT_number 15
_symmetry_cell_setting 'monoclinic'
loop_
_space_group_symop_operation_xyz
x,y,z
-x,y,1/2-z
-x,-y,-z
x,-y,1/2+z
1/2+x,1/2+y,z
1/2-x,1/2+y,1/2-z
1/2-x,1/2-y,-z
1/2+x,1/2-y,1/2+z
loop_
_atom_site_type_symbol
_atom_site_label
_atom_site_fract_x
_atom_site_fract_y
_atom_site_fract_z
Si Si1 0.711324 0.557278 0.518026
Si Si2 0.736618 0.405001 0.689417
Si Si3 0.892765 0.087311 0.612024
Si Si4 0.513968 0.898811 0.641291
O O1 0.750000 0.750000 0.500000
O O2 0.672975 0.490037 0.628589
O O3 0.599076 0.485463 0.492122
O O4 0.858575 0.485777 0.431812
O O5 0.761040 0.206861 0.667349
O O6 0.635823 0.435242 0.809699
O O7 0.882620 0.487939 0.652986
O O8 0.019305 0.204062 0.596423
O O9 0.500000 0.871284 0.750000
#
# Coordination Sequence:
#
# PCOD8142719 Si02
#       4
#     8   8   8   8
#     4  12  22  40  63  91 130 168 211 266 315 379
#     4  10  21  39  64  89 126 168 209 263 319 375
#     4  10  22  39  65  90 125 170 211 259 322 374
#     4  10  21  39  65  87 128 164 214 253 319 377
#
# _framework density 26.285823000000001
#
# number of rings (size 3 to 8) (size 9 to 14) (size 15 to 20)
#    1.500    0.000    2.500    4.500    0.000    1.000 
#    0.000    0.000   11.000    0.000    0.000    0.000 
#    0.000    0.000    0.000    0.000    0.000    0.000 
#
# Total GULP energy -198305.055622 kJ/mol
# GULP energy per Si atom -12394.065976 kJ/mol
# Density = 2.622600 g / cm^3
# Si number density = 26.285823 Si / 1000 Ang^3
#
#
#
# Elastic Constant Matrix: (Units=GPa)
#
#
# Indices 1 2 3 4 5 6 
#
# 1 186.5931 17.2371 50.8182 0.0000 21.1974 0.0000
# 2 17.2371 71.1573 23.8471 0.0000 20.5711 0.0000
# 3 50.8182 23.8471 154.2195 0.0000 48.6607 0.0000
# 4 0.0000 0.0000 0.0000 39.7916 0.0000 2.5235
# 5 21.1974 20.5711 48.6607 0.0000 47.6271 0.0000
# 6 0.0000 0.0000 0.0000 2.5235 0.0000 28.9713
#
#
#
# Elastic Compliance Matrix: (Units=1/GPa)
#
#
# Indices 1 2 3 4 5 6 
#
# 1 0.005946 -0.000697 -0.001640 0.000000 -0.000669 0.000000
# 2 -0.000697 0.016160 -0.000243 0.000000 -0.006421 0.000000
# 3 -0.001640 -0.000243 0.010033 0.000000 -0.009416 0.000000
# 4 0.000000 0.000000 0.000000 0.025271 0.000000 -0.002201
# 5 -0.000669 -0.006421 -0.009416 0.000000 0.033688 0.000000
# 6 0.000000 0.000000 0.000000 -0.002201 0.000000 0.034709
#
#
# Mechanical properties :
#
#
# Convention : Reuss Voigt Hill
#
# Bulk Modulus (GPa) = 37.06625 66.19719 51.63172
# Shear Modulus (GPa) = 35.72405 44.61582 40.16994
#
# Velocity S-wave (km/s) = 3.69054 4.12434 3.91346
# Velocity P-wave (km/s) = 5.68261 6.92232 6.33287
#
# Compressibility (1/GPa) = 0.02697872
#
# Stress axis : x y z
#
# Youngs Moduli (GPa) = 168.16668 61.88101 99.66648
#
# Poissons Ratio (x) = 0.04314 0.16350
# Poissons Ratio (y) = 0.11724 0.02422
# Poissons Ratio (z) = 0.27587 0.01504
#
# Static dielectric constant tensor:
#      x y z
#    x 7.174260 0.000000 -1.476200 
#    y 0.000000 4.472610 0.000000 
#    z -1.476200 0.000000 5.381590 
# 
# 
# High freq. dielectric constant tensor:
#      x y z
#    x 2.094640 0.000000 -0.014960 
#    y 0.000000 2.030260 0.000000 
#    z -0.014960 0.000000 2.067290 
# 
# From -- ./inp_files/125419.got.cif
#   From: 2010.06.25/outbox.cif.g09.slc.cpg/sg15_63_cif.got.tgz:125419.got - 2010.06.28 07:06:18.
