data_PCOD8142519
_publ_section_title
;
Structure prediction by ZEFSAII (Michael W. Deem and Ramdas Pophale) SiO2 
 PCOD8142519
Probable space group: C 2/C
;
_chemical_formula_sum "Si O2"
_cell_formula_units_Z 48
_cell_length_a 29.038471
_cell_length_b 6.632908
_cell_length_c 13.360080
_cell_angle_alpha 90.000000
_cell_angle_beta 112.968847
_cell_angle_gamma 90.000000
_cell_volume 2369.261613
_symmetry_space_group_name_H-M "C 2/C"
_symmetry_group_IT_number 15
_symmetry_cell_setting 'monoclinic'
loop_
_space_group_symop_operation_xyz
x,y,z
-x,y,1/2-z
-x,-y,-z
x,-y,1/2+z
1/2+x,1/2+y,z
1/2-x,1/2+y,1/2-z
1/2-x,1/2-y,-z
1/2+x,1/2-y,1/2+z
loop_
_atom_site_type_symbol
_atom_site_label
_atom_site_fract_x
_atom_site_fract_y
_atom_site_fract_z
Si Si1 0.318401 0.916114 0.591386
Si Si2 0.102557 0.655271 0.501527
Si Si3 0.008902 0.069975 0.872983
Si Si4 0.964502 0.685834 0.494556
Si Si5 0.316494 0.802263 0.268805
Si Si6 0.758491 0.947894 0.133124
O O1 0.368782 0.845420 0.579429
O O2 0.283142 0.033413 0.480405
O O3 0.287137 0.731564 0.605504
O O4 0.335283 0.047108 0.699489
O O5 0.057327 0.810571 0.453072
O O6 0.087103 0.422808 0.516226
O O7 0.137832 0.743326 0.618410
O O8 0.000000 0.108856 0.750000
O O9 0.961795 0.166369 0.894662
O O10 0.014997 0.830225 0.898474
O O11 0.000000 0.500000 0.500000
O O12 0.268514 0.884116 0.287286
O O13 0.301087 0.604467 0.196345
#
# Coordination Sequence:
#
# PCOD8142519 Si02
#       6
#     8   8   8   8   8   8
#     4  10  22  39  60  92 125 165 212 258 305 370
#     4  10  24  40  62  99 125 157 213 265 310 375
#     4  10  22  43  69  91 124 167 202 258 324 385
#     4   9  21  44  64  91 125 158 205 254 320 386
#     4  11  21  39  63  88 125 169 207 256 308 364
#     4  10  21  39  61  86 124 168 212 250 312 365
#
# _framework density 20.259474999999998
#
# number of rings (size 3 to 8) (size 9 to 14) (size 15 to 20)
#    0.000    2.000    1.667    0.500    2.333    5.333 
#   12.000    0.000    0.000    0.000    0.000    0.000 
#    0.000    0.000    0.000    0.000    0.000    0.000 
#
# Total GULP energy -297468.494321 kJ/mol
# GULP energy per Si atom -12394.520597 kJ/mol
# Density = 2.021336 g / cm^3
# Si number density = 20.259475 Si / 1000 Ang^3
#
#
#
# Elastic Constant Matrix: (Units=GPa)
#
#
# Indices 1 2 3 4 5 6 
#
# 1 101.9025 18.4245 8.4214 0.0000 -22.0217 0.0000
# 2 18.4245 84.3288 34.1881 0.0000 2.5520 0.0000
# 3 8.4214 34.1881 119.1988 0.0000 -10.0582 0.0000
# 4 0.0000 0.0000 0.0000 30.3960 0.0000 1.6858
# 5 -22.0217 2.5520 -10.0582 0.0000 34.6686 0.0000
# 6 0.0000 0.0000 0.0000 1.6858 0.0000 25.8524
#
#
#
# Elastic Compliance Matrix: (Units=1/GPa)
#
#
# Indices 1 2 3 4 5 6 
#
# 1 0.012085 -0.003189 0.000747 0.000000 0.008128 0.000000
# 2 -0.003189 0.014419 -0.004276 0.000000 -0.004328 0.000000
# 3 0.000747 -0.004276 0.009871 0.000000 0.003653 0.000000
# 4 0.000000 0.000000 0.000000 0.033018 0.000000 -0.002153
# 5 0.008128 -0.004328 0.003653 0.000000 0.035386 0.000000
# 6 0.000000 0.000000 0.000000 -0.002153 0.000000 0.038822
#
#
# Mechanical properties :
#
#
# Convention : Reuss Voigt Hill
#
# Bulk Modulus (GPa) = 43.59305 47.49978 45.54642
# Shear Modulus (GPa) = 30.36138 34.47648 32.41893
#
# Velocity S-wave (km/s) = 3.87541 4.12970 4.00457
# Velocity P-wave (km/s) = 6.44896 6.79969 6.62665
#
# Compressibility (1/GPa) = 0.02293944
#
# Stress axis : x y z
#
# Youngs Moduli (GPa) = 82.74996 69.35095 101.30555
#
# Poissons Ratio (x) = 0.22116 -0.07564
# Poissons Ratio (y) = 0.26389 0.43314
# Poissons Ratio (z) = -0.06179 0.29652
#
# Static dielectric constant tensor:
#      x y z
#    x 3.919680 0.000000 -0.148170 
#    y 0.000000 3.652870 0.000000 
#    z -0.148170 0.000000 3.779960 
# 
# 
# High freq. dielectric constant tensor:
#      x y z
#    x 1.797500 0.000000 -0.018930 
#    y 0.000000 1.786800 0.000000 
#    z -0.018930 0.000000 1.790270 
# 
# From -- ./inp_files/180219.got.cif
#   From: 2010.06.25/outbox.cif.g09.slc.cpg/sg15_91_cif.got.tgz:180219.got - 2010.06.28 07:06:18.
