data_PCOD8142226
_publ_section_title
;
Structure prediction by ZEFSAII (Michael W. Deem and Ramdas Pophale) SiO2 
 PCOD8142226
Probable space group: C 2/C
;
_chemical_formula_sum "Si O2"
_cell_formula_units_Z 52
_cell_length_a 28.494910
_cell_length_b 5.260036
_cell_length_c 16.551926
_cell_angle_alpha 90.000000
_cell_angle_beta 98.332086
_cell_angle_gamma 90.000000
_cell_volume 2454.686927
_symmetry_space_group_name_H-M "C 2/C"
_symmetry_group_IT_number 15
_symmetry_cell_setting 'monoclinic'
loop_
_space_group_symop_operation_xyz
x,y,z
-x,y,1/2-z
-x,-y,-z
x,-y,1/2+z
1/2+x,1/2+y,z
1/2-x,1/2+y,1/2-z
1/2-x,1/2-y,-z
1/2+x,1/2-y,1/2+z
loop_
_atom_site_type_symbol
_atom_site_label
_atom_site_fract_x
_atom_site_fract_y
_atom_site_fract_z
Si Si1 0.349861 0.053349 0.343143
Si Si2 0.501053 0.266862 0.909112
Si Si3 0.000000 0.539514 0.250000
Si Si4 0.752131 0.129954 0.202551
Si Si5 0.430126 0.639679 0.645720
Si Si6 0.423174 0.081453 0.992017
Si Si7 0.145414 0.944501 0.763041
O O1 0.294986 0.067355 0.361552
O O2 0.381415 0.050634 0.431282
O O3 0.359906 0.796244 0.296213
O O4 0.360220 0.295802 0.289158
O O5 0.522744 0.533405 0.886783
O O6 0.452029 0.294393 0.946781
O O7 0.487110 0.120142 0.824979
O O8 0.540297 0.136860 0.974804
O O9 0.951307 0.692147 0.223117
O O10 0.748707 0.929967 0.276651
O O11 0.803712 0.067096 0.176920
O O12 0.402010 0.795386 0.569068
O O13 0.394883 0.434821 0.677243
#
# Coordination Sequence:
#
# PCOD8142226 Si02
#       7
#     8   8   4   8   8   8   8
#     4  10  21  38  64  87 115 153 198 238 291 348
#     4  10  22  39  54  77 118 151 198 235 290 340
#     4  10  22  36  56  82 108 154 200 244 278 340
#     4   8  16  35  57  87 114 145 188 243 287 340
#     4  11  23  36  57  83 116 154 192 246 289 345
#     4  10  23  37  55  80 117 157 191 235 293 348
#     4  10  22  36  63  89 116 149 198 243 288 341
#
# _framework density 21.183962999999999
#
# number of rings (size 3 to 8) (size 9 to 14) (size 15 to 20)
#    0.000    2.154    0.000    1.846   10.769    0.000 
#    0.000    0.769    0.000    0.923    0.000    0.000 
#    0.000    0.000    0.000    0.000    0.000    0.000 
#
# Total GULP energy -322092.670806 kJ/mol
# GULP energy per Si atom -12388.179646 kJ/mol
# Density = 2.113575 g / cm^3
# Si number density = 21.183963 Si / 1000 Ang^3
#
#
#
# Elastic Constant Matrix: (Units=GPa)
#
#
# Indices 1 2 3 4 5 6 
#
# 1 65.1157 0.6515 47.2549 0.0000 15.3004 0.0000
# 2 0.6515 88.4509 17.5839 0.0000 3.6710 0.0000
# 3 47.2549 17.5839 98.5333 0.0000 22.9076 0.0000
# 4 0.0000 0.0000 0.0000 1240.8585 0.0000 592.9438
# 5 15.3004 3.6710 22.9076 0.0000 27.5771 0.0000
# 6 0.0000 0.0000 0.0000 592.9438 0.0000 314.1042
#
#
#
# Elastic Compliance Matrix: (Units=1/GPa)
#
#
# Indices 1 2 3 4 5 6 
#
# 1 0.024437 0.002206 -0.011021 0.000000 -0.004697 0.000000
# 2 0.002206 0.011922 -0.003138 0.000000 -0.000204 0.000000
# 3 -0.011021 -0.003138 0.017940 0.000000 -0.008370 0.000000
# 4 0.000000 0.000000 0.000000 0.008228 0.000000 -0.015532
# 5 -0.004697 -0.000204 -0.008370 0.000000 0.045848 0.000000
# 6 0.000000 0.000000 0.000000 -0.015532 0.000000 0.032503
#
#
# Mechanical properties :
#
#
# Convention : Reuss Voigt Hill
#
# Bulk Modulus (GPa) = 32.90282 42.56451 37.73367
# Shear Modulus (GPa) = 28.58525 328.94860 178.76692
#
# Velocity S-wave (km/s) = 3.67738 12.47473 9.19625
# Velocity P-wave (km/s) = 5.79625 15.08736 11.42858
#
# Compressibility (1/GPa) = 0.03039253
#
# Stress axis : x y z
#
# Youngs Moduli (GPa) = 40.92139 83.88022 55.74007
#
# Poissons Ratio (x) = -0.18504 0.61433
# Poissons Ratio (y) = -0.09027 0.17491
# Poissons Ratio (z) = 0.45101 0.26321
#
# Static dielectric constant tensor:
#      x y z
#    x 4.147470 0.000000 0.200980 
#    y 0.000000 3.880860 0.000000 
#    z 0.200980 0.000000 3.800600 
# 
# 
# High freq. dielectric constant tensor:
#      x y z
#    x 1.830770 0.000000 0.016450 
#    y 0.000000 1.837420 0.000000 
#    z 0.016450 0.000000 1.804270 
# 
# From -- ./inp_files/180032.got.cif
#   From: 2010.06.25/outbox.cif.g09.slc.cpg/sg15_91_cif.got.tgz:180032.got - 2010.06.28 07:06:18.
