data_PCOD8142928
_publ_section_title
;
Structure prediction by ZEFSAII (Michael W. Deem and Ramdas Pophale) SiO2 
 PCOD8142928
Probable space group: C 2/C
;
_chemical_formula_sum "Si O2"
_cell_formula_units_Z 48
_cell_length_a 16.814595
_cell_length_b 7.382396
_cell_length_c 32.692785
_cell_angle_alpha 90.000000
_cell_angle_beta 34.965136
_cell_angle_gamma 90.000000
_cell_volume 2325.676557
_symmetry_space_group_name_H-M "C 2/C"
_symmetry_group_IT_number 15
_symmetry_cell_setting 'monoclinic'
loop_
_space_group_symop_operation_xyz
x,y,z
-x,y,1/2-z
-x,-y,-z
x,-y,1/2+z
1/2+x,1/2+y,z
1/2-x,1/2+y,1/2-z
1/2-x,1/2-y,-z
1/2+x,1/2-y,1/2+z
loop_
_atom_site_type_symbol
_atom_site_label
_atom_site_fract_x
_atom_site_fract_y
_atom_site_fract_z
Si Si1 0.301046 0.934814 0.135102
Si Si2 0.893409 0.478188 0.378102
Si Si3 0.957279 0.215064 0.721364
Si Si4 0.168210 0.914649 0.616236
Si Si5 0.877604 0.868021 0.538631
Si Si6 0.908102 0.430513 0.963515
O O1 0.201571 0.853617 0.212616
O O2 0.360742 0.783723 0.079825
O O3 0.215820 0.084525 0.144086
O O4 0.431032 0.016231 0.103555
O O5 0.915155 0.263291 0.363487
O O6 0.763064 0.519013 0.403938
O O7 0.858093 0.549030 0.438236
O O8 0.028859 0.586754 0.305000
O O9 0.000000 0.229225 0.750000
O O10 0.062113 0.080697 0.653181
O O11 0.308534 0.935957 0.530961
O O12 0.902324 0.773118 0.484038
O O13 0.000000 0.000000 0.500000
#
# Coordination Sequence:
#
# PCOD8142928 Si02
#       6
#     8   8   8   8   8   8
#     4  10  21  43  59  88 132 161 208 264 300 378
#     4  12  22  39  66  96 122 161 210 263 322 365
#     4  10  21  42  61  87 126 165 207 256 303 382
#     4  10  21  39  68  86 122 167 209 248 319 376
#     4  11  21  38  66  95 121 167 214 252 309 378
#     4  11  22  40  62  95 131 156 208 273 310 364
#
# _framework density 20.639154000000001
#
# number of rings (size 3 to 8) (size 9 to 14) (size 15 to 20)
#    0.000    1.333    5.000    5.000    0.000    2.000 
#    6.000    0.000    0.000    0.000    0.000    0.000 
#    0.000    0.000    0.000    0.000    0.000    0.000 
#
# Total GULP energy -297508.292011 kJ/mol
# GULP energy per Si atom -12396.178834 kJ/mol
# Density = 2.059218 g / cm^3
# Si number density = 20.639154 Si / 1000 Ang^3
#
#
#
# Elastic Constant Matrix: (Units=GPa)
#
#
# Indices 1 2 3 4 5 6 
#
# 1 49.3312 27.9469 19.5547 0.0208 -0.9714 0.0628
# 2 27.9469 119.1663 40.8674 0.4343 3.7530 -0.0520
# 3 19.5547 40.8674 115.0792 0.0776 -12.8728 0.0001
# 4 0.0208 0.4343 0.0776 25.3673 0.0994 -3.7608
# 5 -0.9714 3.7530 -12.8728 0.0994 26.4792 -0.0217
# 6 0.0628 -0.0520 0.0001 -3.7608 -0.0217 29.0960
#
#
#
# Elastic Compliance Matrix: (Units=1/GPa)
#
#
# Indices 1 2 3 4 5 6 
#
# 1 0.023932 -0.004839 -0.002298 0.000061 0.000446 -0.000052
# 2 -0.004839 0.010794 -0.003386 -0.000156 -0.003353 0.000007
# 3 -0.002298 -0.003386 0.010921 0.000005 0.005705 0.000004
# 4 0.000061 -0.000156 0.000005 0.040194 -0.000120 0.005195
# 5 0.000446 -0.003353 0.005705 -0.000120 0.041031 0.000008
# 6 -0.000052 0.000007 0.000004 0.005195 0.000008 0.035041
#
#
# Mechanical properties :
#
#
# Convention : Reuss Voigt Hill
#
# Bulk Modulus (GPa) = 40.64911 51.14606 45.89758
# Shear Modulus (GPa) = 26.15635 29.20237 27.67936
#
# Velocity S-wave (km/s) = 3.56380 3.76560 3.66609
# Velocity P-wave (km/s) = 6.05575 6.61371 6.34087
#
# Compressibility (1/GPa) = 0.02460079
#
# Stress axis : x y z
#
# Youngs Moduli (GPa) = 41.78464 92.64653 91.56883
#
# Poissons Ratio (x) = 0.44828 0.21047
# Poissons Ratio (y) = 0.20218 0.31004
# Poissons Ratio (z) = 0.09604 0.31369
#
# Static dielectric constant tensor:
#      x y z
#    x 3.573950 -0.000570 -0.095260 
#    y -0.000570 3.818280 -0.000740 
#    z -0.095260 -0.000740 4.006190 
# 
# 
# High freq. dielectric constant tensor:
#      x y z
#    x 1.786780 -0.000010 -0.007780 
#    y -0.000010 1.801850 -0.000030 
#    z -0.007780 -0.000030 1.810300 
# 
# From -- ./inp_files/312791.got.cif
#   From: 2010.06.25/outbox.cif.g09.slc.cpg/sg15_157_cif.got.tgz:312791.got - 2010.06.28 07:06:18.
