data_PCOD8142396
_publ_section_title
;
Structure prediction by ZEFSAII (Michael W. Deem and Ramdas Pophale) SiO2 
 PCOD8142396
Probable space group: C 2/C
;
_chemical_formula_sum "Si O2"
_cell_formula_units_Z 44
_cell_length_a 16.644682
_cell_length_b 7.944799
_cell_length_c 16.584561
_cell_angle_alpha 90.000000
_cell_angle_beta 74.972486
_cell_angle_gamma 90.000000
_cell_volume 2118.118432
_symmetry_space_group_name_H-M "C 2/C"
_symmetry_group_IT_number 15
_symmetry_cell_setting 'monoclinic'
loop_
_space_group_symop_operation_xyz
x,y,z
-x,y,1/2-z
-x,-y,-z
x,-y,1/2+z
1/2+x,1/2+y,z
1/2-x,1/2+y,1/2-z
1/2-x,1/2-y,-z
1/2+x,1/2-y,1/2+z
loop_
_atom_site_type_symbol
_atom_site_label
_atom_site_fract_x
_atom_site_fract_y
_atom_site_fract_z
Si Si1 0.202397 0.380249 0.691299
Si Si2 0.000000 0.097473 0.250000
Si Si3 0.418860 0.110497 0.516281
Si Si4 0.360588 0.804965 0.204383
Si Si5 0.601630 0.623249 0.612598
Si Si6 0.254404 0.950645 0.989305
O O1 0.273553 0.293410 0.725919
O O2 0.151375 0.504526 0.762054
O O3 0.141354 0.236043 0.673566
O O4 0.242328 0.490558 0.606963
O O5 0.078530 0.211274 0.250575
O O6 0.025336 0.982531 0.167437
O O7 0.401354 0.195576 0.606092
O O8 0.434919 0.257454 0.447430
O O9 0.339983 0.991972 0.510748
O O10 0.500000 0.000000 0.500000
O O11 0.670462 0.490002 0.556998
O O12 0.250000 0.750000 0.000000
#
# Coordination Sequence:
#
# PCOD8142396 Si02
#       6
#     8   4   8   8   8   8
#     4  10  21  42  70  85 126 172 215 260 319 381
#     4  12  30  36  60 104 136 162 218 268 324 378
#     4  10  21  38  70  95 125 165 219 265 325 381
#     4  12  24  42  62 100 127 167 220 272 312 390
#     4  10  21  47  64  88 130 178 202 265 324 387
#     4   8  16  40  64  85 115 171 206 249 310 385
#
# _framework density 20.773153000000001
#
# number of rings (size 3 to 8) (size 9 to 14) (size 15 to 20)
#    0.000    2.182    5.455    1.091    7.636    0.727 
#    0.000    0.909    0.000    0.000    0.000    0.000 
#    0.000    0.000    0.000    0.000    0.000    0.000 
#
# Total GULP energy -272715.275536 kJ/mol
# GULP energy per Si atom -12396.148888 kJ/mol
# Density = 2.072587 g / cm^3
# Si number density = 20.773153 Si / 1000 Ang^3
#
#
#
# Elastic Constant Matrix: (Units=GPa)
#
#
# Indices 1 2 3 4 5 6 
#
# 1 105.5753 40.1594 17.2980 0.0000 7.4471 0.0000
# 2 40.1594 58.7096 18.3995 0.0000 4.8769 0.0000
# 3 17.2980 18.3995 66.5212 0.0000 8.8276 0.0000
# 4 0.0000 0.0000 0.0000 18.4998 0.0000 -2.0746
# 5 7.4471 4.8769 8.8276 0.0000 35.6289 0.0000
# 6 0.0000 0.0000 0.0000 -2.0746 0.0000 41.6306
#
#
#
# Elastic Compliance Matrix: (Units=1/GPa)
#
#
# Indices 1 2 3 4 5 6 
#
# 1 0.012924 -0.008466 -0.000842 0.000000 -0.001334 0.000000
# 2 -0.008466 0.024255 -0.004448 0.000000 -0.000448 0.000000
# 3 -0.000842 -0.004448 0.016935 0.000000 -0.003411 0.000000
# 4 0.000000 0.000000 0.000000 0.054359 0.000000 0.002709
# 5 -0.001334 -0.000448 -0.003411 0.000000 0.029252 0.000000
# 6 0.000000 0.000000 0.000000 0.002709 0.000000 0.024156
#
#
# Mechanical properties :
#
#
# Convention : Reuss Voigt Hill
#
# Bulk Modulus (GPa) = 37.59084 42.50222 40.04653
# Shear Modulus (GPa) = 25.21935 29.48179 27.35057
#
# Velocity S-wave (km/s) = 3.48808 3.77135 3.63248
# Velocity P-wave (km/s) = 5.86152 6.28241 6.07561
#
# Compressibility (1/GPa) = 0.02660222
#
# Stress axis : x y z
#
# Youngs Moduli (GPa) = 77.37352 41.22827 59.05032
#
# Poissons Ratio (x) = 0.34904 0.04973
# Poissons Ratio (y) = 0.65504 0.26265
# Poissons Ratio (z) = 0.06516 0.18338
#
# Static dielectric constant tensor:
#      x y z
#    x 4.207160 0.000000 -0.233840 
#    y 0.000000 2.852920 0.000000 
#    z -0.233840 0.000000 4.183440 
# 
# 
# High freq. dielectric constant tensor:
#      x y z
#    x 1.819120 0.000000 -0.001180 
#    y 0.000000 1.770890 0.000000 
#    z -0.001180 0.000000 1.827100 
# 
# From -- ./inp_files/159281.got.cif
#   From: 2010.06.25/outbox.cif.g09.slc.cpg/sg15_80_cif.got.tgz:159281.got - 2010.06.28 07:06:18.
