data_PCOD8142781
_publ_section_title
;
Structure prediction by ZEFSAII (Michael W. Deem and Ramdas Pophale) SiO2 
 PCOD8142781
Probable space group: C 2/C
;
_chemical_formula_sum "Si O2"
_cell_formula_units_Z 48
_cell_length_a 23.824303
_cell_length_b 9.619661
_cell_length_c 13.286487
_cell_angle_alpha 90.000000
_cell_angle_beta 48.207271
_cell_angle_gamma 90.000000
_cell_volume 2270.246815
_symmetry_space_group_name_H-M "C 2/C"
_symmetry_group_IT_number 15
_symmetry_cell_setting 'monoclinic'
loop_
_space_group_symop_operation_xyz
x,y,z
-x,y,1/2-z
-x,-y,-z
x,-y,1/2+z
1/2+x,1/2+y,z
1/2-x,1/2+y,1/2-z
1/2-x,1/2-y,-z
1/2+x,1/2-y,1/2+z
loop_
_atom_site_type_symbol
_atom_site_label
_atom_site_fract_x
_atom_site_fract_y
_atom_site_fract_z
Si Si1 0.275452 0.321577 0.618950
Si Si2 0.763366 0.489507 0.642771
Si Si3 0.611094 0.197425 0.266908
Si Si4 0.000000 0.849721 0.750000
Si Si5 0.363269 0.533225 0.845211
Si Si6 0.000000 0.413096 0.750000
Si Si7 0.924520 0.375655 0.472943
O O1 0.279619 0.419199 0.711918
O O2 0.197069 0.355634 0.654710
O O3 0.343140 0.372806 0.466901
O O4 0.280069 0.155557 0.639241
O O5 0.711441 0.455968 0.607145
O O6 0.840209 0.403643 0.534461
O O7 0.612808 0.364405 0.275192
O O8 0.569560 0.172976 0.210135
O O9 0.571201 0.131811 0.411631
O O10 0.958046 0.763807 0.886180
O O11 0.934209 0.936826 0.777681
O O12 0.976958 0.499853 0.875191
#
# Coordination Sequence:
#
# PCOD8142781 Si02
#       7
#     8   8   8   4   8   4   8
#     4  10  22  41  68  97 128 164 224 273 319 387
#     4  10  22  43  67  96 123 174 216 274 320 386
#     4  10  21  39  65  92 126 168 215 269 319 392
#     4  11  27  42  60  98 135 173 208 284 317 393
#     4  11  23  41  64  93 128 173 217 264 333 383
#     4  11  19  38  62  96 121 179 202 260 339 381
#     4  10  23  42  61  90 138 162 224 267 320 384
#
# _framework density 21.143077000000002
#
# number of rings (size 3 to 8) (size 9 to 14) (size 15 to 20)
#    0.000    1.667    0.000    5.000    7.000    1.333 
#   18.000    0.000    0.000    0.000    0.000    0.000 
#    0.000    0.000    0.000    0.000    0.000    0.000 
#
# Total GULP energy -297400.570977 kJ/mol
# GULP energy per Si atom -12391.690457 kJ/mol
# Density = 2.109495 g / cm^3
# Si number density = 21.143077 Si / 1000 Ang^3
#
#
#
# Elastic Constant Matrix: (Units=GPa)
#
#
# Indices 1 2 3 4 5 6 
#
# 1 119.3867 58.1380 42.3896 0.0000 -6.7125 0.0000
# 2 58.1380 96.3499 55.1119 0.0001 -3.8868 0.0000
# 3 42.3896 55.1119 107.2179 0.0000 -9.2387 0.0000
# 4 0.0000 0.0001 0.0000 33.8936 0.0000 1.7192
# 5 -6.7125 -3.8868 -9.2387 0.0000 17.9586 0.0000
# 6 0.0000 0.0000 0.0000 1.7192 0.0000 44.9507
#
#
#
# Elastic Compliance Matrix: (Units=1/GPa)
#
#
# Indices 1 2 3 4 5 6 
#
# 1 0.012124 -0.006510 -0.001232 0.000000 0.002489 0.000000
# 2 -0.006510 0.018206 -0.006963 0.000000 -0.002075 0.000000
# 3 -0.001232 -0.006963 0.013837 0.000000 0.005151 0.000000
# 4 0.000000 0.000000 0.000000 0.029561 0.000000 -0.001131
# 5 0.002489 -0.002075 0.005151 0.000000 0.058814 0.000000
# 6 0.000000 0.000000 0.000000 -0.001131 0.000000 0.022290
#
#
# Mechanical properties :
#
#
# Convention : Reuss Voigt Hill
#
# Bulk Modulus (GPa) = 67.77193 70.47038 69.12116
# Shear Modulus (GPa) = 26.43207 30.51492 28.47350
#
# Velocity S-wave (km/s) = 3.53959 3.80315 3.67373
# Velocity P-wave (km/s) = 6.98773 7.25864 7.12447
#
# Compressibility (1/GPa) = 0.01475537
#
# Stress axis : x y z
#
# Youngs Moduli (GPa) = 82.48103 54.92547 72.26896
#
# Poissons Ratio (x) = 0.35758 0.08907
# Poissons Ratio (y) = 0.53698 0.50324
# Poissons Ratio (z) = 0.10166 0.38247
#
# Static dielectric constant tensor:
#      x y z
#    x 3.781470 0.000000 -0.065650 
#    y 0.000000 3.871140 0.000000 
#    z -0.065650 0.000000 3.766000 
# 
# 
# High freq. dielectric constant tensor:
#      x y z
#    x 1.828160 0.000000 -0.006960 
#    y 0.000000 1.824870 0.000000 
#    z -0.006960 0.000000 1.836450 
# 
# From -- ./inp_files/176927.got.cif
#   From: 2010.06.25/outbox.cif.g09.slc.cpg/sg15_89_cif.got.tgz:176927.got - 2010.06.28 07:06:18.
