data_PCOD8142666
_publ_section_title
;
Structure prediction by ZEFSAII (Michael W. Deem and Ramdas Pophale) SiO2 
 PCOD8142666
Probable space group: C 2/C
;
_chemical_formula_sum "Si O2"
_cell_formula_units_Z 52
_cell_length_a 17.950002
_cell_length_b 27.322236
_cell_length_c 5.441159
_cell_angle_alpha 90.000000
_cell_angle_beta 52.703374
_cell_angle_gamma 90.000000
_cell_volume 2122.840398
_symmetry_space_group_name_H-M "C 2/C"
_symmetry_group_IT_number 15
_symmetry_cell_setting 'monoclinic'
loop_
_space_group_symop_operation_xyz
x,y,z
-x,y,1/2-z
-x,-y,-z
x,-y,1/2+z
1/2+x,1/2+y,z
1/2-x,1/2+y,1/2-z
1/2-x,1/2-y,-z
1/2+x,1/2-y,1/2+z
loop_
_atom_site_type_symbol
_atom_site_label
_atom_site_fract_x
_atom_site_fract_y
_atom_site_fract_z
Si Si1 0.124916 0.706205 0.375964
Si Si2 0.401794 0.520596 0.795168
Si Si3 0.805142 0.518401 0.826769
Si Si4 0.823468 0.631609 0.840610
Si Si5 0.056770 0.129922 0.883339
Si Si6 0.500000 0.829394 0.750000
Si Si7 0.798436 0.802745 0.204094
O O1 0.141331 0.654534 0.475229
O O2 0.141198 0.755142 0.510487
O O3 0.021726 0.703909 0.450644
O O4 0.198962 0.714242 0.008859
O O5 0.446373 0.485642 0.486496
O O6 0.400153 0.575924 0.709311
O O7 0.296204 0.502773 0.046219
O O8 0.855780 0.509315 0.457965
O O9 0.799276 0.574980 0.913531
O O10 0.908029 0.637444 0.474897
O O11 0.727246 0.660089 0.965329
O O12 0.141978 0.168067 0.711694
O O13 0.000000 0.141150 0.750000
O O14 0.000000 0.137135 0.250000
#
# Coordination Sequence:
#
# PCOD8142666 Si02
#       7
#     8   8   8   8   8   4   8
#     4  10  23  43  74 100 140 185 235 298 359 431
#     4  10  21  39  63  91 129 181 230 282 339 408
#     4  10  23  40  70 103 133 184 234 294 352 420
#     4  11  23  43  75 100 143 181 241 290 366 427
#     4  12  28  43  66 102 145 189 231 294 348 418
#     4  10  24  42  68 108 136 182 226 302 364 440
#     4  10  24  43  68 106 137 186 246 283 355 429
#
# _framework density 24.495481999999999
#
# number of rings (size 3 to 8) (size 9 to 14) (size 15 to 20)
#    0.000    1.538    0.000    3.692   11.846    3.077 
#    0.000    0.769    0.000    0.000    0.000    0.000 
#    0.000    0.000    0.000    0.000    0.000    0.000 
#
# Total GULP energy -322296.101272 kJ/mol
# GULP energy per Si atom -12396.003895 kJ/mol
# Density = 2.443973 g / cm^3
# Si number density = 24.495482 Si / 1000 Ang^3
#
#
#
# Elastic Constant Matrix: (Units=GPa)
#
#
# Indices 1 2 3 4 5 6 
#
# 1 144.7156 65.7288 31.0224 0.0000 28.2576 0.0000
# 2 65.7288 157.2581 3.5162 0.0000 14.5347 0.0000
# 3 31.0224 3.5162 53.0177 0.0000 26.6036 0.0000
# 4 0.0000 0.0000 0.0000 28.5894 0.0000 4.9445
# 5 28.2576 14.5347 26.6036 0.0000 51.2340 0.0000
# 6 0.0000 0.0000 0.0000 4.9445 0.0000 35.9543
#
#
#
# Elastic Compliance Matrix: (Units=1/GPa)
#
#
# Indices 1 2 3 4 5 6 
#
# 1 0.010079 -0.003920 -0.004607 0.000000 -0.002055 0.000000
# 2 -0.003920 0.008072 0.002465 0.000000 -0.001408 0.000000
# 3 -0.004607 0.002465 0.027682 0.000000 -0.012533 0.000000
# 4 0.000000 0.000000 0.000000 0.035830 0.000000 -0.004927
# 5 -0.002055 -0.001408 -0.012533 0.000000 0.027559 0.000000
# 6 0.000000 0.000000 0.000000 -0.004927 0.000000 0.028491
#
#
# Mechanical properties :
#
#
# Convention : Reuss Voigt Hill
#
# Bulk Modulus (GPa) = 29.66404 61.72513 45.69458
# Shear Modulus (GPa) = 31.04161 40.13713 35.58937
#
# Velocity S-wave (km/s) = 3.56369 4.05229 3.81582
# Velocity P-wave (km/s) = 5.39161 6.86645 6.17323
#
# Compressibility (1/GPa) = 0.03371086
#
# Stress axis : x y z
#
# Youngs Moduli (GPa) = 99.21370 123.87941 36.12401
#
# Poissons Ratio (x) = 0.48559 0.16641
# Poissons Ratio (y) = 0.38890 -0.08904
# Poissons Ratio (z) = 0.45703 -0.30533
#
# Static dielectric constant tensor:
#      x y z
#    x 4.714400 0.000000 0.205830 
#    y 0.000000 4.373980 0.000000 
#    z 0.205830 0.000000 4.523400 
# 
# 
# High freq. dielectric constant tensor:
#      x y z
#    x 1.988980 0.000000 0.012150 
#    y 0.000000 1.964800 0.000000 
#    z 0.012150 0.000000 1.976120 
# 
# From -- ./inp_files/11456.got.cif
#   From: 2010.06.25/outbox.cif.g09.slc.cpg/sg15_6_cif.got.tgz:11456.got - 2010.06.28 07:06:18.
