data_PCOD8142997
_publ_section_title
;
Structure prediction by ZEFSAII (Michael W. Deem and Ramdas Pophale) SiO2 
 PCOD8142997
Probable space group: C 2/C
;
_chemical_formula_sum "Si O2"
_cell_formula_units_Z 60
_cell_length_a 26.934016
_cell_length_b 15.395323
_cell_length_c 14.723527
_cell_angle_alpha 90.000000
_cell_angle_beta 147.996023
_cell_angle_gamma 90.000000
_cell_volume 3235.636473
_symmetry_space_group_name_H-M "C 2/C"
_symmetry_group_IT_number 15
_symmetry_cell_setting 'monoclinic'
loop_
_space_group_symop_operation_xyz
x,y,z
-x,y,1/2-z
-x,-y,-z
x,-y,1/2+z
1/2+x,1/2+y,z
1/2-x,1/2+y,1/2-z
1/2-x,1/2-y,-z
1/2+x,1/2-y,1/2+z
loop_
_atom_site_type_symbol
_atom_site_label
_atom_site_fract_x
_atom_site_fract_y
_atom_site_fract_z
Si Si1 0.747409 0.614941 0.994879
Si Si2 0.593084 0.811876 0.346206
Si Si3 0.500000 0.645526 0.750000
Si Si4 0.399562 0.679575 0.295495
Si Si5 0.752297 0.285814 0.176814
Si Si6 0.681154 0.754564 0.025768
Si Si7 0.760939 0.420531 0.037722
Si Si8 0.458863 0.580543 0.878528
O O1 0.823577 0.662617 0.049139
O O2 0.782581 0.521902 0.083975
O O3 0.651977 0.598507 0.788697
O O4 0.738756 0.675839 0.069592
O O5 0.500000 0.851059 0.250000
O O6 0.563128 0.746634 0.220497
O O7 0.649056 0.754197 0.506057
O O8 0.658616 0.886487 0.405527
O O9 0.417848 0.713643 0.604291
O O10 0.487144 0.580481 0.815554
O O11 0.323057 0.718969 0.242480
O O12 0.344743 0.596605 0.165426
O O13 0.491298 0.660932 0.495922
O O14 0.770288 0.294844 0.310664
O O15 0.764762 0.377162 0.143398
O O16 0.500000 0.500000 0.000000
#
# Coordination Sequence:
#
# PCOD8142997 Si02
#       8
#     8   8   4   8   8   8   8   8
#     4  10  22  37  56  85 119 148 187 238 280 344
#     4   9  19  33  57  86 113 149 190 235 274 343
#     4  10  22  40  62  80 114 156 196 230 280 364
#     4   9  17  34  56  80 117 148 179 227 292 338
#     4   9  18  36  60  77 112 154 185 228 286 341
#     4  10  21  40  58  81 111 159 190 227 287 341
#     4   9  18  38  55  82 116 146 182 236 288 326
#     4  11  20  36  59  87 119 147 182 242 294 338
#
# _framework density 18.543493000000002
#
# number of rings (size 3 to 8) (size 9 to 14) (size 15 to 20)
#    0.000    2.400    2.667    1.600    1.867    0.000 
#   12.000    0.000    0.000    1.600    0.000    0.000 
#    0.000    0.000    0.000    0.000    0.000    0.000 
#
# Total GULP energy -371690.688443 kJ/mol
# GULP energy per Si atom -12389.689615 kJ/mol
# Density = 1.850129 g / cm^3
# Si number density = 18.543493 Si / 1000 Ang^3
#
#
#
# Elastic Constant Matrix: (Units=GPa)
#
#
# Indices 1 2 3 4 5 6 
#
# 1 88.4228 34.1744 37.4259 0.0000 -5.2478 0.0000
# 2 34.1744 110.1331 17.7673 0.0000 -10.1038 0.0000
# 3 37.4259 17.7673 67.9732 0.0000 -9.5793 0.0000
# 4 0.0000 0.0000 0.0000 21.2187 0.0000 -9.2031
# 5 -5.2478 -10.1038 -9.5793 0.0000 33.2204 0.0000
# 6 0.0000 0.0000 0.0000 -9.2031 0.0000 13.5629
#
#
#
# Elastic Compliance Matrix: (Units=1/GPa)
#
#
# Indices 1 2 3 4 5 6 
#
# 1 0.016110 -0.003791 -0.008008 0.000000 -0.000917 0.000000
# 2 -0.003791 0.010538 -0.000312 0.000000 0.002516 0.000000
# 3 -0.008008 -0.000312 0.019816 0.000000 0.004354 0.000000
# 4 0.000000 0.000000 0.000000 0.066783 0.000000 0.045315
# 5 -0.000917 0.002516 0.004354 0.000000 0.031978 0.000000
# 6 0.000000 0.000000 0.000000 0.045315 0.000000 0.104479
#
#
# Mechanical properties :
#
#
# Convention : Reuss Voigt Hill
#
# Bulk Modulus (GPa) = 44.96433 49.47381 47.21907
# Shear Modulus (GPa) = 17.77211 25.41117 21.59164
#
# Velocity S-wave (km/s) = 3.09916 3.70585 3.41600
# Velocity P-wave (km/s) = 6.09156 6.71185 6.40921
#
# Compressibility (1/GPa) = 0.02223985
#
# Stress axis : x y z
#
# Youngs Moduli (GPa) = 62.07463 94.89895 50.46353
#
# Poissons Ratio (x) = 0.35977 0.40413
# Poissons Ratio (y) = 0.23533 0.01577
# Poissons Ratio (z) = 0.49711 0.02965
#
# Static dielectric constant tensor:
#      x y z
#    x 3.262190 0.000000 0.167970 
#    y 0.000000 3.116920 0.000000 
#    z 0.167970 0.000000 3.023560 
# 
# 
# High freq. dielectric constant tensor:
#      x y z
#    x 1.720120 0.000000 -0.005050 
#    y 0.000000 1.706970 0.000000 
#    z -0.005050 0.000000 1.711140 
# 
# From -- ./inp_files/178565.got.cif
#   From: 2010.06.25/outbox.cif.g09.slc.cpg/sg15_90_cif.got.tgz:178565.got - 2010.06.28 07:06:18.
