data_PCOD8142131
_publ_section_title
;
Structure prediction by ZEFSAII (Michael W. Deem and Ramdas Pophale) SiO2 
 PCOD8142131
Probable space group: C 2/C
;
_chemical_formula_sum "Si O2"
_cell_formula_units_Z 60
_cell_length_a 11.161556
_cell_length_b 30.329109
_cell_length_c 9.108802
_cell_angle_alpha 90.000000
_cell_angle_beta 79.258693
_cell_angle_gamma 90.000000
_cell_volume 3029.484912
_symmetry_space_group_name_H-M "C 2/C"
_symmetry_group_IT_number 15
_symmetry_cell_setting 'monoclinic'
loop_
_space_group_symop_operation_xyz
x,y,z
-x,y,1/2-z
-x,-y,-z
x,-y,1/2+z
1/2+x,1/2+y,z
1/2-x,1/2+y,1/2-z
1/2-x,1/2-y,-z
1/2+x,1/2-y,1/2+z
loop_
_atom_site_type_symbol
_atom_site_label
_atom_site_fract_x
_atom_site_fract_y
_atom_site_fract_z
Si Si1 0.634678 0.446094 0.750971
Si Si2 0.171977 0.728410 0.840319
Si Si3 0.000000 0.799112 0.750000
Si Si4 0.632830 0.796823 0.655155
Si Si5 0.861494 0.351255 0.333462
Si Si6 0.239774 0.987760 0.004017
Si Si7 0.232521 0.145278 0.158379
Si Si8 0.141626 0.445405 0.252157
O O1 0.500000 0.429021 0.750000
O O2 0.654159 0.487796 0.640403
O O3 0.722415 0.406724 0.684375
O O4 0.656632 0.456855 0.918504
O O5 0.304232 0.749542 0.833332
O O6 0.196951 0.694855 0.702666
O O7 0.069308 0.766405 0.845866
O O8 0.127390 0.696623 0.982011
O O9 0.896787 0.830309 0.850557
O O10 0.500000 0.796320 0.750000
O O11 0.714126 0.835603 0.703542
O O12 0.836646 0.349042 0.512421
O O13 0.800564 0.396426 0.284013
O O14 0.000000 0.349645 0.250000
O O15 0.334363 0.960007 0.084185
O O16 0.307950 0.020657 0.879150
O O17 0.000000 0.442204 0.250000
#
# Coordination Sequence:
#
# PCOD8142131 Si02
#       8
#     8   8   4   8   8   8   8   8
#     4  11  22  42  64  92 123 164 210 261 314 377
#     4  10  22  39  61  87 120 158 209 254 312 370
#     4  10  22  40  68  88 120 164 208 256 320 370
#     4  10  23  39  58  87 123 161 204 255 313 374
#     4  11  22  38  62  90 124 162 209 255 307 373
#     4  10  22  40  64  90 124 164 206 252 315 374
#     4  11  23  40  64  93 124 163 210 259 314 376
#     4  10  21  38  62  91 126 160 203 251 308 374
#
# _framework density 19.805349
#
# number of rings (size 3 to 8) (size 9 to 14) (size 15 to 20)
#    0.000    1.600    2.667    1.600    3.733    1.067 
#    0.000    0.667    0.000    0.000    0.000    0.000 
#    0.000    0.000    0.000    0.000    0.000    0.000 
#
# Total GULP energy -371777.608174 kJ/mol
# GULP energy per Si atom -12392.586939 kJ/mol
# Density = 1.976027 g / cm^3
# Si number density = 19.805349 Si / 1000 Ang^3
#
#
#
# Elastic Constant Matrix: (Units=GPa)
#
#
# Indices 1 2 3 4 5 6 
#
# 1 83.9583 18.9479 28.2479 0.0000 4.7412 0.0000
# 2 18.9479 92.5558 31.9022 0.0000 10.4077 0.0000
# 3 28.2479 31.9022 103.2155 0.0000 14.3458 0.0000
# 4 0.0000 0.0000 0.0000 27.7387 0.0000 -3.8856
# 5 4.7412 10.4077 14.3458 0.0000 31.7764 0.0000
# 6 0.0000 0.0000 0.0000 -3.8856 0.0000 26.0993
#
#
#
# Elastic Compliance Matrix: (Units=1/GPa)
#
#
# Indices 1 2 3 4 5 6 
#
# 1 0.013340 -0.001646 -0.003137 0.000000 -0.000035 0.000000
# 2 -0.001646 0.012473 -0.003063 0.000000 -0.002457 0.000000
# 3 -0.003137 -0.003063 0.012045 0.000000 -0.003966 0.000000
# 4 0.000000 0.000000 0.000000 0.036819 0.000000 0.005481
# 5 -0.000035 -0.002457 -0.003966 0.000000 0.034070 0.000000
# 6 0.000000 0.000000 0.000000 0.005481 0.000000 0.039131
#
#
# Mechanical properties :
#
#
# Convention : Reuss Voigt Hill
#
# Bulk Modulus (GPa) = 45.11513 48.65842 46.88677
# Shear Modulus (GPa) = 29.24667 30.49832 29.87249
#
# Velocity S-wave (km/s) = 3.84696 3.92842 3.88790
# Velocity P-wave (km/s) = 6.52387 6.72297 6.62417
#
# Compressibility (1/GPa) = 0.02216551
#
# Stress axis : x y z
#
# Youngs Moduli (GPa) = 74.96488 80.17085 83.02029
#
# Poissons Ratio (x) = 0.13193 0.26046
# Poissons Ratio (y) = 0.12336 0.25433
# Poissons Ratio (z) = 0.23519 0.24560
#
# Static dielectric constant tensor:
#      x y z
#    x 3.580470 0.000000 0.175490 
#    y 0.000000 3.903830 0.000000 
#    z 0.175490 0.000000 3.781040 
# 
# 
# High freq. dielectric constant tensor:
#      x y z
#    x 1.764120 0.000000 0.002940 
#    y 0.000000 1.784900 0.000000 
#    z 0.002940 0.000000 1.772410 
# 
# From -- ./inp_files/35657.got.cif
#   From: 2010.06.25/outbox.cif.g09.slc.cpg/sg15_18_cif.got.tgz:35657.got - 2010.06.28 07:06:18.
