data_PCOD8142144
_publ_section_title
;
Structure prediction by ZEFSAII (Michael W. Deem and Ramdas Pophale) SiO2 
 PCOD8142144
Probable space group: C 2/C
;
_chemical_formula_sum "Si O2"
_cell_formula_units_Z 56
_cell_length_a 13.954133
_cell_length_b 12.334480
_cell_length_c 17.534890
_cell_angle_alpha 90.000000
_cell_angle_beta 63.199818
_cell_angle_gamma 90.000000
_cell_volume 2693.866282
_symmetry_space_group_name_H-M "C 2/C"
_symmetry_group_IT_number 15
_symmetry_cell_setting 'monoclinic'
loop_
_space_group_symop_operation_xyz
x,y,z
-x,y,1/2-z
-x,-y,-z
x,-y,1/2+z
1/2+x,1/2+y,z
1/2-x,1/2+y,1/2-z
1/2-x,1/2-y,-z
1/2+x,1/2-y,1/2+z
loop_
_atom_site_type_symbol
_atom_site_label
_atom_site_fract_x
_atom_site_fract_y
_atom_site_fract_z
Si Si1 0.939058 0.089872 0.977061
Si Si2 0.260840 0.435883 0.998534
Si Si3 0.588490 0.756521 0.385600
Si Si4 0.075226 0.158823 0.787869
Si Si5 0.629619 0.759261 0.113967
Si Si6 0.745552 0.182349 0.282013
Si Si7 0.224697 0.463686 0.351817
O O1 0.995177 0.097312 0.874317
O O2 0.942769 0.203936 0.021449
O O3 0.818790 0.041045 0.013761
O O4 0.000000 0.000000 0.000000
O O5 0.166897 0.383877 0.084348
O O6 0.336574 0.330520 0.960680
O O7 0.214947 0.478791 0.936284
O O8 0.498626 0.759456 0.351428
O O9 0.688337 0.686759 0.319793
O O10 0.628982 0.878422 0.383351
O O11 0.140456 0.243161 0.815676
O O12 0.157307 0.080780 0.712652
O O13 0.000000 0.213862 0.750000
O O14 0.673835 0.721444 0.179882
O O15 0.701832 0.060766 0.301585
#
# Coordination Sequence:
#
# PCOD8142144 Si02
#       7
#     8   8   8   8   8   8   8
#     4  12  22  38  66  98 124 170 218 270 318 386
#     4  10  21  38  62  93 127 163 212 265 322 375
#     4  11  24  40  65  97 130 168 220 266 323 390
#     4  11  23  43  65  92 127 172 218 265 322 394
#     4  10  21  40  64  94 126 166 216 266 313 384
#     4  10  23  43  63  89 132 169 217 268 321 387
#     4  10  23  42  63  94 127 170 213 267 324 383
#
# _framework density 20.787966000000001
#
# number of rings (size 3 to 8) (size 9 to 14) (size 15 to 20)
#    0.000    1.429    2.857    2.143    4.000    2.286 
#    0.000    2.857    0.000    0.000    0.000    0.000 
#    0.000    0.000    0.000    0.000    0.000    0.000 
#
# Total GULP energy -346916.313086 kJ/mol
# GULP energy per Si atom -12389.868324 kJ/mol
# Density = 2.074065 g / cm^3
# Si number density = 20.787966 Si / 1000 Ang^3
#
#
#
# Elastic Constant Matrix: (Units=GPa)
#
#
# Indices 1 2 3 4 5 6 
#
# 1 97.6155 51.2269 14.1670 0.0000 3.6671 0.0000
# 2 51.2269 111.1744 20.8973 0.0000 -6.2478 0.0000
# 3 14.1670 20.8973 60.0374 0.0000 -2.5143 0.0000
# 4 0.0000 0.0000 0.0000 31.5114 0.0000 4.2533
# 5 3.6671 -6.2478 -2.5143 0.0000 20.0374 0.0000
# 6 0.0000 0.0000 0.0000 4.2533 0.0000 34.5995
#
#
#
# Elastic Compliance Matrix: (Units=1/GPa)
#
#
# Indices 1 2 3 4 5 6 
#
# 1 0.014007 -0.006487 -0.001246 0.000000 -0.004742 0.000000
# 2 -0.006487 0.012764 -0.002710 0.000000 0.004827 0.000000
# 3 -0.001246 -0.002710 0.017962 0.000000 0.001637 0.000000
# 4 0.000000 0.000000 0.000000 0.032270 0.000000 -0.003967
# 5 -0.004742 0.004827 0.001637 0.000000 0.052485 0.000000
# 6 0.000000 0.000000 0.000000 -0.003967 0.000000 0.029390
#
#
# Mechanical properties :
#
#
# Convention : Reuss Voigt Hill
#
# Bulk Modulus (GPa) = 41.93173 49.04553 45.48863
# Shear Modulus (GPa) = 26.63625 29.39873 28.01749
#
# Velocity S-wave (km/s) = 3.58345 3.76469 3.67519
# Velocity P-wave (km/s) = 6.11036 6.52240 6.31973
#
# Compressibility (1/GPa) = 0.02384829
#
# Stress axis : x y z
#
# Youngs Moduli (GPa) = 71.39125 78.34255 55.67247
#
# Poissons Ratio (x) = 0.50817 0.06937
# Poissons Ratio (y) = 0.46308 0.15088
# Poissons Ratio (z) = 0.08896 0.21232
#
# Static dielectric constant tensor:
#      x y z
#    x 4.067300 0.000000 0.630520 
#    y 0.000000 5.823990 0.000000 
#    z 0.630520 0.000000 4.695180 
# 
# 
# High freq. dielectric constant tensor:
#      x y z
#    x 1.812210 0.000000 0.004420 
#    y 0.000000 1.809090 0.000000 
#    z 0.004420 0.000000 1.810770 
# 
# From -- ./inp_files/204368.got.cif
#   From: 2010.06.25/outbox.cif.g09.slc.cpg/sg15_103_cif.got.tgz:204368.got - 2010.06.28 07:06:18.
