data_PCOD8142543
_publ_section_title
;
Structure prediction by ZEFSAII (Michael W. Deem and Ramdas Pophale) SiO2 
 PCOD8142543
Probable space group: C 2/C
;
_chemical_formula_sum "Si O2"
_cell_formula_units_Z 52
_cell_length_a 27.315921
_cell_length_b 6.293221
_cell_length_c 14.278070
_cell_angle_alpha 90.000000
_cell_angle_beta 90.368197
_cell_angle_gamma 90.000000
_cell_volume 2454.422766
_symmetry_space_group_name_H-M "C 2/C"
_symmetry_group_IT_number 15
_symmetry_cell_setting 'monoclinic'
loop_
_space_group_symop_operation_xyz
x,y,z
-x,y,1/2-z
-x,-y,-z
x,-y,1/2+z
1/2+x,1/2+y,z
1/2-x,1/2+y,1/2-z
1/2-x,1/2-y,-z
1/2+x,1/2-y,1/2+z
loop_
_atom_site_type_symbol
_atom_site_label
_atom_site_fract_x
_atom_site_fract_y
_atom_site_fract_z
Si Si1 0.121289 0.665694 0.502477
Si Si2 0.300579 0.495750 0.419865
Si Si3 0.197083 0.633680 0.941423
Si Si4 0.500000 0.623161 0.250000
Si Si5 0.083921 0.421816 0.196879
Si Si6 0.837595 0.887617 0.724443
Si Si7 0.076020 0.181374 0.828878
O O1 0.160235 0.846116 0.533228
O O2 0.148221 0.503245 0.433366
O O3 0.098156 0.537828 0.589144
O O4 0.076583 0.747809 0.437512
O O5 0.242802 0.532524 0.441193
O O6 0.307422 0.256210 0.458997
O O7 0.306624 0.509439 0.308192
O O8 0.199417 0.804902 0.856647
O O9 0.537352 0.766061 0.191628
O O10 0.469508 0.477874 0.178046
O O11 0.130396 0.313785 0.245278
O O12 0.069226 0.634973 0.251143
O O13 0.871861 0.072204 0.686480
#
# Coordination Sequence:
#
# PCOD8142543 Si02
#       7
#     8   8   8   4   8   8   8
#     4  11  22  39  67  90 123 169 203 250 314 363
#     4  10  23  39  58  92 130 165 213 256 296 354
#     4  11  21  40  61  91 129 164 213 259 297 359
#     4  10  24  42  64  92 124 152 200 258 310 382
#     4  10  22  42  63  91 122 156 206 251 308 381
#     4  10  21  39  61  90 124 170 206 251 308 358
#     4  11  21  41  66  88 125 160 201 256 314 369
#
# _framework density 21.186245
#
# number of rings (size 3 to 8) (size 9 to 14) (size 15 to 20)
#    0.000    1.538    3.077    1.846    0.000    1.846 
#   11.077    3.077    0.000    0.000    0.000    0.000 
#    0.000    0.000    0.000    0.000    0.000    0.000 
#
# Total GULP energy -322254.304056 kJ/mol
# GULP energy per Si atom -12394.396310 kJ/mol
# Density = 2.113802 g / cm^3
# Si number density = 21.186245 Si / 1000 Ang^3
#
#
#
# Elastic Constant Matrix: (Units=GPa)
#
#
# Indices 1 2 3 4 5 6 
#
# 1 97.1742 30.4060 38.6422 0.0000 7.9036 0.0000
# 2 30.4060 62.9648 36.7209 0.0000 4.6975 0.0000
# 3 38.6422 36.7209 122.2690 0.0000 10.2645 0.0000
# 4 0.0000 0.0000 0.0000 29.7649 0.0000 -0.7418
# 5 7.9036 4.6975 10.2645 0.0000 23.0121 0.0000
# 6 0.0000 0.0000 0.0000 -0.7418 0.0000 27.7532
#
#
#
# Elastic Compliance Matrix: (Units=1/GPa)
#
#
# Indices 1 2 3 4 5 6 
#
# 1 0.012919 -0.004603 -0.002501 0.000000 -0.002382 0.000000
# 2 -0.004603 0.020938 -0.004787 0.000000 -0.000558 0.000000
# 3 -0.002501 -0.004787 0.010651 0.000000 -0.002915 0.000000
# 4 0.000000 0.000000 0.000000 0.033619 0.000000 0.000899
# 5 -0.002382 -0.000558 -0.002915 0.000000 0.045688 0.000000
# 6 0.000000 0.000000 0.000000 0.000899 0.000000 0.036056
#
#
# Mechanical properties :
#
#
# Convention : Reuss Voigt Hill
#
# Bulk Modulus (GPa) = 48.24362 54.88293 51.56327
# Shear Modulus (GPa) = 26.23842 27.88198 27.06020
#
# Velocity S-wave (km/s) = 3.52300 3.63166 3.57775
# Velocity P-wave (km/s) = 6.27450 6.59898 6.43878
#
# Compressibility (1/GPa) = 0.02072813
#
# Stress axis : x y z
#
# Youngs Moduli (GPa) = 77.40454 47.76063 93.88485
#
# Poissons Ratio (x) = 0.21982 0.23478
# Poissons Ratio (y) = 0.35626 0.44940
# Poissons Ratio (z) = 0.19357 0.22862
#
# Static dielectric constant tensor:
#      x y z
#    x 3.787890 0.000000 -0.010880 
#    y 0.000000 3.757030 0.000000 
#    z -0.010880 0.000000 3.798500 
# 
# 
# High freq. dielectric constant tensor:
#      x y z
#    x 1.827310 0.000000 0.006690 
#    y 0.000000 1.828430 0.000000 
#    z 0.006690 0.000000 1.831900 
# 
# From -- ./inp_files/180116.got.cif
#   From: 2010.06.25/outbox.cif.g09.slc.cpg/sg15_91_cif.got.tgz:180116.got - 2010.06.28 07:06:18.
