data_PCOD8142656
_publ_section_title
;
Structure prediction by ZEFSAII (Michael W. Deem and Ramdas Pophale) SiO2 
 PCOD8142656
Probable space group: C 2/C
;
_chemical_formula_sum "Si O2"
_cell_formula_units_Z 56
_cell_length_a 18.333307
_cell_length_b 12.985456
_cell_length_c 12.393824
_cell_angle_alpha 90.000000
_cell_angle_beta 76.368517
_cell_angle_gamma 90.000000
_cell_volume 2867.440258
_symmetry_space_group_name_H-M "C 2/C"
_symmetry_group_IT_number 15
_symmetry_cell_setting 'monoclinic'
loop_
_space_group_symop_operation_xyz
x,y,z
-x,y,1/2-z
-x,-y,-z
x,-y,1/2+z
1/2+x,1/2+y,z
1/2-x,1/2+y,1/2-z
1/2-x,1/2-y,-z
1/2+x,1/2-y,1/2+z
loop_
_atom_site_type_symbol
_atom_site_label
_atom_site_fract_x
_atom_site_fract_y
_atom_site_fract_z
Si Si1 0.332488 0.621827 0.133825
Si Si2 0.915372 0.824108 0.811823
Si Si3 0.341554 0.893138 0.822812
Si Si4 0.921854 0.937597 0.031197
Si Si5 0.081577 0.403937 0.255806
Si Si6 0.951378 0.246491 0.664060
Si Si7 0.087424 0.318043 0.487071
O O1 0.359570 0.620351 0.248219
O O2 0.244172 0.637543 0.161601
O O3 0.353200 0.515384 0.069176
O O4 0.373541 0.710543 0.052945
O O5 0.901136 0.701191 0.815161
O O6 0.000000 0.848532 0.750000
O O7 0.902770 0.870423 0.933290
O O8 0.386416 0.825104 0.720402
O O9 0.365435 0.873722 0.937138
O O10 0.354982 0.013460 0.795248
O O11 0.918572 0.860697 0.133360
O O12 0.000000 0.000000 0.000000
O O13 0.083705 0.388744 0.383336
O O14 0.000000 0.447946 0.250000
O O15 0.000000 0.216509 0.750000
O O16 0.002137 0.298465 0.553826
#
# Coordination Sequence:
#
# PCOD8142656 Si02
#       7
#     8   8   8   8   8   8   8
#     4  11  24  40  61  90 129 163 201 257 323 362
#     4  10  21  39  63  90 122 157 208 262 305 367
#     4  11  25  40  60  92 127 166 205 255 309 371
#     4  12  22  37  66  94 118 157 208 258 309 368
#     4  10  21  39  64  90 122 165 209 255 312 361
#     4  10  22  39  64  93 118 158 215 256 294 371
#     4  10  21  42  64  85 122 166 210 256 306 370
#
# _framework density 19.529613999999999
#
# number of rings (size 3 to 8) (size 9 to 14) (size 15 to 20)
#    0.000    1.429    2.857    3.429    2.000    6.857 
#    0.000    1.429    0.000    0.000    0.000    0.000 
#    0.000    0.000    0.000    0.000    0.000    0.000 
#
# Total GULP energy -347314.128581 kJ/mol
# GULP energy per Si atom -12404.076021 kJ/mol
# Density = 1.948516 g / cm^3
# Si number density = 19.529614 Si / 1000 Ang^3
#
#
#
# Elastic Constant Matrix: (Units=GPa)
#
#
# Indices 1 2 3 4 5 6 
#
# 1 121.0494 42.2715 49.3904 0.0000 -3.8292 0.0000
# 2 42.2715 96.8314 67.3907 0.0000 4.5110 0.0000
# 3 49.3904 67.3907 119.4737 0.0000 7.1038 0.0000
# 4 0.0000 0.0000 0.0000 -67.4693 0.0000 -6.0799
# 5 -3.8292 4.5110 7.1038 0.0000 20.2474 0.0000
# 6 0.0000 0.0000 0.0000 -6.0799 0.0000 22.1902
#
#
#
# Elastic Compliance Matrix: (Units=1/GPa)
#
#
# Indices 1 2 3 4 5 6 
#
# 1 0.010559 -0.002619 -0.003106 0.000000 0.003670 0.000000
# 2 -0.002619 0.017655 -0.008796 0.000000 -0.001343 0.000000
# 3 -0.003106 -0.008796 0.014844 0.000000 -0.003836 0.000000
# 4 0.000000 0.000000 0.000000 -0.014464 0.000000 -0.003963
# 5 0.003670 -0.001343 -0.003836 0.000000 0.051728 0.000000
# 6 0.000000 0.000000 0.000000 -0.003963 0.000000 0.043979
#
#
# Mechanical properties :
#
#
# Convention : Reuss Voigt Hill
#
# Bulk Modulus (GPa) = 71.34889 72.82886 72.08888
# Shear Modulus (GPa) = 31.64290 6.88047 19.26168
#
# Velocity S-wave (km/s) = 4.02960 1.87903 3.14392
# Velocity P-wave (km/s) = 7.63304 6.48692 7.08320
#
# Compressibility (1/GPa) = 0.01401563
#
# Stress axis : x y z
#
# Youngs Moduli (GPa) = 94.70540 56.64268 67.36887
#
# Poissons Ratio (x) = 0.14833 0.20926
# Poissons Ratio (y) = 0.24801 0.59257
# Poissons Ratio (z) = 0.29418 0.49822
#
# Static dielectric constant tensor:
#      x y z
#    x 3.469820 0.000000 0.109390 
#    y 0.000000 3.617200 0.000000 
#    z 0.109390 0.000000 3.767980 
# 
# 
# High freq. dielectric constant tensor:
#      x y z
#    x 1.748760 0.000000 0.012220 
#    y 0.000000 1.770080 0.000000 
#    z 0.012220 0.000000 1.768910 
# 
# From -- ./inp_files/111006.got.cif
#   From: 2010.06.25/outbox.cif.g09.slc.cpg/sg15_56_cif.got.tgz:111006.got - 2010.06.28 07:06:18.
