data_PCOD8142586
_publ_section_title
;
Structure prediction by ZEFSAII (Michael W. Deem and Ramdas Pophale) SiO2 
 PCOD8142586
Probable space group: C 2/C
;
_chemical_formula_sum "Si O2"
_cell_formula_units_Z 40
_cell_length_a 13.047867
_cell_length_b 10.416901
_cell_length_c 20.499360
_cell_angle_alpha 90.000000
_cell_angle_beta 38.501826
_cell_angle_gamma 90.000000
_cell_volume 1734.544024
_symmetry_space_group_name_H-M "C 2/C"
_symmetry_group_IT_number 15
_symmetry_cell_setting 'monoclinic'
loop_
_space_group_symop_operation_xyz
x,y,z
-x,y,1/2-z
-x,-y,-z
x,-y,1/2+z
1/2+x,1/2+y,z
1/2-x,1/2+y,1/2-z
1/2-x,1/2-y,-z
1/2+x,1/2-y,1/2+z
loop_
_atom_site_type_symbol
_atom_site_label
_atom_site_fract_x
_atom_site_fract_y
_atom_site_fract_z
Si Si1 0.968422 0.928189 0.948848
Si Si2 0.799412 0.753554 0.604431
Si Si3 0.623098 0.500910 0.743198
Si Si4 0.880045 0.499479 0.863966
Si Si5 0.967852 0.416118 0.579464
O O1 0.079557 0.799754 0.896865
O O2 0.022528 0.014777 0.860513
O O3 0.771474 0.904568 0.043970
O O4 0.000000 0.000000 0.000000
O O5 0.687586 0.640927 0.689566
O O6 0.682915 0.863452 0.633429
O O7 0.921314 0.710904 0.484482
O O8 0.500000 0.445778 0.750000
O O9 0.770347 0.397358 0.679733
O O10 0.000000 0.562390 0.750000
O O11 0.983247 0.484502 0.878146
O O12 0.000000 0.500000 0.500000
#
# Coordination Sequence:
#
# PCOD8142586 Si02
#       5
#     8   8   8   8   8
#     4  10  22  38  61  94 125 155 201 258 306 360
#     4  10  22  40  67  92 119 163 210 251 307 370
#     4  11  23  42  63  91 126 163 205 255 308 367
#     4  11  22  39  62  93 125 162 207 258 305 362
#     4  10  21  39  62  90 125 161 202 254 305 363
#
# _framework density 23.060815000000002
#
# number of rings (size 3 to 8) (size 9 to 14) (size 15 to 20)
#    0.000    1.600    0.000    6.000    0.000    8.000 
#    0.000   10.000    0.000    0.000    0.000    0.000 
#    0.000    0.000    0.000    0.000    0.000    0.000 
#
# Total GULP energy -247856.010869 kJ/mol
# GULP energy per Si atom -12392.800543 kJ/mol
# Density = 2.300833 g / cm^3
# Si number density = 23.060815 Si / 1000 Ang^3
#
#
#
# Elastic Constant Matrix: (Units=GPa)
#
#
# Indices 1 2 3 4 5 6 
#
# 1 169.4242 4.0442 74.1917 0.0000 -1.8225 0.0000
# 2 4.0442 16.7107 13.1263 0.0000 -0.2702 0.0000
# 3 74.1917 13.1263 174.4860 -0.0002 -0.3848 0.0000
# 4 0.0000 0.0000 -0.0002 21.4047 0.0000 -0.7350
# 5 -1.8225 -0.2702 -0.3848 0.0000 54.6544 0.0000
# 6 0.0000 0.0000 0.0000 -0.7350 0.0000 24.2060
#
#
#
# Elastic Compliance Matrix: (Units=1/GPa)
#
#
# Indices 1 2 3 4 5 6 
#
# 1 0.007263 0.000714 -0.003142 0.000000 0.000224 0.000000
# 2 0.000714 0.063675 -0.005093 0.000000 0.000303 0.000000
# 3 -0.003142 -0.005093 0.007450 0.000000 -0.000077 0.000000
# 4 0.000000 0.000000 0.000000 0.046767 0.000000 0.001420
# 5 0.000224 0.000303 -0.000077 0.000000 0.018305 0.000000
# 6 0.000000 0.000000 0.000000 0.001420 0.000000 0.041355
#
#
# Mechanical properties :
#
#
# Convention : Reuss Voigt Hill
#
# Bulk Modulus (GPa) = 15.78629 60.37169 38.07899
# Shear Modulus (GPa) = 22.62719 38.00360 30.31540
#
# Velocity S-wave (km/s) = 3.13580 4.06393 3.62965
# Velocity P-wave (km/s) = 4.46894 6.94671 5.84073
#
# Compressibility (1/GPa) = 0.06334612
#
# Stress axis : x y z
#
# Youngs Moduli (GPa) = 137.67569 15.70483 134.23016
#
# Poissons Ratio (x) = -0.01121 0.42170
# Poissons Ratio (y) = -0.09823 0.68361
# Poissons Ratio (z) = 0.43252 0.07998
#
# Static dielectric constant tensor:
#      x y z
#    x 4.599010 0.000000 -0.443940 
#    y 0.000000 4.224610 0.000000 
#    z -0.443940 0.000000 5.089230 
# 
# 
# High freq. dielectric constant tensor:
#      x y z
#    x 1.927150 0.000000 -0.007280 
#    y 0.000000 1.862540 0.000000 
#    z -0.007280 0.000000 1.939820 
# 
# From -- ./inp_files/95157.got.cif
#   From: 2010.06.25/outbox.cif.g09.slc.cpg/sg15_48_cif.got.tgz:95157.got - 2010.06.28 07:06:18.
