data_PCOD8142190
_publ_section_title
;
Structure prediction by ZEFSAII (Michael W. Deem and Ramdas Pophale) SiO2 
 PCOD8142190
Probable space group: C 2/C
;
_chemical_formula_sum "Si O2"
_cell_formula_units_Z 60
_cell_length_a 21.711636
_cell_length_b 22.727260
_cell_length_c 8.443301
_cell_angle_alpha 90.000000
_cell_angle_beta 134.765640
_cell_angle_gamma 90.000000
_cell_volume 2958.053846
_symmetry_space_group_name_H-M "C 2/C"
_symmetry_group_IT_number 15
_symmetry_cell_setting 'monoclinic'
loop_
_space_group_symop_operation_xyz
x,y,z
-x,y,1/2-z
-x,-y,-z
x,-y,1/2+z
1/2+x,1/2+y,z
1/2-x,1/2+y,1/2-z
1/2-x,1/2-y,-z
1/2+x,1/2-y,1/2+z
loop_
_atom_site_type_symbol
_atom_site_label
_atom_site_fract_x
_atom_site_fract_y
_atom_site_fract_z
Si Si1 0.689331 0.799605 0.954806
Si Si2 0.081757 0.761906 0.511243
Si Si3 0.485888 0.177630 0.542543
Si Si4 0.500000 0.432416 0.750000
Si Si5 0.945223 0.891195 0.985841
Si Si6 0.163571 0.987335 0.579114
Si Si7 0.533538 0.941979 0.636175
Si Si8 0.234988 0.430380 0.021605
O O1 0.658451 0.774673 0.067977
O O2 0.611108 0.807381 0.689356
O O3 0.742731 0.860528 0.073858
O O4 0.750000 0.750000 0.000000
O O5 0.104952 0.828556 0.603564
O O6 0.000000 0.764918 0.250000
O O7 0.055873 0.725539 0.617591
O O8 0.511065 0.113391 0.527170
O O9 0.500000 0.176225 0.750000
O O10 0.498199 0.395731 0.577754
O O11 0.415883 0.472294 0.618069
O O12 0.000000 0.898958 0.250000
O O13 0.871381 0.941624 0.851344
O O14 0.201337 0.948034 0.505482
O O15 0.238638 0.030026 0.780431
O O16 0.500000 0.937500 0.750000
O O17 0.636258 0.943385 0.801866
O O18 0.500000 0.000000 0.500000
#
# Coordination Sequence:
#
# PCOD8142190 Si02
#       8
#     8   8   8   4   8   8   8   8
#     4  10  21  43  64  88 124 173 211 268 337 391
#     4   9  20  39  64  90 121 165 215 266 323 396
#     4  10  21  38  63  92 119 157 214 268 317 394
#     4  12  24  40  64  96 140 176 226 276 328 400
#     4  11  22  39  65  95 133 181 220 272 335 401
#     4  12  22  41  58  96 133 173 222 271 331 399
#     4  11  22  41  65  93 124 165 213 271 342 404
#     4  11  24  38  65  92 128 173 217 274 335 402
#
# _framework density 20.283605999999999
#
# number of rings (size 3 to 8) (size 9 to 14) (size 15 to 20)
#    0.000    1.333    2.000    5.200    0.933    3.200 
#    0.000    0.667    0.000    0.000    0.000    0.000 
#    0.000    0.000    0.000    0.000    0.000    0.000 
#
# Total GULP energy -371816.524708 kJ/mol
# GULP energy per Si atom -12393.884157 kJ/mol
# Density = 2.023744 g / cm^3
# Si number density = 20.283606 Si / 1000 Ang^3
#
#
#
# Elastic Constant Matrix: (Units=GPa)
#
#
# Indices 1 2 3 4 5 6 
#
# 1 124.5286 61.3428 38.3975 0.0000 -24.7677 0.0000
# 2 61.3428 190.4698 48.6248 0.0000 -8.1519 0.0000
# 3 38.3975 48.6248 56.4670 0.0000 -19.8319 0.0000
# 4 0.0000 0.0000 0.0000 22.4276 0.0000 0.2330
# 5 -24.7677 -8.1519 -19.8319 0.0000 36.7805 0.0000
# 6 0.0000 0.0000 0.0000 0.2330 0.0000 44.2626
#
#
#
# Elastic Compliance Matrix: (Units=1/GPa)
#
#
# Indices 1 2 3 4 5 6 
#
# 1 0.011457 -0.002485 -0.003867 0.000000 0.005079 0.000000
# 2 -0.002485 0.007392 -0.005783 0.000000 -0.003153 0.000000
# 3 -0.003867 -0.005783 0.029550 0.000000 0.012048 0.000000
# 4 0.000000 0.000000 0.000000 0.044590 0.000000 -0.000235
# 5 0.005079 -0.003153 0.012048 0.000000 0.036406 0.000000
# 6 0.000000 0.000000 0.000000 -0.000235 0.000000 0.022594
#
#
# Mechanical properties :
#
#
# Convention : Reuss Voigt Hill
#
# Bulk Modulus (GPa) = 41.44372 74.24395 57.84384
# Shear Modulus (GPa) = 27.12948 35.56749 31.34849
#
# Velocity S-wave (km/s) = 3.66116 4.19204 3.93556
# Velocity P-wave (km/s) = 6.19263 7.75328 7.01648
#
# Compressibility (1/GPa) = 0.02412911
#
# Stress axis : x y z
#
# Youngs Moduli (GPa) = 87.28229 135.28250 33.84126
#
# Poissons Ratio (x) = 0.33623 0.13085
# Poissons Ratio (y) = 0.21693 0.19570
# Poissons Ratio (z) = 0.33749 0.78231
#
# Static dielectric constant tensor:
#      x y z
#    x 3.636110 0.000000 -0.133680 
#    y 0.000000 3.285890 0.000000 
#    z -0.133680 0.000000 3.494570 
# 
# 
# High freq. dielectric constant tensor:
#      x y z
#    x 1.804190 0.000000 -0.007360 
#    y 0.000000 1.816070 0.000000 
#    z -0.007360 0.000000 1.765750 
# 
# From -- ./inp_files/58096.got.cif
#   From: 2010.06.25/outbox.cif.g09.slc.cpg/sg15_30_cif.got.tgz:58096.got - 2010.06.28 07:06:18.
