data_PCOD8142766
_publ_section_title
;
Structure prediction by ZEFSAII (Michael W. Deem and Ramdas Pophale) SiO2 
 PCOD8142766
Probable space group: C 2/C
;
_chemical_formula_sum "Si O2"
_cell_formula_units_Z 48
_cell_length_a 12.156811
_cell_length_b 20.029439
_cell_length_c 12.847749
_cell_angle_alpha 90.000000
_cell_angle_beta 133.677912
_cell_angle_gamma 90.000000
_cell_volume 2262.528132
_symmetry_space_group_name_H-M "C 2/C"
_symmetry_group_IT_number 15
_symmetry_cell_setting 'monoclinic'
loop_
_space_group_symop_operation_xyz
x,y,z
-x,y,1/2-z
-x,-y,-z
x,-y,1/2+z
1/2+x,1/2+y,z
1/2-x,1/2+y,1/2-z
1/2-x,1/2-y,-z
1/2+x,1/2-y,1/2+z
loop_
_atom_site_type_symbol
_atom_site_label
_atom_site_fract_x
_atom_site_fract_y
_atom_site_fract_z
Si Si1 0.338262 0.083572 0.766564
Si Si2 0.015387 0.891066 0.138393
Si Si3 0.634869 0.767029 0.265742
Si Si4 0.026327 0.249727 0.542346
Si Si5 0.712333 0.950336 0.869892
Si Si6 0.012150 0.604092 0.424615
O O1 0.367807 0.152896 0.727904
O O2 0.174721 0.078128 0.712083
O O3 0.338509 0.027666 0.676511
O O4 0.460267 0.074845 0.940821
O O5 0.000000 0.899631 0.250000
O O6 0.012970 0.812579 0.110345
O O7 0.890524 0.934839 0.995287
O O8 0.500000 0.737751 0.250000
O O9 0.806147 0.742012 0.402693
O O10 0.599821 0.740049 0.128270
O O11 0.979132 0.315881 0.573278
O O12 0.654695 0.915707 0.725376
O O13 0.635847 0.922924 0.924335
#
# Coordination Sequence:
#
# PCOD8142766 Si02
#       6
#     8   8   8   8   8   8
#     4  10  22  41  59  89 124 162 209 253 302 364
#     4  11  22  39  63  88 126 166 201 257 308 364
#     4  10  21  39  65  87 122 164 198 255 306 367
#     4  10  22  39  60  93 126 154 207 255 312 364
#     4  11  22  37  62  86 125 164 207 248 306 362
#     4  10  22  38  60  94 118 161 203 263 304 361
#
# _framework density 21.215205999999998
#
# number of rings (size 3 to 8) (size 9 to 14) (size 15 to 20)
#    0.000    1.667    1.667    2.500    4.667    0.667 
#    0.000    0.000    3.667    1.000    0.000    0.000 
#    0.000    0.000    0.000    0.000    0.000    0.000 
#
# Total GULP energy -297515.408252 kJ/mol
# GULP energy per Si atom -12396.475344 kJ/mol
# Density = 2.116692 g / cm^3
# Si number density = 21.215206 Si / 1000 Ang^3
#
#
#
# Elastic Constant Matrix: (Units=GPa)
#
#
# Indices 1 2 3 4 5 6 
#
# 1 68.1753 15.8500 10.1096 0.0000 1.1680 0.0000
# 2 15.8500 77.7569 35.4589 0.0000 -11.0076 0.0000
# 3 10.1096 35.4589 100.6460 0.0000 16.7059 0.0000
# 4 0.0000 0.0000 0.0000 12.9017 0.0000 -7.0290
# 5 1.1680 -11.0076 16.7059 0.0000 26.4072 0.0000
# 6 0.0000 0.0000 0.0000 -7.0290 0.0000 15.5088
#
#
#
# Elastic Compliance Matrix: (Units=1/GPa)
#
#
# Indices 1 2 3 4 5 6 
#
# 1 0.015510 -0.003477 0.000024 0.000000 -0.002151 0.000000
# 2 -0.003477 0.019580 -0.008860 0.000000 0.013921 0.000000
# 3 0.000024 -0.008860 0.015272 0.000000 -0.013355 0.000000
# 4 0.000000 0.000000 0.000000 0.102924 0.000000 0.046648
# 5 -0.002151 0.013921 -0.013355 0.000000 0.052215 0.000000
# 6 0.000000 0.000000 0.000000 0.046648 0.000000 0.085622
#
#
# Mechanical properties :
#
#
# Convention : Reuss Voigt Hill
#
# Bulk Modulus (GPa) = 38.85568 41.04615 39.95092
# Shear Modulus (GPa) = 15.41656 23.30751 19.36203
#
# Velocity S-wave (km/s) = 2.69862 3.31814 3.02429
# Velocity P-wave (km/s) = 5.29762 5.83692 5.57380
#
# Compressibility (1/GPa) = 0.02573626
#
# Stress axis : x y z
#
# Youngs Moduli (GPa) = 64.47585 51.07190 65.48083
#
# Poissons Ratio (x) = 0.17757 -0.00157
# Poissons Ratio (y) = 0.22418 0.58014
# Poissons Ratio (z) = -0.00155 0.45248
#
# Static dielectric constant tensor:
#      x y z
#    x 3.711180 0.000000 0.232030 
#    y 0.000000 3.760210 0.000000 
#    z 0.232030 0.000000 4.125650 
# 
# 
# High freq. dielectric constant tensor:
#      x y z
#    x 1.822740 0.000000 0.010800 
#    y 0.000000 1.824380 0.000000 
#    z 0.010800 0.000000 1.848000 
# 
# From -- ./inp_files/89777.got.cif
#   From: 2010.06.25/outbox.cif.g09.slc.cpg/sg15_45_cif.got.tgz:89777.got - 2010.06.28 07:06:18.
