data_PCOD8142845
_publ_section_title
;
Structure prediction by ZEFSAII (Michael W. Deem and Ramdas Pophale) SiO2 
 PCOD8142845
Probable space group: C 2/C
;
_chemical_formula_sum "Si O2"
_cell_formula_units_Z 52
_cell_length_a 15.824122
_cell_length_b 10.845707
_cell_length_c 17.962123
_cell_angle_alpha 90.000000
_cell_angle_beta 128.319773
_cell_angle_gamma 90.000000
_cell_volume 2418.592305
_symmetry_space_group_name_H-M "C 2/C"
_symmetry_group_IT_number 15
_symmetry_cell_setting 'monoclinic'
loop_
_space_group_symop_operation_xyz
x,y,z
-x,y,1/2-z
-x,-y,-z
x,-y,1/2+z
1/2+x,1/2+y,z
1/2-x,1/2+y,1/2-z
1/2-x,1/2-y,-z
1/2+x,1/2-y,1/2+z
loop_
_atom_site_type_symbol
_atom_site_label
_atom_site_fract_x
_atom_site_fract_y
_atom_site_fract_z
Si Si1 0.654956 0.224349 0.279577
Si Si2 0.840236 0.441690 0.928185
Si Si3 0.784328 0.875903 0.055564
Si Si4 0.500000 0.963329 0.750000
Si Si5 0.513876 0.571712 0.670017
Si Si6 0.833841 0.850360 0.769944
Si Si7 0.039651 0.607550 0.623900
O O1 0.694435 0.343213 0.346370
O O2 0.604987 0.123944 0.307936
O O3 0.565045 0.292331 0.178117
O O4 0.749061 0.152474 0.290234
O O5 0.807438 0.521056 0.983909
O O6 0.736707 0.360802 0.845037
O O7 0.877370 0.522207 0.876806
O O8 0.940001 0.359453 0.013616
O O9 0.890970 0.927668 0.071296
O O10 0.750000 0.750000 0.000000
O O11 0.494823 0.039653 0.671823
O O12 0.500000 0.547292 0.750000
O O13 0.585391 0.464202 0.672780
O O14 0.903159 0.726823 0.810923
#
# Coordination Sequence:
#
# PCOD8142845 Si02
#       7
#     8   8   8   4   8   8   8
#     4  11  21  39  65  96 128 178 226 272 338 400
#     4  11  23  44  69  99 140 186 225 280 353 405
#     4  11  21  40  69  98 129 173 235 288 326 401
#     4  12  22  40  64 104 136 174 234 282 334 418
#     4  10  21  39  66  93 122 179 224 264 339 402
#     4  12  22  44  68  96 141 180 220 279 350 406
#     4  11  26  40  69 106 138 181 230 282 347 414
#
# _framework density 21.500109999999999
#
# number of rings (size 3 to 8) (size 9 to 14) (size 15 to 20)
#    0.000    0.923    8.462    0.923    1.077    0.000 
#    0.000    5.385    0.000    0.000    0.000    0.000 
#    0.000    0.000    0.000    0.000    0.000    0.000 
#
# Total GULP energy -322118.370085 kJ/mol
# GULP energy per Si atom -12389.168080 kJ/mol
# Density = 2.145118 g / cm^3
# Si number density = 21.500110 Si / 1000 Ang^3
#
#
#
# Elastic Constant Matrix: (Units=GPa)
#
#
# Indices 1 2 3 4 5 6 
#
# 1 141.6364 63.9726 26.1017 0.0000 20.0922 0.0000
# 2 63.9726 119.5933 51.2955 0.0000 12.4396 0.0000
# 3 26.1017 51.2955 89.1602 0.0000 22.9132 0.0000
# 4 0.0000 0.0000 0.0000 22.2235 0.0000 15.5452
# 5 20.0922 12.4396 22.9132 0.0000 27.2294 0.0000
# 6 0.0000 0.0000 0.0000 15.5452 0.0000 43.8907
#
#
#
# Elastic Compliance Matrix: (Units=1/GPa)
#
#
# Indices 1 2 3 4 5 6 
#
# 1 0.010154 -0.005573 0.001920 0.000000 -0.006563 0.000000
# 2 -0.005573 0.014162 -0.007541 0.000000 0.003988 0.000000
# 3 0.001920 -0.007541 0.018464 0.000000 -0.013509 0.000000
# 4 0.000000 0.000000 0.000000 0.059817 0.000000 -0.021186
# 5 -0.006563 0.003988 -0.013509 0.000000 0.051113 0.000000
# 6 0.000000 0.000000 0.000000 -0.021186 0.000000 0.030287
#
#
# Mechanical properties :
#
#
# Convention : Reuss Voigt Hill
#
# Bulk Modulus (GPa) = 49.03760 70.34773 59.69266
# Shear Modulus (GPa) = 23.45394 32.60338 28.02866
#
# Velocity S-wave (km/s) = 3.30642 3.89836 3.61453
# Velocity P-wave (km/s) = 6.11835 7.28380 6.72636
#
# Compressibility (1/GPa) = 0.02039252
#
# Stress axis : x y z
#
# Youngs Moduli (GPa) = 98.47875 70.60954 54.15944
#
# Poissons Ratio (x) = 0.39348 -0.10398
# Poissons Ratio (y) = 0.54879 0.40844
# Poissons Ratio (z) = -0.18906 0.53249
#
# Static dielectric constant tensor:
#      x y z
#    x 4.094010 0.000000 0.546000 
#    y 0.000000 3.754360 0.000000 
#    z 0.546000 0.000000 4.324350 
# 
# 
# High freq. dielectric constant tensor:
#      x y z
#    x 1.851160 0.000000 0.028750 
#    y 0.000000 1.829380 0.000000 
#    z 0.028750 0.000000 1.831440 
# 
# From -- ./inp_files/243791.got.cif
#   From: 2010.06.25/outbox.cif.g09.slc.cpg/sg15_122_cif.got.tgz:243791.got - 2010.06.28 07:06:18.
