data_PCOD8142822
_publ_section_title
;
Structure prediction by ZEFSAII (Michael W. Deem and Ramdas Pophale) SiO2 
 PCOD8142822
Probable space group: C 2/C
;
_chemical_formula_sum "Si O2"
_cell_formula_units_Z 36
_cell_length_a 5.029372
_cell_length_b 27.028494
_cell_length_c 11.743975
_cell_angle_alpha 90.000000
_cell_angle_beta 78.220439
_cell_angle_gamma 90.000000
_cell_volume 1562.812666
_symmetry_space_group_name_H-M "C 2/C"
_symmetry_group_IT_number 15
_symmetry_cell_setting 'monoclinic'
loop_
_space_group_symop_operation_xyz
x,y,z
-x,y,1/2-z
-x,-y,-z
x,-y,1/2+z
1/2+x,1/2+y,z
1/2-x,1/2+y,1/2-z
1/2-x,1/2-y,-z
1/2+x,1/2-y,1/2+z
loop_
_atom_site_type_symbol
_atom_site_label
_atom_site_fract_x
_atom_site_fract_y
_atom_site_fract_z
Si Si1 0.500000 0.257025 0.250000
Si Si2 0.314876 0.999965 0.861037
Si Si3 0.260126 0.296427 0.919558
Si Si4 0.305907 0.557935 0.916002
Si Si5 0.800181 0.831518 0.461676
O O1 0.269131 0.222190 0.209867
O O2 0.357182 0.289288 0.361410
O O3 0.500000 0.972834 0.750000
O O4 0.512098 0.041483 0.897739
O O5 0.059802 0.030518 0.832499
O O6 0.193928 0.957370 0.951111
O O7 0.250000 0.250000 0.000000
O O8 0.533028 0.325069 0.934003
O O9 0.010289 0.331819 0.973303
O O10 0.358573 0.616055 0.897753
#
# Coordination Sequence:
#
# PCOD8142822 Si02
#       5
#     4   8   8   8   8
#     4  10  22  38  64  86 120 168 204 252 314 358
#     4  10  21  39  66  87 134 162 198 249 326 370
#     4  10  22  40  59  85 126 161 198 259 312 357
#     4  10  22  40  61  98 124 162 204 264 298 373
#     4  11  23  39  62  92 124 156 216 255 296 381
#
# _framework density 23.035392000000002
#
# number of rings (size 3 to 8) (size 9 to 14) (size 15 to 20)
#    0.000    1.778    0.000    4.667    3.111    8.000 
#    2.000    0.000    9.778    0.000    0.000    0.000 
#    0.000    0.000    0.000    0.000    0.000    0.000 
#
# Total GULP energy -223015.168525 kJ/mol
# GULP energy per Si atom -12389.731585 kJ/mol
# Density = 2.298296 g / cm^3
# Si number density = 23.035392 Si / 1000 Ang^3
#
#
#
# Elastic Constant Matrix: (Units=GPa)
#
#
# Indices 1 2 3 4 5 6 
#
# 1 114.1473 19.6022 27.8865 0.0000 5.4764 0.0000
# 2 19.6022 41.4083 8.5117 0.0000 2.9951 0.0000
# 3 27.8865 8.5117 83.6371 0.0000 10.6378 0.0000
# 4 0.0000 0.0000 0.0000 12.9044 0.0000 -1.1077
# 5 5.4764 2.9951 10.6378 0.0000 45.4487 0.0000
# 6 0.0000 0.0000 0.0000 -1.1077 0.0000 29.2708
#
#
#
# Elastic Compliance Matrix: (Units=1/GPa)
#
#
# Indices 1 2 3 4 5 6 
#
# 1 0.010216 -0.004212 -0.002944 0.000000 -0.000264 0.000000
# 2 -0.004212 0.026453 -0.001165 0.000000 -0.000963 0.000000
# 3 -0.002944 -0.001165 0.013401 0.000000 -0.002705 0.000000
# 4 0.000000 0.000000 0.000000 0.077746 0.000000 0.002942
# 5 -0.000264 -0.000963 -0.002705 0.000000 0.022731 0.000000
# 6 0.000000 0.000000 0.000000 0.002942 0.000000 0.034275
#
#
# Mechanical properties :
#
#
# Convention : Reuss Voigt Hill
#
# Bulk Modulus (GPa) = 29.91580 39.02150 34.46865
# Shear Modulus (GPa) = 23.51773 29.73761 26.62767
#
# Velocity S-wave (km/s) = 3.19868 3.59688 3.40361
# Velocity P-wave (km/s) = 5.16306 5.85035 5.51742
#
# Compressibility (1/GPa) = 0.03342716
#
# Stress axis : x y z
#
# Youngs Moduli (GPa) = 97.88788 37.80332 74.62339
#
# Poissons Ratio (x) = 0.15922 0.21968
# Poissons Ratio (y) = 0.41228 0.08696
# Poissons Ratio (z) = 0.28817 0.04405
#
# Static dielectric constant tensor:
#      x y z
#    x 7.868020 0.000000 0.894430 
#    y 0.000000 3.887560 0.000000 
#    z 0.894430 0.000000 4.510450 
# 
# 
# High freq. dielectric constant tensor:
#      x y z
#    x 1.933100 0.000000 0.005960 
#    y 0.000000 1.875200 0.000000 
#    z 0.005960 0.000000 1.913630 
# 
# From -- ./inp_files/73003.got.cif
#   From: 2010.06.25/outbox.cif.g09.slc.cpg/sg15_37_cif.got.tgz:73003.got - 2010.06.28 07:06:18.
