data_PCOD8142546
_publ_section_title
;
Structure prediction by ZEFSAII (Michael W. Deem and Ramdas Pophale) SiO2 
 PCOD8142546
Probable space group: C 2/C
;
_chemical_formula_sum "Si O2"
_cell_formula_units_Z 56
_cell_length_a 8.368439
_cell_length_b 25.519983
_cell_length_c 18.905386
_cell_angle_alpha 90.000000
_cell_angle_beta 42.013745
_cell_angle_gamma 90.000000
_cell_volume 2702.321156
_symmetry_space_group_name_H-M "C 2/C"
_symmetry_group_IT_number 15
_symmetry_cell_setting 'monoclinic'
loop_
_space_group_symop_operation_xyz
x,y,z
-x,y,1/2-z
-x,-y,-z
x,-y,1/2+z
1/2+x,1/2+y,z
1/2-x,1/2+y,1/2-z
1/2-x,1/2-y,-z
1/2+x,1/2-y,1/2+z
loop_
_atom_site_type_symbol
_atom_site_label
_atom_site_fract_x
_atom_site_fract_y
_atom_site_fract_z
Si Si1 0.771426 0.696356 0.661190
Si Si2 0.595186 0.607874 0.144659
Si Si3 0.366115 0.901439 0.220177
Si Si4 0.425649 0.426096 0.450838
Si Si5 0.255715 0.538026 0.524164
Si Si6 0.699011 0.191481 0.240195
Si Si7 0.057957 0.662290 0.039484
O O1 0.500000 0.679557 0.750000
O O2 0.901381 0.652840 0.665930
O O3 0.813430 0.753042 0.681778
O O4 0.845429 0.699773 0.554297
O O5 0.500000 0.586523 0.250000
O O6 0.416847 0.651303 0.171540
O O7 0.862257 0.627970 0.064351
O O8 0.612182 0.559133 0.088022
O O9 0.500000 0.893800 0.250000
O O10 0.483288 0.945657 0.130701
O O11 0.093250 0.919409 0.325913
O O12 0.251085 0.476150 0.510697
O O13 0.594069 0.436205 0.462028
O O14 0.261430 0.374249 0.508520
O O15 0.500000 0.172188 0.250000
O O16 0.566844 0.197345 0.359216
#
# Coordination Sequence:
#
# PCOD8142546 Si02
#       7
#     8   8   8   8   8   8   8
#     4  11  22  41  63  91 124 164 210 263 316 373
#     4  10  22  40  59  91 127 159 209 258 311 376
#     4  10  21  39  61  91 124 160 210 257 306 380
#     4  10  22  39  66  91 126 166 207 259 310 379
#     4  10  21  41  63  93 122 169 209 251 319 370
#     4  10  24  41  62  89 124 169 208 260 314 378
#     4  11  22  41  62  91 127 161 207 264 315 371
#
# _framework density 20.722926999999999
#
# number of rings (size 3 to 8) (size 9 to 14) (size 15 to 20)
#    0.000    1.714    2.857    0.857    0.000    7.429 
#    7.714    4.286    0.000    0.000    0.000    0.000 
#    0.000    0.000    0.000    0.000    0.000    0.000 
#
# Total GULP energy -347002.662665 kJ/mol
# GULP energy per Si atom -12392.952238 kJ/mol
# Density = 2.067576 g / cm^3
# Si number density = 20.722927 Si / 1000 Ang^3
#
#
#
# Elastic Constant Matrix: (Units=GPa)
#
#
# Indices 1 2 3 4 5 6 
#
# 1 24.7648 16.3319 15.2415 -0.0001 4.0702 0.0001
# 2 16.3319 57.1961 18.3150 -0.0002 14.1031 -0.0003
# 3 15.2415 18.3150 97.0759 0.0003 15.0664 0.0002
# 4 -0.0001 -0.0002 0.0003 26.6023 -0.0002 2.8192
# 5 4.0702 14.1031 15.0664 -0.0002 38.1174 -0.0001
# 6 0.0001 -0.0003 0.0002 2.8192 -0.0001 8.8626
#
#
#
# Elastic Compliance Matrix: (Units=1/GPa)
#
#
# Indices 1 2 3 4 5 6 
#
# 1 0.052728 -0.013571 -0.005991 0.000000 0.001759 -0.000001
# 2 -0.013571 0.023415 -0.001243 0.000000 -0.006723 0.000001
# 3 -0.005991 -0.001243 0.012045 0.000000 -0.003661 0.000000
# 4 0.000000 0.000000 0.000000 0.038902 0.000000 -0.012375
# 5 0.001759 -0.006723 -0.003661 0.000000 0.029981 0.000000
# 6 -0.000001 0.000001 0.000000 -0.012375 0.000000 0.116769
#
#
# Mechanical properties :
#
#
# Convention : Reuss Voigt Hill
#
# Bulk Modulus (GPa) = 21.47047 30.97929 26.22488
# Shear Modulus (GPa) = 15.10676 23.32636 19.21656
#
# Velocity S-wave (km/s) = 2.70291 3.35868 3.04848
# Velocity P-wave (km/s) = 4.48600 5.47930 5.00734
#
# Compressibility (1/GPa) = 0.04657560
#
# Stress axis : x y z
#
# Youngs Moduli (GPa) = 18.96517 42.70824 83.02442
#
# Poissons Ratio (x) = 0.57961 0.49741
# Poissons Ratio (y) = 0.25738 0.10323
# Poissons Ratio (z) = 0.11362 0.05310
#
# Static dielectric constant tensor:
#      x y z
#    x 3.825770 0.000000 0.114350 
#    y 0.000000 3.521940 0.000000 
#    z 0.114350 0.000000 4.202730 
# 
# 
# High freq. dielectric constant tensor:
#      x y z
#    x 1.810440 0.000000 0.003650 
#    y 0.000000 1.795750 0.000000 
#    z 0.003650 0.000000 1.833260 
# 
# From -- ./inp_files/138510.got.cif
#   From: 2010.06.25/outbox.cif.g09.slc.cpg/sg15_70_cif.got.tgz:138510.got - 2010.06.28 07:06:18.
