data_PCOD8142236
_publ_section_title
;
Structure prediction by ZEFSAII (Michael W. Deem and Ramdas Pophale) SiO2 
 PCOD8142236
Probable space group: C 2/C
;
_chemical_formula_sum "Si O2"
_cell_formula_units_Z 56
_cell_length_a 23.521807
_cell_length_b 8.433880
_cell_length_c 34.385167
_cell_angle_alpha 90.000000
_cell_angle_beta 157.723824
_cell_angle_gamma 90.000000
_cell_volume 2585.772291
_symmetry_space_group_name_H-M "C 2/C"
_symmetry_group_IT_number 15
_symmetry_cell_setting 'monoclinic'
loop_
_space_group_symop_operation_xyz
x,y,z
-x,y,1/2-z
-x,-y,-z
x,-y,1/2+z
1/2+x,1/2+y,z
1/2-x,1/2+y,1/2-z
1/2-x,1/2-y,-z
1/2+x,1/2-y,1/2+z
loop_
_atom_site_type_symbol
_atom_site_label
_atom_site_fract_x
_atom_site_fract_y
_atom_site_fract_z
Si Si1 0.558057 0.066136 0.378185
Si Si2 0.599194 0.909614 0.031366
Si Si3 0.763713 0.895013 0.858593
Si Si4 0.640747 0.164996 0.996794
Si Si5 0.879403 0.105583 0.353498
Si Si6 0.666679 0.956413 0.371741
Si Si7 0.563870 0.267318 0.137121
O O1 0.394515 0.041765 0.256541
O O2 0.556213 0.222065 0.404628
O O3 0.605477 0.912918 0.433094
O O4 0.669629 0.073459 0.411445
O O5 0.727116 0.797748 0.131808
O O6 0.491202 0.790352 0.939633
O O7 0.500000 0.000000 0.000000
O O8 0.680630 0.033198 0.054373
O O9 0.886626 0.946168 0.903861
O O10 0.786107 0.974984 0.915573
O O11 0.493035 0.255049 0.916925
O O12 0.781728 0.281887 0.082594
O O13 0.714729 0.171824 0.241157
O O14 0.912607 0.955442 0.347106
O O15 0.500000 0.943668 0.250000
#
# Coordination Sequence:
#
# PCOD8142236 Si02
#       7
#     8   8   8   8   8   8   8
#     4   9  21  42  62  87 124 173 213 253 302 377
#     4  11  22  37  58  95 130 154 199 260 320 379
#     4  10  21  38  64  89 127 164 203 262 319 374
#     4  11  22  40  64  92 128 161 211 263 313 378
#     4  11  21  38  61  95 123 165 204 257 324 376
#     4  10  22  42  64  90 125 171 216 258 308 366
#     4  10  22  36  60  90 127 163 206 252 316 375
#
# _framework density 21.656973000000001
#
# number of rings (size 3 to 8) (size 9 to 14) (size 15 to 20)
#    0.000    1.714    1.429    3.857    4.000    1.143 
#    0.000   10.000    0.000    0.000    0.000    0.000 
#    0.000    0.000    0.000    0.000    0.000    0.000 
#
# Total GULP energy -347032.887143 kJ/mol
# GULP energy per Si atom -12394.031684 kJ/mol
# Density = 2.160768 g / cm^3
# Si number density = 21.656973 Si / 1000 Ang^3
#
#
#
# Elastic Constant Matrix: (Units=GPa)
#
#
# Indices 1 2 3 4 5 6 
#
# 1 146.4347 47.5593 31.8078 -0.0048 -19.4994 0.0041
# 2 47.5593 120.9541 28.4666 -0.0038 -7.5836 0.0018
# 3 31.8078 28.4666 46.1304 -0.0026 -10.4860 0.0581
# 4 -0.0048 -0.0038 -0.0026 35.9182 -0.0048 -2.4547
# 5 -19.4994 -7.5836 -10.4860 -0.0048 23.1084 -0.0049
# 6 0.0041 0.0018 0.0581 -2.4547 -0.0049 29.2583
#
#
#
# Elastic Compliance Matrix: (Units=1/GPa)
#
#
# Indices 1 2 3 4 5 6 
#
# 1 0.009088 -0.002399 -0.003592 0.000002 0.005251 0.000007
# 2 -0.002399 0.010311 -0.004906 0.000001 -0.000866 0.000009
# 3 -0.003592 -0.004906 0.029132 -0.000002 0.008578 -0.000056
# 4 0.000002 0.000001 -0.000002 0.028002 0.000007 0.002349
# 5 0.005251 -0.000866 0.008578 0.000007 0.051313 -0.000008
# 6 0.000007 0.000009 -0.000056 0.002349 -0.000008 0.034376
#
#
# Mechanical properties :
#
#
# Convention : Reuss Voigt Hill
#
# Bulk Modulus (GPa) = 37.40130 58.79850 48.09990
# Shear Modulus (GPa) = 25.91657 31.36937 28.64297
#
# Velocity S-wave (km/s) = 3.46307 3.81000 3.64067
# Velocity P-wave (km/s) = 5.77042 6.82376 6.31908
#
# Compressibility (1/GPa) = 0.02673704
#
# Stress axis : x y z
#
# Youngs Moduli (GPa) = 110.04105 96.98381 34.32649
#
# Poissons Ratio (x) = 0.23262 0.12331
# Poissons Ratio (y) = 0.26394 0.16840
# Poissons Ratio (z) = 0.39530 0.47579
#
# Static dielectric constant tensor:
#      x y z
#    x 4.486050 -0.000040 -0.299440 
#    y -0.000040 3.895640 -0.000090 
#    z -0.299440 -0.000090 3.821130 
# 
# 
# High freq. dielectric constant tensor:
#      x y z
#    x 1.864370 0.000000 -0.016920 
#    y 0.000000 1.844830 0.000000 
#    z -0.016920 0.000000 1.844020 
# 
# From -- ./inp_files/317562.got.cif
#   From: 2010.06.25/outbox.cif.g09.slc.cpg/sg15_159_cif.got.tgz:317562.got - 2010.06.28 07:06:18.
