data_PCOD8142251
_publ_section_title
;
Structure prediction by ZEFSAII (Michael W. Deem and Ramdas Pophale) SiO2 
 PCOD8142251
Probable space group: C 2/C
;
_chemical_formula_sum "Si O2"
_cell_formula_units_Z 60
_cell_length_a 16.188062
_cell_length_b 9.163389
_cell_length_c 24.508621
_cell_angle_alpha 90.000000
_cell_angle_beta 125.361156
_cell_angle_gamma 90.000000
_cell_volume 2964.863157
_symmetry_space_group_name_H-M "C 2/C"
_symmetry_group_IT_number 15
_symmetry_cell_setting 'monoclinic'
loop_
_space_group_symop_operation_xyz
x,y,z
-x,y,1/2-z
-x,-y,-z
x,-y,1/2+z
1/2+x,1/2+y,z
1/2-x,1/2+y,1/2-z
1/2-x,1/2-y,-z
1/2+x,1/2-y,1/2+z
loop_
_atom_site_type_symbol
_atom_site_label
_atom_site_fract_x
_atom_site_fract_y
_atom_site_fract_z
Si Si1 0.110456 0.960508 0.131165
Si Si2 0.651462 0.269609 0.583991
Si Si3 0.360096 0.020625 0.838105
Si Si4 0.639581 0.579465 0.256613
Si Si5 0.843226 0.602573 0.712904
Si Si6 0.500000 0.652203 0.750000
Si Si7 0.529601 0.815436 0.934974
Si Si8 0.627824 0.140126 0.363469
O O1 0.103089 0.071130 0.077115
O O2 0.095706 0.059873 0.179166
O O3 0.221605 0.887058 0.173267
O O4 0.021061 0.842203 0.095695
O O5 0.654679 0.180296 0.641763
O O6 0.585358 0.186878 0.514007
O O7 0.765492 0.284113 0.606499
O O8 0.390055 0.029523 0.785535
O O9 0.259749 0.925957 0.803879
O O10 0.444114 0.937797 0.905154
O O11 0.610113 0.734682 0.272395
O O12 0.596784 0.446863 0.275372
O O13 0.877155 0.512656 0.672171
O O14 0.466725 0.756865 0.688245
O O15 0.612395 0.872514 0.922449
#
# Coordination Sequence:
#
# PCOD8142251 Si02
#       8
#     8   8   8   8   8   4   8   8
#     4  10  21  38  64  93 118 163 213 253 311 361
#     4  11  23  42  62  89 131 168 209 253 300 378
#     4  11  22  38  63  92 119 160 211 255 316 360
#     4  11  21  38  62  90 124 156 202 269 316 365
#     4  10  22  39  63  90 127 154 199 271 314 365
#     4  12  22  36  64  86 122 160 200 262 314 376
#     4  12  23  40  64  91 126 171 210 250 302 381
#     4  11  24  40  62  95 122 162 208 254 318 370
#
# _framework density 20.237023000000001
#
# number of rings (size 3 to 8) (size 9 to 14) (size 15 to 20)
#    0.000    1.067    5.333    2.000    0.000    1.600 
#    0.000    0.000    0.000    0.800    0.000    0.000 
#    0.000    0.000    0.000    0.000    0.000    0.000 
#
# Total GULP energy -371928.798671 kJ/mol
# GULP energy per Si atom -12397.626622 kJ/mol
# Density = 2.019096 g / cm^3
# Si number density = 20.237023 Si / 1000 Ang^3
#
#
#
# Elastic Constant Matrix: (Units=GPa)
#
#
# Indices 1 2 3 4 5 6 
#
# 1 72.4323 24.2920 10.9771 0.0000 -10.5061 0.0000
# 2 24.2920 96.9822 16.0447 0.0000 0.1205 0.0000
# 3 10.9771 16.0447 71.0757 0.0000 -6.1705 0.0000
# 4 0.0000 0.0000 0.0000 27.7914 0.0000 5.3298
# 5 -10.5061 0.1205 -6.1705 0.0000 25.6313 0.0000
# 6 0.0000 0.0000 0.0000 5.3298 0.0000 30.7963
#
#
#
# Elastic Compliance Matrix: (Units=1/GPa)
#
#
# Indices 1 2 3 4 5 6 
#
# 1 0.016201 -0.003889 -0.001068 0.000000 0.006402 0.000000
# 2 -0.003889 0.011655 -0.002220 0.000000 -0.002183 0.000000
# 3 -0.001068 -0.002220 0.015012 0.000000 0.003187 0.000000
# 4 0.000000 0.000000 0.000000 0.037218 0.000000 -0.006441
# 5 0.006402 -0.002183 0.003187 0.000000 0.042416 0.000000
# 6 0.000000 0.000000 0.000000 -0.006441 0.000000 0.033586
#
#
# Mechanical properties :
#
#
# Convention : Reuss Voigt Hill
#
# Bulk Modulus (GPa) = 35.07128 38.12422 36.59775
# Shear Modulus (GPa) = 27.78579 29.45554 28.62067
#
# Velocity S-wave (km/s) = 3.70945 3.81928 3.76476
# Velocity P-wave (km/s) = 5.97616 6.19103 6.08455
#
# Compressibility (1/GPa) = 0.02851336
#
# Stress axis : x y z
#
# Youngs Moduli (GPa) = 61.72533 85.79781 66.61206
#
# Poissons Ratio (x) = 0.33368 0.07117
# Poissons Ratio (y) = 0.24006 0.14788
# Poissons Ratio (z) = 0.06595 0.19047
#
# Static dielectric constant tensor:
#      x y z
#    x 3.586140 0.000000 0.014670 
#    y 0.000000 3.620770 0.000000 
#    z 0.014670 0.000000 3.507680 
# 
# 
# High freq. dielectric constant tensor:
#      x y z
#    x 1.788150 0.000000 0.002320 
#    y 0.000000 1.796820 0.000000 
#    z 0.002320 0.000000 1.778370 
# 
# From -- ./inp_files/247400.got.cif
#   From: 2010.06.25/outbox.cif.g09.slc.cpg/sg15_124_cif.got.tgz:247400.got - 2010.06.28 07:06:18.
