data_PCOD8142784
_publ_section_title
;
Structure prediction by ZEFSAII (Michael W. Deem and Ramdas Pophale) SiO2 
 PCOD8142784
Probable space group: C 2/C
;
_chemical_formula_sum "Si O2"
_cell_formula_units_Z 60
_cell_length_a 16.923872
_cell_length_b 30.913428
_cell_length_c 5.042651
_cell_angle_alpha 90.000000
_cell_angle_beta 80.584823
_cell_angle_gamma 90.000000
_cell_volume 2602.649030
_symmetry_space_group_name_H-M "C 2/C"
_symmetry_group_IT_number 15
_symmetry_cell_setting 'monoclinic'
loop_
_space_group_symop_operation_xyz
x,y,z
-x,y,1/2-z
-x,-y,-z
x,-y,1/2+z
1/2+x,1/2+y,z
1/2-x,1/2+y,1/2-z
1/2-x,1/2-y,-z
1/2+x,1/2-y,1/2+z
loop_
_atom_site_type_symbol
_atom_site_label
_atom_site_fract_x
_atom_site_fract_y
_atom_site_fract_z
Si Si1 0.434993 0.410049 0.969551
Si Si2 0.000000 0.836286 0.250000
Si Si3 0.207360 0.859534 0.642395
Si Si4 0.313998 0.125302 0.584375
Si Si5 0.945912 0.305293 0.032794
Si Si6 0.869321 0.974082 0.393776
Si Si7 0.088788 0.213137 0.327749
Si Si8 0.682670 0.027728 0.954459
O O1 0.500000 0.434974 0.750000
O O2 0.351772 0.400916 0.861261
O O3 0.473311 0.363949 0.012751
O O4 0.421008 0.434103 0.258390
O O5 0.922460 0.808013 0.374625
O O6 0.278116 0.862603 0.390055
O O7 0.160570 0.813314 0.644457
O O8 0.244518 0.866467 0.910177
O O9 0.388457 0.155937 0.480281
O O10 0.350773 0.076494 0.553248
O O11 0.891108 0.263910 0.149548
O O12 0.000000 0.320301 0.250000
O O13 0.000000 0.292655 0.750000
O O14 0.777187 0.964476 0.396948
O O15 0.890644 0.984865 0.687391
O O16 0.000000 0.209774 0.250000
O O17 0.653491 0.996563 0.734181
#
# Coordination Sequence:
#
# PCOD8142784 Si02
#       8
#     8   4   8   8   8   8   8   8
#     4  12  25  36  61  88 124 182 224 277 321 366
#     4  12  20  40  60  86 124 180 234 256 318 376
#     4  12  24  40  65 100 138 168 231 279 313 383
#     4  12  26  43  71 103 132 172 215 284 336 377
#     4  11  26  48  74  99 135 172 213 264 341 427
#     4  10  24  39  56  83 123 170 222 274 325 371
#     4  11  23  40  66  94 134 188 225 262 320 385
#     4  10  21  39  65  92 128 172 214 261 330 407
#
# _framework density 23.053436999999999
#
# number of rings (size 3 to 8) (size 9 to 14) (size 15 to 20)
#    0.000    0.800    4.667    2.400    5.600    1.600 
#    0.000    0.000    0.000    2.400    0.000    0.000 
#    0.000    0.000    0.000    0.000    0.000    0.000 
#
# Total GULP energy -371940.117943 kJ/mol
# GULP energy per Si atom -12398.003931 kJ/mol
# Density = 2.300097 g / cm^3
# Si number density = 23.053437 Si / 1000 Ang^3
#
#
#
# Elastic Constant Matrix: (Units=GPa)
#
#
# Indices 1 2 3 4 5 6 
#
# 1 42.0447 29.3531 0.7165 0.0000 3.7719 0.0000
# 2 29.3531 144.9495 -5.0938 0.0000 -1.5723 0.0000
# 3 0.7165 -5.0938 61.6839 0.0000 5.4461 0.0000
# 4 0.0000 0.0000 0.0000 30.4287 0.0000 -5.6132
# 5 3.7719 -1.5723 5.4461 0.0000 24.4261 0.0000
# 6 0.0000 0.0000 0.0000 -5.6132 0.0000 30.9451
#
#
#
# Elastic Compliance Matrix: (Units=1/GPa)
#
#
# Indices 1 2 3 4 5 6 
#
# 1 0.028246 -0.005784 -0.000396 0.000000 -0.004646 0.000000
# 2 -0.005784 0.008106 0.000624 0.000000 0.001276 0.000000
# 3 -0.000396 0.000624 0.016585 0.000000 -0.003597 0.000000
# 4 0.000000 0.000000 0.000000 0.034001 0.000000 0.006168
# 5 -0.004646 0.001276 -0.003597 0.000000 0.042541 0.000000
# 6 0.000000 0.000000 0.000000 0.006168 0.000000 0.033434
#
#
# Mechanical properties :
#
#
# Convention : Reuss Voigt Hill
#
# Bulk Modulus (GPa) = 23.90881 33.18108 28.54494
# Shear Modulus (GPa) = 26.60029 32.07347 29.33688
#
# Velocity S-wave (km/s) = 3.40053 3.73401 3.57117
# Velocity P-wave (km/s) = 5.08052 5.74586 5.42340
#
# Compressibility (1/GPa) = 0.04182559
#
# Stress axis : x y z
#
# Youngs Moduli (GPa) = 35.40324 123.36432 60.29411
#
# Poissons Ratio (x) = 0.71357 0.02385
# Poissons Ratio (y) = 0.20478 -0.03762
# Poissons Ratio (z) = 0.01400 -0.07697
#
# Static dielectric constant tensor:
#      x y z
#    x 3.676440 0.000000 0.075610 
#    y 0.000000 4.265260 0.000000 
#    z 0.075610 0.000000 4.264490 
# 
# 
# High freq. dielectric constant tensor:
#      x y z
#    x 1.865060 0.000000 0.010570 
#    y 0.000000 1.921020 0.000000 
#    z 0.010570 0.000000 1.927510 
# 
# From -- ./inp_files/11989.got.cif
#   From: 2010.06.25/outbox.cif.g09.slc.cpg/sg15_6_cif.got.tgz:11989.got - 2010.06.28 07:06:18.
