data_PCOD8142608
_publ_section_title
;
Structure prediction by ZEFSAII (Michael W. Deem and Ramdas Pophale) SiO2 
 PCOD8142608
Probable space group: C 2/C
;
_chemical_formula_sum "Si O2"
_cell_formula_units_Z 52
_cell_length_a 22.139813
_cell_length_b 14.621046
_cell_length_c 7.652107
_cell_angle_alpha 90.000000
_cell_angle_beta 99.111252
_cell_angle_gamma 90.000000
_cell_volume 2445.788800
_symmetry_space_group_name_H-M "C 2/C"
_symmetry_group_IT_number 15
_symmetry_cell_setting 'monoclinic'
loop_
_space_group_symop_operation_xyz
x,y,z
-x,y,1/2-z
-x,-y,-z
x,-y,1/2+z
1/2+x,1/2+y,z
1/2-x,1/2+y,1/2-z
1/2-x,1/2-y,-z
1/2+x,1/2-y,1/2+z
loop_
_atom_site_type_symbol
_atom_site_label
_atom_site_fract_x
_atom_site_fract_y
_atom_site_fract_z
Si Si1 0.717773 0.920452 0.062249
Si Si2 0.500000 0.463648 0.750000
Si Si3 0.500000 0.947527 0.250000
Si Si4 0.696658 0.320945 0.120766
Si Si5 0.238157 0.624445 0.181650
Si Si6 0.924989 0.400128 0.529183
Si Si7 0.563869 0.616612 0.568583
Si Si8 0.500000 0.239238 0.250000
O O1 0.750534 0.865993 0.234219
O O2 0.714517 0.029539 0.089426
O O3 0.751856 0.894221 0.894202
O O4 0.647270 0.891928 0.026374
O O5 0.542710 0.523134 0.646199
O O6 0.449178 0.398155 0.640353
O O7 0.461109 0.884755 0.363910
O O8 0.551800 0.004989 0.376767
O O9 0.691704 0.210972 0.146501
O O10 0.633729 0.366247 0.150521
O O11 0.705715 0.343417 0.917611
O O12 0.941802 0.319981 0.668960
O O13 0.520955 0.700190 0.598954
#
# Coordination Sequence:
#
# PCOD8142608 Si02
#       8
#     8   4   4   8   8   8   8   4
#     4  12  23  44  70  97 134 183 218 281 338 398
#     4   9  22  42  68  93 116 172 224 263 334 393
#     4   9  20  36  58  89 124 170 214 251 304 382
#     4  11  26  45  67 102 136 176 223 285 330 402
#     4  11  25  43  63 104 136 176 228 263 345 393
#     4  10  21  39  62  93 127 169 215 259 321 396
#     4  10  22  44  65  92 128 164 217 278 326 393
#     4  10  22  42  60  94 132 168 208 274 328 381
#
# _framework density 21.261033000000001
#
# number of rings (size 3 to 8) (size 9 to 14) (size 15 to 20)
#    0.000    1.538    1.538    2.308    2.154    3.077 
#   13.846    0.000    0.000    0.000    0.000    0.000 
#    0.000    0.000    0.000    0.000    0.000    0.000 
#
# Total GULP energy -322159.005626 kJ/mol
# GULP energy per Si atom -12390.730986 kJ/mol
# Density = 2.121264 g / cm^3
# Si number density = 21.261033 Si / 1000 Ang^3
#
#
#
# Elastic Constant Matrix: (Units=GPa)
#
#
# Indices 1 2 3 4 5 6 
#
# 1 99.9400 40.5908 36.3058 0.0000 18.6023 0.0000
# 2 40.5908 134.4767 47.7504 0.0000 9.3983 0.0000
# 3 36.3058 47.7504 111.5963 0.0000 -6.2665 0.0000
# 4 0.0000 0.0000 0.0000 11.4890 0.0000 -18.4209
# 5 18.6023 9.3983 -6.2665 0.0000 37.7617 0.0000
# 6 0.0000 0.0000 0.0000 -18.4209 0.0000 102.4688
#
#
#
# Elastic Compliance Matrix: (Units=1/GPa)
#
#
# Indices 1 2 3 4 5 6 
#
# 1 0.013574 -0.002267 -0.003826 0.000000 -0.006758 0.000000
# 2 -0.002267 0.009457 -0.003411 0.000000 -0.001803 0.000000
# 3 -0.003826 -0.003411 0.011930 0.000000 0.004713 0.000000
# 4 0.000000 0.000000 0.000000 0.122287 0.000000 0.021984
# 5 -0.006758 -0.001803 0.004713 0.000000 0.031042 0.000000
# 6 0.000000 0.000000 0.000000 0.021984 0.000000 0.013711
#
#
# Mechanical properties :
#
#
# Convention : Reuss Voigt Hill
#
# Bulk Modulus (GPa) = 62.67472 66.14523 64.40998
# Shear Modulus (GPa) = 22.09208 45.10165 33.59687
#
# Velocity S-wave (km/s) = 3.22699 4.61079 3.97950
# Velocity P-wave (km/s) = 6.58994 7.71520 7.17466
#
# Compressibility (1/GPa) = 0.01595540
#
# Stress axis : x y z
#
# Youngs Moduli (GPa) = 73.66904 105.73690 83.82566
#
# Poissons Ratio (x) = 0.23965 0.32070
# Poissons Ratio (y) = 0.16697 0.28589
# Poissons Ratio (z) = 0.28184 0.36062
#
# Static dielectric constant tensor:
#      x y z
#    x 3.105800 0.000000 -0.347190 
#    y 0.000000 3.948020 0.000000 
#    z -0.347190 0.000000 4.108910 
# 
# 
# High freq. dielectric constant tensor:
#      x y z
#    x 1.818840 0.000000 -0.013050 
#    y 0.000000 1.841660 0.000000 
#    z -0.013050 0.000000 1.843530 
# 
# From -- ./inp_files/55409.got.cif
#   From: 2010.06.25/outbox.cif.g09.slc.cpg/sg15_28_cif.got.tgz:55409.got - 2010.06.28 07:06:18.
