data_PCOD8142262
_publ_section_title
;
Structure prediction by ZEFSAII (Michael W. Deem and Ramdas Pophale) SiO2 
 PCOD8142262
Probable space group: C 2/C
;
_chemical_formula_sum "Si O2"
_cell_formula_units_Z 64
_cell_length_a 8.903612
_cell_length_b 28.596055
_cell_length_c 22.576959
_cell_angle_alpha 90.000000
_cell_angle_beta 32.595187
_cell_angle_gamma 90.000000
_cell_volume 3096.597663
_symmetry_space_group_name_H-M "C 2/C"
_symmetry_group_IT_number 15
_symmetry_cell_setting 'monoclinic'
loop_
_space_group_symop_operation_xyz
x,y,z
-x,y,1/2-z
-x,-y,-z
x,-y,1/2+z
1/2+x,1/2+y,z
1/2-x,1/2+y,1/2-z
1/2-x,1/2-y,-z
1/2+x,1/2-y,1/2+z
loop_
_atom_site_type_symbol
_atom_site_label
_atom_site_fract_x
_atom_site_fract_y
_atom_site_fract_z
Si Si1 0.686042 0.096131 0.745287
Si Si2 0.142444 0.950336 0.019750
Si Si3 0.049673 0.371264 0.634890
Si Si4 0.741899 0.551614 0.966486
Si Si5 0.581324 0.367403 0.878895
Si Si6 0.092515 0.232036 0.109766
Si Si7 0.387028 0.692231 0.722876
Si Si8 0.911353 0.292856 0.971414
O O1 0.500000 0.108105 0.750000
O O2 0.542147 0.060095 0.837978
O O3 0.722297 0.144105 0.769153
O O4 0.965797 0.070075 0.632789
O O5 0.983065 0.951344 0.010632
O O6 0.399204 0.915235 0.925146
O O7 0.246239 0.002671 0.000952
O O8 0.311892 0.357465 0.589700
O O9 0.981669 0.327150 0.615951
O O10 0.809172 0.388438 0.758798
O O11 0.666859 0.594526 0.035504
O O12 0.502418 0.319460 0.874643
O O13 0.830438 0.264783 0.217790
O O14 0.250000 0.250000 0.000000
O O15 0.314635 0.227329 0.088322
O O16 0.500000 0.701043 0.750000
O O17 0.669813 0.684523 0.591588
O O18 0.750000 0.250000 0.000000
#
# Coordination Sequence:
#
# PCOD8142262 Si02
#       8
#     8   8   8   8   8   8   8   8
#     4  10  21  38  64  94 126 166 216 265 322 388
#     4   9  18  35  58  94 126 161 207 265 319 378
#     4  10  21  39  61  90 127 167 210 261 316 383
#     4   9  19  33  60  94 128 160 207 266 325 376
#     4  10  22  38  61  90 128 167 210 261 321 377
#     4  12  25  42  65  93 128 169 218 263 319 389
#     4  12  26  43  65  92 128 174 214 271 328 386
#     4  12  26  42  64  93 127 169 219 265 324 389
#
# _framework density 20.667843999999999
#
# number of rings (size 3 to 8) (size 9 to 14) (size 15 to 20)
#    0.000    1.500    2.500    2.250    5.250    1.500 
#    0.000    0.000    0.000    3.000    0.000    0.000 
#    0.000    0.000    0.000    0.000    0.000    0.000 
#
# Total GULP energy -396576.353123 kJ/mol
# GULP energy per Si atom -12393.011035 kJ/mol
# Density = 2.062080 g / cm^3
# Si number density = 20.667844 Si / 1000 Ang^3
#
#
#
# Elastic Constant Matrix: (Units=GPa)
#
#
# Indices 1 2 3 4 5 6 
#
# 1 80.8833 41.4613 30.9402 -0.0002 -5.8018 0.0007
# 2 41.4613 159.7286 47.7959 -0.0001 -0.9556 0.0011
# 3 30.9402 47.7959 108.5664 -0.0017 7.8376 -0.0041
# 4 -0.0002 -0.0001 -0.0017 36.9398 -0.0005 5.2066
# 5 -5.8018 -0.9556 7.8376 -0.0005 24.9355 0.0008
# 6 0.0007 0.0011 -0.0041 5.2066 0.0008 -2.1873
#
#
#
# Elastic Compliance Matrix: (Units=1/GPa)
#
#
# Indices 1 2 3 4 5 6 
#
# 1 0.015536 -0.002973 -0.003450 -0.000001 0.004585 0.000009
# 2 -0.002973 0.007821 -0.002627 -0.000001 0.000434 0.000006
# 3 -0.003450 -0.002627 0.011681 0.000003 -0.004575 -0.000019
# 4 -0.000001 -0.000001 0.000003 0.020270 -0.000002 0.048250
# 5 0.004585 0.000434 -0.004575 -0.000002 0.042625 0.000020
# 6 0.000009 0.000006 -0.000019 0.048250 0.000020 -0.342330
#
#
# Mechanical properties :
#
#
# Convention : Reuss Voigt Hill
#
# Bulk Modulus (GPa) = 59.03857 65.50812 62.27334
# Shear Modulus (GPa) = -22.66029 27.20300 2.27136
#
# Velocity S-wave (km/s) = -3.31479 3.63188 1.04946
# Velocity P-wave (km/s) = 3.73858 7.02509 5.62712
#
# Compressibility (1/GPa) = 0.01693808
#
# Stress axis : x y z
#
# Youngs Moduli (GPa) = 64.36656 127.85948 85.60927
#
# Poissons Ratio (x) = 0.38013 0.29533
# Poissons Ratio (y) = 0.19136 0.22492
# Poissons Ratio (z) = 0.22205 0.33592
#
# Static dielectric constant tensor:
#      x y z
#    x 3.470710 0.000000 0.035740 
#    y 0.000000 3.823510 -0.000030 
#    z 0.035740 -0.000030 3.670580 
# 
# 
# High freq. dielectric constant tensor:
#      x y z
#    x 1.774820 0.000000 0.012760 
#    y 0.000000 1.816780 0.000000 
#    z 0.012760 0.000000 1.824720 
# 
# From -- ./inp_files/266735.got.cif
#   From: 2010.06.25/outbox.cif.g09.slc.cpg/sg15_134_cif.got.tgz:266735.got - 2010.06.28 07:06:18.
