data_PCOD8142105
_publ_section_title
;
Structure prediction by ZEFSAII (Michael W. Deem and Ramdas Pophale) SiO2 
 PCOD8142105
Probable space group: C 2/C
;
_chemical_formula_sum "Si O2"
_cell_formula_units_Z 56
_cell_length_a 11.900717
_cell_length_b 14.014138
_cell_length_c 17.365691
_cell_angle_alpha 90.000000
_cell_angle_beta 109.745922
_cell_angle_gamma 90.000000
_cell_volume 2725.922690
_symmetry_space_group_name_H-M "C 2/C"
_symmetry_group_IT_number 15
_symmetry_cell_setting 'monoclinic'
loop_
_space_group_symop_operation_xyz
x,y,z
-x,y,1/2-z
-x,-y,-z
x,-y,1/2+z
1/2+x,1/2+y,z
1/2-x,1/2+y,1/2-z
1/2-x,1/2-y,-z
1/2+x,1/2-y,1/2+z
loop_
_atom_site_type_symbol
_atom_site_label
_atom_site_fract_x
_atom_site_fract_y
_atom_site_fract_z
Si Si1 0.766213 0.475180 0.071934
Si Si2 0.348268 0.443256 0.814820
Si Si3 0.324422 0.762309 0.246692
Si Si4 0.131415 0.877876 0.277986
Si Si5 0.471969 0.636803 0.023731
Si Si6 0.938094 0.691556 0.619332
Si Si7 0.192063 0.149582 0.965594
O O1 0.757710 0.511956 0.158037
O O2 0.885370 0.412611 0.087452
O O3 0.648080 0.414918 0.027407
O O4 0.776111 0.566345 0.018757
O O5 0.302789 0.343894 0.771033
O O6 0.378116 0.511802 0.750286
O O7 0.466079 0.424596 0.893927
O O8 0.203211 0.820212 0.229960
O O9 0.428122 0.817873 0.317270
O O10 0.353964 0.757940 0.163331
O O11 0.192603 0.865526 0.374623
O O12 0.000000 0.832965 0.250000
O O13 0.439104 0.743285 0.043610
O O14 0.559352 0.642813 0.970476
O O15 0.250000 0.250000 0.000000
#
# Coordination Sequence:
#
# PCOD8142105 Si02
#       7
#     8   8   8   8   8   8   8
#     4  11  20  39  63  93 118 162 208 258 303 376
#     4  10  21  38  62  88 125 157 209 254 317 362
#     4  10  23  41  61  90 122 165 200 258 314 358
#     4  12  23  40  66  95 121 160 218 260 302 377
#     4  10  21  39  60  93 122 162 204 259 310 367
#     4  10  21  39  66  85 126 160 206 253 308 370
#     4  11  24  41  62  87 136 170 199 255 328 372
#
# _framework density 20.543500999999999
#
# number of rings (size 3 to 8) (size 9 to 14) (size 15 to 20)
#    0.000    1.429    1.429    6.429    6.000    0.000 
#    0.000    5.714    0.000    0.000    0.000    0.000 
#    0.000    0.000    0.000    0.000    0.000    0.000 
#
# Total GULP energy -347286.634623 kJ/mol
# GULP energy per Si atom -12403.094094 kJ/mol
# Density = 2.049674 g / cm^3
# Si number density = 20.543501 Si / 1000 Ang^3
#
#
#
# Elastic Constant Matrix: (Units=GPa)
#
#
# Indices 1 2 3 4 5 6 
#
# 1 80.2972 42.0074 2.0827 0.0000 0.5585 0.0000
# 2 42.0074 99.2536 15.3767 0.0000 12.0127 0.0000
# 3 2.0827 15.3767 51.6684 0.0000 -11.5789 0.0000
# 4 0.0000 0.0000 0.0000 33.3728 0.0000 -1.0599
# 5 0.5585 12.0127 -11.5789 0.0000 25.4103 0.0000
# 6 0.0000 0.0000 0.0000 -1.0599 0.0000 36.3521
#
#
#
# Elastic Compliance Matrix: (Units=1/GPa)
#
#
# Indices 1 2 3 4 5 6 
#
# 1 0.016529 -0.007988 0.002757 0.000000 0.004669 0.000000
# 2 -0.007988 0.015736 -0.006670 0.000000 -0.010303 0.000000
# 3 0.002757 -0.006670 0.024414 0.000000 0.014218 0.000000
# 4 0.000000 0.000000 0.000000 0.029992 0.000000 0.000874
# 5 0.004669 -0.010303 0.014218 0.000000 0.050601 0.000000
# 6 0.000000 0.000000 0.000000 0.000874 0.000000 0.027534
#
#
# Mechanical properties :
#
#
# Convention : Reuss Voigt Hill
#
# Bulk Modulus (GPa) = 30.41545 38.90585 34.66065
# Shear Modulus (GPa) = 25.05426 30.47721 27.76574
#
# Velocity S-wave (km/s) = 3.49602 3.85586 3.68034
# Velocity P-wave (km/s) = 5.57976 6.22920 5.91340
#
# Compressibility (1/GPa) = 0.03287803
#
# Stress axis : x y z
#
# Youngs Moduli (GPa) = 60.50154 63.54770 40.95956
#
# Poissons Ratio (x) = 0.50760 -0.11294
# Poissons Ratio (y) = 0.48327 0.27320
# Poissons Ratio (z) = -0.16682 0.42387
#
# Static dielectric constant tensor:
#      x y z
#    x 3.709800 0.000000 -0.202020 
#    y 0.000000 3.889090 0.000000 
#    z -0.202020 0.000000 4.014930 
# 
# 
# High freq. dielectric constant tensor:
#      x y z
#    x 1.794540 0.000000 -0.014950 
#    y 0.000000 1.808780 0.000000 
#    z -0.014950 0.000000 1.800630 
# 
# From -- ./inp_files/237611.got.cif
#   From: 2010.06.25/outbox.cif.g09.slc.cpg/sg15_119_cif.got.tgz:237611.got - 2010.06.28 07:06:18.
