data_PCOD8142213
_publ_section_title
;
Structure prediction by ZEFSAII (Michael W. Deem and Ramdas Pophale) SiO2 
 PCOD8142213
Probable space group: C 2/C
;
_chemical_formula_sum "Si O2"
_cell_formula_units_Z 36
_cell_length_a 5.396979
_cell_length_b 19.149515
_cell_length_c 13.818555
_cell_angle_alpha 90.000000
_cell_angle_beta 106.261799
_cell_angle_gamma 90.000000
_cell_volume 1371.004395
_symmetry_space_group_name_H-M "C 2/C"
_symmetry_group_IT_number 15
_symmetry_cell_setting 'monoclinic'
loop_
_space_group_symop_operation_xyz
x,y,z
-x,y,1/2-z
-x,-y,-z
x,-y,1/2+z
1/2+x,1/2+y,z
1/2-x,1/2+y,1/2-z
1/2-x,1/2-y,-z
1/2+x,1/2-y,1/2+z
loop_
_atom_site_type_symbol
_atom_site_label
_atom_site_fract_x
_atom_site_fract_y
_atom_site_fract_z
Si Si1 0.929803 0.693762 0.129312
Si Si2 0.432147 0.624271 0.133361
Si Si3 0.031693 0.848578 0.139425
Si Si4 0.734674 0.979709 0.092478
Si Si5 0.500000 0.079301 0.750000
O O1 0.636769 0.663888 0.085410
O O2 0.000000 0.690203 0.250000
O O3 0.135985 0.650769 0.086618
O O4 0.947205 0.773134 0.090982
O O5 0.500000 0.642206 0.250000
O O6 0.445192 0.541968 0.110844
O O7 0.332593 0.870128 0.159671
O O8 0.000000 0.852104 0.250000
O O9 0.860832 0.907838 0.068103
O O10 0.659212 0.971986 0.197460
O O11 0.500000 0.000000 0.000000
#
# Coordination Sequence:
#
# PCOD8142213 Si02
#       5
#     8   8   8   8   4
#     4   9  20  35  64  94 131 170 221 273 333 397
#     4  10  21  38  63  96 131 172 220 276 333 391
#     4   9  20  38  64  95 126 174 220 268 334 404
#     4  11  25  42  64  97 133 175 227 276 331 405
#     4  10  22  40  74  90 134 174 230 274 344 402
#
# _framework density 26.258120000000002
#
# number of rings (size 3 to 8) (size 9 to 14) (size 15 to 20)
#    0.000    2.222    0.000    2.000   18.667    0.889 
#    0.000    2.222    0.000    0.000    0.000    0.000 
#    0.000    0.000    0.000    0.000    0.000    0.000 
#
# Total GULP energy -223117.449784 kJ/mol
# GULP energy per Si atom -12395.413877 kJ/mol
# Density = 2.619836 g / cm^3
# Si number density = 26.258120 Si / 1000 Ang^3
#
#
#
# Elastic Constant Matrix: (Units=GPa)
#
#
# Indices 1 2 3 4 5 6 
#
# 1 158.8608 77.6663 22.2526 0.0000 36.0820 0.0000
# 2 77.6663 203.6719 25.6380 0.0000 16.3117 0.0000
# 3 22.2526 25.6380 31.2117 0.0000 -3.3779 0.0000
# 4 0.0000 0.0000 0.0000 16.7688 0.0000 11.1356
# 5 36.0820 16.3117 -3.3779 0.0000 28.4996 0.0000
# 6 0.0000 0.0000 0.0000 11.1356 0.0000 51.4273
#
#
#
# Elastic Compliance Matrix: (Units=1/GPa)
#
#
# Indices 1 2 3 4 5 6 
#
# 1 0.011932 -0.002340 -0.008179 0.000000 -0.014736 0.000000
# 2 -0.002340 0.006353 -0.003670 0.000000 -0.001108 0.000000
# 3 -0.008179 -0.003670 0.042782 0.000000 0.017527 0.000000
# 4 0.000000 0.000000 0.000000 0.069650 0.000000 -0.015081
# 5 -0.014736 -0.001108 0.017527 0.000000 0.056457 0.000000
# 6 0.000000 0.000000 0.000000 -0.015081 0.000000 0.022710
#
#
# Mechanical properties :
#
#
# Convention : Reuss Voigt Hill
#
# Bulk Modulus (GPa) = 30.59233 71.65093 51.12163
# Shear Modulus (GPa) = 20.06750 37.21827 28.64289
#
# Velocity S-wave (km/s) = 2.76749 3.76892 3.30634
# Velocity P-wave (km/s) = 4.67845 6.80339 5.83841
#
# Compressibility (1/GPa) = 0.03268793
#
# Stress axis : x y z
#
# Youngs Moduli (GPa) = 83.81061 157.40690 23.37412
#
# Poissons Ratio (x) = 0.36835 0.19119
# Poissons Ratio (y) = 0.19613 0.08578
# Poissons Ratio (z) = 0.68552 0.57769
#
# Static dielectric constant tensor:
#      x y z
#    x 8.102360 0.000000 3.159560 
#    y 0.000000 5.132530 0.000000 
#    z 3.159560 0.000000 7.299320 
# 
# 
# High freq. dielectric constant tensor:
#      x y z
#    x 2.050760 0.000000 0.008210 
#    y 0.000000 2.057280 0.000000 
#    z 0.008210 0.000000 2.043830 
# 
# From -- ./inp_files/184140.got.cif
#   From: 2010.06.25/outbox.cif.g09.slc.cpg/sg15_93_cif.got.tgz:184140.got - 2010.06.28 07:06:18.
