data_PCOD8142125
_publ_section_title
;
Structure prediction by ZEFSAII (Michael W. Deem and Ramdas Pophale) SiO2 
 PCOD8142125
Probable space group: C 2/C
;
_chemical_formula_sum "Si O2"
_cell_formula_units_Z 56
_cell_length_a 27.195012
_cell_length_b 7.779401
_cell_length_c 13.423094
_cell_angle_alpha 90.000000
_cell_angle_beta 67.407528
_cell_angle_gamma 90.000000
_cell_volume 2621.877489
_symmetry_space_group_name_H-M "C 2/C"
_symmetry_group_IT_number 15
_symmetry_cell_setting 'monoclinic'
loop_
_space_group_symop_operation_xyz
x,y,z
-x,y,1/2-z
-x,-y,-z
x,-y,1/2+z
1/2+x,1/2+y,z
1/2-x,1/2+y,1/2-z
1/2-x,1/2-y,-z
1/2+x,1/2-y,1/2+z
loop_
_atom_site_type_symbol
_atom_site_label
_atom_site_fract_x
_atom_site_fract_y
_atom_site_fract_z
Si Si1 0.918601 0.971004 0.043304
Si Si2 0.812377 0.094031 0.723159
Si Si3 0.553118 0.977632 0.396803
Si Si4 0.012534 0.859550 0.851265
Si Si5 0.861620 0.394585 0.794452
Si Si6 0.126342 0.685025 0.988396
Si Si7 0.199295 0.293568 0.257232
O O1 0.948792 0.004632 0.124626
O O2 0.861043 0.889996 0.107606
O O3 0.910708 0.144833 0.984713
O O4 0.955836 0.841571 0.952580
O O5 0.822911 0.235556 0.799796
O O6 0.759808 0.143657 0.702516
O O7 0.807495 0.903672 0.776562
O O8 0.543621 0.820153 0.328353
O O9 0.597544 0.957734 0.445784
O O10 0.500000 0.000000 0.500000
O O11 0.579306 0.124556 0.304270
O O12 0.000000 0.921728 0.750000
O O13 0.866552 0.392203 0.908676
O O14 0.836811 0.578497 0.780615
O O15 0.182562 0.714297 0.887457
#
# Coordination Sequence:
#
# PCOD8142125 Si02
#       7
#     8   8   8   8   8   8   8
#     4   9  21  41  59  94 130 164 214 263 314 373
#     4  11  21  42  68  92 130 172 206 265 322 376
#     4  10  22  40  59  90 129 161 209 267 309 374
#     4  10  21  38  62  90 127 169 206 261 314 377
#     4  11  23  41  68  92 124 178 208 256 328 381
#     4   9  22  41  61  91 132 165 211 266 313 376
#     4  10  22  44  64  94 134 160 214 270 315 376
#
# _framework density 21.358740000000001
#
# number of rings (size 3 to 8) (size 9 to 14) (size 15 to 20)
#    0.000    2.000    1.429    1.714    4.000    0.571 
#    0.000    3.571    0.000    0.000    0.000    0.000 
#    0.000    0.000    0.000    0.000    0.000    0.000 
#
# Total GULP energy -346970.013546 kJ/mol
# GULP energy per Si atom -12391.786198 kJ/mol
# Density = 2.131013 g / cm^3
# Si number density = 21.358740 Si / 1000 Ang^3
#
#
#
# Elastic Constant Matrix: (Units=GPa)
#
#
# Indices 1 2 3 4 5 6 
#
# 1 119.6162 35.6367 68.3683 0.0000 -10.3524 0.0000
# 2 35.6367 112.4605 31.7001 0.0000 10.4898 0.0000
# 3 68.3683 31.7001 106.6507 0.0000 15.2194 0.0000
# 4 0.0000 0.0000 0.0000 17.9130 0.0000 -13.5860
# 5 -10.3524 10.4898 15.2194 0.0000 41.3411 0.0000
# 6 0.0000 0.0000 0.0000 -13.5860 0.0000 26.1410
#
#
#
# Elastic Compliance Matrix: (Units=1/GPa)
#
#
# Indices 1 2 3 4 5 6 
#
# 1 0.016088 -0.002895 -0.010694 0.000000 0.008700 0.000000
# 2 -0.002895 0.010312 -0.000773 0.000000 -0.003057 0.000000
# 3 -0.010694 -0.000773 0.017748 0.000000 -0.009016 0.000000
# 4 0.000000 0.000000 0.000000 0.092148 0.000000 0.047892
# 5 0.008700 -0.003057 -0.009016 0.000000 0.030462 0.000000
# 6 0.000000 0.000000 0.000000 0.047892 0.000000 0.063144
#
#
# Mechanical properties :
#
#
# Convention : Reuss Voigt Hill
#
# Bulk Modulus (GPa) = 64.83406 67.79307 66.31356
# Shear Modulus (GPa) = 18.95591 30.61383 24.78487
#
# Velocity S-wave (km/s) = 2.98233 3.79002 3.41017
# Velocity P-wave (km/s) = 6.50229 7.13873 6.82793
#
# Compressibility (1/GPa) = 0.01542399
#
# Stress axis : x y z
#
# Youngs Moduli (GPa) = 62.15811 96.97003 56.34347
#
# Poissons Ratio (x) = 0.28073 0.60255
# Poissons Ratio (y) = 0.17995 0.04356
# Poissons Ratio (z) = 0.66473 0.07497
#
# Static dielectric constant tensor:
#      x y z
#    x 4.072580 0.000000 -0.541850 
#    y 0.000000 3.962740 0.000000 
#    z -0.541850 0.000000 4.236970 
# 
# 
# High freq. dielectric constant tensor:
#      x y z
#    x 1.842380 0.000000 -0.019850 
#    y 0.000000 1.838480 0.000000 
#    z -0.019850 0.000000 1.817260 
# 
# From -- ./inp_files/125824.got.cif
#   From: 2010.06.25/outbox.cif.g09.slc.cpg/sg15_63_cif.got.tgz:125824.got - 2010.06.28 07:06:18.
