data_PCOD8142637
_publ_section_title
;
Structure prediction by ZEFSAII (Michael W. Deem and Ramdas Pophale) SiO2 
 PCOD8142637
Probable space group: C 2/C
;
_chemical_formula_sum "Si O2"
_cell_formula_units_Z 52
_cell_length_a 8.449094
_cell_length_b 12.475929
_cell_length_c 25.800369
_cell_angle_alpha 90.000000
_cell_angle_beta 74.055400
_cell_angle_gamma 90.000000
_cell_volume 2614.994517
_symmetry_space_group_name_H-M "C 2/C"
_symmetry_group_IT_number 15
_symmetry_cell_setting 'monoclinic'
loop_
_space_group_symop_operation_xyz
x,y,z
-x,y,1/2-z
-x,-y,-z
x,-y,1/2+z
1/2+x,1/2+y,z
1/2-x,1/2+y,1/2-z
1/2-x,1/2-y,-z
1/2+x,1/2-y,1/2+z
loop_
_atom_site_type_symbol
_atom_site_label
_atom_site_fract_x
_atom_site_fract_y
_atom_site_fract_z
Si Si1 0.985950 0.340464 0.672056
Si Si2 0.837811 0.384823 0.945549
Si Si3 0.500000 0.255635 0.750000
Si Si4 0.791243 0.866978 0.174427
Si Si5 0.259827 0.122255 0.941738
Si Si6 0.759073 0.907623 0.724839
Si Si7 0.020836 0.751716 0.976385
O O1 0.938752 0.214876 0.673583
O O2 0.838508 0.410281 0.711147
O O3 0.021989 0.383787 0.611421
O O4 0.147331 0.352262 0.691768
O O5 0.788456 0.505609 0.963162
O O6 0.678361 0.316963 0.940755
O O7 0.915337 0.339787 0.990926
O O8 0.380618 0.179475 0.792012
O O9 0.415459 0.331248 0.715121
O O10 0.775486 0.890559 0.115491
O O11 0.823868 0.975947 0.202850
O O12 0.418989 0.197357 0.938550
O O13 0.096759 0.167577 0.982633
#
# Coordination Sequence:
#
# PCOD8142637 Si02
#       7
#     8   8   4   8   8   8   8
#     4  10  21  39  63  87 122 156 199 246 303 359
#     4  11  21  41  63  88 123 161 200 248 304 355
#     4  10  24  38  60  90 116 152 208 240 292 374
#     4  11  22  39  63  88 122 158 197 247 306 350
#     4  11  22  39  64  89 122 161 201 250 296 359
#     4  10  22  41  60  87 120 158 194 251 295 360
#     4  10  24  40  61  90 125 160 205 249 297 357
#
# _framework density 19.885318000000002
#
# number of rings (size 3 to 8) (size 9 to 14) (size 15 to 20)
#    0.000    1.538    3.077    1.846    2.154    2.462 
#    0.000    3.077    0.000    0.000    0.000    0.000 
#    0.000    0.000    0.000    0.000    0.000    0.000 
#
# Total GULP energy -322452.484215 kJ/mol
# GULP energy per Si atom -12402.018624 kJ/mol
# Density = 1.984006 g / cm^3
# Si number density = 19.885318 Si / 1000 Ang^3
#
#
#
# Elastic Constant Matrix: (Units=GPa)
#
#
# Indices 1 2 3 4 5 6 
#
# 1 30.3044 8.9243 -6.7301 0.0000 -3.3714 0.0000
# 2 8.9243 115.5309 28.5147 0.0000 -2.5290 0.0000
# 3 -6.7301 28.5147 65.2522 0.0000 -8.7332 0.0000
# 4 0.0000 0.0000 0.0000 22.5323 0.0000 0.6588
# 5 -3.3714 -2.5290 -8.7332 0.0000 17.7609 0.0000
# 6 0.0000 0.0000 0.0000 0.6588 0.0000 35.5055
#
#
#
# Elastic Compliance Matrix: (Units=1/GPa)
#
#
# Indices 1 2 3 4 5 6 
#
# 1 0.036947 -0.004376 0.007042 0.000000 0.009853 0.000000
# 2 -0.004376 0.010230 -0.005179 0.000000 -0.001921 0.000000
# 3 0.007042 -0.005179 0.019691 0.000000 0.010281 0.000000
# 4 0.000000 0.000000 0.000000 0.044405 0.000000 -0.000824
# 5 0.009853 -0.001921 0.010281 0.000000 0.062956 0.000000
# 6 0.000000 0.000000 0.000000 -0.000824 0.000000 0.028180
#
#
# Mechanical properties :
#
#
# Convention : Reuss Voigt Hill
#
# Bulk Modulus (GPa) = 16.17045 30.27836 23.22440
# Shear Modulus (GPa) = 21.92513 27.18497 24.55505
#
# Velocity S-wave (km/s) = 3.32411 3.70143 3.51783
# Velocity P-wave (km/s) = 4.78356 5.79025 5.31081
#
# Compressibility (1/GPa) = 0.06184120
#
# Stress axis : x y z
#
# Youngs Moduli (GPa) = 27.06554 97.75258 50.78568
#
# Poissons Ratio (x) = 0.42780 -0.35763
# Poissons Ratio (y) = 0.11845 0.26301
# Poissons Ratio (z) = -0.19059 0.50624
#
# Static dielectric constant tensor:
#      x y z
#    x 3.787830 0.000000 -0.128640 
#    y 0.000000 3.714530 0.000000 
#    z -0.128640 0.000000 3.754210 
# 
# 
# High freq. dielectric constant tensor:
#      x y z
#    x 1.779360 0.000000 -0.001660 
#    y 0.000000 1.783770 0.000000 
#    z -0.001660 0.000000 1.773540 
# 
# From -- ./inp_files/287562.got.cif
#   From: 2010.06.25/outbox.cif.g09.slc.cpg/sg15_144_cif.got.tgz:287562.got - 2010.06.28 07:06:18.
