data_PCOD8142958
_publ_section_title
;
Structure prediction by ZEFSAII (Michael W. Deem and Ramdas Pophale) SiO2 
 PCOD8142958
Probable space group: C 2/C
;
_chemical_formula_sum "Si O2"
_cell_formula_units_Z 44
_cell_length_a 10.822310
_cell_length_b 20.843178
_cell_length_c 10.130850
_cell_angle_alpha 90.000000
_cell_angle_beta 109.815411
_cell_angle_gamma 90.000000
_cell_volume 2149.920056
_symmetry_space_group_name_H-M "C 2/C"
_symmetry_group_IT_number 15
_symmetry_cell_setting 'monoclinic'
loop_
_space_group_symop_operation_xyz
x,y,z
-x,y,1/2-z
-x,-y,-z
x,-y,1/2+z
1/2+x,1/2+y,z
1/2-x,1/2+y,1/2-z
1/2-x,1/2-y,-z
1/2+x,1/2-y,1/2+z
loop_
_atom_site_type_symbol
_atom_site_label
_atom_site_fract_x
_atom_site_fract_y
_atom_site_fract_z
Si Si1 0.106509 0.735056 0.582470
Si Si2 0.226507 0.049223 0.001058
Si Si3 0.216694 0.933858 0.806084
Si Si4 0.002069 0.616251 0.399593
Si Si5 0.139535 0.822217 0.357681
Si Si6 0.500000 0.328083 0.750000
O O1 0.164794 0.784826 0.500473
O O2 0.238025 0.700375 0.692957
O O3 0.012711 0.778047 0.636713
O O4 0.015662 0.678575 0.494344
O O5 0.141720 0.103508 0.897796
O O6 0.182462 0.986397 0.904635
O O7 0.192219 0.042650 0.145490
O O8 0.380609 0.065041 0.038795
O O9 0.367761 0.918291 0.886716
O O10 0.129028 0.871939 0.807952
O O11 0.000000 0.642071 0.250000
O O12 0.000000 0.802942 0.250000
#
# Coordination Sequence:
#
# PCOD8142958 Si02
#       6
#     8   8   8   8   8   4
#     4  10  22  41  60  94 125 159 210 257 311 384
#     4  10  22  43  65  93 124 163 218 257 309 377
#     4  11  24  42  64  91 131 168 207 262 312 369
#     4   9  20  42  70  91 119 164 208 264 315 368
#     4  10  21  39  69  88 117 165 213 257 312 374
#     4  12  26  40  56  92 136 158 206 256 312 374
#
# _framework density 20.465876000000002
#
# number of rings (size 3 to 8) (size 9 to 14) (size 15 to 20)
#    0.000    1.818    1.818    1.091    6.364    2.909 
#    6.545    0.000    0.000    0.000    0.000    0.000 
#    0.000    0.000    0.000    0.000    0.000    0.000 
#
# Total GULP energy -272580.893534 kJ/mol
# GULP energy per Si atom -12390.040615 kJ/mol
# Density = 2.041929 g / cm^3
# Si number density = 20.465876 Si / 1000 Ang^3
#
#
#
# Elastic Constant Matrix: (Units=GPa)
#
#
# Indices 1 2 3 4 5 6 
#
# 1 66.7113 21.8672 48.0186 0.0000 -5.6327 0.0000
# 2 21.8672 112.9513 62.5089 0.0000 -14.8992 0.0000
# 3 48.0186 62.5089 80.7314 0.0000 -6.4816 0.0000
# 4 0.0000 0.0000 0.0000 40.0875 0.0000 -7.5236
# 5 -5.6327 -14.8992 -6.4816 0.0000 29.9034 0.0000
# 6 0.0000 0.0000 0.0000 -7.5236 0.0000 31.1044
#
#
#
# Elastic Compliance Matrix: (Units=1/GPa)
#
#
# Indices 1 2 3 4 5 6 
#
# 1 0.029491 0.007663 -0.023125 0.000000 0.004361 0.000000
# 2 0.007663 0.018323 -0.018214 0.000000 0.006625 0.000000
# 3 -0.023125 -0.018214 0.039859 0.000000 -0.004791 0.000000
# 4 0.000000 0.000000 0.000000 0.026132 0.000000 0.006321
# 5 0.004361 0.006625 -0.004791 0.000000 0.036525 0.000000
# 6 0.000000 0.000000 0.000000 0.006321 0.000000 0.033679
#
#
# Mechanical properties :
#
#
# Convention : Reuss Voigt Hill
#
# Bulk Modulus (GPa) = 49.20379 58.35372 53.77876
# Shear Modulus (GPa) = 19.36979 28.75235 24.06107
#
# Velocity S-wave (km/s) = 3.07977 3.75226 3.43252
# Velocity P-wave (km/s) = 6.06141 6.88093 6.48413
#
# Compressibility (1/GPa) = 0.02032364
#
# Stress axis : x y z
#
# Youngs Moduli (GPa) = 33.90822 54.57511 25.08838
#
# Poissons Ratio (x) = -0.41823 0.58016
# Poissons Ratio (y) = -0.25985 0.45695
# Poissons Ratio (z) = 0.78412 0.99401
#
# Static dielectric constant tensor:
#      x y z
#    x 3.545370 0.000000 0.069860 
#    y 0.000000 3.782840 0.000000 
#    z 0.069860 0.000000 3.526400 
# 
# 
# High freq. dielectric constant tensor:
#      x y z
#    x 1.808700 0.000000 0.010140 
#    y 0.000000 1.812140 0.000000 
#    z 0.010140 0.000000 1.777790 
# 
# From -- ./inp_files/30715.got.cif
#   From: 2010.06.25/outbox.cif.g09.slc.cpg/sg15_16_cif.got.tgz:30715.got - 2010.06.28 07:06:18.
