data_PCOD8142713
_publ_section_title
;
Structure prediction by ZEFSAII (Michael W. Deem and Ramdas Pophale) SiO2 
 PCOD8142713
Probable space group: C 2/C
;
_chemical_formula_sum "Si O2"
_cell_formula_units_Z 48
_cell_length_a 8.381656
_cell_length_b 28.901532
_cell_length_c 12.843604
_cell_angle_alpha 90.000000
_cell_angle_beta 134.713121
_cell_angle_gamma 90.000000
_cell_volume 2210.987358
_symmetry_space_group_name_H-M "C 2/C"
_symmetry_group_IT_number 15
_symmetry_cell_setting 'monoclinic'
loop_
_space_group_symop_operation_xyz
x,y,z
-x,y,1/2-z
-x,-y,-z
x,-y,1/2+z
1/2+x,1/2+y,z
1/2-x,1/2+y,1/2-z
1/2-x,1/2-y,-z
1/2+x,1/2-y,1/2+z
loop_
_atom_site_type_symbol
_atom_site_label
_atom_site_fract_x
_atom_site_fract_y
_atom_site_fract_z
Si Si1 0.254512 0.945635 0.598208
Si Si2 0.411969 0.184149 0.828088
Si Si3 0.800041 0.124652 0.081348
Si Si4 0.251837 0.269279 0.886771
Si Si5 0.510582 0.640016 0.549097
Si Si6 0.108893 0.974072 0.899510
O O1 0.500000 0.932439 0.750000
O O2 0.160614 0.900274 0.493098
O O3 0.093600 0.958011 0.619493
O O4 0.273656 0.989706 0.530652
O O5 0.500000 0.191507 0.750000
O O6 0.356852 0.233898 0.851363
O O7 0.182484 0.153897 0.720463
O O8 0.584083 0.158549 0.986934
O O9 0.751403 0.070305 0.082895
O O10 0.000000 0.143006 0.250000
O O11 0.853975 0.120222 0.985099
O O12 0.000000 0.283443 0.750000
O O13 0.250000 0.250000 0.000000
O O14 0.393698 0.315385 0.947065
O O15 0.000000 0.999640 0.750000
#
# Coordination Sequence:
#
# PCOD8142713 Si02
#       6
#     8   8   8   8   8   8
#     4  10  21  39  64  88 124 166 205 255 310 365
#     4  10  23  43  65  90 121 168 212 254 312 373
#     4   9  20  37  65  92 120 158 209 256 301 364
#     4  12  25  43  61  89 130 163 204 262 314 368
#     4  10  22  41  59  88 123 161 209 253 307 373
#     4   9  20  40  59  92 126 156 204 258 309 365
#
# _framework density 21.709757
#
# number of rings (size 3 to 8) (size 9 to 14) (size 15 to 20)
#    0.000    2.000    1.667    0.500    2.333    8.667 
#    6.000    0.000    0.000    0.000    0.000    0.000 
#    0.000    0.000    0.000    0.000    0.000    0.000 
#
# Total GULP energy -297389.990607 kJ/mol
# GULP energy per Si atom -12391.249609 kJ/mol
# Density = 2.166034 g / cm^3
# Si number density = 21.709757 Si / 1000 Ang^3
#
#
#
# Elastic Constant Matrix: (Units=GPa)
#
#
# Indices 1 2 3 4 5 6 
#
# 1 32.4292 25.1107 18.8388 0.0000 1.8954 0.0000
# 2 25.1107 128.4191 68.3182 0.0000 16.3048 0.0000
# 3 18.8388 68.3182 164.1388 0.0000 22.0047 0.0000
# 4 0.0000 0.0000 0.0000 35.0348 0.0000 -1.8151
# 5 1.8954 16.3048 22.0047 0.0000 36.5067 0.0000
# 6 0.0000 0.0000 0.0000 -1.8151 0.0000 12.4613
#
#
#
# Elastic Compliance Matrix: (Units=1/GPa)
#
#
# Indices 1 2 3 4 5 6 
#
# 1 0.036793 -0.006503 -0.001794 0.000000 0.002076 0.000000
# 2 -0.006503 0.011306 -0.003620 0.000000 -0.002530 0.000000
# 3 -0.001794 -0.003620 0.008242 0.000000 -0.003258 0.000000
# 4 0.000000 0.000000 0.000000 0.028760 0.000000 0.004189
# 5 0.002076 -0.002530 -0.003258 0.000000 0.030378 0.000000
# 6 0.000000 0.000000 0.000000 0.004189 0.000000 0.080858
#
#
# Mechanical properties :
#
#
# Convention : Reuss Voigt Hill
#
# Bulk Modulus (GPa) = 30.76448 61.05805 45.91127
# Shear Modulus (GPa) = 21.64428 30.98186 26.31307
#
# Velocity S-wave (km/s) = 3.16093 3.78179 3.48521
# Velocity P-wave (km/s) = 5.24629 6.87423 6.11468
#
# Compressibility (1/GPa) = 0.03250502
#
# Stress axis : x y z
#
# Youngs Moduli (GPa) = 27.17897 88.45060 121.33146
#
# Poissons Ratio (x) = 0.57523 0.21771
# Poissons Ratio (y) = 0.17676 0.43924
# Poissons Ratio (z) = 0.04877 0.32020
#
# Static dielectric constant tensor:
#      x y z
#    x 3.671030 0.000000 0.028090 
#    y 0.000000 4.076560 0.000000 
#    z 0.028090 0.000000 4.163080 
# 
# 
# High freq. dielectric constant tensor:
#      x y z
#    x 1.829030 0.000000 -0.004730 
#    y 0.000000 1.861180 0.000000 
#    z -0.004730 0.000000 1.863460 
# 
# From -- ./inp_files/139039.got.cif
#   From: 2010.06.25/outbox.cif.g09.slc.cpg/sg15_70_cif.got.tgz:139039.got - 2010.06.28 07:06:18.
