data_PCOD8142999
_publ_section_title
;
Structure prediction by ZEFSAII (Michael W. Deem and Ramdas Pophale) SiO2 
 PCOD8142999
Probable space group: C 2/C
;
_chemical_formula_sum "Si O2"
_cell_formula_units_Z 64
_cell_length_a 27.062049
_cell_length_b 14.449072
_cell_length_c 8.944629
_cell_angle_alpha 90.000000
_cell_angle_beta 66.749132
_cell_angle_gamma 90.000000
_cell_volume 3213.490113
_symmetry_space_group_name_H-M "C 2/C"
_symmetry_group_IT_number 15
_symmetry_cell_setting 'monoclinic'
loop_
_space_group_symop_operation_xyz
x,y,z
-x,y,1/2-z
-x,-y,-z
x,-y,1/2+z
1/2+x,1/2+y,z
1/2-x,1/2+y,1/2-z
1/2-x,1/2-y,-z
1/2+x,1/2-y,1/2+z
loop_
_atom_site_type_symbol
_atom_site_label
_atom_site_fract_x
_atom_site_fract_y
_atom_site_fract_z
Si Si1 0.798523 0.731587 0.545780
Si Si2 0.638408 0.602588 0.625476
Si Si3 0.376593 0.097452 0.807083
Si Si4 0.888978 0.597285 0.438233
Si Si5 0.851872 0.916240 0.045740
Si Si6 0.450874 0.748463 0.719062
Si Si7 0.058006 0.759977 0.609642
Si Si8 0.260741 0.841790 0.402169
O O1 0.750000 0.750000 0.500000
O O2 0.825965 0.832175 0.525313
O O3 0.837915 0.653251 0.430741
O O4 0.776906 0.691570 0.721987
O O5 0.625245 0.512540 0.544104
O O6 0.586849 0.660724 0.726790
O O7 0.662535 0.577824 0.760572
O O8 0.388097 0.092956 0.617841
O O9 0.412514 0.178881 0.833774
O O10 0.312186 0.106563 0.914387
O O11 0.394490 0.003766 0.864346
O O12 0.938783 0.657720 0.324292
O O13 0.898098 0.842474 0.947709
O O14 0.794220 0.900819 0.032619
O O15 0.500000 0.705787 0.750000
O O16 0.457386 0.775070 0.537440
O O17 0.000000 0.789074 0.750000
O O18 0.250000 0.750000 0.500000
#
# Coordination Sequence:
#
# PCOD8142999 Si02
#       8
#     8   8   8   8   8   8   8   8
#     4  10  21  40  58  87 126 168 205 247 305 358
#     4  10  24  40  63  91 128 162 208 258 303 371
#     4  11  23  40  62  96 127 165 206 253 312 369
#     4  10  23  38  62  93 125 162 206 253 306 373
#     4  11  24  41  61  96 124 167 210 251 312 364
#     4  10  22  44  67  89 121 164 208 260 316 366
#     4  11  24  43  66  90 125 160 208 265 312 370
#     4  11  23  38  63  90 129 168 205 252 300 371
#
# _framework density 19.916041
#
# number of rings (size 3 to 8) (size 9 to 14) (size 15 to 20)
#    0.000    1.500    2.500    1.500    3.500    4.000 
#    0.000    5.000    0.000    0.000    0.000    0.000 
#    0.000    0.000    0.000    0.000    0.000    0.000 
#
# Total GULP energy -396470.417613 kJ/mol
# GULP energy per Si atom -12389.700550 kJ/mol
# Density = 1.987071 g / cm^3
# Si number density = 19.916041 Si / 1000 Ang^3
#
#
#
# Elastic Constant Matrix: (Units=GPa)
#
#
# Indices 1 2 3 4 5 6 
#
# 1 98.8925 18.8265 28.3009 0.0000 3.8788 0.0000
# 2 18.8265 119.4405 36.4419 0.0000 2.5698 0.0000
# 3 28.3009 36.4419 69.3232 0.0000 -6.0023 0.0000
# 4 0.0000 0.0000 0.0000 22.5236 0.0000 30.4138
# 5 3.8788 2.5698 -6.0023 0.0000 30.2793 0.0000
# 6 0.0000 0.0000 0.0000 30.4138 0.0000 -19.3077
#
#
#
# Elastic Compliance Matrix: (Units=1/GPa)
#
#
# Indices 1 2 3 4 5 6 
#
# 1 0.011639 -0.000321 -0.004792 0.000000 -0.002414 0.000000
# 2 -0.000321 0.010091 -0.005336 0.000000 -0.001873 0.000000
# 3 -0.004792 -0.005336 0.019616 0.000000 0.004955 0.000000
# 4 0.000000 0.000000 0.000000 0.014198 0.000000 0.022365
# 5 -0.002414 -0.001873 0.004955 0.000000 0.034476 0.000000
# 6 0.000000 0.000000 0.000000 0.022365 0.000000 -0.016563
#
#
# Mechanical properties :
#
#
# Convention : Reuss Voigt Hill
#
# Bulk Modulus (GPa) = 48.90330 50.53275 49.71803
# Shear Modulus (GPa) = 49.42117 20.30481 34.86299
#
# Velocity S-wave (km/s) = 4.98685 3.19646 4.18843
# Velocity P-wave (km/s) = 7.60041 6.24909 6.95763
#
# Compressibility (1/GPa) = 0.02044852
#
# Stress axis : x y z
#
# Youngs Moduli (GPa) = 85.91744 99.09551 50.97965
#
# Poissons Ratio (x) = 0.03177 0.24430
# Poissons Ratio (y) = 0.02754 0.27203
# Poissons Ratio (z) = 0.41172 0.52878
#
# Static dielectric constant tensor:
#      x y z
#    x 1.354630 0.000000 -0.715850 
#    y 0.000000 3.552660 0.000000 
#    z -0.715850 0.000000 3.554450 
# 
# 
# High freq. dielectric constant tensor:
#      x y z
#    x 1.785310 0.000000 0.000000 
#    y 0.000000 1.779540 0.000000 
#    z 0.000000 0.000000 1.785630 
# 
# From -- ./inp_files/66187.got.cif
#   From: 2010.06.25/outbox.cif.g09.slc.cpg/sg15_34_cif.got.tgz:66187.got - 2010.06.28 07:06:18.
