data_PCOD8142711
_publ_section_title
;
Structure prediction by ZEFSAII (Michael W. Deem and Ramdas Pophale) SiO2 
 PCOD8142711
Probable space group: C 2/C
;
_chemical_formula_sum "Si O2"
_cell_formula_units_Z 60
_cell_length_a 18.718217
_cell_length_b 12.245368
_cell_length_c 22.302151
_cell_angle_alpha 90.000000
_cell_angle_beta 36.623680
_cell_angle_gamma 90.000000
_cell_volume 3049.542870
_symmetry_space_group_name_H-M "C 2/C"
_symmetry_group_IT_number 15
_symmetry_cell_setting 'monoclinic'
loop_
_space_group_symop_operation_xyz
x,y,z
-x,y,1/2-z
-x,-y,-z
x,-y,1/2+z
1/2+x,1/2+y,z
1/2-x,1/2+y,1/2-z
1/2-x,1/2-y,-z
1/2+x,1/2-y,1/2+z
loop_
_atom_site_type_symbol
_atom_site_label
_atom_site_fract_x
_atom_site_fract_y
_atom_site_fract_z
Si Si1 0.553855 0.798692 0.517767
Si Si2 0.854629 0.852543 0.202454
Si Si3 0.556548 0.992029 0.091711
Si Si4 0.500000 0.099700 0.250000
Si Si5 0.565289 0.574946 0.301156
Si Si6 0.183206 0.780262 0.139173
Si Si7 0.902579 0.299905 0.151687
Si Si8 0.165612 0.014852 0.109273
O O1 0.452416 0.712377 0.599517
O O2 0.676335 0.762970 0.468522
O O3 0.568917 0.796392 0.437215
O O4 0.524584 0.920985 0.560955
O O5 0.840035 0.791670 0.274988
O O6 0.730453 0.848338 0.249351
O O7 0.894386 0.977231 0.182631
O O8 0.500536 0.876178 0.115367
O O9 0.492465 0.026211 0.196435
O O10 0.698342 0.971264 0.003667
O O11 0.616271 0.174219 0.160365
O O12 0.588310 0.683158 0.323124
O O13 0.646038 0.574752 0.186486
O O14 0.424566 0.564227 0.379245
O O15 0.133594 0.886741 0.138197
#
# Coordination Sequence:
#
# PCOD8142711 Si02
#       8
#     8   8   8   4   8   8   8   8
#     4  10  22  40  66  87 122 164 206 260 317 369
#     4  10  21  39  64  88 123 158 206 266 306 365
#     4  11  25  41  64  94 125 170 205 261 317 377
#     4  12  22  36  64  96 136 150 206 276 312 364
#     4  10  22  41  64  92 122 164 209 259 307 375
#     4   9  19  37  62  99 117 158 209 260 319 358
#     4  11  26  40  61  94 123 168 214 249 311 378
#     4   9  21  41  67  87 127 171 210 246 317 384
#
# _framework density 19.675080000000001
#
# number of rings (size 3 to 8) (size 9 to 14) (size 15 to 20)
#    0.000    1.867    1.333    2.800    5.600    3.200 
#    2.400    0.000    0.000    0.000    0.000    0.000 
#    0.000    0.000    0.000    0.000    0.000    0.000 
#
# Total GULP energy -372065.126412 kJ/mol
# GULP energy per Si atom -12402.170880 kJ/mol
# Density = 1.963030 g / cm^3
# Si number density = 19.675080 Si / 1000 Ang^3
#
#
#
# Elastic Constant Matrix: (Units=GPa)
#
#
# Indices 1 2 3 4 5 6 
#
# 1 93.4478 59.9286 36.9119 -0.0002 -11.1620 -0.0002
# 2 59.9286 124.3322 52.1943 -0.0003 -6.9483 -0.0004
# 3 36.9119 52.1943 96.9192 -0.0006 -10.2875 -0.0009
# 4 -0.0002 -0.0003 -0.0006 113.2645 0.0002 119.2831
# 5 -11.1620 -6.9483 -10.2875 0.0002 28.3369 0.0003
# 6 -0.0002 -0.0004 -0.0009 119.2831 0.0003 193.5573
#
#
#
# Elastic Compliance Matrix: (Units=1/GPa)
#
#
# Indices 1 2 3 4 5 6 
#
# 1 0.016369 -0.006754 -0.002172 0.000000 0.004003 0.000000
# 2 -0.006754 0.013187 -0.004648 0.000000 -0.001114 0.000000
# 3 -0.002172 -0.004648 0.013975 0.000000 0.003078 0.000000
# 4 0.000000 0.000000 0.000000 0.025155 0.000000 -0.015502
# 5 0.004003 -0.001114 0.003078 0.000000 0.037711 0.000000
# 6 0.000000 0.000000 0.000000 -0.015502 0.000000 0.014720
#
#
# Mechanical properties :
#
#
# Convention : Reuss Voigt Hill
#
# Bulk Modulus (GPa) = 61.03809 68.08544 64.56177
# Shear Modulus (GPa) = 32.52563 78.07605 55.30084
#
# Velocity S-wave (km/s) = 4.07029 6.30626 5.30736
# Velocity P-wave (km/s) = 7.29247 9.36510 8.39301
#
# Compressibility (1/GPa) = 0.01638321
#
# Stress axis : x y z
#
# Youngs Moduli (GPa) = 61.09185 75.82959 71.55798
#
# Poissons Ratio (x) = 0.51219 0.15540
# Poissons Ratio (y) = 0.41264 0.33258
# Poissons Ratio (z) = 0.13267 0.35244
#
# Static dielectric constant tensor:
#      x y z
#    x 3.665120 0.000000 -0.273550 
#    y 0.000000 3.423480 0.000000 
#    z -0.273550 0.000000 3.760600 
# 
# 
# High freq. dielectric constant tensor:
#      x y z
#    x 1.767540 0.000000 -0.010330 
#    y 0.000000 1.756370 0.000000 
#    z -0.010330 0.000000 1.773130 
# 
# From -- ./inp_files/248755.got.cif
#   From: 2010.06.25/outbox.cif.g09.slc.cpg/sg15_125_cif.got.tgz:248755.got - 2010.06.28 07:06:18.
