data_PCOD8142817
_publ_section_title
;
Structure prediction by ZEFSAII (Michael W. Deem and Ramdas Pophale) SiO2 
 PCOD8142817
Probable space group: C 2/C
;
_chemical_formula_sum "Si O2"
_cell_formula_units_Z 48
_cell_length_a 15.027656
_cell_length_b 11.675699
_cell_length_c 14.540704
_cell_angle_alpha 90.000000
_cell_angle_beta 53.122285
_cell_angle_gamma 90.000000
_cell_volume 2040.821913
_symmetry_space_group_name_H-M "C 2/C"
_symmetry_group_IT_number 15
_symmetry_cell_setting 'monoclinic'
loop_
_space_group_symop_operation_xyz
x,y,z
-x,y,1/2-z
-x,-y,-z
x,-y,1/2+z
1/2+x,1/2+y,z
1/2-x,1/2+y,1/2-z
1/2-x,1/2-y,-z
1/2+x,1/2-y,1/2+z
loop_
_atom_site_type_symbol
_atom_site_label
_atom_site_fract_x
_atom_site_fract_y
_atom_site_fract_z
Si Si1 0.427007 0.451301 0.676495
Si Si2 0.689876 0.634338 0.628404
Si Si3 0.500000 0.256145 0.750000
Si Si4 0.000000 0.314150 0.750000
Si Si5 0.915580 0.549678 0.476846
Si Si6 0.202326 0.634516 0.566844
Si Si7 0.858333 0.049290 0.029527
O O1 0.363361 0.514654 0.799765
O O2 0.495034 0.339699 0.665430
O O3 0.512666 0.542155 0.580010
O O4 0.346889 0.409145 0.642429
O O5 0.610632 0.739649 0.706267
O O6 0.821015 0.638045 0.578097
O O7 0.697230 0.633293 0.511281
O O8 0.602915 0.170930 0.694808
O O9 0.981677 0.392146 0.851369
O O10 0.842811 0.442697 0.488076
O O11 0.000000 0.500000 0.500000
O O12 0.250000 0.750000 0.500000
O O13 0.295878 0.572280 0.568150
#
# Coordination Sequence:
#
# PCOD8142817 Si02
#       7
#     8   8   4   4   8   8   8
#     4  11  20  38  70 100 135 175 241 288 343 414
#     4  11  22  46  75 101 140 190 242 291 353 428
#     4  12  20  38  66 100 132 182 222 292 340 420
#     4  12  24  48  76 102 144 192 236 296 358 426
#     4  11  28  48  70 107 149 185 235 302 357 423
#     4  11  23  43  66  94 139 179 226 281 355 413
#     4  10  21  39  66 101 134 180 231 297 341 418
#
# _framework density 23.519935
#
# number of rings (size 3 to 8) (size 9 to 14) (size 15 to 20)
#    0.000    1.000    5.000    2.000    0.000    6.667 
#    0.000    5.000    0.000    0.000    0.000    0.000 
#    0.000    0.000    0.000    0.000    0.000    0.000 
#
# Total GULP energy -297353.610588 kJ/mol
# GULP energy per Si atom -12389.733774 kJ/mol
# Density = 2.346640 g / cm^3
# Si number density = 23.519935 Si / 1000 Ang^3
#
#
#
# Elastic Constant Matrix: (Units=GPa)
#
#
# Indices 1 2 3 4 5 6 
#
# 1 149.7542 45.4161 57.5424 0.0000 5.9459 0.0000
# 2 45.4161 88.5958 40.5150 0.0000 -1.5348 0.0000
# 3 57.5424 40.5150 102.7687 0.0000 -4.1935 0.0000
# 4 0.0000 0.0000 0.0000 27.7918 0.0000 -13.6603
# 5 5.9459 -1.5348 -4.1935 0.0000 47.4132 0.0000
# 6 0.0000 0.0000 0.0000 -13.6603 0.0000 33.1674
#
#
#
# Elastic Compliance Matrix: (Units=1/GPa)
#
#
# Indices 1 2 3 4 5 6 
#
# 1 0.009176 -0.002870 -0.004072 0.000000 -0.001604 0.000000
# 2 -0.002870 0.014667 -0.004156 0.000000 0.000467 0.000000
# 3 -0.004072 -0.004156 0.013714 0.000000 0.001589 0.000000
# 4 0.000000 0.000000 0.000000 0.045115 0.000000 0.018581
# 5 -0.001604 0.000467 0.001589 0.000000 0.021448 0.000000
# 6 0.000000 0.000000 0.000000 0.018581 0.000000 0.037803
#
#
# Mechanical properties :
#
#
# Convention : Reuss Voigt Hill
#
# Bulk Modulus (GPa) = 65.09947 69.78507 67.44227
# Shear Modulus (GPa) = 29.54390 34.85083 32.19736
#
# Velocity S-wave (km/s) = 3.54803 3.85354 3.70393
# Velocity P-wave (km/s) = 6.67257 7.03809 6.85776
#
# Compressibility (1/GPa) = 0.01536111
#
# Stress axis : x y z
#
# Youngs Moduli (GPa) = 108.97720 68.17998 72.91743
#
# Poissons Ratio (x) = 0.19564 0.29693
# Poissons Ratio (y) = 0.31271 0.30308
# Poissons Ratio (z) = 0.44377 0.28339
#
# Static dielectric constant tensor:
#      x y z
#    x 4.701110 0.000000 -0.210740 
#    y 0.000000 4.302560 0.000000 
#    z -0.210740 0.000000 4.319620 
# 
# 
# High freq. dielectric constant tensor:
#      x y z
#    x 1.932000 0.000000 -0.017250 
#    y 0.000000 1.923600 0.000000 
#    z -0.017250 0.000000 1.930880 
# 
# From -- ./inp_files/152517.got.cif
#   From: 2010.06.25/outbox.cif.g09.slc.cpg/sg15_77_cif.got.tgz:152517.got - 2010.06.28 07:06:18.
