data_PCOD8142603
_publ_section_title
;
Structure prediction by ZEFSAII (Michael W. Deem and Ramdas Pophale) SiO2 
 PCOD8142603
Probable space group: C 2/C
;
_chemical_formula_sum "Si O2"
_cell_formula_units_Z 56
_cell_length_a 11.524969
_cell_length_b 8.705218
_cell_length_c 28.452517
_cell_angle_alpha 90.000000
_cell_angle_beta 121.926578
_cell_angle_gamma 90.000000
_cell_volume 2422.745830
_symmetry_space_group_name_H-M "C 2/C"
_symmetry_group_IT_number 15
_symmetry_cell_setting 'monoclinic'
loop_
_space_group_symop_operation_xyz
x,y,z
-x,y,1/2-z
-x,-y,-z
x,-y,1/2+z
1/2+x,1/2+y,z
1/2-x,1/2+y,1/2-z
1/2-x,1/2-y,-z
1/2+x,1/2-y,1/2+z
loop_
_atom_site_type_symbol
_atom_site_label
_atom_site_fract_x
_atom_site_fract_y
_atom_site_fract_z
Si Si1 0.005556 0.063859 0.696387
Si Si2 0.563848 0.935781 0.156403
Si Si3 0.467002 0.529792 0.439467
Si Si4 0.656807 0.772942 0.624471
Si Si5 0.625944 0.676661 0.396730
Si Si6 0.231536 0.715938 0.348220
Si Si7 0.199897 0.425515 0.279584
O O1 0.903920 0.204347 0.659125
O O2 0.000000 0.027494 0.750000
O O3 0.159566 0.106602 0.717845
O O4 0.973929 0.911101 0.660351
O O5 0.420087 0.856191 0.112313
O O6 0.692387 0.850350 0.162403
O O7 0.575349 0.928724 0.215833
O O8 0.567986 0.105578 0.134861
O O9 0.500000 0.500000 0.500000
O O10 0.440939 0.371746 0.405895
O O11 0.600284 0.607453 0.443356
O O12 0.333558 0.640524 0.408595
O O13 0.716705 0.838199 0.587382
O O14 0.794895 0.716400 0.682059
O O15 0.186443 0.587713 0.301958
#
# Coordination Sequence:
#
# PCOD8142603 Si02
#       7
#     8   8   8   8   8   8   8
#     4  12  21  36  67  91 134 178 203 248 325 388
#     4  11  21  36  63  93 135 171 212 254 314 390
#     4  10  24  49  70  89 126 168 222 290 337 376
#     4  11  23  40  65  94 127 166 218 269 319 389
#     4  11  24  42  65  94 132 170 213 269 320 389
#     4  10  21  39  62  92 126 168 216 260 316 390
#     4  11  22  38  58  94 138 174 210 251 313 390
#
# _framework density 23.114269
#
# number of rings (size 3 to 8) (size 9 to 14) (size 15 to 20)
#    0.000    1.143    7.143    0.857    2.000    2.857 
#    0.000    3.571    0.000    0.000    0.000    0.000 
#    0.000    0.000    0.000    0.000    0.000    0.000 
#
# Total GULP energy -347040.996975 kJ/mol
# GULP energy per Si atom -12394.321321 kJ/mol
# Density = 2.306166 g / cm^3
# Si number density = 23.114269 Si / 1000 Ang^3
#
#
#
# Elastic Constant Matrix: (Units=GPa)
#
#
# Indices 1 2 3 4 5 6 
#
# 1 35.5387 2.5048 -11.9471 0.0000 -11.4764 0.0000
# 2 2.5048 111.0865 34.5517 0.0000 -7.6808 0.0000
# 3 -11.9471 34.5517 77.8468 0.0000 -12.0514 0.0000
# 4 0.0000 0.0000 0.0000 14.2995 0.0000 -8.1451
# 5 -11.4764 -7.6808 -12.0514 0.0000 23.7795 0.0000
# 6 0.0000 0.0000 0.0000 -8.1451 0.0000 35.6993
#
#
#
# Elastic Compliance Matrix: (Units=1/GPa)
#
#
# Indices 1 2 3 4 5 6 
#
# 1 0.039723 -0.002658 0.010972 0.000000 0.023873 0.000000
# 2 -0.002658 0.010649 -0.005209 0.000000 -0.000483 0.000000
# 3 0.010972 -0.005209 0.018882 0.000000 0.013182 0.000000
# 4 0.000000 0.000000 0.000000 0.080379 0.000000 0.018339
# 5 0.023873 -0.000483 0.013182 0.000000 0.060099 0.000000
# 6 0.000000 0.000000 0.000000 0.018339 0.000000 0.032196
#
#
# Mechanical properties :
#
#
# Convention : Reuss Voigt Hill
#
# Bulk Modulus (GPa) = 13.25128 30.52119 21.88624
# Shear Modulus (GPa) = 19.16640 28.04648 23.60644
#
# Velocity S-wave (km/s) = 2.88271 3.48714 3.19923
# Velocity P-wave (km/s) = 4.10188 5.42648 4.81000
#
# Compressibility (1/GPa) = 0.07546441
#
# Stress axis : x y z
#
# Youngs Moduli (GPa) = 25.17418 93.90827 52.95978
#
# Poissons Ratio (x) = 0.24957 -0.58106
# Poissons Ratio (y) = 0.06690 0.27587
# Poissons Ratio (z) = -0.27620 0.48916
#
# Static dielectric constant tensor:
#      x y z
#    x 4.263510 0.000000 -0.355500 
#    y 0.000000 4.303930 0.000000 
#    z -0.355500 0.000000 4.000220 
# 
# 
# High freq. dielectric constant tensor:
#      x y z
#    x 1.919360 0.000000 -0.026950 
#    y 0.000000 1.926640 0.000000 
#    z -0.026950 0.000000 1.870880 
# 
# From -- ./inp_files/291635.got.cif
#   From: 2010.06.25/outbox.cif.g09.slc.cpg/sg15_146_cif.got.tgz:291635.got - 2010.06.28 07:06:18.
