data_PCOD8142163
_publ_section_title
;
Structure prediction by ZEFSAII (Michael W. Deem and Ramdas Pophale) SiO2 
 PCOD8142163
Probable space group: C 2/C
;
_chemical_formula_sum "Si O2"
_cell_formula_units_Z 40
_cell_length_a 27.348441
_cell_length_b 13.096187
_cell_length_c 11.969789
_cell_angle_alpha 90.000000
_cell_angle_beta 29.328062
_cell_angle_gamma 90.000000
_cell_volume 2099.863913
_symmetry_space_group_name_H-M "C 2/C"
_symmetry_group_IT_number 15
_symmetry_cell_setting 'monoclinic'
loop_
_space_group_symop_operation_xyz
x,y,z
-x,y,1/2-z
-x,-y,-z
x,-y,1/2+z
1/2+x,1/2+y,z
1/2-x,1/2+y,1/2-z
1/2-x,1/2-y,-z
1/2+x,1/2-y,1/2+z
loop_
_atom_site_type_symbol
_atom_site_label
_atom_site_fract_x
_atom_site_fract_y
_atom_site_fract_z
Si Si1 0.947937 0.608972 0.621139
Si Si2 0.357928 0.173677 0.176463
Si Si3 0.736831 0.132138 0.901974
Si Si4 0.762864 0.407983 0.646480
Si Si5 0.399988 0.759920 0.002525
O O1 0.932902 0.664861 0.534531
O O2 0.000000 0.500000 0.500000
O O3 0.022280 0.672099 0.553839
O O4 0.840789 0.605284 0.891548
O O5 0.310098 0.123353 0.381837
O O6 0.330398 0.291990 0.217075
O O7 0.317770 0.106697 0.154528
O O8 0.652712 0.172449 0.986246
O O9 0.778266 0.023362 0.777783
O O10 0.670857 0.330802 0.812653
O O11 0.500000 0.710599 0.750000
#
# Coordination Sequence:
#
# PCOD8142163 Si02
#       5
#     8   8   8   8   8
#     4  12  21  38  63  91 118 151 199 251 293 348
#     4  10  21  38  63  84 122 152 197 238 296 351
#     4  10  21  40  61  86 118 160 194 238 298 354
#     4  11  23  38  61  91 117 154 201 245 293 352
#     4  11  22  40  61  87 122 156 197 244 298 353
#
# _framework density 19.048853999999999
#
# number of rings (size 3 to 8) (size 9 to 14) (size 15 to 20)
#    0.000    1.200    4.000    2.400    0.000    0.000 
#    0.000    5.000    0.000    0.000    0.000    0.000 
#    0.000    0.000    0.000    0.000    0.000    0.000 
#
# Total GULP energy -248027.096115 kJ/mol
# GULP energy per Si atom -12401.354806 kJ/mol
# Density = 1.900550 g / cm^3
# Si number density = 19.048854 Si / 1000 Ang^3
#
#
#
# Elastic Constant Matrix: (Units=GPa)
#
#
# Indices 1 2 3 4 5 6 
#
# 1 95.9307 50.1473 38.6508 0.0000 -5.4237 0.0000
# 2 50.1473 113.6445 78.4059 0.0000 -0.7040 0.0000
# 3 38.6508 78.4059 126.2627 0.0000 -9.3597 0.0000
# 4 0.0000 0.0000 0.0000 26.1749 0.0000 0.1354
# 5 -5.4237 -0.7040 -9.3597 0.0000 32.3117 0.0000
# 6 0.0000 0.0000 0.0000 0.1354 0.0000 24.3608
#
#
#
# Elastic Compliance Matrix: (Units=1/GPa)
#
#
# Indices 1 2 3 4 5 6 
#
# 1 0.013719 -0.005682 -0.000521 0.000000 0.002028 0.000000
# 2 -0.005682 0.017946 -0.009654 0.000000 -0.003359 0.000000
# 3 -0.000521 -0.009654 0.014361 0.000000 0.003862 0.000000
# 4 0.000000 0.000000 0.000000 0.038206 0.000000 -0.000212
# 5 0.002028 -0.003359 0.003862 0.000000 0.032334 0.000000
# 6 0.000000 0.000000 0.000000 -0.000212 0.000000 0.041051
#
#
# Mechanical properties :
#
#
# Convention : Reuss Voigt Hill
#
# Bulk Modulus (GPa) = 69.86909 74.47175 72.17042
# Shear Modulus (GPa) = 25.75995 27.81176 26.78585
#
# Velocity S-wave (km/s) = 3.68137 3.82517 3.75396
# Velocity P-wave (km/s) = 7.40462 7.66089 7.53385
#
# Compressibility (1/GPa) = 0.01431248
#
# Stress axis : x y z
#
# Youngs Moduli (GPa) = 72.89265 55.72279 69.63521
#
# Poissons Ratio (x) = 0.31659 0.03629
# Poissons Ratio (y) = 0.41414 0.67224
# Poissons Ratio (z) = 0.03798 0.53794
#
# Static dielectric constant tensor:
#      x y z
#    x 3.662010 0.000000 -0.066630 
#    y 0.000000 3.695640 0.000000 
#    z -0.066630 0.000000 3.553430 
# 
# 
# High freq. dielectric constant tensor:
#      x y z
#    x 1.756660 0.000000 0.004210 
#    y 0.000000 1.739350 0.000000 
#    z 0.004210 0.000000 1.737230 
# 
# From -- ./inp_files/85611.got.cif
#   From: 2010.06.25/outbox.cif.g09.slc.cpg/sg15_43_cif.got.tgz:85611.got - 2010.06.28 07:06:18.
