data_PCOD8142290
_publ_section_title
;
Structure prediction by ZEFSAII (Michael W. Deem and Ramdas Pophale) SiO2 
 PCOD8142290
Probable space group: C 2/C
;
_chemical_formula_sum "Si O2"
_cell_formula_units_Z 56
_cell_length_a 23.009298
_cell_length_b 7.069459
_cell_length_c 19.422451
_cell_angle_alpha 90.000000
_cell_angle_beta 60.437515
_cell_angle_gamma 90.000000
_cell_volume 2748.033687
_symmetry_space_group_name_H-M "C 2/C"
_symmetry_group_IT_number 15
_symmetry_cell_setting 'monoclinic'
loop_
_space_group_symop_operation_xyz
x,y,z
-x,y,1/2-z
-x,-y,-z
x,-y,1/2+z
1/2+x,1/2+y,z
1/2-x,1/2+y,1/2-z
1/2-x,1/2-y,-z
1/2+x,1/2-y,1/2+z
loop_
_atom_site_type_symbol
_atom_site_label
_atom_site_fract_x
_atom_site_fract_y
_atom_site_fract_z
Si Si1 0.715747 0.686707 0.089675
Si Si2 0.352102 0.812467 0.562264
Si Si3 0.104612 0.435763 0.206223
Si Si4 0.475165 0.581098 0.193451
Si Si5 0.919882 0.720181 0.166116
Si Si6 0.067633 0.587848 0.081008
Si Si7 0.614001 0.495615 0.559385
O O1 0.775375 0.609441 0.103606
O O2 0.678931 0.861284 0.148083
O O3 0.658722 0.534359 0.102524
O O4 0.750000 0.750000 0.000000
O O5 0.371442 0.799079 0.629985
O O6 0.353686 0.603458 0.526600
O O7 0.401732 0.950545 0.493329
O O8 0.059800 0.280268 0.271866
O O9 0.113492 0.614351 0.250272
O O10 0.069141 0.496063 0.155930
O O11 0.500000 0.482275 0.250000
O O12 0.425300 0.440965 0.182874
O O13 0.542297 0.608813 0.109481
O O14 0.991612 0.631879 0.105767
O O15 0.109713 0.780992 0.052345
#
# Coordination Sequence:
#
# PCOD8142290 Si02
#       7
#     8   8   8   8   8   8   8
#     4  10  21  42  63  83 119 164 208 247 298 359
#     4  11  23  44  57  91 131 163 201 254 305 381
#     4  12  22  40  64  91 122 160 209 261 304 359
#     4  11  20  38  63  92 122 155 204 263 311 357
#     4  11  25  37  61  96 127 156 203 252 326 373
#     4  11  22  38  70  94 116 159 213 257 311 361
#     4  10  21  38  65  93 115 161 208 256 306 360
#
# _framework density 20.378207
#
# number of rings (size 3 to 8) (size 9 to 14) (size 15 to 20)
#    0.000    1.143    4.286    4.286    0.000    4.000 
#    2.571    0.000    0.000    0.000    0.000    0.000 
#    0.000    0.000    0.000    0.000    0.000    0.000 
#
# Total GULP energy -347171.939475 kJ/mol
# GULP energy per Si atom -12398.997838 kJ/mol
# Density = 2.033183 g / cm^3
# Si number density = 20.378207 Si / 1000 Ang^3
#
#
#
# Elastic Constant Matrix: (Units=GPa)
#
#
# Indices 1 2 3 4 5 6 
#
# 1 114.2086 20.4490 26.3611 0.0053 14.3752 0.0008
# 2 20.4490 78.6959 20.2717 0.0054 -1.1061 0.0163
# 3 26.3611 20.2717 56.5327 -0.0007 5.7436 -0.0099
# 4 0.0053 0.0054 -0.0007 30.4525 0.0007 -1.1754
# 5 14.3752 -1.1061 5.7436 0.0007 35.8207 0.0064
# 6 0.0008 0.0163 -0.0099 -1.1754 0.0064 23.3764
#
#
#
# Elastic Compliance Matrix: (Units=1/GPa)
#
#
# Indices 1 2 3 4 5 6 
#
# 1 0.010417 -0.001764 -0.003858 -0.000001 -0.003617 0.000000
# 2 -0.001764 0.014355 -0.004515 -0.000003 0.001875 -0.000013
# 3 -0.003858 -0.004515 0.021311 0.000003 -0.002008 0.000013
# 4 -0.000001 -0.000003 0.000003 0.032902 -0.000001 0.001654
# 5 -0.003617 0.001875 -0.002008 -0.000001 0.029748 -0.000010
# 6 0.000000 -0.000013 0.000013 0.001654 -0.000010 0.042861
#
#
# Mechanical properties :
#
#
# Convention : Reuss Voigt Hill
#
# Bulk Modulus (GPa) = 38.74601 42.62230 40.68415
# Shear Modulus (GPa) = 27.70516 30.08695 28.89605
#
# Velocity S-wave (km/s) = 3.69121 3.84660 3.76970
# Velocity P-wave (km/s) = 6.10093 6.37883 6.24143
#
# Compressibility (1/GPa) = 0.02580911
#
# Stress axis : x y z
#
# Youngs Moduli (GPa) = 95.99359 69.66197 46.92442
#
# Poissons Ratio (x) = 0.12289 0.18102
# Poissons Ratio (y) = 0.16934 0.21188
# Poissons Ratio (z) = 0.37030 0.31455
#
# Static dielectric constant tensor:
#      x y z
#    x 4.444800 -0.000050 -0.269240 
#    y -0.000050 3.692190 -0.000010 
#    z -0.269240 -0.000010 3.682040 
# 
# 
# High freq. dielectric constant tensor:
#      x y z
#    x 1.788860 0.000000 -0.010860 
#    y 0.000000 1.793950 0.000000 
#    z -0.010860 0.000000 1.790480 
# 
# From -- ./inp_files/254644.got.cif
#   From: 2010.06.25/outbox.cif.g09.slc.cpg/sg15_128_cif.got.tgz:254644.got - 2010.06.28 07:06:18.
