data_PCOD8142096
_publ_section_title
;
Structure prediction by ZEFSAII (Michael W. Deem and Ramdas Pophale) SiO2 
 PCOD8142096
Probable space group: C 2/C
;
_chemical_formula_sum "Si O2"
_cell_formula_units_Z 40
_cell_length_a 32.132918
_cell_length_b 8.268064
_cell_length_c 20.944620
_cell_angle_alpha 90.000000
_cell_angle_beta 160.211832
_cell_angle_gamma 90.000000
_cell_volume 1883.827390
_symmetry_space_group_name_H-M "C 2/C"
_symmetry_group_IT_number 15
_symmetry_cell_setting 'monoclinic'
loop_
_space_group_symop_operation_xyz
x,y,z
-x,y,1/2-z
-x,-y,-z
x,-y,1/2+z
1/2+x,1/2+y,z
1/2-x,1/2+y,1/2-z
1/2-x,1/2-y,-z
1/2+x,1/2-y,1/2+z
loop_
_atom_site_type_symbol
_atom_site_label
_atom_site_fract_x
_atom_site_fract_y
_atom_site_fract_z
Si Si1 0.869041 0.682219 0.593845
Si Si2 0.721389 0.370928 0.401963
Si Si3 0.518193 0.603082 0.142516
Si Si4 0.174417 0.290479 0.703617
Si Si5 0.731572 0.370539 0.163209
O O1 0.823499 0.509111 0.551156
O O2 0.879623 0.797834 0.670462
O O3 0.768889 0.757609 0.400216
O O4 0.000000 0.657008 0.750000
O O5 0.750000 0.250000 0.500000
O O6 0.584036 0.444980 0.209405
O O7 0.732824 0.276449 0.352299
O O8 0.462906 0.718682 0.006397
O O9 0.405619 0.550767 0.026635
O O10 0.169481 0.485655 0.700385
O O11 0.261087 0.238328 0.768441
#
# Coordination Sequence:
#
# PCOD8142096 Si02
#       5
#     8   8   8   8   8
#     4  10  21  41  65  86 116 158 204 246 302 362
#     4  12  24  39  58  89 128 159 198 249 303 359
#     4   9  22  39  61  88 120 157 199 251 300 355
#     4  10  21  38  62  87 119 155 203 246 298 355
#     4   9  20  39  65  86 117 155 206 248 300 354
#
# _framework density 21.233366
#
# number of rings (size 3 to 8) (size 9 to 14) (size 15 to 20)
#    1.200    0.800    0.000    3.600    0.000    1.600 
#    0.000    2.000    0.000    0.000    0.000    0.000 
#    0.000    0.000    0.000    0.000    0.000    0.000 
#
# Total GULP energy -247934.069111 kJ/mol
# GULP energy per Si atom -12396.703456 kJ/mol
# Density = 2.118504 g / cm^3
# Si number density = 21.233366 Si / 1000 Ang^3
#
#
#
# Elastic Constant Matrix: (Units=GPa)
#
#
# Indices 1 2 3 4 5 6 
#
# 1 59.0219 47.7398 33.6383 0.0000 -42.4496 0.0000
# 2 47.7398 136.2342 44.5638 0.0000 -20.5758 0.0000
# 3 33.6383 44.5638 75.0218 0.0000 -26.3951 0.0000
# 4 0.0000 0.0000 0.0000 42.7663 0.0000 -2.4385
# 5 -42.4496 -20.5758 -26.3951 0.0000 45.9599 0.0000
# 6 0.0000 0.0000 0.0000 -2.4385 0.0000 40.1257
#
#
#
# Elastic Compliance Matrix: (Units=1/GPa)
#
#
# Indices 1 2 3 4 5 6 
#
# 1 0.075488 -0.016376 -0.002718 0.000000 0.060830 0.000000
# 2 -0.016376 0.012718 -0.004424 0.000000 -0.011973 0.000000
# 3 -0.002718 -0.004424 0.019545 0.000000 0.006734 0.000000
# 4 0.000000 0.000000 0.000000 0.023464 0.000000 0.001426
# 5 0.060830 -0.011973 0.006734 0.000000 0.076449 0.000000
# 6 0.000000 0.000000 0.000000 0.001426 0.000000 0.025008
#
#
# Mechanical properties :
#
#
# Convention : Reuss Voigt Hill
#
# Bulk Modulus (GPa) = 16.47052 58.01795 37.24424
# Shear Modulus (GPa) = 16.66962 35.39278 26.03120
#
# Velocity S-wave (km/s) = 2.80494 4.08713 3.50517
# Velocity P-wave (km/s) = 4.27364 7.04671 5.82753
#
# Compressibility (1/GPa) = 0.06071454
#
# Stress axis : x y z
#
# Youngs Moduli (GPa) = 13.24722 78.62926 51.16330
#
# Poissons Ratio (x) = 1.28767 0.13904
# Poissons Ratio (y) = 0.21694 0.22635
# Poissons Ratio (z) = 0.03600 0.34786
#
# Static dielectric constant tensor:
#      x y z
#    x 3.766410 0.000000 -0.179700 
#    y 0.000000 3.636870 0.000000 
#    z -0.179700 0.000000 3.585510 
# 
# 
# High freq. dielectric constant tensor:
#      x y z
#    x 1.832800 0.000000 -0.015800 
#    y 0.000000 1.825870 0.000000 
#    z -0.015800 0.000000 1.817250 
# 
# From -- ./inp_files/221977.got.cif
#   From: 2010.06.25/outbox.cif.g09.slc.cpg/sg15_111_cif.got.tgz:221977.got - 2010.06.28 07:06:18.
