data_PCOD8142708
_publ_section_title
;
Structure prediction by ZEFSAII (Michael W. Deem and Ramdas Pophale) SiO2 
 PCOD8142708
Probable space group: C 2/C
;
_chemical_formula_sum "Si O2"
_cell_formula_units_Z 60
_cell_length_a 28.545751
_cell_length_b 7.912124
_cell_length_c 13.608827
_cell_angle_alpha 90.000000
_cell_angle_beta 83.031476
_cell_angle_gamma 90.000000
_cell_volume 3050.950694
_symmetry_space_group_name_H-M "C 2/C"
_symmetry_group_IT_number 15
_symmetry_cell_setting 'monoclinic'
loop_
_space_group_symop_operation_xyz
x,y,z
-x,y,1/2-z
-x,-y,-z
x,-y,1/2+z
1/2+x,1/2+y,z
1/2-x,1/2+y,1/2-z
1/2-x,1/2-y,-z
1/2+x,1/2-y,1/2+z
loop_
_atom_site_type_symbol
_atom_site_label
_atom_site_fract_x
_atom_site_fract_y
_atom_site_fract_z
Si Si1 0.500000 0.905375 0.750000
Si Si2 0.725620 0.987288 0.341490
Si Si3 0.369320 0.405336 0.774688
Si Si4 0.219446 0.886322 0.844519
Si Si5 0.406886 0.043401 0.830664
Si Si6 0.197300 0.909534 0.541389
Si Si7 0.358443 0.876122 0.536831
Si Si8 0.586388 0.743002 0.804474
O O1 0.530246 0.783942 0.815727
O O2 0.464097 0.024970 0.820758
O O3 0.738259 0.018104 0.223770
O O4 0.757124 0.112851 0.400402
O O5 0.669854 0.005745 0.378930
O O6 0.740176 0.797120 0.361908
O O7 0.328721 0.380442 0.704656
O O8 0.394729 0.224825 0.785274
O O9 0.346587 0.474934 0.881568
O O10 0.405669 0.550363 0.731891
O O11 0.208699 0.966151 0.951045
O O12 0.387291 0.884525 0.771081
O O13 0.386777 0.022300 0.946116
O O14 0.183008 0.728056 0.504415
O O15 0.394666 0.760115 0.589033
#
# Coordination Sequence:
#
# PCOD8142708 Si02
#       8
#     4   8   8   8   8   8   8   8
#     4   8  22  42  62  96 120 154 196 260 314 368
#     4  11  24  35  58  87 123 166 202 257 290 351
#     4  10  21  39  64  87 125 163 205 253 299 365
#     4  11  22  38  55  89 123 165 212 243 303 348
#     4   9  22  41  60  97 120 155 202 254 311 369
#     4  10  22  38  56  89 124 161 209 250 290 358
#     4  11  21  39  66  85 124 164 201 252 307 360
#     4  10  21  41  65  90 122 157 201 254 309 368
#
# _framework density 19.666001999999999
#
# number of rings (size 3 to 8) (size 9 to 14) (size 15 to 20)
#    0.800    1.067    1.333    2.400    3.733    4.267 
#    0.000    0.000    0.000    2.400    0.000    0.000 
#    0.000    0.000    0.000    0.000    0.000    0.000 
#
# Total GULP energy -371716.243132 kJ/mol
# GULP energy per Si atom -12390.541438 kJ/mol
# Density = 1.962124 g / cm^3
# Si number density = 19.666002 Si / 1000 Ang^3
#
#
#
# Elastic Constant Matrix: (Units=GPa)
#
#
# Indices 1 2 3 4 5 6 
#
# 1 28.2722 16.6356 -25.8928 0.0000 4.7081 0.0000
# 2 16.6356 71.5469 11.2942 0.0000 -5.7364 0.0000
# 3 -25.8928 11.2942 6.6521 0.0000 23.2860 0.0000
# 4 0.0000 0.0000 0.0000 25.2572 0.0000 -5.6340
# 5 4.7081 -5.7364 23.2860 0.0000 16.8485 0.0000
# 6 0.0000 0.0000 0.0000 -5.6340 0.0000 30.8525
#
#
#
# Elastic Compliance Matrix: (Units=1/GPa)
#
#
# Indices 1 2 3 4 5 6 
#
# 1 0.014788 0.001083 -0.017951 0.000000 0.021046 0.000000
# 2 0.001083 0.011975 0.007642 0.000000 -0.006787 0.000000
# 3 -0.017951 0.007642 -0.010634 0.000000 0.022315 0.000000
# 4 0.000000 0.000000 0.000000 0.041274 0.000000 0.007537
# 5 0.021046 -0.006787 0.022315 0.000000 0.020320 0.000000
# 6 0.000000 0.000000 0.000000 0.007537 0.000000 0.033789
#
#
# Mechanical properties :
#
#
# Convention : Reuss Voigt Hill
#
# Bulk Modulus (GPa) = -430.14796 12.28279 -208.93259
# Shear Modulus (GPa) = 38.70271 21.55393 30.12832
#
# Velocity S-wave (km/s) = 4.44103 3.31418 3.91832
# Velocity P-wave (km/s) = 13.88901 4.57212 9.27363
#
# Compressibility (1/GPa) = -0.00232478
#
# Stress axis : x y z
#
# Youngs Moduli (GPa) = 67.62237 83.50985 -94.04012
#
# Poissons Ratio (x) = -0.09042 -1.68814
# Poissons Ratio (y) = -0.07322 0.71862
# Poissons Ratio (z) = 1.21391 -0.63815
#
# Static dielectric constant tensor:
#      x y z
#    x 3.456110 0.000000 -0.032760 
#    y 0.000000 3.436000 0.000000 
#    z -0.032760 0.000000 3.703640 
# 
# 
# High freq. dielectric constant tensor:
#      x y z
#    x 1.752220 0.000000 0.001890 
#    y 0.000000 1.760570 0.000000 
#    z 0.001890 0.000000 1.770750 
# 
# From -- ./inp_files/180529.got.cif
#   From: 2010.06.25/outbox.cif.g09.slc.cpg/sg15_91_cif.got.tgz:180529.got - 2010.06.28 07:06:18.
