data_PCOD8142927
_publ_section_title
;
Structure prediction by ZEFSAII (Michael W. Deem and Ramdas Pophale) SiO2 
 PCOD8142927
Probable space group: C 2/C
;
_chemical_formula_sum "Si O2"
_cell_formula_units_Z 40
_cell_length_a 16.222014
_cell_length_b 8.860818
_cell_length_c 13.910213
_cell_angle_alpha 90.000000
_cell_angle_beta 73.497602
_cell_angle_gamma 90.000000
_cell_volume 1917.096384
_symmetry_space_group_name_H-M "C 2/C"
_symmetry_group_IT_number 15
_symmetry_cell_setting 'monoclinic'
loop_
_space_group_symop_operation_xyz
x,y,z
-x,y,1/2-z
-x,-y,-z
x,-y,1/2+z
1/2+x,1/2+y,z
1/2-x,1/2+y,1/2-z
1/2-x,1/2-y,-z
1/2+x,1/2-y,1/2+z
loop_
_atom_site_type_symbol
_atom_site_label
_atom_site_fract_x
_atom_site_fract_y
_atom_site_fract_z
Si Si1 0.915817 0.791866 0.232774
Si Si2 0.494523 0.013700 0.644851
Si Si3 0.672472 0.110461 0.073264
Si Si4 0.334336 0.838520 0.136421
Si Si5 0.786626 0.985486 0.691710
O O1 0.949502 0.649915 0.161611
O O2 0.851647 0.738723 0.339680
O O3 0.867097 0.902537 0.175926
O O4 0.000000 0.874632 0.250000
O O5 0.500000 0.081730 0.750000
O O6 0.591210 0.996766 0.573077
O O7 0.436841 0.125846 0.599546
O O8 0.746775 0.006106 0.096792
O O9 0.701489 0.182323 0.961167
O O10 0.286812 0.976057 0.205987
O O11 0.318406 0.685029 0.200729
#
# Coordination Sequence:
#
# PCOD8142927 Si02
#       5
#     8   8   8   8   8
#     4   9  20  41  60  82 122 161 186 247 304 344
#     4   9  18  40  63  85 122 157 193 241 299 348
#     4  10  21  39  68  82 119 162 198 233 306 356
#     4  12  22  38  64  90 117 160 199 243 296 352
#     4  12  22  37  62  87 121 153 199 248 291 346
#
# _framework density 20.864887
#
# number of rings (size 3 to 8) (size 9 to 14) (size 15 to 20)
#    0.000    2.000    6.000    1.200    0.000    0.800 
#    0.000    8.000    4.400    0.000    0.000    0.000 
#    0.000    0.000    0.000    0.000    0.000    0.000 
#
# Total GULP energy -247902.366432 kJ/mol
# GULP energy per Si atom -12395.118322 kJ/mol
# Density = 2.081740 g / cm^3
# Si number density = 20.864887 Si / 1000 Ang^3
#
#
#
# Elastic Constant Matrix: (Units=GPa)
#
#
# Indices 1 2 3 4 5 6 
#
# 1 133.0750 60.5835 20.8657 0.0000 32.9364 0.0000
# 2 60.5835 86.0476 33.3722 0.0000 21.2196 0.0000
# 3 20.8657 33.3722 84.0017 0.0000 27.3781 0.0000
# 4 0.0000 0.0000 0.0000 24.5302 0.0000 14.2393
# 5 32.9364 21.2196 27.3781 0.0000 32.8793 0.0000
# 6 0.0000 0.0000 0.0000 14.2393 0.0000 31.3645
#
#
#
# Elastic Compliance Matrix: (Units=1/GPa)
#
#
# Indices 1 2 3 4 5 6 
#
# 1 0.013376 -0.008028 0.003493 0.000000 -0.011126 0.000000
# 2 -0.008028 0.019455 -0.005852 0.000000 0.000359 0.000000
# 3 0.003493 -0.005852 0.018215 0.000000 -0.014890 0.000000
# 4 0.000000 0.000000 0.000000 0.055354 0.000000 -0.025130
# 5 -0.011126 0.000359 -0.014890 0.000000 0.053726 0.000000
# 6 0.000000 0.000000 0.000000 -0.025130 0.000000 0.043292
#
#
# Mechanical properties :
#
#
# Convention : Reuss Voigt Hill
#
# Bulk Modulus (GPa) = 33.03470 59.19636 46.11553
# Shear Modulus (GPa) = 21.34180 30.30833 25.82507
#
# Velocity S-wave (km/s) = 3.20168 3.81543 3.52195
# Velocity P-wave (km/s) = 5.43459 6.91686 6.22004
#
# Compressibility (1/GPa) = 0.03027120
#
# Stress axis : x y z
#
# Youngs Moduli (GPa) = 74.76292 51.40066 54.90116
#
# Poissons Ratio (x) = 0.41267 -0.19179
# Poissons Ratio (y) = 0.60023 0.32128
# Poissons Ratio (z) = -0.26118 0.30080
#
# Static dielectric constant tensor:
#      x y z
#    x 4.309950 0.000000 0.173730 
#    y 0.000000 3.377430 0.000000 
#    z 0.173730 0.000000 3.516070 
# 
# 
# High freq. dielectric constant tensor:
#      x y z
#    x 1.850840 0.000000 0.012820 
#    y 0.000000 1.777930 0.000000 
#    z 0.012820 0.000000 1.798570 
# 
# From -- ./inp_files/158819.got.cif
#   From: 2010.06.25/outbox.cif.g09.slc.cpg/sg15_80_cif.got.tgz:158819.got - 2010.06.28 07:06:18.
