data_PCOD8142279
_publ_section_title
;
Structure prediction by ZEFSAII (Michael W. Deem and Ramdas Pophale) SiO2 
 PCOD8142279
Probable space group: C 2/C
;
_chemical_formula_sum "Si O2"
_cell_formula_units_Z 56
_cell_length_a 9.332614
_cell_length_b 26.651218
_cell_length_c 13.631178
_cell_angle_alpha 90.000000
_cell_angle_beta 54.087279
_cell_angle_gamma 90.000000
_cell_volume 2745.941518
_symmetry_space_group_name_H-M "C 2/C"
_symmetry_group_IT_number 15
_symmetry_cell_setting 'monoclinic'
loop_
_space_group_symop_operation_xyz
x,y,z
-x,y,1/2-z
-x,-y,-z
x,-y,1/2+z
1/2+x,1/2+y,z
1/2-x,1/2+y,1/2-z
1/2-x,1/2-y,-z
1/2+x,1/2-y,1/2+z
loop_
_atom_site_type_symbol
_atom_site_label
_atom_site_fract_x
_atom_site_fract_y
_atom_site_fract_z
Si Si1 0.934880 0.602942 0.073226
Si Si2 0.184759 0.687670 0.929322
Si Si3 0.648926 0.610250 0.351808
Si Si4 0.948009 0.204461 0.992036
Si Si5 0.194876 0.339582 0.204865
Si Si6 0.858649 0.469606 0.886849
Si Si7 0.733754 0.577436 0.969027
O O1 0.759471 0.609736 0.208011
O O2 0.056659 0.651412 0.042732
O O3 0.038673 0.552146 0.060110
O O4 0.886226 0.598821 0.978617
O O5 0.086822 0.740384 0.952172
O O6 0.365828 0.696562 0.916343
O O7 0.222831 0.661233 0.810212
O O8 0.643412 0.666497 0.395423
O O9 0.733810 0.574497 0.399082
O O10 0.453499 0.590462 0.407696
O O11 0.159409 0.197030 0.902276
O O12 0.235210 0.396129 0.149134
O O13 0.000000 0.321291 0.250000
O O14 0.741138 0.517461 0.960515
O O15 0.000000 0.487105 0.750000
#
# Coordination Sequence:
#
# PCOD8142279 Si02
#       7
#     8   8   8   8   8   8   8
#     4  11  22  39  64  94 124 165 211 258 311 377
#     4  11  23  42  66  93 124 167 212 258 316 369
#     4  10  22  41  61  94 125 162 213 257 313 375
#     4  10  24  42  66  91 125 166 209 265 307 373
#     4  11  23  42  62  95 129 160 208 254 319 375
#     4  10  21  38  65  90 122 169 212 253 314 370
#     4  11  22  41  63  89 133 164 201 265 311 375
#
# _framework density 20.393735
#
# number of rings (size 3 to 8) (size 9 to 14) (size 15 to 20)
#    0.000    1.429    2.857    2.143    2.000    0.571 
#    0.000    0.000    3.143    0.000    0.000    0.000 
#    0.000    0.000    0.000    0.000    0.000    0.000 
#
# Total GULP energy -347292.719406 kJ/mol
# GULP energy per Si atom -12403.311407 kJ/mol
# Density = 2.034732 g / cm^3
# Si number density = 20.393735 Si / 1000 Ang^3
#
#
#
# Elastic Constant Matrix: (Units=GPa)
#
#
# Indices 1 2 3 4 5 6 
#
# 1 75.0818 30.2253 33.2792 0.0000 -4.6670 0.0000
# 2 30.2253 140.5279 58.2417 0.0000 -8.6688 0.0000
# 3 33.2792 58.2417 81.1212 0.0000 6.0823 0.0000
# 4 0.0000 0.0000 0.0000 22.0264 0.0000 -3.7640
# 5 -4.6670 -8.6688 6.0823 0.0000 33.5502 0.0000
# 6 0.0000 0.0000 0.0000 -3.7640 0.0000 26.0701
#
#
#
# Elastic Compliance Matrix: (Units=1/GPa)
#
#
# Indices 1 2 3 4 5 6 
#
# 1 0.016737 -0.000628 -0.006668 0.000000 0.003375 0.000000
# 2 -0.000628 0.010710 -0.007738 0.000000 0.004083 0.000000
# 3 -0.006668 -0.007738 0.021125 0.000000 -0.006757 0.000000
# 4 0.000000 0.000000 0.000000 0.046548 0.000000 0.006721
# 5 0.003375 0.004083 -0.006757 0.000000 0.032555 0.000000
# 6 0.000000 0.000000 0.000000 0.006721 0.000000 0.039328
#
#
# Mechanical properties :
#
#
# Convention : Reuss Voigt Hill
#
# Bulk Modulus (GPa) = 54.04360 60.02480 57.03420
# Shear Modulus (GPa) = 24.60146 27.99500 26.29823
#
# Velocity S-wave (km/s) = 3.47699 3.70905 3.59489
# Velocity P-wave (km/s) = 6.53275 6.91662 6.72742
#
# Compressibility (1/GPa) = 0.01850358
#
# Stress axis : x y z
#
# Youngs Moduli (GPa) = 59.74752 93.37225 47.33766
#
# Poissons Ratio (x) = 0.05864 0.31567
# Poissons Ratio (y) = 0.03752 0.36628
# Poissons Ratio (z) = 0.39842 0.72249
#
# Static dielectric constant tensor:
#      x y z
#    x 3.822090 0.000000 -0.117690 
#    y 0.000000 3.590850 0.000000 
#    z -0.117690 0.000000 3.534510 
# 
# 
# High freq. dielectric constant tensor:
#      x y z
#    x 1.806980 0.000000 -0.006680 
#    y 0.000000 1.796270 0.000000 
#    z -0.006680 0.000000 1.792150 
# 
# From -- ./inp_files/82471.got.cif
#   From: 2010.06.25/outbox.cif.g09.slc.cpg/sg15_42_cif.got.tgz:82471.got - 2010.06.28 07:06:18.
