data_PCOD8142265
_publ_section_title
;
Structure prediction by ZEFSAII (Michael W. Deem and Ramdas Pophale) SiO2 
 PCOD8142265
Probable space group: C 2/C
;
_chemical_formula_sum "Si O2"
_cell_formula_units_Z 40
_cell_length_a 13.167312
_cell_length_b 13.715578
_cell_length_c 15.567974
_cell_angle_alpha 90.000000
_cell_angle_beta 32.418180
_cell_angle_gamma 90.000000
_cell_volume 1507.248398
_symmetry_space_group_name_H-M "C 2/C"
_symmetry_group_IT_number 15
_symmetry_cell_setting 'monoclinic'
loop_
_space_group_symop_operation_xyz
x,y,z
-x,y,1/2-z
-x,-y,-z
x,-y,1/2+z
1/2+x,1/2+y,z
1/2-x,1/2+y,1/2-z
1/2-x,1/2-y,-z
1/2+x,1/2-y,1/2+z
loop_
_atom_site_type_symbol
_atom_site_label
_atom_site_fract_x
_atom_site_fract_y
_atom_site_fract_z
Si Si1 0.845972 0.451414 0.932372
Si Si2 0.697305 0.290546 0.155539
Si Si3 0.476324 0.659027 0.406006
Si Si4 0.465290 0.389184 0.456375
Si Si5 0.812945 0.356852 0.535285
O O1 0.000000 0.439710 0.750000
O O2 0.834789 0.353515 0.996280
O O3 0.637807 0.468367 0.033484
O O4 0.904692 0.536360 0.957802
O O5 0.500000 0.270322 0.250000
O O6 0.651803 0.346376 0.277171
O O7 0.801196 0.189307 0.096186
O O8 0.473310 0.582419 0.489419
O O9 0.284663 0.654230 0.488466
O O10 0.663135 0.639420 0.218680
O O11 0.469853 0.773560 0.442574
#
# Coordination Sequence:
#
# PCOD8142265 Si02
#       5
#     8   8   8   8   8
#     4  11  24  41  64  93 129 167 209 262 320 375
#     4  10  21  38  64  95 130 166 201 258 326 377
#     4  10  23  42  66  89 125 168 213 255 315 380
#     4  11  21  40  68  95 127 163 216 258 311 379
#     4  10  24  43  66  88 129 170 212 253 327 378
#
# _framework density 26.538426000000001
#
# number of rings (size 3 to 8) (size 9 to 14) (size 15 to 20)
#    0.000    1.600    0.000    5.400   14.000    0.800 
#    0.000    2.000    0.000    0.000    0.000    0.000 
#    0.000    0.000    0.000    0.000    0.000    0.000 
#
# Total GULP energy -247900.564803 kJ/mol
# GULP energy per Si atom -12395.028240 kJ/mol
# Density = 2.647802 g / cm^3
# Si number density = 26.538426 Si / 1000 Ang^3
#
#
#
# Elastic Constant Matrix: (Units=GPa)
#
#
# Indices 1 2 3 4 5 6 
#
# 1 78.8039 -7.5891 3.4900 -0.0078 34.7987 0.0020
# 2 -7.5891 33.7698 -6.9960 0.0089 -4.3600 -0.0005
# 3 3.4900 -6.9960 129.5129 0.0258 26.1773 -0.0011
# 4 -0.0078 0.0089 0.0258 28.8065 0.0078 1.7919
# 5 34.7987 -4.3600 26.1773 0.0078 34.4316 -0.0033
# 6 0.0020 -0.0005 -0.0011 1.7919 -0.0033 48.7169
#
#
#
# Elastic Compliance Matrix: (Units=1/GPa)
#
#
# Indices 1 2 3 4 5 6 
#
# 1 0.026076 0.003115 0.005568 0.000009 -0.030193 -0.000003
# 2 0.003115 0.030589 0.001680 -0.000010 -0.000552 0.000001
# 3 0.005568 0.001680 0.010346 -0.000005 -0.013281 -0.000001
# 4 0.000009 -0.000010 -0.000005 0.034794 -0.000015 -0.001280
# 5 -0.030193 -0.000552 -0.013281 -0.000015 0.069585 0.000006
# 6 -0.000003 0.000001 -0.000001 -0.001280 0.000006 0.020574
#
#
# Mechanical properties :
#
#
# Convention : Reuss Voigt Hill
#
# Bulk Modulus (GPa) = 11.39751 24.43293 17.91522
# Shear Modulus (GPa) = 24.93984 39.26978 32.10481
#
# Velocity S-wave (km/s) = 3.06888 3.85090 3.48192
# Velocity P-wave (km/s) = 4.10627 5.38509 4.78856
#
# Compressibility (1/GPa) = 0.08773845
#
# Stress axis : x y z
#
# Youngs Moduli (GPa) = 38.34978 32.69136 96.65330
#
# Poissons Ratio (x) = -0.10185 -0.53818
# Poissons Ratio (y) = -0.11948 -0.16238
# Poissons Ratio (z) = -0.21354 -0.05492
#
# Static dielectric constant tensor:
#      x y z
#    x 5.207160 0.000000 0.259870 
#    y 0.000000 5.250850 0.000000 
#    z 0.259870 0.000000 4.535250 
# 
# 
# High freq. dielectric constant tensor:
#      x y z
#    x 2.063330 0.000000 0.020980 
#    y 0.000000 2.079970 0.000000 
#    z 0.020980 0.000000 2.057190 
# 
# From -- ./inp_files/55153.got.cif
#   From: 2010.06.25/outbox.cif.g09.slc.cpg/sg15_28_cif.got.tgz:55153.got - 2010.06.28 07:06:18.
