data_PCOD8142829
_publ_section_title
;
Structure prediction by ZEFSAII (Michael W. Deem and Ramdas Pophale) SiO2 
 PCOD8142829
Probable space group: C 2/C
;
_chemical_formula_sum "Si O2"
_cell_formula_units_Z 56
_cell_length_a 17.246048
_cell_length_b 14.714109
_cell_length_c 13.997495
_cell_angle_alpha 90.000000
_cell_angle_beta 128.319835
_cell_angle_gamma 90.000000
_cell_volume 2786.769313
_symmetry_space_group_name_H-M "C 2/C"
_symmetry_group_IT_number 15
_symmetry_cell_setting 'monoclinic'
loop_
_space_group_symop_operation_xyz
x,y,z
-x,y,1/2-z
-x,-y,-z
x,-y,1/2+z
1/2+x,1/2+y,z
1/2-x,1/2+y,1/2-z
1/2-x,1/2-y,-z
1/2+x,1/2-y,1/2+z
loop_
_atom_site_type_symbol
_atom_site_label
_atom_site_fract_x
_atom_site_fract_y
_atom_site_fract_z
Si Si1 0.267219 0.949927 0.414365
Si Si2 0.911986 0.258998 0.336257
Si Si3 0.364617 0.730233 0.966091
Si Si4 0.891937 0.391750 0.684384
Si Si5 0.084939 0.464744 0.134467
Si Si6 0.721977 0.268203 0.305543
Si Si7 0.293369 0.642562 0.093999
O O1 0.351627 0.939456 0.558489
O O2 0.313513 0.965275 0.345948
O O3 0.206951 0.855499 0.362573
O O4 0.194655 0.035050 0.378629
O O5 0.932392 0.365324 0.333257
O O6 0.837564 0.248304 0.369453
O O7 0.869723 0.205417 0.212055
O O8 0.018333 0.217966 0.441179
O O9 0.335813 0.711028 0.835692
O O10 0.319406 0.828431 0.963911
O O11 0.313486 0.656793 0.997056
O O12 0.903686 0.469938 0.769122
O O13 0.817805 0.316523 0.666371
O O14 0.000000 0.347497 0.750000
O O15 0.000000 0.500000 0.000000
#
# Coordination Sequence:
#
# PCOD8142829 Si02
#       7
#     8   8   8   8   8   8   8
#     4  11  24  41  64  89 136 162 214 267 313 383
#     4  10  21  39  67  91 133 167 207 266 324 375
#     4  10  21  39  66  90 131 165 210 262 323 374
#     4  12  25  40  67  95 126 170 213 267 331 376
#     4  11  21  38  63 101 124 159 212 267 323 376
#     4  10  24  43  62  93 126 171 211 264 315 388
#     4  10  22  38  61 100 129 165 211 266 319 383
#
# _framework density 20.094954999999999
#
# number of rings (size 3 to 8) (size 9 to 14) (size 15 to 20)
#    0.000    1.429    1.429    4.286   10.000    0.000 
#    0.000    2.143    0.000    0.000    0.000    0.000 
#    0.000    0.000    0.000    0.000    0.000    0.000 
#
# Total GULP energy -347139.159407 kJ/mol
# GULP energy per Si atom -12397.827122 kJ/mol
# Density = 2.004922 g / cm^3
# Si number density = 20.094955 Si / 1000 Ang^3
#
#
#
# Elastic Constant Matrix: (Units=GPa)
#
#
# Indices 1 2 3 4 5 6 
#
# 1 75.6078 31.1404 33.0496 0.0000 9.0859 0.0000
# 2 31.1404 107.4834 36.5264 0.0000 0.6570 0.0000
# 3 33.0496 36.5264 90.6808 0.0000 2.3782 0.0000
# 4 0.0000 0.0000 0.0000 18.9602 0.0000 -1.0545
# 5 9.0859 0.6570 2.3782 0.0000 35.9725 0.0000
# 6 0.0000 0.0000 0.0000 -1.0545 0.0000 24.0335
#
#
#
# Elastic Compliance Matrix: (Units=1/GPa)
#
#
# Indices 1 2 3 4 5 6 
#
# 1 0.017174 -0.003313 -0.004821 0.000000 -0.003958 0.000000
# 2 -0.003313 0.011419 -0.003414 0.000000 0.000854 0.000000
# 3 -0.004821 -0.003414 0.014151 0.000000 0.000344 0.000000
# 4 0.000000 0.000000 0.000000 0.052871 0.000000 0.002320
# 5 -0.003958 0.000854 0.000344 0.000000 0.028760 0.000000
# 6 0.000000 0.000000 0.000000 0.002320 0.000000 0.041710
#
#
# Mechanical properties :
#
#
# Convention : Reuss Voigt Hill
#
# Bulk Modulus (GPa) = 50.89893 52.80054 51.84973
# Shear Modulus (GPa) = 25.54529 27.33028 26.43779
#
# Velocity S-wave (km/s) = 3.56930 3.69190 3.63111
# Velocity P-wave (km/s) = 6.50928 6.67128 6.59078
#
# Compressibility (1/GPa) = 0.01964678
#
# Stress axis : x y z
#
# Youngs Moduli (GPa) = 58.22870 87.57518 70.66662
#
# Poissons Ratio (x) = 0.29015 0.34067
# Poissons Ratio (y) = 0.19292 0.24128
# Poissons Ratio (z) = 0.28071 0.29902
#
# Static dielectric constant tensor:
#      x y z
#    x 3.724500 0.000000 0.001820 
#    y 0.000000 3.661680 0.000000 
#    z 0.001820 0.000000 3.477570 
# 
# 
# High freq. dielectric constant tensor:
#      x y z
#    x 1.781440 0.000000 -0.010450 
#    y 0.000000 1.778780 0.000000 
#    z -0.010450 0.000000 1.787700 
# 
# From -- ./inp_files/162317.got.cif
#   From: 2010.06.25/outbox.cif.g09.slc.cpg/sg15_82_cif.got.tgz:162317.got - 2010.06.28 07:06:18.
