data_PCOD8142658
_publ_section_title
;
Structure prediction by ZEFSAII (Michael W. Deem and Ramdas Pophale) SiO2 
 PCOD8142658
Probable space group: C 2/C
;
_chemical_formula_sum "Si O2"
_cell_formula_units_Z 40
_cell_length_a 29.881956
_cell_length_b 7.322170
_cell_length_c 13.635662
_cell_angle_alpha 90.000000
_cell_angle_beta 35.775926
_cell_angle_gamma 90.000000
_cell_volume 1744.200381
_symmetry_space_group_name_H-M "C 2/C"
_symmetry_group_IT_number 15
_symmetry_cell_setting 'monoclinic'
loop_
_space_group_symop_operation_xyz
x,y,z
-x,y,1/2-z
-x,-y,-z
x,-y,1/2+z
1/2+x,1/2+y,z
1/2-x,1/2+y,1/2-z
1/2-x,1/2-y,-z
1/2+x,1/2-y,1/2+z
loop_
_atom_site_type_symbol
_atom_site_label
_atom_site_fract_x
_atom_site_fract_y
_atom_site_fract_z
Si Si1 0.918141 0.290978 0.695084
Si Si2 0.407805 0.793820 0.169540
Si Si3 0.795061 0.412716 0.225944
Si Si4 0.657974 0.294675 0.362808
Si Si5 0.860835 0.986416 0.917066
O O1 0.893691 0.502288 0.738045
O O2 0.874793 0.172822 0.687116
O O3 0.008191 0.271338 0.522823
O O4 0.891964 0.191752 0.842286
O O5 0.347634 0.760530 0.186717
O O6 0.395628 0.648981 0.275375
O O7 0.750345 0.333151 0.210271
O O8 0.850676 0.579135 0.095992
O O9 0.731792 0.480591 0.418983
O O10 0.610727 0.415591 0.525837
#
# Coordination Sequence:
#
# PCOD8142658 Si02
#       5
#     8   8   8   8   8
#     4  10  22  41  63  91 129 169 208 260 321 377
#     4  10  21  39  63  90 125 165 214 262 314 378
#     4   9  21  38  59  92 124 165 210 264 308 373
#     4   9  22  38  58  93 128 159 215 262 308 379
#     4  10  22  38  65  90 122 171 208 257 319 380
#
# _framework density 22.933143000000001
#
# number of rings (size 3 to 8) (size 9 to 14) (size 15 to 20)
#    1.200    1.200    0.000    1.200    2.800    5.600 
#    0.000    0.000    0.000    9.600    0.000    0.000 
#    0.000    0.000    0.000    0.000    0.000    0.000 
#
# Total GULP energy -247811.990488 kJ/mol
# GULP energy per Si atom -12390.599524 kJ/mol
# Density = 2.288095 g / cm^3
# Si number density = 22.933143 Si / 1000 Ang^3
#
#
#
# Elastic Constant Matrix: (Units=GPa)
#
#
# Indices 1 2 3 4 5 6 
#
# 1 44.6180 7.3581 8.4546 0.0000 -15.2882 0.0003
# 2 7.3581 56.3793 10.0069 0.0004 4.2123 0.0004
# 3 8.4546 10.0069 26.1886 0.0001 -13.6969 0.0002
# 4 0.0000 0.0004 0.0001 36.9416 0.0000 -8.6205
# 5 -15.2882 4.2123 -13.6969 0.0000 27.7328 0.0001
# 6 0.0003 0.0004 0.0002 -8.6205 0.0001 16.3712
#
#
#
# Elastic Compliance Matrix: (Units=1/GPa)
#
#
# Indices 1 2 3 4 5 6 
#
# 1 0.029050 -0.005493 0.002066 0.000000 0.017869 -0.000001
# 2 -0.005493 0.021778 -0.013297 0.000000 -0.012903 0.000000
# 3 0.002066 -0.013297 0.059661 0.000000 0.032625 -0.000001
# 4 0.000000 0.000000 0.000000 0.030862 0.000000 0.016251
# 5 0.017869 -0.012903 0.032625 0.000000 0.063982 -0.000001
# 6 -0.000001 0.000000 -0.000001 0.016251 -0.000001 0.069640
#
#
# Mechanical properties :
#
#
# Convention : Reuss Voigt Hill
#
# Bulk Modulus (GPa) = 12.97989 19.86947 16.42468
# Shear Modulus (GPa) = 14.96560 22.96688 18.96624
#
# Velocity S-wave (km/s) = 2.55733 3.16804 2.87892
# Velocity P-wave (km/s) = 3.79369 4.69732 4.26948
#
# Compressibility (1/GPa) = 0.07704227
#
# Stress axis : x y z
#
# Youngs Moduli (GPa) = 34.42394 45.91794 16.76131
#
# Poissons Ratio (x) = 0.25223 -0.03464
# Poissons Ratio (y) = 0.18910 0.22287
# Poissons Ratio (z) = -0.07114 0.61055
#
# Static dielectric constant tensor:
#      x y z
#    x 4.101180 0.000000 -0.040280 
#    y 0.000000 4.172670 0.000000 
#    z -0.040280 0.000000 3.772450 
# 
# 
# High freq. dielectric constant tensor:
#      x y z
#    x 1.896460 0.000000 -0.007060 
#    y 0.000000 1.915720 0.000000 
#    z -0.007060 0.000000 1.876100 
# 
# From -- ./inp_files/121334.got.cif
#   From: 2010.06.25/outbox.cif.g09.slc.cpg/sg15_61_cif.got.tgz:121334.got - 2010.06.28 07:06:18.
