data_PCOD8142335
_publ_section_title
;
Structure prediction by ZEFSAII (Michael W. Deem and Ramdas Pophale) SiO2 
 PCOD8142335
Probable space group: C 2/C
;
_chemical_formula_sum "Si O2"
_cell_formula_units_Z 56
_cell_length_a 15.306564
_cell_length_b 17.385656
_cell_length_c 13.533341
_cell_angle_alpha 90.000000
_cell_angle_beta 129.192893
_cell_angle_gamma 90.000000
_cell_volume 2791.183201
_symmetry_space_group_name_H-M "C 2/C"
_symmetry_group_IT_number 15
_symmetry_cell_setting 'monoclinic'
loop_
_space_group_symop_operation_xyz
x,y,z
-x,y,1/2-z
-x,-y,-z
x,-y,1/2+z
1/2+x,1/2+y,z
1/2-x,1/2+y,1/2-z
1/2-x,1/2-y,-z
1/2+x,1/2-y,1/2+z
loop_
_atom_site_type_symbol
_atom_site_label
_atom_site_fract_x
_atom_site_fract_y
_atom_site_fract_z
Si Si1 0.593842 0.069983 0.245174
Si Si2 0.802499 0.872220 0.508941
Si Si3 0.955899 0.632952 0.972983
Si Si4 0.238745 0.552093 0.771167
Si Si5 0.579097 0.215628 0.896387
Si Si6 0.209555 0.665181 0.479602
Si Si7 0.133476 0.030943 0.838909
O O1 0.500000 0.029425 0.250000
O O2 0.632078 0.147232 0.329388
O O3 0.708753 0.021483 0.317080
O O4 0.546252 0.086393 0.102416
O O5 0.794757 0.886170 0.385184
O O6 0.686689 0.839816 0.469919
O O7 0.895566 0.806332 0.590842
O O8 0.835494 0.948926 0.591568
O O9 0.886640 0.575733 0.853245
O O10 0.017116 0.699164 0.954969
O O11 0.864601 0.672421 0.976083
O O12 0.325514 0.531846 0.745836
O O13 0.500000 0.192135 0.750000
O O14 0.250000 0.750000 0.500000
O O15 0.307126 0.601240 0.561487
O O16 0.000000 0.043835 0.750000
#
# Coordination Sequence:
#
# PCOD8142335 Si02
#       7
#     8   8   8   8   8   8   8
#     4  10  21  38  66  96 125 158 208 270 327 381
#     4  11  24  42  65  98 130 172 220 259 326 394
#     4  10  22  38  65  96 123 165 212 267 330 372
#     4  11  22  40  66  96 125 167 216 260 323 387
#     4  11  23  42  66  95 135 172 213 273 316 385
#     4  10  23  43  64  93 126 165 221 270 318 386
#     4  11  25  45  63  92 135 173 216 268 320 393
#
# _framework density 20.063175000000001
#
# number of rings (size 3 to 8) (size 9 to 14) (size 15 to 20)
#    0.000    1.429    2.857    1.714    2.000    5.714 
#    5.143    0.000    0.000    0.000    0.000    0.000 
#    0.000    0.000    0.000    0.000    0.000    0.000 
#
# Total GULP energy -347124.979626 kJ/mol
# GULP energy per Si atom -12397.320701 kJ/mol
# Density = 2.001751 g / cm^3
# Si number density = 20.063175 Si / 1000 Ang^3
#
#
#
# Elastic Constant Matrix: (Units=GPa)
#
#
# Indices 1 2 3 4 5 6 
#
# 1 130.5992 65.6735 48.6786 0.0000 2.9049 0.0000
# 2 65.6735 115.2234 27.9725 0.0000 -2.0241 0.0000
# 3 48.6786 27.9725 94.9486 0.0000 -8.4759 0.0000
# 4 0.0000 0.0000 0.0000 0.6192 0.0000 -14.7868
# 5 2.9049 -2.0241 -8.4759 0.0000 30.7672 0.0000
# 6 0.0000 0.0000 0.0000 -14.7868 0.0000 20.0022
#
#
#
# Elastic Compliance Matrix: (Units=1/GPa)
#
#
# Indices 1 2 3 4 5 6 
#
# 1 0.012599 -0.006032 -0.004946 0.000000 -0.002949 0.000000
# 2 -0.006032 0.012236 -0.000399 0.000000 0.001265 0.000000
# 3 -0.004946 -0.000399 0.013558 0.000000 0.004176 0.000000
# 4 0.000000 0.000000 0.000000 -0.096973 0.000000 -0.071688
# 5 -0.002949 0.001265 0.004176 0.000000 0.034014 0.000000
# 6 0.000000 0.000000 0.000000 -0.071688 0.000000 -0.003002
#
#
# Mechanical properties :
#
#
# Convention : Reuss Voigt Hill
#
# Bulk Modulus (GPa) = 63.94258 69.49117 66.71688
# Shear Modulus (GPa) = 12488.13129 23.50747 6255.81938
#
# Velocity S-wave (km/s) = 78.98049 3.42668 55.90018
# Velocity P-wave (km/s) = 91.37375 7.09701 64.80559
#
# Compressibility (1/GPa) = 0.01563903
#
# Stress axis : x y z
#
# Youngs Moduli (GPa) = 79.36825 81.72450 73.75761
#
# Poissons Ratio (x) = 0.49300 0.36478
# Poissons Ratio (y) = 0.47879 0.02945
# Poissons Ratio (z) = 0.39252 0.03263
#
# Static dielectric constant tensor:
#      x y z
#    x 3.561050 0.000000 0.201640 
#    y 0.000000 3.549660 0.000000 
#    z 0.201640 0.000000 3.445380 
# 
# 
# High freq. dielectric constant tensor:
#      x y z
#    x 1.786960 0.000000 -0.004510 
#    y 0.000000 1.777210 0.000000 
#    z -0.004510 0.000000 1.796030 
# 
# From -- ./inp_files/98825.got.cif
#   From: 2010.06.25/outbox.cif.g09.slc.cpg/sg15_50_cif.got.tgz:98825.got - 2010.06.28 07:06:18.
