data_PCOD8142086
_publ_section_title
;
Structure prediction by ZEFSAII (Michael W. Deem and Ramdas Pophale) SiO2 
 PCOD8142086
Probable space group: C 2/C
;
_chemical_formula_sum "Si O2"
_cell_formula_units_Z 56
_cell_length_a 9.088696
_cell_length_b 17.759436
_cell_length_c 17.596336
_cell_angle_alpha 90.000000
_cell_angle_beta 105.538812
_cell_angle_gamma 90.000000
_cell_volume 2736.414077
_symmetry_space_group_name_H-M "C 2/C"
_symmetry_group_IT_number 15
_symmetry_cell_setting 'monoclinic'
loop_
_space_group_symop_operation_xyz
x,y,z
-x,y,1/2-z
-x,-y,-z
x,-y,1/2+z
1/2+x,1/2+y,z
1/2-x,1/2+y,1/2-z
1/2-x,1/2-y,-z
1/2+x,1/2-y,1/2+z
loop_
_atom_site_type_symbol
_atom_site_label
_atom_site_fract_x
_atom_site_fract_y
_atom_site_fract_z
Si Si1 0.049102 0.646036 0.641563
Si Si2 0.577717 0.231430 0.489374
Si Si3 0.454697 0.025570 0.387919
Si Si4 0.957209 0.887520 0.441787
Si Si5 0.738139 0.187956 0.802504
Si Si6 0.739924 0.506213 0.993072
Si Si7 0.073716 0.674656 0.181216
O O1 0.058165 0.674910 0.557061
O O2 0.036957 0.556874 0.645122
O O3 0.199270 0.666417 0.710581
O O4 0.901182 0.681075 0.659389
O O5 0.750000 0.250000 0.500000
O O6 0.486738 0.309744 0.491782
O O7 0.528611 0.189830 0.406420
O O8 0.626902 0.046450 0.439595
O O9 0.400450 0.084413 0.315423
O O10 0.325176 0.032097 0.434307
O O11 0.880349 0.863866 0.350563
O O12 0.116547 0.931434 0.449155
O O13 0.841559 0.939072 0.472906
O O14 0.773317 0.276983 0.806987
O O15 0.000000 0.700657 0.250000
#
# Coordination Sequence:
#
# PCOD8142086 Si02
#       7
#     8   8   8   8   8   8   8
#     4  11  23  42  67  91 130 176 223 261 337 404
#     4  11  22  39  65  92 124 171 215 267 330 399
#     4  11  22  39  66  93 132 174 215 265 333 405
#     4  10  21  38  65  95 134 166 220 277 332 384
#     4  10  24  42  63  93 129 172 217 277 323 400
#     4  10  21  38  62 101 130 169 217 273 325 403
#     4  11  25  39  64  93 127 161 218 275 331 381
#
# _framework density 20.464739000000002
#
# number of rings (size 3 to 8) (size 9 to 14) (size 15 to 20)
#    0.000    1.429    1.429    4.286    4.000    2.286 
#    0.000    1.429    0.000    0.000    0.000    0.000 
#    0.000    0.000    0.000    0.000    0.000    0.000 
#
# Total GULP energy -347097.369699 kJ/mol
# GULP energy per Si atom -12396.334632 kJ/mol
# Density = 2.041816 g / cm^3
# Si number density = 20.464739 Si / 1000 Ang^3
#
#
#
# Elastic Constant Matrix: (Units=GPa)
#
#
# Indices 1 2 3 4 5 6 
#
# 1 111.1355 61.9049 47.4862 0.0000 5.0765 0.0000
# 2 61.9049 150.3550 61.2890 0.0000 2.8483 0.0000
# 3 47.4862 61.2890 138.0644 0.0000 6.0162 0.0000
# 4 0.0000 0.0000 0.0000 8.8657 0.0000 2.2182
# 5 5.0765 2.8483 6.0162 0.0000 34.0243 0.0000
# 6 0.0000 0.0000 0.0000 2.2182 0.0000 29.3066
#
#
#
# Elastic Compliance Matrix: (Units=1/GPa)
#
#
# Indices 1 2 3 4 5 6 
#
# 1 0.012344 -0.004091 -0.002383 0.000000 -0.001078 0.000000
# 2 -0.004091 0.009476 -0.002813 0.000000 0.000314 0.000000
# 3 -0.002383 -0.002813 0.009358 0.000000 -0.001064 0.000000
# 4 0.000000 0.000000 0.000000 0.114972 0.000000 -0.008702
# 5 -0.001078 0.000314 -0.001064 0.000000 0.029713 0.000000
# 6 0.000000 0.000000 0.000000 -0.008702 0.000000 0.034781
#
#
# Mechanical properties :
#
#
# Convention : Reuss Voigt Hill
#
# Bulk Modulus (GPa) = 79.33787 82.32391 80.83089
# Shear Modulus (GPa) = 21.42081 29.69764 25.55922
#
# Velocity S-wave (km/s) = 3.23881 3.81354 3.53787
# Velocity P-wave (km/s) = 7.26903 7.72692 7.50147
#
# Compressibility (1/GPa) = 0.01260432
#
# Stress axis : x y z
#
# Youngs Moduli (GPa) = 81.01152 105.53029 106.86350
#
# Poissons Ratio (x) = 0.43168 0.25463
# Poissons Ratio (y) = 0.33139 0.30064
# Poissons Ratio (z) = 0.19303 0.29689
#
# Static dielectric constant tensor:
#      x y z
#    x 3.697630 0.000000 0.282480 
#    y 0.000000 4.045040 0.000000 
#    z 0.282480 0.000000 3.853650 
# 
# 
# High freq. dielectric constant tensor:
#      x y z
#    x 1.801780 0.000000 0.006890 
#    y 0.000000 1.818530 0.000000 
#    z 0.006890 0.000000 1.793880 
# 
# From -- ./inp_files/191045.got.cif
#   From: 2010.06.25/outbox.cif.g09.slc.cpg/sg15_96_cif.got.tgz:191045.got - 2010.06.28 07:06:18.
