data_PCOD8142332
_publ_section_title
;
Structure prediction by ZEFSAII (Michael W. Deem and Ramdas Pophale) SiO2 
 PCOD8142332
Probable space group: C 2/C
;
_chemical_formula_sum "Si O2"
_cell_formula_units_Z 64
_cell_length_a 11.237531
_cell_length_b 19.577859
_cell_length_c 18.225751
_cell_angle_alpha 90.000000
_cell_angle_beta 53.254995
_cell_angle_gamma 90.000000
_cell_volume 3213.067955
_symmetry_space_group_name_H-M "C 2/C"
_symmetry_group_IT_number 15
_symmetry_cell_setting 'monoclinic'
loop_
_space_group_symop_operation_xyz
x,y,z
-x,y,1/2-z
-x,-y,-z
x,-y,1/2+z
1/2+x,1/2+y,z
1/2-x,1/2+y,1/2-z
1/2-x,1/2-y,-z
1/2+x,1/2-y,1/2+z
loop_
_atom_site_type_symbol
_atom_site_label
_atom_site_fract_x
_atom_site_fract_y
_atom_site_fract_z
Si Si1 0.190805 0.901619 0.337606
Si Si2 0.227387 0.374034 0.034865
Si Si3 0.908786 0.312252 0.162104
Si Si4 0.888361 0.440984 0.561204
Si Si5 0.624539 0.527671 0.261402
Si Si6 0.455978 0.662178 0.121574
Si Si7 0.102099 0.171769 0.519321
Si Si8 0.118508 0.671590 0.992957
O O1 0.238458 0.916564 0.403751
O O2 0.322510 0.857923 0.252368
O O3 0.042362 0.857791 0.388783
O O4 0.154191 0.973299 0.313892
O O5 0.083810 0.327461 0.099573
O O6 0.204978 0.427355 0.977719
O O7 0.369036 0.327550 0.960965
O O8 0.839840 0.329952 0.108333
O O9 0.893931 0.231035 0.183141
O O10 0.781429 0.464912 0.664520
O O11 0.000000 0.500000 0.500000
O O12 0.974575 0.374829 0.559782
O O13 0.500000 0.501927 0.250000
O O14 0.572355 0.599349 0.314338
O O15 0.374599 0.649377 0.073738
O O16 0.081166 0.252840 0.534021
O O17 0.242580 0.143183 0.512398
#
# Coordination Sequence:
#
# PCOD8142332 Si02
#       8
#     8   8   8   8   8   8   8   8
#     4  11  25  38  63  91 127 163 212 257 319 373
#     4  10  21  43  61  92 123 166 209 257 318 382
#     4  10  21  38  66  94 125 163 209 264 314 371
#     4  11  24  41  66  89 128 171 207 253 317 374
#     4  12  26  42  61  97 125 164 215 262 315 379
#     4  10  22  41  64  94 127 161 211 264 318 374
#     4   9  21  40  64  90 122 168 207 256 317 370
#     4   9  20  40  62  90 124 164 213 251 309 384
#
# _framework density 19.918658000000001
#
# number of rings (size 3 to 8) (size 9 to 14) (size 15 to 20)
#    0.000    1.750    1.250    2.250    5.250    5.000 
#    0.000    1.875    0.000    0.000    0.000    0.000 
#    0.000    0.000    0.000    0.000    0.000    0.000 
#
# Total GULP energy -396839.953093 kJ/mol
# GULP energy per Si atom -12401.248534 kJ/mol
# Density = 1.987332 g / cm^3
# Si number density = 19.918658 Si / 1000 Ang^3
#
#
#
# Elastic Constant Matrix: (Units=GPa)
#
#
# Indices 1 2 3 4 5 6 
#
# 1 132.4491 22.9399 19.5169 0.0000 6.7436 0.0000
# 2 22.9399 71.6333 15.3377 0.0000 1.9636 0.0000
# 3 19.5169 15.3377 67.0652 0.0000 -11.1164 0.0000
# 4 0.0000 0.0000 0.0000 34.6445 0.0000 0.6928
# 5 6.7436 1.9636 -11.1164 0.0000 25.8345 0.0000
# 6 0.0000 0.0000 0.0000 0.6928 0.0000 26.9299
#
#
#
# Elastic Compliance Matrix: (Units=1/GPa)
#
#
# Indices 1 2 3 4 5 6 
#
# 1 0.008437 -0.002082 -0.002496 0.000000 -0.003118 0.000000
# 2 -0.002082 0.015377 -0.003246 0.000000 -0.002022 0.000000
# 3 -0.002496 -0.003246 0.017798 0.000000 0.008557 0.000000
# 4 0.000000 0.000000 0.000000 0.028879 0.000000 -0.000743
# 5 -0.003118 -0.002022 0.008557 0.000000 0.043357 0.000000
# 6 0.000000 0.000000 0.000000 -0.000743 0.000000 0.037153
#
#
# Mechanical properties :
#
#
# Convention : Reuss Voigt Hill
#
# Bulk Modulus (GPa) = 38.51465 42.97074 40.74270
# Shear Modulus (GPa) = 28.52180 31.70532 30.11356
#
# Velocity S-wave (km/s) = 3.78817 3.99399 3.89244
# Velocity P-wave (km/s) = 6.20577 6.54899 6.37969
#
# Compressibility (1/GPa) = 0.02596415
#
# Stress axis : x y z
#
# Youngs Moduli (GPa) = 118.52222 65.03138 56.18646
#
# Poissons Ratio (x) = 0.13540 0.14024
# Poissons Ratio (y) = 0.24677 0.18238
# Poissons Ratio (z) = 0.29584 0.21109
#
# Static dielectric constant tensor:
#      x y z
#    x 3.414280 0.000000 -0.189640 
#    y 0.000000 3.545600 0.000000 
#    z -0.189640 0.000000 3.475440 
# 
# 
# High freq. dielectric constant tensor:
#      x y z
#    x 1.793110 0.000000 0.001900 
#    y 0.000000 1.773620 0.000000 
#    z 0.001900 0.000000 1.774350 
# 
# From -- ./inp_files/239785.got.cif
#   From: 2010.06.25/outbox.cif.g09.slc.cpg/sg15_120_cif.got.tgz:239785.got - 2010.06.28 07:06:18.
