data_PCOD8142120
_publ_section_title
;
Structure prediction by ZEFSAII (Michael W. Deem and Ramdas Pophale) SiO2 
 PCOD8142120
Probable space group: C 2/C
;
_chemical_formula_sum "Si O2"
_cell_formula_units_Z 60
_cell_length_a 21.969956
_cell_length_b 27.606787
_cell_length_c 5.428389
_cell_angle_alpha 90.000000
_cell_angle_beta 59.925402
_cell_angle_gamma 90.000000
_cell_volume 2849.178742
_symmetry_space_group_name_H-M "C 2/C"
_symmetry_group_IT_number 15
_symmetry_cell_setting 'monoclinic'
loop_
_space_group_symop_operation_xyz
x,y,z
-x,y,1/2-z
-x,-y,-z
x,-y,1/2+z
1/2+x,1/2+y,z
1/2-x,1/2+y,1/2-z
1/2-x,1/2-y,-z
1/2+x,1/2-y,1/2+z
loop_
_atom_site_type_symbol
_atom_site_label
_atom_site_fract_x
_atom_site_fract_y
_atom_site_fract_z
Si Si1 0.621727 0.529587 0.777844
Si Si2 0.956217 0.130462 0.586719
Si Si3 0.716053 0.028503 0.057418
Si Si4 0.290856 0.207558 0.167212
Si Si5 0.855895 0.782229 0.379822
Si Si6 0.407492 0.196872 0.553273
Si Si7 0.000000 0.657512 0.750000
Si Si8 0.368749 0.875167 0.758161
O O1 0.604163 0.499182 0.566024
O O2 0.574259 0.576793 0.870870
O O3 0.703194 0.545362 0.614138
O O4 0.892927 0.168548 0.723754
O O5 0.000000 0.135377 0.750000
O O6 0.000000 0.141560 0.250000
O O7 0.663810 0.072961 0.131455
O O8 0.699757 0.005440 0.356677
O O9 0.206682 0.207027 0.294985
O O10 0.317534 0.258681 0.222298
O O11 0.308114 0.162845 0.312660
O O12 0.331019 0.199692 0.832961
O O13 0.913306 0.744369 0.369489
O O14 0.477211 0.195343 0.581294
O O15 0.407707 0.144995 0.419301
O O16 0.068104 0.623651 0.570167
#
# Coordination Sequence:
#
# PCOD8142120 Si02
#       8
#     8   8   8   8   8   8   4   8
#     4  10  22  46  72  96 125 168 220 267 319 392
#     4  12  28  44  63 100 136 177 213 265 330 383
#     4  10  23  41  69 102 128 159 211 279 338 372
#     4   9  20  39  66  90 120 169 215 272 328 380
#     4  10  22  41  60  93 129 161 219 271 332 376
#     4  10  21  38  62  90 119 174 218 261 313 386
#     4  10  22  38  60  86 126 174 222 248 308 392
#     4  10  21  39  61  92 125 166 213 261 314 398
#
# _framework density 21.058700000000002
#
# number of rings (size 3 to 8) (size 9 to 14) (size 15 to 20)
#    0.000    1.867    0.000    2.400    5.600    4.800 
#    9.600    0.667    0.000    0.000    0.000    0.000 
#    0.000    0.000    0.000    0.000    0.000    0.000 
#
# Total GULP energy -371841.363350 kJ/mol
# GULP energy per Si atom -12394.712112 kJ/mol
# Density = 2.101077 g / cm^3
# Si number density = 21.058700 Si / 1000 Ang^3
#
#
#
# Elastic Constant Matrix: (Units=GPa)
#
#
# Indices 1 2 3 4 5 6 
#
# 1 105.1349 52.0863 39.7772 0.0000 1.6320 0.0000
# 2 52.0863 100.3432 34.1954 0.0000 -9.8365 0.0000
# 3 39.7772 34.1954 78.3614 0.0000 5.7345 0.0000
# 4 0.0000 0.0000 0.0000 22.1969 0.0000 -9.4112
# 5 1.6320 -9.8365 5.7345 0.0000 41.6798 0.0000
# 6 0.0000 0.0000 0.0000 -9.4112 0.0000 26.8661
#
#
#
# Elastic Compliance Matrix: (Units=1/GPa)
#
#
# Indices 1 2 3 4 5 6 
#
# 1 0.014190 -0.005963 -0.004503 0.000000 -0.001343 0.000000
# 2 -0.005963 0.014741 -0.003715 0.000000 0.004224 0.000000
# 3 -0.004503 -0.003715 0.016889 0.000000 -0.003024 0.000000
# 4 0.000000 0.000000 0.000000 0.052910 0.000000 0.018534
# 5 -0.001343 0.004224 -0.003024 0.000000 0.025458 0.000000
# 6 0.000000 0.000000 0.000000 0.018534 0.000000 0.043714
#
#
# Mechanical properties :
#
#
# Convention : Reuss Voigt Hill
#
# Bulk Modulus (GPa) = 57.27545 59.55080 58.41313
# Shear Modulus (GPa) = 24.74224 28.66727 26.70476
#
# Velocity S-wave (km/s) = 3.43143 3.69359 3.56492
# Velocity P-wave (km/s) = 6.55413 6.82129 6.68904
#
# Compressibility (1/GPa) = 0.01745949
#
# Stress axis : x y z
#
# Youngs Moduli (GPa) = 70.47070 67.83723 59.20884
#
# Poissons Ratio (x) = 0.40453 0.26660
# Poissons Ratio (y) = 0.42023 0.21995
# Poissons Ratio (z) = 0.31730 0.25201
#
# Static dielectric constant tensor:
#      x y z
#    x 3.895670 0.000000 0.015810 
#    y 0.000000 3.572470 0.000000 
#    z 0.015810 0.000000 4.152640 
# 
# 
# High freq. dielectric constant tensor:
#      x y z
#    x 1.831590 0.000000 -0.001200 
#    y 0.000000 1.808130 0.000000 
#    z -0.001200 0.000000 1.841320 
# 
# From -- ./inp_files/14395.got.cif
#   From: 2010.06.25/outbox.cif.g09.slc.cpg/sg15_8_cif.got.tgz:14395.got - 2010.06.28 07:06:18.
