data_PCOD8142952
_publ_section_title
;
Structure prediction by ZEFSAII (Michael W. Deem and Ramdas Pophale) SiO2 
 PCOD8142952
Probable space group: C 2/C
;
_chemical_formula_sum "Si O2"
_cell_formula_units_Z 64
_cell_length_a 18.396424
_cell_length_b 9.032347
_cell_length_c 29.997257
_cell_angle_alpha 90.000000
_cell_angle_beta 36.136746
_cell_angle_gamma 90.000000
_cell_volume 2939.390756
_symmetry_space_group_name_H-M "C 2/C"
_symmetry_group_IT_number 15
_symmetry_cell_setting 'monoclinic'
loop_
_space_group_symop_operation_xyz
x,y,z
-x,y,1/2-z
-x,-y,-z
x,-y,1/2+z
1/2+x,1/2+y,z
1/2-x,1/2+y,1/2-z
1/2-x,1/2-y,-z
1/2+x,1/2-y,1/2+z
loop_
_atom_site_type_symbol
_atom_site_label
_atom_site_fract_x
_atom_site_fract_y
_atom_site_fract_z
Si Si1 0.345401 0.502831 0.028366
Si Si2 0.423106 0.659082 0.072561
Si Si3 0.756107 0.932285 0.201578
Si Si4 0.384127 0.016237 0.589908
Si Si5 0.128635 0.984896 0.664303
Si Si6 0.390490 0.829249 0.673408
Si Si7 0.367817 0.850644 0.326018
Si Si8 0.131291 0.158789 0.571691
O O1 0.366189 0.643411 0.050866
O O2 0.203126 0.452223 0.102772
O O3 0.429592 0.365153 0.003370
O O4 0.385328 0.537343 0.958513
O O5 0.372118 0.532297 0.130415
O O6 0.391904 0.819868 0.107346
O O7 0.797442 0.811120 0.217659
O O8 0.706281 0.844083 0.183566
O O9 0.654083 0.040970 0.272243
O O10 0.248664 0.004880 0.635550
O O11 0.500000 0.000000 0.500000
O O12 0.404330 0.891906 0.616876
O O13 0.149354 0.075237 0.609039
O O14 0.000000 0.041760 0.750000
O O15 0.114268 0.810871 0.661213
O O16 0.518493 0.772430 0.629942
O O17 0.500000 0.923472 0.250000
O O18 0.250000 0.250000 0.500000
#
# Coordination Sequence:
#
# PCOD8142952 Si02
#       8
#     8   8   8   8   8   8   8   8
#     4  10  21  41  69  97 144 181 232 294 351 412
#     4  10  21  39  69 100 132 186 230 290 353 417
#     4  11  24  43  69 101 137 177 244 293 355 422
#     4  12  24  44  72 102 137 188 247 287 358 445
#     4  11  26  46  71  98 148 189 232 296 375 433
#     4  12  26  45  73 103 141 180 242 306 352 432
#     4  10  23  44  67  99 137 188 232 285 355 442
#     4  12  27  46  67 108 144 184 237 297 360 430
#
# _framework density 21.773219000000001
#
# number of rings (size 3 to 8) (size 9 to 14) (size 15 to 20)
#    0.000    1.000    2.500    3.750    7.000    0.500 
#    4.500    0.000    0.000    0.000    0.000    0.000 
#    0.000    0.000    0.000    0.000    0.000    0.000 
#
# Total GULP energy -396810.031863 kJ/mol
# GULP energy per Si atom -12400.313496 kJ/mol
# Density = 2.172366 g / cm^3
# Si number density = 21.773219 Si / 1000 Ang^3
#
#
#
# Elastic Constant Matrix: (Units=GPa)
#
#
# Indices 1 2 3 4 5 6 
#
# 1 69.9959 30.8925 31.6295 0.0001 -5.6882 0.0196
# 2 30.8925 108.7268 35.8196 0.0046 -2.4950 0.0148
# 3 31.6295 35.8196 118.8971 -0.0010 -12.3904 0.0040
# 4 0.0001 0.0046 -0.0010 41.4098 -0.0022 0.7526
# 5 -5.6882 -2.4950 -12.3904 -0.0022 45.1212 0.0018
# 6 0.0196 0.0148 0.0040 0.7526 0.0018 34.1422
#
#
#
# Elastic Compliance Matrix: (Units=1/GPa)
#
#
# Indices 1 2 3 4 5 6 
#
# 1 0.017618 -0.003857 -0.003413 0.000001 0.001070 -0.000008
# 2 -0.003857 0.011059 -0.002360 -0.000001 -0.000523 -0.000002
# 3 -0.003413 -0.002360 0.010265 0.000001 0.002258 0.000002
# 4 0.000001 -0.000001 0.000001 0.024159 0.000001 -0.000533
# 5 0.001070 -0.000523 0.002258 0.000001 0.022889 -0.000002
# 6 -0.000008 -0.000002 0.000002 -0.000533 -0.000002 0.029301
#
#
# Mechanical properties :
#
#
# Convention : Reuss Voigt Hill
#
# Bulk Modulus (GPa) = 50.80945 54.92255 52.86600
# Shear Modulus (GPa) = 35.43311 37.41986 36.42649
#
# Velocity S-wave (km/s) = 4.03845 4.15012 4.09466
# Velocity P-wave (km/s) = 6.71802 6.94581 6.83286
#
# Compressibility (1/GPa) = 0.01968138
#
# Stress axis : x y z
#
# Youngs Moduli (GPa) = 56.75966 90.42643 97.41841
#
# Poissons Ratio (x) = 0.34875 0.33253
# Poissons Ratio (y) = 0.21891 0.22992
# Poissons Ratio (z) = 0.19374 0.21342
#
# Static dielectric constant tensor:
#      x y z
#    x 5.270840 0.000210 0.823300 
#    y 0.000210 3.977880 0.000180 
#    z 0.823300 0.000180 4.723540 
# 
# 
# High freq. dielectric constant tensor:
#      x y z
#    x 1.845310 0.000000 -0.012290 
#    y 0.000000 1.859730 0.000000 
#    z -0.012290 0.000000 1.870730 
# 
# From -- ./inp_files/315706.got.cif
#   From: 2010.06.25/outbox.cif.g09.slc.cpg/sg15_158_cif.got.tgz:315706.got - 2010.06.28 07:06:18.
