data_PCOD8142413
_publ_section_title
;
Structure prediction by ZEFSAII (Michael W. Deem and Ramdas Pophale) SiO2 
 PCOD8142413
Probable space group: C 2/C
;
_chemical_formula_sum "Si O2"
_cell_formula_units_Z 56
_cell_length_a 13.741563
_cell_length_b 24.928109
_cell_length_c 12.135828
_cell_angle_alpha 90.000000
_cell_angle_beta 44.946518
_cell_angle_gamma 90.000000
_cell_volume 2936.798285
_symmetry_space_group_name_H-M "C 2/C"
_symmetry_group_IT_number 15
_symmetry_cell_setting 'monoclinic'
loop_
_space_group_symop_operation_xyz
x,y,z
-x,y,1/2-z
-x,-y,-z
x,-y,1/2+z
1/2+x,1/2+y,z
1/2-x,1/2+y,1/2-z
1/2-x,1/2-y,-z
1/2+x,1/2-y,1/2+z
loop_
_atom_site_type_symbol
_atom_site_label
_atom_site_fract_x
_atom_site_fract_y
_atom_site_fract_z
Si Si1 0.699694 0.381821 0.380181
Si Si2 0.972503 0.802259 0.640276
Si Si3 0.217731 0.635904 0.316722
Si Si4 0.699563 0.031941 0.846539
Si Si5 0.340223 0.553189 0.371305
Si Si6 0.024528 0.682118 0.856779
Si Si7 0.062650 0.556569 0.319027
O O1 0.567427 0.343743 0.496881
O O2 0.689426 0.424610 0.287825
O O3 0.722127 0.417690 0.471525
O O4 0.825871 0.343144 0.248888
O O5 0.813447 0.811912 0.730493
O O6 0.994360 0.742045 0.578824
O O7 0.000000 0.809759 0.750000
O O8 0.322287 0.592359 0.282741
O O9 0.153313 0.611759 0.254921
O O10 0.091213 0.644543 0.500126
O O11 0.759436 0.001544 0.906148
O O12 0.660252 0.992770 0.776273
O O13 0.561321 0.062237 0.994346
O O14 0.500000 0.538889 0.250000
O O15 0.000000 0.689496 0.750000
O O16 0.000000 0.547849 0.250000
#
# Coordination Sequence:
#
# PCOD8142413 Si02
#       7
#     8   8   8   8   8   8   8
#     4  12  20  37  58  83 127 154 187 244 284 348
#     4  11  21  37  55  91 125 152 189 235 306 362
#     4  11  19  37  57  82 118 153 188 239 293 340
#     4  10  23  36  58  84 114 157 200 230 292 346
#     4  11  21  37  54  84 124 155 190 236 287 354
#     4  11  21  32  61  91 117 154 193 238 296 358
#     4  10  21  39  57  82 111 151 203 244 277 348
#
# _framework density 19.068383999999998
#
# number of rings (size 3 to 8) (size 9 to 14) (size 15 to 20)
#    0.000    1.143    5.714    1.714    0.000    3.429 
#    2.571    0.000    0.000    0.857    0.000    0.000 
#    0.000    0.000    0.000    0.000    0.000    0.000 
#
# Total GULP energy -346962.363363 kJ/mol
# GULP energy per Si atom -12391.512977 kJ/mol
# Density = 1.902498 g / cm^3
# Si number density = 19.068384 Si / 1000 Ang^3
#
#
#
# Elastic Constant Matrix: (Units=GPa)
#
#
# Indices 1 2 3 4 5 6 
#
# 1 84.5737 43.6145 28.7898 0.0000 -9.1997 0.0000
# 2 43.6145 91.1203 36.8580 0.0000 -0.2864 0.0000
# 3 28.7898 36.8580 68.0499 0.0000 -15.2075 0.0000
# 4 0.0000 0.0000 0.0000 31.0228 0.0000 -4.2760
# 5 -9.1997 -0.2864 -15.2075 0.0000 27.4966 0.0000
# 6 0.0000 0.0000 0.0000 -4.2760 0.0000 23.5962
#
#
#
# Elastic Compliance Matrix: (Units=1/GPa)
#
#
# Indices 1 2 3 4 5 6 
#
# 1 0.016705 -0.007053 -0.002299 0.000000 0.004244 0.000000
# 2 -0.007053 0.017569 -0.008008 0.000000 -0.006606 0.000000
# 3 -0.002299 -0.008008 0.022609 0.000000 0.011652 0.000000
# 4 0.000000 0.000000 0.000000 0.033060 0.000000 0.005991
# 5 0.004244 -0.006606 0.011652 0.000000 0.044164 0.000000
# 6 0.000000 0.000000 0.000000 0.005991 0.000000 0.043465
#
#
# Mechanical properties :
#
#
# Convention : Reuss Voigt Hill
#
# Bulk Modulus (GPa) = 45.11965 51.36315 48.24140
# Shear Modulus (GPa) = 22.76033 25.38855 24.07444
#
# Velocity S-wave (km/s) = 3.45862 3.65286 3.55707
# Velocity P-wave (km/s) = 6.29784 6.69223 6.49803
#
# Compressibility (1/GPa) = 0.02216329
#
# Stress axis : x y z
#
# Youngs Moduli (GPa) = 59.86101 56.91896 44.22971
#
# Poissons Ratio (x) = 0.40143 0.10169
# Poissons Ratio (y) = 0.42218 0.35421
# Poissons Ratio (z) = 0.13763 0.45582
#
# Static dielectric constant tensor:
#      x y z
#    x 3.351350 0.000000 -0.229130 
#    y 0.000000 3.890400 0.000000 
#    z -0.229130 0.000000 3.345510 
# 
# 
# High freq. dielectric constant tensor:
#      x y z
#    x 1.714350 0.000000 -0.027850 
#    y 0.000000 1.747250 0.000000 
#    z -0.027850 0.000000 1.730530 
# 
# From -- ./inp_files/34155.got.cif
#   From: 2010.06.25/outbox.cif.g09.slc.cpg/sg15_18_cif.got.tgz:34155.got - 2010.06.28 07:06:18.
