data_PCOD8142448
_publ_section_title
;
Structure prediction by ZEFSAII (Michael W. Deem and Ramdas Pophale) SiO2 
 PCOD8142448
Probable space group: C 2/C
;
_chemical_formula_sum "Si O2"
_cell_formula_units_Z 64
_cell_length_a 22.643320
_cell_length_b 15.710855
_cell_length_c 11.470332
_cell_angle_alpha 90.000000
_cell_angle_beta 57.129169
_cell_angle_gamma 90.000000
_cell_volume 3427.216755
_symmetry_space_group_name_H-M "C 2/C"
_symmetry_group_IT_number 15
_symmetry_cell_setting 'monoclinic'
loop_
_space_group_symop_operation_xyz
x,y,z
-x,y,1/2-z
-x,-y,-z
x,-y,1/2+z
1/2+x,1/2+y,z
1/2-x,1/2+y,1/2-z
1/2-x,1/2-y,-z
1/2+x,1/2-y,1/2+z
loop_
_atom_site_type_symbol
_atom_site_label
_atom_site_fract_x
_atom_site_fract_y
_atom_site_fract_z
Si Si1 0.073252 0.602335 0.628106
Si Si2 0.202096 0.358701 0.599823
Si Si3 0.822897 0.448775 0.304415
Si Si4 0.678585 0.739684 0.420924
Si Si5 0.110053 0.725905 0.393796
Si Si6 0.477220 0.757492 0.904783
Si Si7 0.940948 0.449903 0.992880
Si Si8 0.737006 0.706521 0.888556
O O1 0.132667 0.615165 0.660408
O O2 0.092527 0.641279 0.483774
O O3 0.068032 0.499989 0.618826
O O4 0.000000 0.642678 0.750000
O O5 0.193313 0.459413 0.623709
O O6 0.282099 0.333882 0.547447
O O7 0.184624 0.329859 0.485696
O O8 0.150257 0.303711 0.735474
O O9 0.865893 0.453174 0.138739
O O10 0.750768 0.395310 0.370451
O O11 0.597316 0.711879 0.490857
O O12 0.711444 0.746831 0.257761
O O13 0.156714 0.785117 0.428741
O O14 0.038511 0.773877 0.428618
O O15 0.500000 0.736397 0.750000
O O16 0.468056 0.857385 0.934580
O O17 0.000000 0.500000 0.000000
O O18 0.750000 0.750000 0.000000
#
# Coordination Sequence:
#
# PCOD8142448 Si02
#       8
#     8   8   8   8   8   8   8   8
#     4  12  22  31  51  83 123 156 189 235 284 360
#     4  10  21  39  59  85 115 154 200 250 284 345
#     4  12  22  36  57  81 116 160 197 238 294 342
#     4  10  22  39  59  84 120 151 201 243 293 344
#     4  11  22  37  55  83 119 155 200 239 286 349
#     4  12  21  35  58  84 117 159 193 240 295 343
#     4  12  21  31  48  85 122 154 186 229 284 361
#     4  11  24  41  57  81 121 162 199 238 288 353
#
# _framework density 18.674043999999999
#
# number of rings (size 3 to 8) (size 9 to 14) (size 15 to 20)
#    0.000    0.750    7.500    1.125    0.000    0.000 
#    0.000    0.000    0.000    0.750    0.000    0.875 
#    0.000    0.000    0.000    0.000    0.000    0.000 
#
# Total GULP energy -396667.681574 kJ/mol
# GULP energy per Si atom -12395.865049 kJ/mol
# Density = 1.863154 g / cm^3
# Si number density = 18.674044 Si / 1000 Ang^3
#
#
#
# Elastic Constant Matrix: (Units=GPa)
#
#
# Indices 1 2 3 4 5 6 
#
# 1 152.4448 30.7367 39.8403 0.0000 -14.2962 0.0000
# 2 30.7367 46.8978 11.1623 0.0000 -6.4641 0.0000
# 3 39.8403 11.1623 91.1696 0.0000 2.4210 0.0000
# 4 0.0000 0.0000 0.0000 17.7807 0.0000 2.4748
# 5 -14.2962 -6.4641 2.4210 0.0000 31.6373 0.0000
# 6 0.0000 0.0000 0.0000 2.4748 0.0000 16.6025
#
#
#
# Elastic Compliance Matrix: (Units=1/GPa)
#
#
# Indices 1 2 3 4 5 6 
#
# 1 0.008620 -0.004413 -0.003313 0.000000 0.003247 0.000000
# 2 -0.004413 0.024944 -0.001210 0.000000 0.003195 0.000000
# 3 -0.003313 -0.001210 0.012636 0.000000 -0.002711 0.000000
# 4 0.000000 0.000000 0.000000 0.057432 0.000000 -0.008561
# 5 0.003247 0.003195 -0.002711 0.000000 0.033936 0.000000
# 6 0.000000 0.000000 0.000000 -0.008561 0.000000 0.061508
#
#
# Mechanical properties :
#
#
# Convention : Reuss Voigt Hill
#
# Bulk Modulus (GPa) = 35.30141 50.44343 42.87242
# Shear Modulus (GPa) = 22.08569 27.12230 24.60400
#
# Velocity S-wave (km/s) = 3.44276 3.81518 3.63375
# Velocity P-wave (km/s) = 5.89479 6.81753 6.37288
#
# Compressibility (1/GPa) = 0.02832748
#
# Stress axis : x y z
#
# Youngs Moduli (GPa) = 116.01154 40.09001 79.13691
#
# Poissons Ratio (x) = 0.17693 0.26215
# Poissons Ratio (y) = 0.51201 0.09577
# Poissons Ratio (z) = 0.38431 0.04852
#
# Static dielectric constant tensor:
#      x y z
#    x 4.003310 0.000000 -0.002230 
#    y 0.000000 3.384730 0.000000 
#    z -0.002230 0.000000 3.573570 
# 
# 
# High freq. dielectric constant tensor:
#      x y z
#    x 1.742470 0.000000 0.008070 
#    y 0.000000 1.672550 0.000000 
#    z 0.008070 0.000000 1.734710 
# 
# From -- ./inp_files/113480.got.cif
#   From: 2010.06.25/outbox.cif.g09.slc.cpg/sg15_57_cif.got.tgz:113480.got - 2010.06.28 07:06:18.
