data_PCOD8142065
_publ_section_title
;
Structure prediction by ZEFSAII (Michael W. Deem and Ramdas Pophale) SiO2 
 PCOD8142065
Probable space group: C 2/C
;
_chemical_formula_sum "Si O2"
_cell_formula_units_Z 52
_cell_length_a 7.555516
_cell_length_b 12.657120
_cell_length_c 25.318610
_cell_angle_alpha 90.000000
_cell_angle_beta 63.808870
_cell_angle_gamma 90.000000
_cell_volume 2172.648554
_symmetry_space_group_name_H-M "C 2/C"
_symmetry_group_IT_number 15
_symmetry_cell_setting 'monoclinic'
loop_
_space_group_symop_operation_xyz
x,y,z
-x,y,1/2-z
-x,-y,-z
x,-y,1/2+z
1/2+x,1/2+y,z
1/2-x,1/2+y,1/2-z
1/2-x,1/2-y,-z
1/2+x,1/2-y,1/2+z
loop_
_atom_site_type_symbol
_atom_site_label
_atom_site_fract_x
_atom_site_fract_y
_atom_site_fract_z
Si Si1 0.964780 0.297134 0.964861
Si Si2 0.791565 0.394585 0.248436
Si Si3 0.225880 0.728275 0.338427
Si Si4 0.018333 0.321591 0.377794
Si Si5 0.671752 0.991391 0.025303
Si Si6 0.518392 0.638776 0.455471
Si Si7 0.000000 0.060804 0.250000
O O1 0.964055 0.419287 0.987491
O O2 0.025907 0.304641 0.894982
O O3 0.750000 0.250000 0.000000
O O4 0.085358 0.216786 0.986214
O O5 0.684098 0.296691 0.291759
O O6 0.644304 0.493818 0.269094
O O7 0.000000 0.421520 0.250000
O O8 0.811470 0.360394 0.184652
O O9 0.327121 0.802682 0.367959
O O10 0.365912 0.630188 0.306518
O O11 0.972350 0.414737 0.424272
O O12 0.084957 0.212637 0.397924
O O13 0.830077 0.934710 0.965578
O O14 0.798833 0.066824 0.049340
#
# Coordination Sequence:
#
# PCOD8142065 Si02
#       7
#     8   8   8   8   8   8   4
#     4  10  22  41  64  95 136 175 226 287 337 416
#     4  10  25  48  70 103 138 179 237 289 351 426
#     4  11  23  46  66  99 141 172 237 296 334 425
#     4  11  21  42  66  91 135 173 217 289 339 403
#     4  10  21  38  61  91 126 172 221 265 340 406
#     4  10  22  39  60  92 128 172 218 270 339 397
#     4  12  24  48  76 102 136 194 228 290 366 408
#
# _framework density 23.933923
#
# number of rings (size 3 to 8) (size 9 to 14) (size 15 to 20)
#    0.000    1.538    3.846    1.385    0.000    5.538 
#    4.154    0.000    0.000    0.000    0.000    0.000 
#    0.000    0.000    0.000    0.000    0.000    0.000 
#
# Total GULP energy -322197.106193 kJ/mol
# GULP energy per Si atom -12392.196392 kJ/mol
# Density = 2.387945 g / cm^3
# Si number density = 23.933923 Si / 1000 Ang^3
#
#
#
# Elastic Constant Matrix: (Units=GPa)
#
#
# Indices 1 2 3 4 5 6 
#
# 1 71.4207 41.7294 36.9594 0.0000 -4.6727 0.0000
# 2 41.7294 142.4096 58.0365 0.0000 -7.2368 0.0000
# 3 36.9594 58.0365 159.7064 0.0000 -15.9099 0.0000
# 4 0.0000 0.0000 0.0000 33.1752 0.0000 -0.2263
# 5 -4.6727 -7.2368 -15.9099 0.0000 30.5949 0.0000
# 6 0.0000 0.0000 0.0000 -0.2263 0.0000 45.4692
#
#
#
# Elastic Compliance Matrix: (Units=1/GPa)
#
#
# Indices 1 2 3 4 5 6 
#
# 1 0.017777 -0.004142 -0.002569 0.000000 0.000399 0.000000
# 2 -0.004142 0.009213 -0.002357 0.000000 0.000321 0.000000
# 3 -0.002569 -0.002357 0.008034 0.000000 0.003228 0.000000
# 4 0.000000 0.000000 0.000000 0.030144 0.000000 0.000150
# 5 0.000399 0.000321 0.003228 0.000000 0.034501 0.000000
# 6 0.000000 0.000000 0.000000 0.000150 0.000000 0.021994
#
#
# Mechanical properties :
#
#
# Convention : Reuss Voigt Hill
#
# Bulk Modulus (GPa) = 59.21564 71.88748 65.55156
# Shear Modulus (GPa) = 34.38123 37.63527 36.00825
#
# Velocity S-wave (km/s) = 3.79424 3.96973 3.88298
# Velocity P-wave (km/s) = 6.63250 7.14932 6.89575
#
# Compressibility (1/GPa) = 0.01688743
#
# Stress axis : x y z
#
# Youngs Moduli (GPa) = 56.25209 108.54627 124.46696
#
# Poissons Ratio (x) = 0.44958 0.31977
# Poissons Ratio (y) = 0.23299 0.29342
# Poissons Ratio (z) = 0.14452 0.25589
#
# Static dielectric constant tensor:
#      x y z
#    x 4.996220 0.000000 0.414320 
#    y 0.000000 7.684460 0.000000 
#    z 0.414320 0.000000 4.876680 
# 
# 
# High freq. dielectric constant tensor:
#      x y z
#    x 1.948810 0.000000 -0.002720 
#    y 0.000000 1.974000 0.000000 
#    z -0.002720 0.000000 1.943780 
# 
# From -- ./inp_files/287909.got.cif
#   From: 2010.06.25/outbox.cif.g09.slc.cpg/sg15_144_cif.got.tgz:287909.got - 2010.06.28 07:06:18.
