data_PCOD8142630
_publ_section_title
;
Structure prediction by ZEFSAII (Michael W. Deem and Ramdas Pophale) SiO2 
 PCOD8142630
Probable space group: C 2/C
;
_chemical_formula_sum "Si O2"
_cell_formula_units_Z 64
_cell_length_a 19.898242
_cell_length_b 21.875377
_cell_length_c 9.336030
_cell_angle_alpha 90.000000
_cell_angle_beta 127.009208
_cell_angle_gamma 90.000000
_cell_volume 3245.103153
_symmetry_space_group_name_H-M "C 2/C"
_symmetry_group_IT_number 15
_symmetry_cell_setting 'monoclinic'
loop_
_space_group_symop_operation_xyz
x,y,z
-x,y,1/2-z
-x,-y,-z
x,-y,1/2+z
1/2+x,1/2+y,z
1/2-x,1/2+y,1/2-z
1/2-x,1/2-y,-z
1/2+x,1/2-y,1/2+z
loop_
_atom_site_type_symbol
_atom_site_label
_atom_site_fract_x
_atom_site_fract_y
_atom_site_fract_z
Si Si1 0.651804 0.270871 0.212873
Si Si2 0.349419 0.746286 0.466004
Si Si3 0.004850 0.439816 0.419752
Si Si4 0.838632 0.126872 0.296847
Si Si5 0.644585 0.857134 0.218289
Si Si6 0.664599 0.386676 0.042084
Si Si7 0.647357 0.152110 0.051797
Si Si8 0.064005 0.011536 0.959478
O O1 0.616775 0.267181 0.330265
O O2 0.750624 0.258761 0.338581
O O3 0.626967 0.334558 0.101077
O O4 0.613178 0.214296 0.077807
O O5 0.379212 0.688458 0.411103
O O6 0.385720 0.806041 0.434350
O O7 0.088782 0.400134 0.543053
O O8 0.000000 0.458158 0.250000
O O9 0.000000 0.500000 0.500000
O O10 0.924196 0.408192 0.382941
O O11 0.740260 0.129128 0.210281
O O12 0.876712 0.068768 0.427794
O O13 0.856239 0.127622 0.149965
O O14 0.735336 0.887493 0.301684
O O15 0.642267 0.832251 0.377348
O O16 0.624135 0.452563 0.020192
O O17 0.000000 0.026027 0.750000
O O18 0.000000 0.000000 0.000000
#
# Coordination Sequence:
#
# PCOD8142630 Si02
#       8
#     8   8   8   8   8   8   8   8
#     4   9  18  34  59  91 118 147 195 245 290 345
#     4   9  18  34  59  91 117 148 195 245 291 343
#     4  10  22  38  56  86 123 153 192 238 282 341
#     4  10  21  39  63  84 116 159 197 237 299 357
#     4   9  19  38  61  87 119 157 197 236 289 355
#     4  10  21  39  63  84 115 160 197 238 299 355
#     4   9  19  38  61  87 118 158 196 236 290 355
#     4  12  26  44  58  85 121 153 202 256 301 359
#
# _framework density 19.722021999999999
#
# number of rings (size 3 to 8) (size 9 to 14) (size 15 to 20)
#    0.000    2.250    1.250    0.750    3.500    4.000 
#    2.250    0.625    0.000    0.000    0.000    0.000 
#    0.000    0.000    0.000    0.000    0.000    0.000 
#
# Total GULP energy -396481.137084 kJ/mol
# GULP energy per Si atom -12390.035534 kJ/mol
# Density = 1.967713 g / cm^3
# Si number density = 19.722022 Si / 1000 Ang^3
#
#
#
# Elastic Constant Matrix: (Units=GPa)
#
#
# Indices 1 2 3 4 5 6 
#
# 1 91.6094 67.0617 49.6112 0.0000 -15.2571 0.0000
# 2 67.0617 173.1511 86.8450 0.0000 -15.3879 0.0000
# 3 49.6112 86.8450 109.1949 0.0000 -14.0197 0.0000
# 4 0.0000 0.0000 0.0000 42.8450 0.0000 0.2243
# 5 -15.2571 -15.3879 -14.0197 0.0000 25.7354 0.0000
# 6 0.0000 0.0000 0.0000 0.2243 0.0000 57.8206
#
#
#
# Elastic Compliance Matrix: (Units=1/GPa)
#
#
# Indices 1 2 3 4 5 6 
#
# 1 0.016889 -0.004255 -0.003581 0.000000 0.005518 0.000000
# 2 -0.004255 0.010749 -0.006575 0.000000 0.000323 0.000000
# 3 -0.003581 -0.006575 0.016382 0.000000 0.002870 0.000000
# 4 0.000000 0.000000 0.000000 0.023340 0.000000 -0.000091
# 5 0.005518 0.000323 0.002870 0.000000 0.043885 0.000000
# 6 0.000000 0.000000 0.000000 -0.000091 0.000000 0.017295
#
#
# Mechanical properties :
#
#
# Convention : Reuss Voigt Hill
#
# Bulk Modulus (GPa) = 65.78941 86.77680 76.28311
# Shear Modulus (GPa) = 30.78277 36.64270 33.71273
#
# Velocity S-wave (km/s) = 3.95502 4.31508 4.13897
# Velocity P-wave (km/s) = 7.36797 8.30193 7.84886
#
# Compressibility (1/GPa) = 0.01520001
#
# Stress axis : x y z
#
# Youngs Moduli (GPa) = 59.21136 93.02794 61.04099
#
# Poissons Ratio (x) = 0.39580 0.21858
# Poissons Ratio (y) = 0.25192 0.40133
# Poissons Ratio (z) = 0.21203 0.61163
#
# Static dielectric constant tensor:
#      x y z
#    x 3.587830 0.000000 -0.176310 
#    y 0.000000 3.579110 0.000000 
#    z -0.176310 0.000000 3.338480 
# 
# 
# High freq. dielectric constant tensor:
#      x y z
#    x 1.768930 0.000000 -0.011660 
#    y 0.000000 1.774640 0.000000 
#    z -0.011660 0.000000 1.768220 
# 
# From -- ./inp_files/57886.got.cif
#   From: 2010.06.25/outbox.cif.g09.slc.cpg/sg15_29_cif.got.tgz:57886.got - 2010.06.28 07:06:18.
