data_PCOD8142365
_publ_section_title
;
Structure prediction by ZEFSAII (Michael W. Deem and Ramdas Pophale) SiO2 
 PCOD8142365
Probable space group: C 2/C
;
_chemical_formula_sum "Si O2"
_cell_formula_units_Z 44
_cell_length_a 9.169490
_cell_length_b 24.412673
_cell_length_c 11.267000
_cell_angle_alpha 90.000000
_cell_angle_beta 129.123401
_cell_angle_gamma 90.000000
_cell_volume 1956.646146
_symmetry_space_group_name_H-M "C 2/C"
_symmetry_group_IT_number 15
_symmetry_cell_setting 'monoclinic'
loop_
_space_group_symop_operation_xyz
x,y,z
-x,y,1/2-z
-x,-y,-z
x,-y,1/2+z
1/2+x,1/2+y,z
1/2-x,1/2+y,1/2-z
1/2-x,1/2-y,-z
1/2+x,1/2-y,1/2+z
loop_
_atom_site_type_symbol
_atom_site_label
_atom_site_fract_x
_atom_site_fract_y
_atom_site_fract_z
Si Si1 0.500000 0.513068 0.250000
Si Si2 0.174454 0.433782 0.171941
Si Si3 0.771248 0.581947 0.532161
Si Si4 0.286003 0.698473 0.103365
Si Si5 0.207458 0.279303 0.822047
Si Si6 0.707879 0.666639 0.902105
O O1 0.321796 0.480151 0.209052
O O2 0.581249 0.551717 0.394940
O O3 0.241190 0.412133 0.333374
O O4 0.170523 0.386139 0.070776
O O5 0.955116 0.451861 0.077227
O O6 0.783516 0.644127 0.495579
O O7 0.500000 0.695739 0.250000
O O8 0.183381 0.701378 0.176256
O O9 0.250000 0.750000 0.000000
O O10 0.308506 0.219981 0.892078
O O11 0.000000 0.263067 0.750000
O O12 0.294519 0.325276 0.955041
O O13 0.500000 0.653310 0.750000
#
# Coordination Sequence:
#
# PCOD8142365 Si02
#       6
#     4   8   8   8   8   8
#     4  12  24  48  70 104 130 184 240 286 348 408
#     4  11  24  44  74  97 135 185 229 286 354 413
#     4  11  26  46  68 104 143 175 230 298 346 414
#     4  12  28  43  69 104 145 185 227 283 358 420
#     4  10  23  40  63  96 138 178 227 280 331 412
#     4  10  21  38  67  96 131 176 232 273 334 408
#
# _framework density 22.487459999999999
#
# number of rings (size 3 to 8) (size 9 to 14) (size 15 to 20)
#    0.000    1.091    1.818    3.273   15.273    0.000 
#    3.273    0.000    0.000    0.000    0.000    0.000 
#    0.000    0.000    0.000    0.000    0.000    0.000 
#
# Total GULP energy -272651.790016 kJ/mol
# GULP energy per Si atom -12393.263183 kJ/mol
# Density = 2.243628 g / cm^3
# Si number density = 22.487460 Si / 1000 Ang^3
#
#
#
# Elastic Constant Matrix: (Units=GPa)
#
#
# Indices 1 2 3 4 5 6 
#
# 1 76.1944 38.4554 27.4402 0.0000 -12.4832 0.0000
# 2 38.4554 106.2015 37.8091 0.0000 -9.3731 0.0000
# 3 27.4402 37.8091 122.6138 0.0000 -16.9504 0.0000
# 4 0.0000 0.0000 0.0000 38.9557 0.0000 2.6068
# 5 -12.4832 -9.3731 -16.9504 0.0000 46.0038 0.0000
# 6 0.0000 0.0000 0.0000 2.6068 0.0000 25.7659
#
#
#
# Elastic Compliance Matrix: (Units=1/GPa)
#
#
# Indices 1 2 3 4 5 6 
#
# 1 0.016867 -0.005226 -0.001768 0.000000 0.002861 0.000000
# 2 -0.005226 0.012240 -0.002588 0.000000 0.000122 0.000000
# 3 -0.001768 -0.002588 0.009704 0.000000 0.002569 0.000000
# 4 0.000000 0.000000 0.000000 0.025845 0.000000 -0.002615
# 5 0.002861 0.000122 0.002569 0.000000 0.023485 0.000000
# 6 0.000000 0.000000 0.000000 -0.002615 0.000000 0.039076
#
#
# Mechanical properties :
#
#
# Convention : Reuss Voigt Hill
#
# Bulk Modulus (GPa) = 50.89372 56.93546 53.91459
# Shear Modulus (GPa) = 32.69457 35.56541 34.12999
#
# Velocity S-wave (km/s) = 3.81714 3.98121 3.90004
# Velocity P-wave (km/s) = 6.48912 6.81961 6.65641
#
# Compressibility (1/GPa) = 0.01964879
#
# Stress axis : x y z
#
# Youngs Moduli (GPa) = 59.28700 81.69628 103.04519
#
# Poissons Ratio (x) = 0.42692 0.18217
# Poissons Ratio (y) = 0.30981 0.26669
# Poissons Ratio (z) = 0.10481 0.21144
#
# Static dielectric constant tensor:
#      x y z
#    x 4.090230 0.000000 0.104010 
#    y 0.000000 3.784420 0.000000 
#    z 0.104010 0.000000 4.423670 
# 
# 
# High freq. dielectric constant tensor:
#      x y z
#    x 1.890430 0.000000 0.006980 
#    y 0.000000 1.873440 0.000000 
#    z 0.006980 0.000000 1.904560 
# 
# From -- ./inp_files/79977.got.cif
#   From: 2010.06.25/outbox.cif.g09.slc.cpg/sg15_40_cif.got.tgz:79977.got - 2010.06.28 07:06:18.
