data_PCOD8142256
_publ_section_title
;
Structure prediction by ZEFSAII (Michael W. Deem and Ramdas Pophale) SiO2 
 PCOD8142256
Probable space group: C 2/C
;
_chemical_formula_sum "Si O2"
_cell_formula_units_Z 56
_cell_length_a 16.294683
_cell_length_b 17.924409
_cell_length_c 11.686747
_cell_angle_alpha 90.000000
_cell_angle_beta 54.947491
_cell_angle_gamma 90.000000
_cell_volume 2794.280245
_symmetry_space_group_name_H-M "C 2/C"
_symmetry_group_IT_number 15
_symmetry_cell_setting 'monoclinic'
loop_
_space_group_symop_operation_xyz
x,y,z
-x,y,1/2-z
-x,-y,-z
x,-y,1/2+z
1/2+x,1/2+y,z
1/2-x,1/2+y,1/2-z
1/2-x,1/2-y,-z
1/2+x,1/2-y,1/2+z
loop_
_atom_site_type_symbol
_atom_site_label
_atom_site_fract_x
_atom_site_fract_y
_atom_site_fract_z
Si Si1 0.440860 0.923558 0.905786
Si Si2 0.592015 0.828401 0.920835
Si Si3 0.406308 0.539741 0.412650
Si Si4 0.284006 0.952488 0.588788
Si Si5 0.351445 0.413546 0.607031
Si Si6 0.492429 0.684954 0.389245
Si Si7 0.796700 0.317897 0.897019
O O1 0.500000 0.958952 0.750000
O O2 0.515958 0.893414 0.942288
O O3 0.380274 0.851902 0.911752
O O4 0.369470 0.985294 0.017040
O O5 0.665687 0.869415 0.953315
O O6 0.654796 0.795503 0.763759
O O7 0.534411 0.759601 0.022522
O O8 0.500000 0.537101 0.250000
O O9 0.295941 0.534349 0.447365
O O10 0.425094 0.473419 0.488386
O O11 0.408778 0.620468 0.472757
O O12 0.227077 0.960701 0.754878
O O13 0.405375 0.351321 0.642546
O O14 0.293620 0.375180 0.549283
O O15 0.500000 0.706416 0.250000
O O16 0.750000 0.250000 0.000000
#
# Coordination Sequence:
#
# PCOD8142256 Si02
#       7
#     8   8   8   8   8   8   8
#     4  10  21  42  66  94 127 163 212 265 310 372
#     4  10  24  40  62  93 130 169 206 258 318 374
#     4  11  23  41  66  92 126 164 210 259 315 375
#     4  11  22  42  65  94 125 163 212 258 316 370
#     4  11  22  41  64  92 124 163 208 267 308 370
#     4  11  23  42  60  87 130 164 207 256 312 378
#     4  10  21  38  64  93 126 163 211 261 312 366
#
# _framework density 20.040939000000002
#
# number of rings (size 3 to 8) (size 9 to 14) (size 15 to 20)
#    0.000    1.429    4.286    1.714    0.000    3.429 
#    2.571    0.000    0.000    0.000    0.000    0.000 
#    0.000    0.000    0.000    0.000    0.000    0.000 
#
# Total GULP energy -347090.797087 kJ/mol
# GULP energy per Si atom -12396.099896 kJ/mol
# Density = 1.999533 g / cm^3
# Si number density = 20.040939 Si / 1000 Ang^3
#
#
#
# Elastic Constant Matrix: (Units=GPa)
#
#
# Indices 1 2 3 4 5 6 
#
# 1 100.6547 31.4439 33.8954 0.0000 -7.5242 0.0000
# 2 31.4439 103.2966 75.9087 0.0000 -7.9831 0.0000
# 3 33.8954 75.9087 102.1111 0.0000 -11.0966 0.0000
# 4 0.0000 0.0000 0.0000 43.5337 0.0000 -9.6421
# 5 -7.5242 -7.9831 -11.0966 0.0000 24.3839 0.0000
# 6 0.0000 0.0000 0.0000 -9.6421 0.0000 19.4714
#
#
#
# Elastic Compliance Matrix: (Units=1/GPa)
#
#
# Indices 1 2 3 4 5 6 
#
# 1 0.011374 -0.001527 -0.002434 0.000000 0.001902 0.000000
# 2 -0.001527 0.021543 -0.015563 0.000000 -0.000500 0.000000
# 3 -0.002434 -0.015563 0.022656 0.000000 0.004464 0.000000
# 4 0.000000 0.000000 0.000000 0.025800 0.000000 0.012776
# 5 0.001902 -0.000500 0.004464 0.000000 0.043465 0.000000
# 6 0.000000 0.000000 0.000000 0.012776 0.000000 0.057684
#
#
# Mechanical properties :
#
#
# Convention : Reuss Voigt Hill
#
# Bulk Modulus (GPa) = 60.51063 65.39539 62.95301
# Shear Modulus (GPa) = 22.01890 28.46544 25.24217
#
# Velocity S-wave (km/s) = 3.31825 3.77286 3.55284
# Velocity P-wave (km/s) = 6.70374 7.18895 6.95058
#
# Compressibility (1/GPa) = 0.01652602
#
# Stress axis : x y z
#
# Youngs Moduli (GPa) = 87.92251 46.41786 44.13929
#
# Poissons Ratio (x) = 0.07086 0.10743
# Poissons Ratio (y) = 0.13423 0.68693
# Poissons Ratio (z) = 0.21399 0.72239
#
# Static dielectric constant tensor:
#      x y z
#    x 3.869040 0.000000 -0.211300 
#    y 0.000000 3.683420 0.000000 
#    z -0.211300 0.000000 3.416630 
# 
# 
# High freq. dielectric constant tensor:
#      x y z
#    x 1.803210 0.000000 -0.003150 
#    y 0.000000 1.776650 0.000000 
#    z -0.003150 0.000000 1.770940 
# 
# From -- ./inp_files/106620.got.cif
#   From: 2010.06.25/outbox.cif.g09.slc.cpg/sg15_54_cif.got.tgz:106620.got - 2010.06.28 07:06:18.
