data_PCOD8142112
_publ_section_title
;
Structure prediction by ZEFSAII (Michael W. Deem and Ramdas Pophale) SiO2 
 PCOD8142112
Probable space group: C 2/C
;
_chemical_formula_sum "Si O2"
_cell_formula_units_Z 64
_cell_length_a 18.994527
_cell_length_b 18.619122
_cell_length_c 14.188257
_cell_angle_alpha 90.000000
_cell_angle_beta 137.119328
_cell_angle_gamma 90.000000
_cell_volume 3414.507589
_symmetry_space_group_name_H-M "C 2/C"
_symmetry_group_IT_number 15
_symmetry_cell_setting 'monoclinic'
loop_
_space_group_symop_operation_xyz
x,y,z
-x,y,1/2-z
-x,-y,-z
x,-y,1/2+z
1/2+x,1/2+y,z
1/2-x,1/2+y,1/2-z
1/2-x,1/2-y,-z
1/2+x,1/2-y,1/2+z
loop_
_atom_site_type_symbol
_atom_site_label
_atom_site_fract_x
_atom_site_fract_y
_atom_site_fract_z
Si Si1 0.092597 0.371849 0.904192
Si Si2 0.375047 0.365310 0.311109
Si Si3 0.799463 0.828113 0.043140
Si Si4 0.390401 0.648007 0.433661
Si Si5 0.104003 0.533813 0.944074
Si Si6 0.762986 0.009780 0.254069
Si Si7 0.825602 0.298734 0.326187
Si Si8 0.615944 0.922973 0.244392
O O1 0.061818 0.452572 0.898226
O O2 0.000000 0.336810 0.750000
O O3 0.198394 0.379181 0.947280
O O4 0.112509 0.327456 0.020178
O O5 0.378454 0.348341 0.203673
O O6 0.487837 0.358256 0.466704
O O7 0.334087 0.445070 0.289155
O O8 0.297562 0.307094 0.280780
O O9 0.750000 0.750000 0.000000
O O10 0.868594 0.834381 0.019886
O O11 0.336256 0.572963 0.360397
O O12 0.348925 0.714801 0.330656
O O13 0.136247 0.567286 0.875327
O O14 0.006476 0.573270 0.895523
O O15 0.202610 0.542323 0.106429
O O16 0.682378 0.983090 0.254085
O O17 0.854550 0.343321 0.261437
#
# Coordination Sequence:
#
# PCOD8142112 Si02
#       8
#     8   8   8   8   8   8   8   8
#     4  11  20  33  57  88 129 146 185 245 305 361
#     4  10  22  42  55  83 128 155 198 252 293 355
#     4  11  21  37  56  91 126 155 193 239 310 360
#     4  12  24  37  63  86 115 171 202 240 302 365
#     4  11  20  37  62  94 116 156 203 245 300 364
#     4  11  23  39  60  87 125 157 210 244 290 363
#     4  10  23  39  56  87 125 152 195 255 300 351
#     4  10  21  38  62  89 125 156 193 255 308 345
#
# _framework density 18.743551
#
# number of rings (size 3 to 8) (size 9 to 14) (size 15 to 20)
#    0.000    1.250    7.500    1.875    1.750    1.000 
#    0.000    0.625    0.000    1.500    0.000    0.000 
#    0.000    0.000    0.000    0.000    0.000    0.000 
#
# Total GULP energy -396675.634188 kJ/mol
# GULP energy per Si atom -12396.113568 kJ/mol
# Density = 1.870089 g / cm^3
# Si number density = 18.743551 Si / 1000 Ang^3
#
#
#
# Elastic Constant Matrix: (Units=GPa)
#
#
# Indices 1 2 3 4 5 6 
#
# 1 95.2670 43.3900 49.2555 0.0000 7.8612 0.0000
# 2 43.3900 92.6939 40.9033 0.0000 0.8898 0.0000
# 3 49.2555 40.9033 101.3440 0.0000 18.0188 0.0000
# 4 0.0000 0.0000 0.0000 19.9541 0.0000 -5.6855
# 5 7.8612 0.8898 18.0188 0.0000 25.3721 0.0000
# 6 0.0000 0.0000 0.0000 -5.6855 0.0000 21.9588
#
#
#
# Elastic Compliance Matrix: (Units=1/GPa)
#
#
# Indices 1 2 3 4 5 6 
#
# 1 0.015620 -0.004885 -0.005482 0.000000 -0.000775 0.000000
# 2 -0.004885 0.014978 -0.004403 0.000000 0.004115 0.000000
# 3 -0.005482 -0.004403 0.016000 0.000000 -0.009510 0.000000
# 4 0.000000 0.000000 0.000000 0.054107 0.000000 0.014009
# 5 -0.000775 0.004115 -0.009510 0.000000 0.046263 0.000000
# 6 0.000000 0.000000 0.000000 0.014009 0.000000 0.049167
#
#
# Mechanical properties :
#
#
# Convention : Reuss Voigt Hill
#
# Bulk Modulus (GPa) = 58.62422 61.82252 60.22337
# Shear Modulus (GPa) = 21.61129 23.84075 22.72602
#
# Velocity S-wave (km/s) = 3.39927 3.57030 3.48583
# Velocity P-wave (km/s) = 6.83751 7.07468 6.95711
#
# Compressibility (1/GPa) = 0.01705780
#
# Stress axis : x y z
#
# Youngs Moduli (GPa) = 64.01942 66.76357 62.50143
#
# Poissons Ratio (x) = 0.32615 0.34265
# Poissons Ratio (y) = 0.31275 0.27517
# Poissons Ratio (z) = 0.35097 0.29394
#
# Static dielectric constant tensor:
#      x y z
#    x 3.830270 0.000000 0.187550 
#    y 0.000000 3.519000 0.000000 
#    z 0.187550 0.000000 3.467040 
# 
# 
# High freq. dielectric constant tensor:
#      x y z
#    x 1.726230 0.000000 0.012100 
#    y 0.000000 1.722850 0.000000 
#    z 0.012100 0.000000 1.720690 
# 
# From -- ./inp_files/163276.got.cif
#   From: 2010.06.25/outbox.cif.g09.slc.cpg/sg15_82_cif.got.tgz:163276.got - 2010.06.28 07:06:18.
