data_PCOD8142407
_publ_section_title
;
Structure prediction by ZEFSAII (Michael W. Deem and Ramdas Pophale) SiO2 
 PCOD8142407
Probable space group: C 2/C
;
_chemical_formula_sum "Si O2"
_cell_formula_units_Z 40
_cell_length_a 11.291912
_cell_length_b 30.522310
_cell_length_c 5.326060
_cell_angle_alpha 90.000000
_cell_angle_beta 99.775975
_cell_angle_gamma 90.000000
_cell_volume 1808.999278
_symmetry_space_group_name_H-M "C 2/C"
_symmetry_group_IT_number 15
_symmetry_cell_setting 'monoclinic'
loop_
_space_group_symop_operation_xyz
x,y,z
-x,y,1/2-z
-x,-y,-z
x,-y,1/2+z
1/2+x,1/2+y,z
1/2-x,1/2+y,1/2-z
1/2-x,1/2-y,-z
1/2+x,1/2-y,1/2+z
loop_
_atom_site_type_symbol
_atom_site_label
_atom_site_fract_x
_atom_site_fract_y
_atom_site_fract_z
Si Si1 0.134722 0.481702 0.560833
Si Si2 0.893293 0.698245 0.521850
Si Si3 0.325038 0.276465 0.225764
Si Si4 0.366786 0.372236 0.182864
Si Si5 0.280872 0.113105 0.359316
O O1 0.201049 0.497108 0.328083
O O2 0.135476 0.429365 0.582516
O O3 0.000000 0.500000 0.500000
O O4 0.764435 0.706384 0.595196
O O5 0.924016 0.742069 0.372355
O O6 0.871874 0.654273 0.349861
O O7 0.000000 0.688816 0.750000
O O8 0.384952 0.319980 0.133997
O O9 0.250000 0.250000 0.000000
O O10 0.500000 0.392876 0.250000
O O11 0.297108 0.382184 0.415197
O O12 0.300964 0.392576 0.917134
#
# Coordination Sequence:
#
# PCOD8142407 Si02
#       5
#     8   8   8   8   8
#     4  10  22  41  68  98 131 172 198 264 344 412
#     4  10  23  36  59  87 130 176 215 278 319 385
#     4  10  21  39  53  88 129 173 229 259 322 373
#     4  11  24  41  70  91 133 184 223 277 318 382
#     4  11  23  44  64 101 134 163 228 269 327 408
#
# _framework density 22.111675000000002
#
# number of rings (size 3 to 8) (size 9 to 14) (size 15 to 20)
#    0.000    1.600    2.000    1.800    5.600    0.000 
#    3.600    0.000    0.000   12.000    0.000    0.000 
#    0.000    0.000    0.000    0.000    0.000    0.000 
#
# Total GULP energy -247850.912312 kJ/mol
# GULP energy per Si atom -12392.545616 kJ/mol
# Density = 2.206135 g / cm^3
# Si number density = 22.111675 Si / 1000 Ang^3
#
#
#
# Elastic Constant Matrix: (Units=GPa)
#
#
# Indices 1 2 3 4 5 6 
#
# 1 64.0463 29.1679 32.6896 0.0000 15.0262 0.0000
# 2 29.1679 147.1806 34.6948 0.0000 6.7677 0.0000
# 3 32.6896 34.6948 160.7328 0.0000 0.4345 0.0000
# 4 0.0000 0.0000 0.0000 38.4963 0.0000 4.8023
# 5 15.0262 6.7677 0.4345 0.0000 38.7389 0.0000
# 6 0.0000 0.0000 0.0000 4.8023 0.0000 18.1132
#
#
#
# Elastic Compliance Matrix: (Units=1/GPa)
#
#
# Indices 1 2 3 4 5 6 
#
# 1 0.020457 -0.002885 -0.003518 0.000000 -0.007392 0.000000
# 2 -0.002885 0.007625 -0.001059 0.000000 -0.000201 0.000000
# 3 -0.003518 -0.001059 0.007161 0.000000 0.001469 0.000000
# 4 0.000000 0.000000 0.000000 0.026865 0.000000 -0.007123
# 5 -0.007392 -0.000201 0.001469 0.000000 0.028700 0.000000
# 6 0.000000 0.000000 0.000000 -0.007123 0.000000 0.057097
#
#
# Mechanical properties :
#
#
# Convention : Reuss Voigt Hill
#
# Bulk Modulus (GPa) = 49.21069 62.78491 55.99780
# Shear Modulus (GPa) = 29.48084 37.43017 33.45550
#
# Velocity S-wave (km/s) = 3.65536 4.11880 3.89398
# Velocity P-wave (km/s) = 6.33398 7.14671 6.75259
#
# Compressibility (1/GPa) = 0.02032079
#
# Stress axis : x y z
#
# Youngs Moduli (GPa) = 48.88233 131.14912 139.63592
#
# Poissons Ratio (x) = 0.37837 0.49122
# Poissons Ratio (y) = 0.14103 0.14781
# Poissons Ratio (z) = 0.17196 0.13883
#
# Static dielectric constant tensor:
#      x y z
#    x 3.544490 0.000000 -0.078640 
#    y 0.000000 5.036730 0.000000 
#    z -0.078640 0.000000 4.371550 
# 
# 
# High freq. dielectric constant tensor:
#      x y z
#    x 1.844020 0.000000 -0.006390 
#    y 0.000000 1.869740 0.000000 
#    z -0.006390 0.000000 1.886540 
# 
# From -- ./inp_files/4899.got.cif
#   From: 2010.06.25/outbox.cif.g09.slc.cpg/sg15_3_cif.got.tgz:4899.got - 2010.06.28 07:06:18.
