data_PCOD8142893
_publ_section_title
;
Structure prediction by ZEFSAII (Michael W. Deem and Ramdas Pophale) SiO2 
 PCOD8142893
Probable space group: C 2/C
;
_chemical_formula_sum "Si O2"
_cell_formula_units_Z 48
_cell_length_a 9.846647
_cell_length_b 27.979566
_cell_length_c 17.237307
_cell_angle_alpha 90.000000
_cell_angle_beta 150.161944
_cell_angle_gamma 90.000000
_cell_volume 2362.847456
_symmetry_space_group_name_H-M "C 2/C"
_symmetry_group_IT_number 15
_symmetry_cell_setting 'monoclinic'
loop_
_space_group_symop_operation_xyz
x,y,z
-x,y,1/2-z
-x,-y,-z
x,-y,1/2+z
1/2+x,1/2+y,z
1/2-x,1/2+y,1/2-z
1/2-x,1/2-y,-z
1/2+x,1/2-y,1/2+z
loop_
_atom_site_type_symbol
_atom_site_label
_atom_site_fract_x
_atom_site_fract_y
_atom_site_fract_z
Si Si1 0.552732 0.115111 0.400128
Si Si2 0.938199 0.127584 0.455540
Si Si3 0.741381 0.983448 0.066856
Si Si4 0.700603 0.801118 0.642350
Si Si5 0.486370 0.270817 0.565286
Si Si6 0.222113 0.032913 0.572501
O O1 0.799615 0.136537 0.470708
O O2 0.286552 0.107747 0.215679
O O3 0.661204 0.065730 0.486686
O O4 0.464098 0.149608 0.427364
O O5 0.083526 0.176732 0.502242
O O6 0.173916 0.087983 0.571900
O O7 0.000000 0.976311 0.250000
O O8 0.500000 0.000000 0.000000
O O9 0.784747 0.024365 0.023445
O O10 0.489285 0.767049 0.492204
O O11 0.000000 0.809170 0.750000
O O12 0.743292 0.776154 0.747969
O O13 0.250000 0.250000 0.500000
O O14 0.500000 0.016311 0.750000
O O15 0.000000 0.000000 0.500000
#
# Coordination Sequence:
#
# PCOD8142893 Si02
#       6
#     8   8   8   8   8   8
#     4  10  21  40  63  89 127 168 213 257 322 382
#     4  10  21  39  67  91 121 168 219 261 306 388
#     4  12  26  42  63  97 135 163 210 272 325 372
#     4   9  19  37  61  88 124 162 208 258 319 375
#     4   9  19  36  58  88 122 159 207 259 314 373
#     4  12  24  43  69  93 123 173 218 259 318 389
#
# _framework density 20.314473
#
# number of rings (size 3 to 8) (size 9 to 14) (size 15 to 20)
#    0.000    1.667    1.667    3.000    0.000    7.333 
#    3.000    0.000    0.000    0.000    0.000    0.000 
#    0.000    0.000    0.000    0.000    0.000    0.000 
#
# Total GULP energy -297490.119037 kJ/mol
# GULP energy per Si atom -12395.421627 kJ/mol
# Density = 2.026824 g / cm^3
# Si number density = 20.314473 Si / 1000 Ang^3
#
#
#
# Elastic Constant Matrix: (Units=GPa)
#
#
# Indices 1 2 3 4 5 6 
#
# 1 120.9295 61.2198 36.7802 0.0008 5.1979 0.0000
# 2 61.2198 112.5517 32.3549 0.0000 10.9350 -0.0001
# 3 36.7802 32.3549 78.1934 0.0010 5.4859 -0.0001
# 4 0.0008 0.0000 0.0010 24.4263 0.0007 -2.8003
# 5 5.1979 10.9350 5.4859 0.0007 29.0498 0.0000
# 6 0.0000 -0.0001 -0.0001 -2.8003 0.0000 48.2330
#
#
#
# Elastic Compliance Matrix: (Units=1/GPa)
#
#
# Indices 1 2 3 4 5 6 
#
# 1 0.012163 -0.005695 -0.003407 0.000000 0.000611 0.000000
# 2 -0.005695 0.013025 -0.002471 0.000000 -0.003417 0.000000
# 3 -0.003407 -0.002471 0.015511 0.000000 -0.001390 0.000000
# 4 0.000000 0.000000 0.000000 0.041214 -0.000001 0.002393
# 5 0.000611 -0.003417 -0.001390 -0.000001 0.035863 0.000000
# 6 0.000000 0.000000 0.000000 0.002393 0.000000 0.020872
#
#
# Mechanical properties :
#
#
# Convention : Reuss Voigt Hill
#
# Bulk Modulus (GPa) = 56.97323 63.59827 60.28575
# Shear Modulus (GPa) = 29.82496 32.42978 31.12737
#
# Velocity S-wave (km/s) = 3.83582 3.99982 3.91868
# Velocity P-wave (km/s) = 6.90829 7.25991 7.08628
#
# Compressibility (1/GPa) = 0.01755210
#
# Stress axis : x y z
#
# Youngs Moduli (GPa) = 82.21936 76.77556 64.46920
#
# Poissons Ratio (x) = 0.43727 0.21966
# Poissons Ratio (y) = 0.46828 0.15929
# Poissons Ratio (z) = 0.28014 0.18969
#
# Static dielectric constant tensor:
#      x y z
#    x 4.225700 0.000000 -0.148280 
#    y 0.000000 3.953930 0.000000 
#    z -0.148280 0.000000 3.703130 
# 
# 
# High freq. dielectric constant tensor:
#      x y z
#    x 1.805880 0.000000 -0.006520 
#    y 0.000000 1.797390 0.000000 
#    z -0.006520 0.000000 1.781020 
# 
# From -- ./inp_files/194342.got.cif
#   From: 2010.06.25/outbox.cif.g09.slc.cpg/sg15_98_cif.got.tgz:194342.got - 2010.06.28 07:06:18.
