data_PCOD8142663
_publ_section_title
;
Structure prediction by ZEFSAII (Michael W. Deem and Ramdas Pophale) SiO2 
 PCOD8142663
Probable space group: C 2/C
;
_chemical_formula_sum "Si O2"
_cell_formula_units_Z 56
_cell_length_a 14.252737
_cell_length_b 14.223529
_cell_length_c 21.650123
_cell_angle_alpha 90.000000
_cell_angle_beta 34.369435
_cell_angle_gamma 90.000000
_cell_volume 2477.710344
_symmetry_space_group_name_H-M "C 2/C"
_symmetry_group_IT_number 15
_symmetry_cell_setting 'monoclinic'
loop_
_space_group_symop_operation_xyz
x,y,z
-x,y,1/2-z
-x,-y,-z
x,-y,1/2+z
1/2+x,1/2+y,z
1/2-x,1/2+y,1/2-z
1/2-x,1/2-y,-z
1/2+x,1/2-y,1/2+z
loop_
_atom_site_type_symbol
_atom_site_label
_atom_site_fract_x
_atom_site_fract_y
_atom_site_fract_z
Si Si1 0.530197 0.166053 0.587101
Si Si2 0.901040 0.372107 0.584233
Si Si3 0.289121 0.850317 0.009175
Si Si4 0.160600 0.042647 0.692119
Si Si5 0.761021 0.826425 0.164630
Si Si6 0.663670 0.631809 0.007456
Si Si7 0.017192 0.059638 0.590773
O O1 0.488236 0.142532 0.538439
O O2 0.378973 0.134145 0.713188
O O3 0.556895 0.276743 0.581893
O O4 0.701656 0.111288 0.511491
O O5 0.809374 0.470771 0.625423
O O6 0.774023 0.286275 0.662243
O O7 0.016200 0.370952 0.583510
O O8 0.204671 0.871630 0.121704
O O9 0.211074 0.918627 0.999874
O O10 0.250000 0.750000 0.000000
O O11 0.000000 0.987746 0.750000
O O12 0.103505 0.088153 0.787288
O O13 0.940570 0.877695 0.077695
O O14 0.721105 0.852759 0.115742
O O15 0.523202 0.551623 0.074712
#
# Coordination Sequence:
#
# PCOD8142663 Si02
#       7
#     8   8   8   8   8   8   8
#     4  10  21  39  63  91 123 162 216 272 326 389
#     4  11  22  40  65  95 124 174 218 268 324 390
#     4  11  22  40  61  89 129 170 211 263 324 382
#     4  10  22  38  67  96 125 169 225 275 320 390
#     4  11  22  37  62  90 128 165 212 268 328 389
#     4  10  22  39  62  90 126 165 209 270 334 382
#     4  11  22  40  62  90 129 170 212 265 323 396
#
# _framework density 22.601513000000001
#
# number of rings (size 3 to 8) (size 9 to 14) (size 15 to 20)
#    0.000    1.429    1.429    4.714    0.000    3.429 
#    0.000    0.000    0.000    6.857    0.000    0.000 
#    0.000    0.000    0.000    0.000    0.000    0.000 
#
# Total GULP energy -346955.152940 kJ/mol
# GULP energy per Si atom -12391.255462 kJ/mol
# Density = 2.255007 g / cm^3
# Si number density = 22.601513 Si / 1000 Ang^3
#
#
#
# Elastic Constant Matrix: (Units=GPa)
#
#
# Indices 1 2 3 4 5 6 
#
# 1 113.6670 31.8123 18.4508 0.0000 -22.2768 0.0000
# 2 31.8123 105.9721 20.5174 0.0009 -9.2006 0.0002
# 3 18.4508 20.5174 63.2131 0.0027 -3.3407 0.0004
# 4 0.0000 0.0009 0.0027 18.9138 0.0005 -2.3063
# 5 -22.2768 -9.2006 -3.3407 0.0005 22.1846 -0.0002
# 6 0.0000 0.0002 0.0004 -2.3063 -0.0002 38.7339
#
#
#
# Elastic Compliance Matrix: (Units=1/GPa)
#
#
# Indices 1 2 3 4 5 6 
#
# 1 0.011861 -0.002213 -0.002180 0.000000 0.010664 0.000000
# 2 -0.002213 0.010795 -0.002761 0.000000 0.001839 0.000000
# 3 -0.002180 -0.002761 0.017314 -0.000002 -0.000727 0.000000
# 4 0.000000 0.000000 -0.000002 0.053258 -0.000001 0.003171
# 5 0.010664 0.001839 -0.000727 -0.000001 0.056438 0.000000
# 6 0.000000 0.000000 0.000000 0.003171 0.000000 0.026006
#
#
# Mechanical properties :
#
#
# Convention : Reuss Voigt Hill
#
# Bulk Modulus (GPa) = 38.96795 47.15700 43.06247
# Shear Modulus (GPa) = 25.18481 30.10458 27.64469
#
# Velocity S-wave (km/s) = 3.34173 3.65358 3.50113
# Velocity P-wave (km/s) = 5.67171 6.22158 5.95299
#
# Compressibility (1/GPa) = 0.02566212
#
# Stress axis : x y z
#
# Youngs Moduli (GPa) = 84.31172 92.63668 57.75833
#
# Poissons Ratio (x) = 0.20496 0.12593
# Poissons Ratio (y) = 0.18654 0.15945
# Poissons Ratio (z) = 0.18382 0.25574
#
# Static dielectric constant tensor:
#      x y z
#    x 4.394500 0.000000 -0.121390 
#    y 0.000000 3.948430 0.000000 
#    z -0.121390 0.000000 3.830910 
# 
# 
# High freq. dielectric constant tensor:
#      x y z
#    x 1.910960 0.000000 -0.009620 
#    y 0.000000 1.881720 0.000000 
#    z -0.009620 0.000000 1.869000 
# 
# From -- ./inp_files/274462.got.cif
#   From: 2010.06.25/outbox.cif.g09.slc.cpg/sg15_138_cif.got.tgz:274462.got - 2010.06.28 07:06:18.
