data_PCOD8142872
_publ_section_title
;
Structure prediction by ZEFSAII (Michael W. Deem and Ramdas Pophale) SiO2 
 PCOD8142872
Probable space group: C 2/C
;
_chemical_formula_sum "Si O2"
_cell_formula_units_Z 60
_cell_length_a 14.691846
_cell_length_b 11.090885
_cell_length_c 17.278843
_cell_angle_alpha 90.000000
_cell_angle_beta 76.849701
_cell_angle_gamma 90.000000
_cell_volume 2741.678779
_symmetry_space_group_name_H-M "C 2/C"
_symmetry_group_IT_number 15
_symmetry_cell_setting 'monoclinic'
loop_
_space_group_symop_operation_xyz
x,y,z
-x,y,1/2-z
-x,-y,-z
x,-y,1/2+z
1/2+x,1/2+y,z
1/2-x,1/2+y,1/2-z
1/2-x,1/2-y,-z
1/2+x,1/2-y,1/2+z
loop_
_atom_site_type_symbol
_atom_site_label
_atom_site_fract_x
_atom_site_fract_y
_atom_site_fract_z
Si Si1 0.370858 0.737068 0.701116
Si Si2 0.704879 0.681803 0.936943
Si Si3 0.505299 0.482731 0.161950
Si Si4 0.685989 0.326765 0.120800
Si Si5 0.475171 0.295394 0.944466
Si Si6 0.131748 0.648632 0.000660
Si Si7 0.386676 0.937293 0.394181
Si Si8 0.500000 0.074048 0.250000
O O1 0.303616 0.763461 0.640315
O O2 0.426283 0.617230 0.666385
O O3 0.311433 0.716809 0.790582
O O4 0.445889 0.843427 0.698209
O O5 0.773623 0.569726 0.905530
O O6 0.750000 0.750000 0.000000
O O7 0.600684 0.644477 0.983095
O O8 0.500000 0.531314 0.250000
O O9 0.607430 0.428321 0.122881
O O10 0.481506 0.596171 0.113002
O O11 0.786797 0.379526 0.077456
O O12 0.669291 0.208975 0.072010
O O13 0.555672 0.235441 0.978958
O O14 0.429276 0.195177 0.898001
O O15 0.089262 0.520171 0.035790
O O16 0.426803 0.990255 0.307556
#
# Coordination Sequence:
#
# PCOD8142872 Si02
#       8
#     8   8   8   8   8   8   8   4
#     4  11  21  44  72  97 131 180 227 279 348 394
#     4  10  24  44  65  96 136 179 222 274 338 406
#     4  10  21  41  65  94 135 174 223 276 340 402
#     4  10  21  39  66  98 129 171 224 290 327 405
#     4  11  24  41  65  95 135 184 220 276 337 404
#     4  11  22  40  68 100 133 169 233 272 339 397
#     4  11  24  42  65  96 140 177 222 274 340 404
#     4  12  22  44  74 102 134 176 232 286 340 414
#
# _framework density 21.884402000000001
#
# number of rings (size 3 to 8) (size 9 to 14) (size 15 to 20)
#    0.000    1.333    3.333    2.800    0.933    6.400 
#    2.400    2.667    0.000    0.000    0.000    0.000 
#    0.000    0.000    0.000    0.000    0.000    0.000 
#
# Total GULP energy -371959.346286 kJ/mol
# GULP energy per Si atom -12398.644876 kJ/mol
# Density = 2.183459 g / cm^3
# Si number density = 21.884402 Si / 1000 Ang^3
#
#
#
# Elastic Constant Matrix: (Units=GPa)
#
#
# Indices 1 2 3 4 5 6 
#
# 1 103.2319 34.6761 70.4098 0.0000 -5.7826 0.0000
# 2 34.6761 103.9274 58.4484 0.0000 -11.0077 0.0000
# 3 70.4098 58.4484 150.7754 0.0000 -4.1978 0.0000
# 4 0.0000 0.0000 0.0000 37.9247 0.0000 -2.3033
# 5 -5.7826 -11.0077 -4.1978 0.0000 49.1954 0.0000
# 6 0.0000 0.0000 0.0000 -2.3033 0.0000 27.4366
#
#
#
# Elastic Compliance Matrix: (Units=1/GPa)
#
#
# Indices 1 2 3 4 5 6 
#
# 1 0.014389 -0.001204 -0.006228 0.000000 0.000890 0.000000
# 2 -0.001204 0.012683 -0.004289 0.000000 0.002330 0.000000
# 3 -0.006228 -0.004289 0.011183 0.000000 -0.000738 0.000000
# 4 0.000000 0.000000 0.000000 0.026503 0.000000 0.002225
# 5 0.000890 0.002330 -0.000738 0.000000 0.020890 0.000000
# 6 0.000000 0.000000 0.000000 0.002225 0.000000 0.036634
#
#
# Mechanical properties :
#
#
# Convention : Reuss Voigt Hill
#
# Bulk Modulus (GPa) = 67.51202 76.11147 71.81175
# Shear Modulus (GPa) = 33.18663 35.87139 34.52901
#
# Velocity S-wave (km/s) = 3.89839 4.05301 3.97645
# Velocity P-wave (km/s) = 7.15399 7.53372 7.34631
#
# Compressibility (1/GPa) = 0.01481218
#
# Stress axis : x y z
#
# Youngs Moduli (GPa) = 69.49736 78.84544 89.42176
#
# Poissons Ratio (x) = 0.09494 0.55691
# Poissons Ratio (y) = 0.08369 0.38357
# Poissons Ratio (z) = 0.43282 0.33820
#
# Static dielectric constant tensor:
#      x y z
#    x 4.128710 0.000000 -0.166290 
#    y 0.000000 3.797830 0.000000 
#    z -0.166290 0.000000 4.219050 
# 
# 
# High freq. dielectric constant tensor:
#      x y z
#    x 1.853250 0.000000 -0.007200 
#    y 0.000000 1.846970 0.000000 
#    z -0.007200 0.000000 1.879020 
# 
# From -- ./inp_files/204419.got.cif
#   From: 2010.06.25/outbox.cif.g09.slc.cpg/sg15_103_cif.got.tgz:204419.got - 2010.06.28 07:06:18.
