data_PCOD8142382
_publ_section_title
;
Structure prediction by ZEFSAII (Michael W. Deem and Ramdas Pophale) SiO2 
 PCOD8142382
Probable space group: C 2/C
;
_chemical_formula_sum "Si O2"
_cell_formula_units_Z 56
_cell_length_a 11.072350
_cell_length_b 25.623989
_cell_length_c 19.140620
_cell_angle_alpha 90.000000
_cell_angle_beta 29.167244
_cell_angle_gamma 90.000000
_cell_volume 2646.627982
_symmetry_space_group_name_H-M "C 2/C"
_symmetry_group_IT_number 15
_symmetry_cell_setting 'monoclinic'
loop_
_space_group_symop_operation_xyz
x,y,z
-x,y,1/2-z
-x,-y,-z
x,-y,1/2+z
1/2+x,1/2+y,z
1/2-x,1/2+y,1/2-z
1/2-x,1/2-y,-z
1/2+x,1/2-y,1/2+z
loop_
_atom_site_type_symbol
_atom_site_label
_atom_site_fract_x
_atom_site_fract_y
_atom_site_fract_z
Si Si1 0.026900 0.164472 0.958567
Si Si2 0.500000 0.903895 0.250000
Si Si3 0.237865 0.738889 0.423243
Si Si4 0.495159 0.051165 0.605398
Si Si5 0.959495 0.879799 0.194320
Si Si6 0.542796 0.932518 0.583774
Si Si7 0.276784 0.126834 0.100272
Si Si8 0.000000 0.387879 0.750000
O O1 0.248294 0.129875 0.880692
O O2 0.050690 0.221801 0.978620
O O3 0.063354 0.163418 0.855490
O O4 0.749035 0.146259 0.116734
O O5 0.510287 0.943384 0.309230
O O6 0.500000 0.744471 0.250000
O O7 0.250000 0.750000 0.500000
O O8 0.104550 0.681998 0.484396
O O9 0.281873 0.084413 0.674826
O O10 0.732384 0.080535 0.452875
O O11 0.483967 0.991150 0.588658
O O12 0.000000 0.853063 0.250000
O O13 0.166617 0.921799 0.068802
O O14 0.396094 0.890818 0.612270
O O15 0.457283 0.925663 0.706258
O O16 0.000000 0.144519 0.250000
#
# Coordination Sequence:
#
# PCOD8142382 Si02
#       8
#     8   4   8   8   8   8   8   4
#     4  10  22  44  70  95 134 175 215 280 335 391
#     4  10  21  38  68  96 120 170 231 272 316 388
#     4  11  25  44  73 102 131 169 225 287 340 393
#     4  11  23  39  65  92 125 175 221 270 321 387
#     4  10  22  40  63  93 130 170 222 263 324 403
#     4  11  24  41  62  89 137 173 209 272 330 387
#     4  11  26  40  64  99 127 166 222 273 326 392
#     4  10  25  42  64 100 138 174 217 266 334 410
#
# _framework density 21.158999999999999
#
# number of rings (size 3 to 8) (size 9 to 14) (size 15 to 20)
#    0.000    1.429    2.143    1.714   10.000    0.000 
#    0.000    8.571    1.571    0.000    0.000    0.000 
#    0.000    0.000    0.000    0.000    0.000    0.000 
#
# Total GULP energy -347060.023743 kJ/mol
# GULP energy per Si atom -12395.000848 kJ/mol
# Density = 2.111084 g / cm^3
# Si number density = 21.159000 Si / 1000 Ang^3
#
#
#
# Elastic Constant Matrix: (Units=GPa)
#
#
# Indices 1 2 3 4 5 6 
#
# 1 137.1959 65.8220 28.3569 0.0143 21.6905 -0.1473
# 2 65.8220 155.1318 25.0759 0.0450 10.5472 -0.0503
# 3 28.3569 25.0759 78.6434 0.0529 5.2030 -0.5106
# 4 0.0143 0.0450 0.0529 18.1929 -0.0108 -3.7915
# 5 21.6905 10.5472 5.2030 -0.0108 43.8424 -0.0757
# 6 -0.1473 -0.0503 -0.5106 -3.7915 -0.0757 8.6141
#
#
#
# Elastic Compliance Matrix: (Units=1/GPa)
#
#
# Indices 1 2 3 4 5 6 
#
# 1 0.010120 -0.003672 -0.002223 0.000003 -0.003860 -0.000013
# 2 -0.003672 0.008214 -0.001295 -0.000036 -0.000006 -0.000108
# 3 -0.002223 -0.001295 0.013952 0.000139 -0.000243 0.000841
# 4 0.000003 -0.000036 0.000139 0.060520 0.000052 0.026646
# 5 -0.003860 -0.000006 -0.000243 0.000052 0.024749 0.000160
# 6 -0.000013 -0.000108 0.000841 0.026646 0.000160 0.127868
#
#
# Mechanical properties :
#
#
# Convention : Reuss Voigt Hill
#
# Bulk Modulus (GPa) = 55.85040 67.72007 61.78523
# Shear Modulus (GPa) = 18.81313 30.91096 24.86204
#
# Velocity S-wave (km/s) = 2.98507 3.82630 3.43156
# Velocity P-wave (km/s) = 6.19142 7.18301 6.70557
#
# Compressibility (1/GPa) = 0.01790498
#
# Stress axis : x y z
#
# Youngs Moduli (GPa) = 98.81087 121.74324 71.67647
#
# Poissons Ratio (x) = 0.44708 0.15933
# Poissons Ratio (y) = 0.36286 0.09284
# Poissons Ratio (z) = 0.21965 0.15769
#
# Static dielectric constant tensor:
#      x y z
#    x 4.028670 0.000040 -0.008700 
#    y 0.000040 3.650820 0.000100 
#    z -0.008700 0.000100 4.248000 
# 
# 
# High freq. dielectric constant tensor:
#      x y z
#    x 1.841440 0.000000 0.010560 
#    y 0.000000 1.817370 0.000010 
#    z 0.010560 0.000010 1.840950 
# 
# From -- ./inp_files/240768.got.cif
#   From: 2010.06.25/outbox.cif.g09.slc.cpg/sg15_121_cif.got.tgz:240768.got - 2010.06.28 07:06:18.
