data_PCOD8142215
_publ_section_title
;
Structure prediction by ZEFSAII (Michael W. Deem and Ramdas Pophale) SiO2 
 PCOD8142215
Probable space group: C 2/C
;
_chemical_formula_sum "Si O2"
_cell_formula_units_Z 40
_cell_length_a 11.785564
_cell_length_b 17.252161
_cell_length_c 8.766829
_cell_angle_alpha 90.000000
_cell_angle_beta 94.267261
_cell_angle_gamma 90.000000
_cell_volume 1777.586697
_symmetry_space_group_name_H-M "C 2/C"
_symmetry_group_IT_number 15
_symmetry_cell_setting 'monoclinic'
loop_
_space_group_symop_operation_xyz
x,y,z
-x,y,1/2-z
-x,-y,-z
x,-y,1/2+z
1/2+x,1/2+y,z
1/2-x,1/2+y,1/2-z
1/2-x,1/2-y,-z
1/2+x,1/2-y,1/2+z
loop_
_atom_site_type_symbol
_atom_site_label
_atom_site_fract_x
_atom_site_fract_y
_atom_site_fract_z
Si Si1 0.622668 0.446255 0.256195
Si Si2 0.216387 0.082838 0.096647
Si Si3 0.096505 0.780629 0.111164
Si Si4 0.333145 0.274383 0.726738
Si Si5 0.369959 0.795724 0.516982
O O1 0.500000 0.489371 0.250000
O O2 0.717607 0.500581 0.184554
O O3 0.656850 0.424795 0.428800
O O4 0.604491 0.370540 0.151007
O O5 0.143613 0.141759 0.194954
O O6 0.344337 0.116971 0.076734
O O7 0.194121 0.734283 0.213002
O O8 0.117479 0.768414 0.934999
O O9 0.968356 0.746594 0.128015
O O10 0.397169 0.208448 0.836843
O O11 0.250000 0.750000 0.500000
#
# Coordination Sequence:
#
# PCOD8142215 Si02
#       5
#     8   8   8   8   8
#     4  12  24  40  66  99 134 181 222 286 340 392
#     4  11  24  40  62  96 142 170 220 278 344 396
#     4  11  23  40  72 100 131 173 232 275 338 395
#     4  10  22  42  65  98 133 175 226 280 327 407
#     4  10  21  38  63  96 135 174 220 276 330 399
#
# _framework density 22.502417999999999
#
# number of rings (size 3 to 8) (size 9 to 14) (size 15 to 20)
#    0.000    1.200    2.000    4.800    2.800    3.200 
#    0.000    0.000    0.000   19.200    0.000    0.000 
#    0.000    0.000    0.000    0.000    0.000    0.000 
#
# Total GULP energy -247819.140867 kJ/mol
# GULP energy per Si atom -12390.957043 kJ/mol
# Density = 2.245120 g / cm^3
# Si number density = 22.502418 Si / 1000 Ang^3
#
#
#
# Elastic Constant Matrix: (Units=GPa)
#
#
# Indices 1 2 3 4 5 6 
#
# 1 112.8441 59.0524 41.0991 0.0000 14.3867 0.0000
# 2 59.0524 133.9657 58.2273 0.0000 4.2509 0.0000
# 3 41.0991 58.2273 121.7941 0.0000 28.6449 0.0000
# 4 0.0000 0.0000 0.0000 33.7942 0.0000 -8.5144
# 5 14.3867 4.2509 28.6449 0.0000 21.9386 0.0000
# 6 0.0000 0.0000 0.0000 -8.5144 0.0000 31.0958
#
#
#
# Elastic Compliance Matrix: (Units=1/GPa)
#
#
# Indices 1 2 3 4 5 6 
#
# 1 0.012558 -0.005303 -0.000011 0.000000 -0.007194 0.000000
# 2 -0.005303 0.012213 -0.006221 0.000000 0.009234 0.000000
# 3 -0.000011 -0.006221 0.015735 0.000000 -0.019333 0.000000
# 4 0.000000 0.000000 0.000000 0.031784 0.000000 0.008703
# 5 -0.007194 0.009234 -0.019333 0.000000 0.073753 0.000000
# 6 0.000000 0.000000 0.000000 0.008703 0.000000 0.034542
#
#
# Mechanical properties :
#
#
# Convention : Reuss Voigt Hill
#
# Bulk Modulus (GPa) = 57.34828 76.15129 66.74978
# Shear Modulus (GPa) = 23.87036 31.38072 27.62554
#
# Velocity S-wave (km/s) = 3.26051 3.73842 3.50761
# Velocity P-wave (km/s) = 6.30201 7.24908 6.79207
#
# Compressibility (1/GPa) = 0.01743732
#
# Stress axis : x y z
#
# Youngs Moduli (GPa) = 79.63260 81.88029 63.55148
#
# Poissons Ratio (x) = 0.43418 0.00067
# Poissons Ratio (y) = 0.42226 0.39536
# Poissons Ratio (z) = 0.00085 0.50939
#
# Static dielectric constant tensor:
#      x y z
#    x 4.475140 0.000000 -0.313390 
#    y 0.000000 4.149530 0.000000 
#    z -0.313390 0.000000 4.952940 
# 
# 
# High freq. dielectric constant tensor:
#      x y z
#    x 1.876010 0.000000 -0.008580 
#    y 0.000000 1.849580 0.000000 
#    z -0.008580 0.000000 1.944270 
# 
# From -- ./inp_files/29328.got.cif
#   From: 2010.06.25/outbox.cif.g09.slc.cpg/sg15_15_cif.got.tgz:29328.got - 2010.06.28 07:06:18.
