data_PCOD8142968
_publ_section_title
;
Structure prediction by ZEFSAII (Michael W. Deem and Ramdas Pophale) SiO2 
 PCOD8142968
Probable space group: C 2/C
;
_chemical_formula_sum "Si O2"
_cell_formula_units_Z 56
_cell_length_a 16.175526
_cell_length_b 9.130187
_cell_length_c 24.647344
_cell_angle_alpha 90.000000
_cell_angle_beta 47.572556
_cell_angle_gamma 90.000000
_cell_volume 2686.843714
_symmetry_space_group_name_H-M "C 2/C"
_symmetry_group_IT_number 15
_symmetry_cell_setting 'monoclinic'
loop_
_space_group_symop_operation_xyz
x,y,z
-x,y,1/2-z
-x,-y,-z
x,-y,1/2+z
1/2+x,1/2+y,z
1/2-x,1/2+y,1/2-z
1/2-x,1/2-y,-z
1/2+x,1/2-y,1/2+z
loop_
_atom_site_type_symbol
_atom_site_label
_atom_site_fract_x
_atom_site_fract_y
_atom_site_fract_z
Si Si1 0.701186 0.911193 0.407331
Si Si2 0.514291 0.573912 0.065054
Si Si3 0.795206 0.345377 0.683836
Si Si4 0.251451 0.622457 0.173042
Si Si5 0.867788 0.660361 0.804128
Si Si6 0.313046 0.349299 0.928825
Si Si7 0.997592 0.768956 0.031365
O O1 0.763609 0.764755 0.358720
O O2 0.580795 0.867821 0.486147
O O3 0.696734 0.005461 0.354176
O O4 0.758165 0.998524 0.431860
O O5 0.379945 0.579601 0.126557
O O6 0.565874 0.606371 0.100900
O O7 0.560793 0.416926 0.023139
O O8 0.557702 0.697113 0.003100
O O9 0.808093 0.367722 0.742102
O O10 0.680002 0.253069 0.725972
O O11 0.903240 0.254668 0.617782
O O12 0.183964 0.500116 0.170562
O O13 0.821788 0.744050 0.875278
O O14 0.000000 0.652640 0.750000
O O15 0.250000 0.250000 0.000000
#
# Coordination Sequence:
#
# PCOD8142968 Si02
#       7
#     8   8   8   8   8   8   8
#     4  10  24  39  64 101 133 162 217 278 317 388
#     4  10  21  41  68  94 130 173 211 265 329 382
#     4  11  21  41  68  96 126 175 218 263 324 387
#     4  11  23  43  67  93 132 173 220 267 323 382
#     4  11  24  44  63  93 130 171 217 268 321 393
#     4  11  25  43  68  94 132 175 212 266 337 384
#     4  10  21  39  69  98 127 163 222 267 312 389
#
# _framework density 20.842296999999999
#
# number of rings (size 3 to 8) (size 9 to 14) (size 15 to 20)
#    0.000    1.429    1.429    3.857    4.000    4.000 
#    2.571    0.714    0.000    0.000    0.000    0.000 
#    0.000    0.000    0.000    0.000    0.000    0.000 
#
# Total GULP energy -346984.611472 kJ/mol
# GULP energy per Si atom -12392.307553 kJ/mol
# Density = 2.079486 g / cm^3
# Si number density = 20.842297 Si / 1000 Ang^3
#
#
#
# Elastic Constant Matrix: (Units=GPa)
#
#
# Indices 1 2 3 4 5 6 
#
# 1 104.3874 60.0661 36.8935 0.0003 -5.0429 0.0002
# 2 60.0661 141.2594 37.8257 0.0003 -4.1729 0.0004
# 3 36.8935 37.8257 56.9611 0.0001 -10.0087 0.0001
# 4 0.0003 0.0003 0.0001 -19.3764 0.0001 -46.7625
# 5 -5.0429 -4.1729 -10.0087 0.0001 32.6323 0.0001
# 6 0.0002 0.0004 0.0001 -46.7625 0.0001 -20.9139
#
#
#
# Elastic Compliance Matrix: (Units=1/GPa)
#
#
# Indices 1 2 3 4 5 6 
#
# 1 0.014371 -0.004394 -0.006446 0.000000 -0.000318 0.000000
# 2 -0.004394 0.009969 -0.003878 0.000000 -0.000594 0.000000
# 3 -0.006446 -0.003878 0.025413 0.000000 0.006303 0.000000
# 4 0.000000 0.000000 0.000000 0.011740 0.000000 -0.026249
# 5 -0.000318 -0.000594 0.006303 0.000000 0.032452 0.000000
# 6 0.000000 0.000000 0.000000 -0.026249 0.000000 0.010876
#
#
# Mechanical properties :
#
#
# Convention : Reuss Voigt Hill
#
# Bulk Modulus (GPa) = 49.22017 63.57539 56.39778
# Shear Modulus (GPa) = 35.45351 9.65659 22.55505
#
# Velocity S-wave (km/s) = 4.12884 2.15482 3.29321
# Velocity P-wave (km/s) = 6.81150 6.06302 6.44813
#
# Compressibility (1/GPa) = 0.02031688
#
# Stress axis : x y z
#
# Youngs Moduli (GPa) = 69.58473 100.31571 39.34918
#
# Poissons Ratio (x) = 0.44080 0.25364
# Poissons Ratio (y) = 0.30576 0.15260
# Poissons Ratio (z) = 0.44854 0.38902
#
# Static dielectric constant tensor:
#      x y z
#    x 19.094640 -0.000010 1.580890 
#    y -0.000010 3.851680 0.000000 
#    z 1.580890 0.000000 3.771760 
# 
# 
# High freq. dielectric constant tensor:
#      x y z
#    x 1.799840 0.000000 0.005940 
#    y 0.000000 1.834670 0.000000 
#    z 0.005940 0.000000 1.821640 
# 
# From -- ./inp_files/276503.got.cif
#   From: 2010.06.25/outbox.cif.g09.slc.cpg/sg15_139_cif.got.tgz:276503.got - 2010.06.28 07:06:18.
