data_PCOD8142733
_publ_section_title
;
Structure prediction by ZEFSAII (Michael W. Deem and Ramdas Pophale) SiO2 
 PCOD8142733
Probable space group: C 2/C
;
_chemical_formula_sum "Si O2"
_cell_formula_units_Z 60
_cell_length_a 16.796121
_cell_length_b 12.892371
_cell_length_c 15.191577
_cell_angle_alpha 90.000000
_cell_angle_beta 105.921214
_cell_angle_gamma 90.000000
_cell_volume 3163.421646
_symmetry_space_group_name_H-M "C 2/C"
_symmetry_group_IT_number 15
_symmetry_cell_setting 'monoclinic'
loop_
_space_group_symop_operation_xyz
x,y,z
-x,y,1/2-z
-x,-y,-z
x,-y,1/2+z
1/2+x,1/2+y,z
1/2-x,1/2+y,1/2-z
1/2-x,1/2-y,-z
1/2+x,1/2-y,1/2+z
loop_
_atom_site_type_symbol
_atom_site_label
_atom_site_fract_x
_atom_site_fract_y
_atom_site_fract_z
Si Si1 0.775479 0.274379 0.141769
Si Si2 0.998529 0.837546 0.961318
Si Si3 0.568378 0.179068 0.699070
Si Si4 0.258412 0.075931 0.481536
Si Si5 0.901843 0.263435 0.862220
Si Si6 0.593349 0.461728 0.429417
Si Si7 0.415872 0.986981 0.920586
Si Si8 0.000000 0.862557 0.250000
O O1 0.852477 0.274009 0.229451
O O2 0.779684 0.169734 0.086256
O O3 0.693195 0.270738 0.176123
O O4 0.779056 0.378777 0.084095
O O5 0.965040 0.770834 0.871368
O O6 0.925793 0.868631 0.007708
O O7 0.038670 0.939695 0.935162
O O8 0.068921 0.771250 0.031790
O O9 0.500000 0.144565 0.750000
O O10 0.596615 0.083205 0.647860
O O11 0.340237 0.023807 0.466069
O O12 0.190554 0.984974 0.465639
O O13 0.917023 0.386014 0.858917
O O14 0.951398 0.209612 0.801184
O O15 0.567224 0.430922 0.322513
O O16 0.500000 0.000000 0.000000
#
# Coordination Sequence:
#
# PCOD8142733 Si02
#       8
#     8   8   8   8   8   8   8   4
#     4  10  22  39  63  87 119 159 204 257 298 363
#     4  10  21  41  63  90 123 157 199 256 305 365
#     4  12  25  39  63  93 119 159 214 257 288 364
#     4  10  21  41  63  85 121 162 199 252 318 353
#     4  10  21  44  61  86 127 163 200 250 311 366
#     4  10  21  39  64  93 119 159 199 248 315 363
#     4  11  23  41  64  85 121 167 206 244 306 365
#     4  10  24  36  66  90 122 162 200 252 306 368
#
# _framework density 18.966805999999998
#
# number of rings (size 3 to 8) (size 9 to 14) (size 15 to 20)
#    0.000    1.600    2.667    1.600    7.467    0.000 
#    4.800    0.667    0.000    0.000    0.000    0.000 
#    0.000    0.000    0.000    0.000    0.000    0.000 
#
# Total GULP energy -372082.422200 kJ/mol
# GULP energy per Si atom -12402.747407 kJ/mol
# Density = 1.892364 g / cm^3
# Si number density = 18.966806 Si / 1000 Ang^3
#
#
#
# Elastic Constant Matrix: (Units=GPa)
#
#
# Indices 1 2 3 4 5 6 
#
# 1 115.9252 30.6665 38.4435 0.0000 8.7971 0.0000
# 2 30.6665 69.6709 20.4859 0.0000 -2.3590 0.0000
# 3 38.4435 20.4859 91.4465 0.0000 5.7719 0.0000
# 4 0.0000 0.0000 0.0000 40.6366 0.0000 3.2287
# 5 8.7971 -2.3590 5.7719 0.0000 27.7257 0.0000
# 6 0.0000 0.0000 0.0000 3.2287 0.0000 29.0995
#
#
#
# Elastic Compliance Matrix: (Units=1/GPa)
#
#
# Indices 1 2 3 4 5 6 
#
# 1 0.011092 -0.003933 -0.003586 0.000000 -0.003107 0.000000
# 2 -0.003933 0.016876 -0.002327 0.000000 0.003168 0.000000
# 3 -0.003586 -0.002327 0.013077 0.000000 -0.001783 0.000000
# 4 0.000000 0.000000 0.000000 0.024827 0.000000 -0.002755
# 5 -0.003107 0.003168 -0.001783 0.000000 0.037694 0.000000
# 6 0.000000 0.000000 0.000000 -0.002755 0.000000 0.034671
#
#
# Mechanical properties :
#
#
# Convention : Reuss Voigt Hill
#
# Bulk Modulus (GPa) = 46.83277 50.69269 48.76273
# Shear Modulus (GPa) = 30.29476 31.98879 31.14178
#
# Velocity S-wave (km/s) = 4.00090 4.11124 4.05644
# Velocity P-wave (km/s) = 6.78885 7.02292 6.90688
#
# Compressibility (1/GPa) = 0.02135257
#
# Stress axis : x y z
#
# Youngs Moduli (GPa) = 90.15865 59.25614 76.47273
#
# Poissons Ratio (x) = 0.23305 0.27420
# Poissons Ratio (y) = 0.35459 0.17796
# Poissons Ratio (z) = 0.32327 0.13790
#
# Static dielectric constant tensor:
#      x y z
#    x 4.041880 0.000000 -0.172440 
#    y 0.000000 3.595690 0.000000 
#    z -0.172440 0.000000 3.589540 
# 
# 
# High freq. dielectric constant tensor:
#      x y z
#    x 1.746230 0.000000 -0.001050 
#    y 0.000000 1.739000 0.000000 
#    z -0.001050 0.000000 1.737330 
# 
# From -- ./inp_files/160979.got.cif
#   From: 2010.06.25/outbox.cif.g09.slc.cpg/sg15_81_cif.got.tgz:160979.got - 2010.06.28 07:06:18.
