data_PCOD8142634
_publ_section_title
;
Structure prediction by ZEFSAII (Michael W. Deem and Ramdas Pophale) SiO2 
 PCOD8142634
Probable space group: C 2/C
;
_chemical_formula_sum "Si O2"
_cell_formula_units_Z 40
_cell_length_a 10.381627
_cell_length_b 27.650622
_cell_length_c 9.976994
_cell_angle_alpha 90.000000
_cell_angle_beta 43.796706
_cell_angle_gamma 90.000000
_cell_volume 1982.165621
_symmetry_space_group_name_H-M "C 2/C"
_symmetry_group_IT_number 15
_symmetry_cell_setting 'monoclinic'
loop_
_space_group_symop_operation_xyz
x,y,z
-x,y,1/2-z
-x,-y,-z
x,-y,1/2+z
1/2+x,1/2+y,z
1/2-x,1/2+y,1/2-z
1/2-x,1/2-y,-z
1/2+x,1/2-y,1/2+z
loop_
_atom_site_type_symbol
_atom_site_label
_atom_site_fract_x
_atom_site_fract_y
_atom_site_fract_z
Si Si1 0.125170 0.306625 0.285644
Si Si2 0.105440 0.602350 0.974606
Si Si3 0.730213 0.616946 0.369586
Si Si4 0.968303 0.201471 0.115310
Si Si5 0.937531 0.958247 0.147773
O O1 0.060197 0.353131 0.413790
O O2 0.000000 0.305050 0.250000
O O3 0.089048 0.255531 0.386400
O O4 0.341938 0.313078 0.097255
O O5 0.217942 0.557503 0.820320
O O6 0.220918 0.625222 0.011285
O O7 0.898987 0.585475 0.176497
O O8 0.696001 0.666698 0.315187
O O9 0.539266 0.587903 0.509729
O O10 0.000000 0.196225 0.250000
O O11 0.000000 0.973406 0.250000
O O12 0.000000 0.000000 0.000000
#
# Coordination Sequence:
#
# PCOD8142634 Si02
#       5
#     8   8   8   8   8
#     4  11  21  36  56  87 125 163 201 249 294 355
#     4  10  21  40  61  86 121 157 204 247 302 358
#     4  10  21  39  63  86 119 161 196 253 299 356
#     4  11  21  35  57  86 126 162 205 246 295 357
#     4  10  22  42  64  89 120 156 201 255 311 363
#
# _framework density 20.179949000000001
#
# number of rings (size 3 to 8) (size 9 to 14) (size 15 to 20)
#    0.000    1.600    2.000    4.800    0.000    2.400 
#    3.600    0.000    0.000    0.000    0.000    0.000 
#    0.000    0.000    0.000    0.000    0.000    0.000 
#
# Total GULP energy -247833.483750 kJ/mol
# GULP energy per Si atom -12391.674187 kJ/mol
# Density = 2.013402 g / cm^3
# Si number density = 20.179949 Si / 1000 Ang^3
#
#
#
# Elastic Constant Matrix: (Units=GPa)
#
#
# Indices 1 2 3 4 5 6 
#
# 1 44.7918 28.9752 19.3427 0.0000 -4.6462 0.0000
# 2 28.9752 83.7911 28.7701 0.0000 13.8237 0.0000
# 3 19.3427 28.7701 109.0041 0.0000 -14.1723 0.0000
# 4 0.0000 0.0000 0.0000 32.2581 0.0000 6.3494
# 5 -4.6462 13.8237 -14.1723 0.0000 34.8989 0.0000
# 6 0.0000 0.0000 0.0000 6.3494 0.0000 25.7705
#
#
#
# Elastic Compliance Matrix: (Units=1/GPa)
#
#
# Indices 1 2 3 4 5 6 
#
# 1 0.031374 -0.011732 -0.001397 0.000000 0.008256 0.000000
# 2 -0.011732 0.019342 -0.004458 0.000000 -0.011034 0.000000
# 3 -0.001397 -0.004458 0.011406 0.000000 0.006212 0.000000
# 4 0.000000 0.000000 0.000000 0.032580 0.000000 -0.008027
# 5 0.008256 -0.011034 0.006212 0.000000 0.036646 0.000000
# 6 0.000000 0.000000 0.000000 -0.008027 0.000000 0.040782
#
#
# Mechanical properties :
#
#
# Convention : Reuss Voigt Hill
#
# Bulk Modulus (GPa) = 37.10743 43.52920 40.31832
# Shear Modulus (GPa) = 23.11729 29.28544 26.20136
#
# Velocity S-wave (km/s) = 3.38828 3.81361 3.60722
# Velocity P-wave (km/s) = 5.80822 6.40382 6.11328
#
# Compressibility (1/GPa) = 0.02694878
#
# Stress axis : x y z
#
# Youngs Moduli (GPa) = 31.87302 51.70028 87.67171
#
# Poissons Ratio (x) = 0.60653 0.12252
# Poissons Ratio (y) = 0.37392 0.39083
# Poissons Ratio (z) = 0.04454 0.23048
#
# Static dielectric constant tensor:
#      x y z
#    x 3.535380 0.000000 -0.125290 
#    y 0.000000 3.750960 0.000000 
#    z -0.125290 0.000000 4.005580 
# 
# 
# High freq. dielectric constant tensor:
#      x y z
#    x 1.775560 0.000000 -0.011090 
#    y 0.000000 1.770200 0.000000 
#    z -0.011090 0.000000 1.813870 
# 
# From -- ./inp_files/30513.got.cif
#   From: 2010.06.25/outbox.cif.g09.slc.cpg/sg15_16_cif.got.tgz:30513.got - 2010.06.28 07:06:18.
