data_PCOD8142707
_publ_section_title
;
Structure prediction by ZEFSAII (Michael W. Deem and Ramdas Pophale) SiO2 
 PCOD8142707
Probable space group: C 2/C
;
_chemical_formula_sum "Si O2"
_cell_formula_units_Z 36
_cell_length_a 8.997615
_cell_length_b 36.407143
_cell_length_c 5.329061
_cell_angle_alpha 90.000000
_cell_angle_beta 114.857402
_cell_angle_gamma 90.000000
_cell_volume 1583.954829
_symmetry_space_group_name_H-M "C 2/C"
_symmetry_group_IT_number 15
_symmetry_cell_setting 'monoclinic'
loop_
_space_group_symop_operation_xyz
x,y,z
-x,y,1/2-z
-x,-y,-z
x,-y,1/2+z
1/2+x,1/2+y,z
1/2-x,1/2+y,1/2-z
1/2-x,1/2-y,-z
1/2+x,1/2-y,1/2+z
loop_
_atom_site_type_symbol
_atom_site_label
_atom_site_fract_x
_atom_site_fract_y
_atom_site_fract_z
Si Si1 0.500000 0.749951 0.750000
Si Si2 0.190134 0.864793 0.884994
Si Si3 0.789938 0.782135 0.716811
Si Si4 0.803137 0.095111 0.612195
Si Si5 0.685239 0.014999 0.602999
O O1 0.652917 0.777411 0.835162
O O2 0.467366 0.723453 0.481624
O O3 0.228777 0.821674 0.919423
O O4 0.259474 0.884013 0.682618
O O5 0.000000 0.872109 0.750000
O O6 0.259308 0.881731 0.191533
O O7 0.750000 0.750000 0.500000
O O8 0.700605 0.057729 0.553060
O O9 0.000000 0.088574 0.750000
O O10 0.500000 0.000000 0.500000
O O11 0.772976 0.993820 0.431660
#
# Coordination Sequence:
#
# PCOD8142707 Si02
#       5
#     4   8   8   8   8
#     4  10  24  38  64  92 128 166 240 278 330 394
#     4  10  22  38  64  90 130 171 209 268 337 383
#     4  11  23  41  65  93 130 179 230 280 334 398
#     4  10  22  39  61  96 124 160 215 265 322 392
#     4  10  21  39  64  87 121 161 204 248 318 388
#
# _framework density 22.727920999999998
#
# number of rings (size 3 to 8) (size 9 to 14) (size 15 to 20)
#    0.000    1.778    0.000    3.333   10.889    0.889 
#    0.000    6.667    0.000    0.000    0.000    0.000 
#    0.000    0.000    0.000    0.000    0.000    0.000 
#
# Total GULP energy -223084.105811 kJ/mol
# GULP energy per Si atom -12393.561434 kJ/mol
# Density = 2.267619 g / cm^3
# Si number density = 22.727921 Si / 1000 Ang^3
#
#
#
# Elastic Constant Matrix: (Units=GPa)
#
#
# Indices 1 2 3 4 5 6 
#
# 1 44.8659 43.8922 35.4444 0.0000 -4.1122 0.0000
# 2 43.8922 203.5478 89.7673 0.0000 -25.4226 0.0000
# 3 35.4444 89.7673 184.1673 0.0000 -46.9688 0.0000
# 4 0.0000 0.0000 0.0000 46.6898 0.0000 -7.1400
# 5 -4.1122 -25.4226 -46.9688 0.0000 35.5639 0.0000
# 6 0.0000 0.0000 0.0000 -7.1400 0.0000 36.0828
#
#
#
# Elastic Compliance Matrix: (Units=1/GPa)
#
#
# Indices 1 2 3 4 5 6 
#
# 1 0.030868 -0.005252 -0.005169 0.000000 -0.007012 0.000000
# 2 -0.005252 0.007162 -0.002005 0.000000 0.001865 0.000000
# 3 -0.005169 -0.002005 0.010380 0.000000 0.011678 0.000000
# 4 0.000000 0.000000 0.000000 0.022086 0.000000 0.004370
# 5 -0.007012 0.001865 0.011678 0.000000 0.044064 0.000000
# 6 0.000000 0.000000 0.000000 0.004370 0.000000 0.028579
#
#
# Mechanical properties :
#
#
# Convention : Reuss Voigt Hill
#
# Bulk Modulus (GPa) = 42.44732 85.64320 64.04526
# Shear Modulus (GPa) = 28.43426 41.23244 34.83335
#
# Velocity S-wave (km/s) = 3.54089 4.26393 3.91912
# Velocity P-wave (km/s) = 5.95265 7.87434 6.97994
#
# Compressibility (1/GPa) = 0.02355861
#
# Stress axis : x y z
#
# Youngs Moduli (GPa) = 32.39614 139.61649 96.33908
#
# Poissons Ratio (x) = 0.73333 0.49796
# Poissons Ratio (y) = 0.17016 0.19312
# Poissons Ratio (z) = 0.16745 0.27987
#
# Static dielectric constant tensor:
#      x y z
#    x 4.773090 0.000000 -1.921540 
#    y 0.000000 3.953730 0.000000 
#    z -1.921540 0.000000 13.477660 
# 
# 
# High freq. dielectric constant tensor:
#      x y z
#    x 1.882920 0.000000 -0.030660 
#    y 0.000000 1.890890 0.000000 
#    z -0.030660 0.000000 1.915150 
# 
# From -- ./inp_files/5136.got.cif
#   From: 2010.06.25/outbox.cif.g09.slc.cpg/sg15_3_cif.got.tgz:5136.got - 2010.06.28 07:06:18.
