data_PCOD8142143
_publ_section_title
;
Structure prediction by ZEFSAII (Michael W. Deem and Ramdas Pophale) SiO2 
 PCOD8142143
Probable space group: C 2/C
;
_chemical_formula_sum "Si O2"
_cell_formula_units_Z 56
_cell_length_a 24.834399
_cell_length_b 14.163419
_cell_length_c 9.663755
_cell_angle_alpha 90.000000
_cell_angle_beta 128.320707
_cell_angle_gamma 90.000000
_cell_volume 2666.794703
_symmetry_space_group_name_H-M "C 2/C"
_symmetry_group_IT_number 15
_symmetry_cell_setting 'monoclinic'
loop_
_space_group_symop_operation_xyz
x,y,z
-x,y,1/2-z
-x,-y,-z
x,-y,1/2+z
1/2+x,1/2+y,z
1/2-x,1/2+y,1/2-z
1/2-x,1/2-y,-z
1/2+x,1/2-y,1/2+z
loop_
_atom_site_type_symbol
_atom_site_label
_atom_site_fract_x
_atom_site_fract_y
_atom_site_fract_z
Si Si1 0.350010 0.977467 0.764277
Si Si2 0.925068 0.696110 0.473553
Si Si3 0.041865 0.952261 0.445748
Si Si4 0.419805 0.840764 0.285783
Si Si5 0.844976 0.164261 0.227544
Si Si6 0.140651 0.886851 0.060247
Si Si7 0.256413 0.988446 0.866835
O O1 0.384906 0.874608 0.806753
O O2 0.322011 0.991374 0.873841
O O3 0.408799 0.054387 0.825919
O O4 0.283767 0.987477 0.562143
O O5 0.915077 0.658130 0.612792
O O6 0.893302 0.800595 0.408388
O O7 0.004848 0.698533 0.554637
O O8 0.087296 0.874123 0.591664
O O9 0.000000 0.906442 0.250000
O O10 0.085003 0.033817 0.440877
O O11 0.000000 0.000000 0.500000
O O12 0.357811 0.777211 0.253991
O O13 0.778361 0.117248 0.195062
O O14 0.833963 0.142224 0.049330
O O15 0.202042 0.929420 0.248756
#
# Coordination Sequence:
#
# PCOD8142143 Si02
#       7
#     8   8   8   8   8   8   8
#     4  12  23  43  63  92 126 171 209 265 303 371
#     4  10  22  40  67  94 123 165 213 261 314 371
#     4  11  20  33  58  91 128 164 201 251 314 372
#     4  10  22  41  67  93 123 165 216 256 317 370
#     4  10  21  39  62  93 125 165 207 257 308 382
#     4  10  21  38  62  93 127 163 206 258 310 379
#     4  11  24  40  64  93 131 164 211 252 319 371
#
# _framework density 20.998992999999999
#
# number of rings (size 3 to 8) (size 9 to 14) (size 15 to 20)
#    0.000    1.429    4.286    1.286    2.000    2.286 
#    0.000    2.857    0.000    0.000    0.000    0.000 
#    0.000    0.000    0.000    0.000    0.000    0.000 
#
# Total GULP energy -347059.830285 kJ/mol
# GULP energy per Si atom -12394.993939 kJ/mol
# Density = 2.095120 g / cm^3
# Si number density = 20.998993 Si / 1000 Ang^3
#
#
#
# Elastic Constant Matrix: (Units=GPa)
#
#
# Indices 1 2 3 4 5 6 
#
# 1 70.1059 24.7070 11.0460 0.0000 9.5689 0.0000
# 2 24.7070 111.3450 26.9955 0.0000 15.1329 0.0000
# 3 11.0460 26.9955 84.5019 0.0000 15.6195 0.0000
# 4 0.0000 0.0000 0.0000 28.8638 0.0000 -0.0340
# 5 9.5689 15.1329 15.6195 0.0000 26.1220 0.0000
# 6 0.0000 0.0000 0.0000 -0.0340 0.0000 33.4132
#
#
#
# Elastic Compliance Matrix: (Units=1/GPa)
#
#
# Indices 1 2 3 4 5 6 
#
# 1 0.015881 -0.002891 -0.000435 0.000000 -0.003883 0.000000
# 2 -0.002891 0.010700 -0.002350 0.000000 -0.003734 0.000000
# 3 -0.000435 -0.002350 0.013896 0.000000 -0.006789 0.000000
# 4 0.000000 0.000000 0.000000 0.034646 0.000000 0.000035
# 5 -0.003883 -0.003734 -0.006789 0.000000 0.045927 0.000000
# 6 0.000000 0.000000 0.000000 0.000035 0.000000 0.029928
#
#
# Mechanical properties :
#
#
# Convention : Reuss Voigt Hill
#
# Bulk Modulus (GPa) = 34.33312 43.49441 38.91377
# Shear Modulus (GPa) = 29.06320 31.22675 30.14497
#
# Velocity S-wave (km/s) = 3.72429 3.86042 3.79297
# Velocity P-wave (km/s) = 5.90586 6.37402 6.14440
#
# Compressibility (1/GPa) = 0.02912639
#
# Stress axis : x y z
#
# Youngs Moduli (GPa) = 62.96657 93.45891 71.96075
#
# Poissons Ratio (x) = 0.27018 0.03128
# Poissons Ratio (y) = 0.18203 0.16911
# Poissons Ratio (z) = 0.02737 0.21964
#
# Static dielectric constant tensor:
#      x y z
#    x 3.793120 0.000000 0.202610 
#    y 0.000000 3.632180 0.000000 
#    z 0.202610 0.000000 3.820690 
# 
# 
# High freq. dielectric constant tensor:
#      x y z
#    x 1.820080 0.000000 0.012000 
#    y 0.000000 1.819590 0.000000 
#    z 0.012000 0.000000 1.819160 
# 
# From -- ./inp_files/61991.got.cif
#   From: 2010.06.25/outbox.cif.g09.slc.cpg/sg15_31_cif.got.tgz:61991.got - 2010.06.28 07:06:18.
