data_PCOD8142402
_publ_section_title
;
Structure prediction by ZEFSAII (Michael W. Deem and Ramdas Pophale) SiO2 
 PCOD8142402
Probable space group: C 2/C
;
_chemical_formula_sum "Si O2"
_cell_formula_units_Z 56
_cell_length_a 11.513864
_cell_length_b 26.296171
_cell_length_c 10.060359
_cell_angle_alpha 90.000000
_cell_angle_beta 65.012033
_cell_angle_gamma 90.000000
_cell_volume 2760.865948
_symmetry_space_group_name_H-M "C 2/C"
_symmetry_group_IT_number 15
_symmetry_cell_setting 'monoclinic'
loop_
_space_group_symop_operation_xyz
x,y,z
-x,y,1/2-z
-x,-y,-z
x,-y,1/2+z
1/2+x,1/2+y,z
1/2-x,1/2+y,1/2-z
1/2-x,1/2-y,-z
1/2+x,1/2-y,1/2+z
loop_
_atom_site_type_symbol
_atom_site_label
_atom_site_fract_x
_atom_site_fract_y
_atom_site_fract_z
Si Si1 0.854294 0.885506 0.620077
Si Si2 0.754421 0.430401 0.089860
Si Si3 0.634884 0.396419 0.395763
Si Si4 0.265623 0.450134 0.902324
Si Si5 0.986525 0.599424 0.900980
Si Si6 0.172174 0.314475 0.120598
Si Si7 0.642657 0.706110 0.210442
O O1 0.766558 0.906384 0.544474
O O2 0.851270 0.927463 0.740129
O O3 0.805371 0.829703 0.694682
O O4 0.995725 0.874938 0.494902
O O5 0.636479 0.419450 0.246981
O O6 0.761625 0.490725 0.086052
O O7 0.886586 0.406207 0.075230
O O8 0.666571 0.438636 0.490802
O O9 0.749012 0.355170 0.331981
O O10 0.128381 0.423177 0.957322
O O11 0.954918 0.659284 0.883326
O O12 0.000000 0.571282 0.750000
O O13 0.138117 0.267139 0.235537
O O14 0.267431 0.299773 0.958001
O O15 0.500000 0.685274 0.250000
#
# Coordination Sequence:
#
# PCOD8142402 Si02
#       7
#     8   8   8   8   8   8   8
#     4  12  24  41  64 101 135 162 221 281 320 384
#     4  12  26  39  64  96 137 172 211 275 332 375
#     4  11  22  44  63  93 133 173 217 261 324 401
#     4  11  23  42  65  93 128 182 226 258 315 391
#     4  11  21  42  66  90 128 174 223 263 316 401
#     4  10  21  38  71  93 117 168 225 260 318 391
#     4  11  20  39  69 100 118 163 221 274 318 385
#
# _framework density 20.283491999999999
#
# number of rings (size 3 to 8) (size 9 to 14) (size 15 to 20)
#    0.000    0.857    7.143    2.571    0.000    4.000 
#    0.000    0.714    0.000    0.000    0.000    0.000 
#    0.000    0.000    0.000    0.000    0.000    0.000 
#
# Total GULP energy -346958.208055 kJ/mol
# GULP energy per Si atom -12391.364573 kJ/mol
# Density = 2.023733 g / cm^3
# Si number density = 20.283492 Si / 1000 Ang^3
#
#
#
# Elastic Constant Matrix: (Units=GPa)
#
#
# Indices 1 2 3 4 5 6 
#
# 1 65.1027 43.8853 15.6749 0.0000 9.9299 0.0000
# 2 43.8853 157.2086 45.1625 0.0000 11.0116 0.0000
# 3 15.6749 45.1625 98.9468 0.0000 12.1458 0.0000
# 4 0.0000 0.0000 0.0000 16.4215 0.0000 -13.9872
# 5 9.9299 11.0116 12.1458 0.0000 23.5337 0.0000
# 6 0.0000 0.0000 0.0000 -13.9872 0.0000 11.0298
#
#
#
# Elastic Compliance Matrix: (Units=1/GPa)
#
#
# Indices 1 2 3 4 5 6 
#
# 1 0.019691 -0.005059 -0.000087 0.000000 -0.005897 0.000000
# 2 -0.005059 0.008694 -0.003128 0.000000 -0.000319 0.000000
# 3 -0.000087 -0.003128 0.012132 0.000000 -0.004761 0.000000
# 4 0.000000 0.000000 0.000000 -0.759815 0.000000 -0.963543
# 5 -0.005897 -0.000319 -0.004761 0.000000 0.047587 0.000000
# 6 0.000000 0.000000 0.000000 -0.963543 0.000000 -1.131234
#
#
# Mechanical properties :
#
#
# Convention : Reuss Voigt Hill
#
# Bulk Modulus (GPa) = 41.71722 58.96706 50.34214
# Shear Modulus (GPa) = -2.81150 24.63270 10.91060
#
# Velocity S-wave (km/s) = -1.17861 3.48863 2.32179
# Velocity P-wave (km/s) = 4.33123 6.73513 5.66222
#
# Compressibility (1/GPa) = 0.02397092
#
# Stress axis : x y z
#
# Youngs Moduli (GPa) = 50.78540 115.02148 82.42552
#
# Poissons Ratio (x) = 0.58187 0.00713
# Poissons Ratio (y) = 0.25692 0.25780
# Poissons Ratio (z) = 0.00439 0.35974
#
# Static dielectric constant tensor:
#      x y z
#    x 3.645400 0.000000 -0.228940 
#    y 0.000000 4.183620 0.000000 
#    z -0.228940 0.000000 3.962710 
# 
# 
# High freq. dielectric constant tensor:
#      x y z
#    x 1.781420 0.000000 -0.030320 
#    y 0.000000 1.792980 0.000000 
#    z -0.030320 0.000000 1.801700 
# 
# From -- ./inp_files/34167.got.cif
#   From: 2010.06.25/outbox.cif.g09.slc.cpg/sg15_18_cif.got.tgz:34167.got - 2010.06.28 07:06:18.
