data_PCOD8142653
_publ_section_title
;
Structure prediction by ZEFSAII (Michael W. Deem and Ramdas Pophale) SiO2 
 PCOD8142653
Probable space group: C 2/C
;
_chemical_formula_sum "Si O2"
_cell_formula_units_Z 60
_cell_length_a 16.882691
_cell_length_b 13.461069
_cell_length_c 15.710294
_cell_angle_alpha 90.000000
_cell_angle_beta 119.800725
_cell_angle_gamma 90.000000
_cell_volume 3098.166429
_symmetry_space_group_name_H-M "C 2/C"
_symmetry_group_IT_number 15
_symmetry_cell_setting 'monoclinic'
loop_
_space_group_symop_operation_xyz
x,y,z
-x,y,1/2-z
-x,-y,-z
x,-y,1/2+z
1/2+x,1/2+y,z
1/2-x,1/2+y,1/2-z
1/2-x,1/2-y,-z
1/2+x,1/2-y,1/2+z
loop_
_atom_site_type_symbol
_atom_site_label
_atom_site_fract_x
_atom_site_fract_y
_atom_site_fract_z
Si Si1 0.363681 0.966581 0.926232
Si Si2 0.919272 0.238054 0.272886
Si Si3 0.336855 0.945965 0.235702
Si Si4 0.466773 0.859276 0.551470
Si Si5 0.141173 0.046666 0.547698
Si Si6 0.041367 0.148947 0.026676
Si Si7 0.000000 0.562390 0.250000
Si Si8 0.211909 0.154134 0.431617
O O1 0.451384 0.895251 0.965938
O O2 0.297274 0.911335 0.953305
O O3 0.322594 0.986357 0.811058
O O4 0.382445 0.070124 0.983809
O O5 0.879789 0.341294 0.287707
O O6 0.952460 0.171908 0.369557
O O7 0.839266 0.180869 0.182057
O O8 0.000000 0.259675 0.250000
O O9 0.238391 0.929434 0.141728
O O10 0.408615 0.995522 0.208578
O O11 0.441132 0.745969 0.520068
O O12 0.491727 0.867512 0.663809
O O13 0.145303 0.087086 0.453712
O O14 0.058811 0.105806 0.549937
O O15 0.119215 0.929507 0.540358
O O16 0.250000 0.250000 0.500000
#
# Coordination Sequence:
#
# PCOD8142653 Si02
#       8
#     8   8   8   8   8   8   4   8
#     4  10  22  37  63  91 124 161 205 262 321 364
#     4  12  23  37  66  95 125 161 212 263 318 370
#     4  11  21  40  63  95 126 162 207 269 316 373
#     4  10  21  39  63  89 125 168 204 256 315 376
#     4  11  24  41  65  89 127 166 209 261 316 379
#     4  11  24  45  61  90 131 174 207 257 319 379
#     4  10  22  38  62  94 128 156 216 264 316 368
#     4  12  23  38  64  95 122 159 215 262 313 375
#
# _framework density 19.366292999999999
#
# number of rings (size 3 to 8) (size 9 to 14) (size 15 to 20)
#    0.000    1.067    4.667    2.400    0.000    0.000 
#    0.000    6.667    0.000    0.000    0.000    0.000 
#    0.000    0.000    0.000    0.000    0.000    0.000 
#
# Total GULP energy -372086.122954 kJ/mol
# GULP energy per Si atom -12402.870765 kJ/mol
# Density = 1.932221 g / cm^3
# Si number density = 19.366293 Si / 1000 Ang^3
#
#
#
# Elastic Constant Matrix: (Units=GPa)
#
#
# Indices 1 2 3 4 5 6 
#
# 1 94.7620 50.4163 23.8754 0.0000 3.2929 0.0000
# 2 50.4163 140.1863 36.6882 0.0000 -2.7712 0.0000
# 3 23.8754 36.6882 84.9305 0.0000 6.7555 0.0000
# 4 0.0000 0.0000 0.0000 29.2287 0.0000 -4.2741
# 5 3.2929 -2.7712 6.7555 0.0000 32.8178 0.0000
# 6 0.0000 0.0000 0.0000 -4.2741 0.0000 30.8480
#
#
#
# Elastic Compliance Matrix: (Units=1/GPa)
#
#
# Indices 1 2 3 4 5 6 
#
# 1 0.013371 -0.004374 -0.001762 0.000000 -0.001348 0.000000
# 2 -0.004374 0.009539 -0.003040 0.000000 0.001870 0.000000
# 3 -0.001762 -0.003040 0.013815 0.000000 -0.002924 0.000000
# 4 0.000000 0.000000 0.000000 0.034920 0.000000 0.004838
# 5 -0.001348 0.001870 -0.002924 0.000000 0.031366 0.000000
# 6 0.000000 0.000000 0.000000 0.004838 0.000000 0.033087
#
#
# Mechanical properties :
#
#
# Convention : Reuss Voigt Hill
#
# Bulk Modulus (GPa) = 54.42675 60.20430 57.31553
# Shear Modulus (GPa) = 31.13803 32.50549 31.82176
#
# Velocity S-wave (km/s) = 4.01415 4.10134 4.05798
# Velocity P-wave (km/s) = 7.04623 7.32002 7.18443
#
# Compressibility (1/GPa) = 0.01837332
#
# Stress axis : x y z
#
# Youngs Moduli (GPa) = 74.79039 104.83310 72.38348
#
# Poissons Ratio (x) = 0.45855 0.12754
# Poissons Ratio (y) = 0.32714 0.22003
# Poissons Ratio (z) = 0.13178 0.31867
#
# Static dielectric constant tensor:
#      x y z
#    x 3.512570 0.000000 0.060110 
#    y 0.000000 3.559700 0.000000 
#    z 0.060110 0.000000 3.562010 
# 
# 
# High freq. dielectric constant tensor:
#      x y z
#    x 1.751740 0.000000 0.004170 
#    y 0.000000 1.755350 0.000000 
#    z 0.004170 0.000000 1.758900 
# 
# From -- ./inp_files/204515.got.cif
#   From: 2010.06.25/outbox.cif.g09.slc.cpg/sg15_103_cif.got.tgz:204515.got - 2010.06.28 07:06:18.
