data_PCOD8142172
_publ_section_title
;
Structure prediction by ZEFSAII (Michael W. Deem and Ramdas Pophale) SiO2 
 PCOD8142172
Probable space group: C 2/C
;
_chemical_formula_sum "Si O2"
_cell_formula_units_Z 48
_cell_length_a 23.342746
_cell_length_b 20.371624
_cell_length_c 15.831351
_cell_angle_alpha 90.000000
_cell_angle_beta 161.235921
_cell_angle_gamma 90.000000
_cell_volume 2421.636881
_symmetry_space_group_name_H-M "C 2/C"
_symmetry_group_IT_number 15
_symmetry_cell_setting 'monoclinic'
loop_
_space_group_symop_operation_xyz
x,y,z
-x,y,1/2-z
-x,-y,-z
x,-y,1/2+z
1/2+x,1/2+y,z
1/2-x,1/2+y,1/2-z
1/2-x,1/2-y,-z
1/2+x,1/2-y,1/2+z
loop_
_atom_site_type_symbol
_atom_site_label
_atom_site_fract_x
_atom_site_fract_y
_atom_site_fract_z
Si Si1 0.000000 0.988926 0.250000
Si Si2 0.571453 0.716401 0.524902
Si Si3 0.227972 0.381087 0.815550
Si Si4 0.500096 0.850469 0.152421
Si Si5 0.000000 0.773441 0.250000
Si Si6 0.983037 0.295121 0.566070
Si Si7 0.889373 0.113827 0.172297
O O1 0.167651 0.946329 0.514162
O O2 0.934836 0.035423 0.236768
O O3 0.515385 0.772191 0.379201
O O4 0.775501 0.696113 0.796813
O O5 0.524448 0.740738 0.552766
O O6 0.450853 0.651296 0.342894
O O7 0.159455 0.385567 0.623086
O O8 0.061489 0.366038 0.646022
O O9 0.351077 0.316898 0.996005
O O10 0.500000 0.871371 0.250000
O O11 0.682052 0.875992 0.365092
O O12 0.918795 0.727796 0.210619
O O13 0.000000 0.147209 0.250000
#
# Coordination Sequence:
#
# PCOD8142172 Si02
#       7
#     4   8   8   8   4   8   8
#     4   9  24  44  64  86 124 183 218 250 304 379
#     4  11  21  36  60 100 128 156 202 266 325 374
#     4  10  22  40  64  86 129 172 206 257 313 377
#     4  11  21  37  63  94 128 159 201 271 328 366
#     4  11  20  40  62  96 126 165 210 258 330 373
#     4  11  21  36  64  97 126 165 199 265 325 375
#     4  10  21  38  63  89 120 171 211 253 309 375
#
# _framework density 19.821303
#
# number of rings (size 3 to 8) (size 9 to 14) (size 15 to 20)
#    0.500    1.000    3.333    4.500    0.000    0.667 
#    0.000    0.833    1.833    0.000    0.000    0.000 
#    0.000    0.000    0.000    0.000    0.000    0.000 
#
# Total GULP energy -297430.820783 kJ/mol
# GULP energy per Si atom -12392.950866 kJ/mol
# Density = 1.977619 g / cm^3
# Si number density = 19.821303 Si / 1000 Ang^3
#
#
#
# Elastic Constant Matrix: (Units=GPa)
#
#
# Indices 1 2 3 4 5 6 
#
# 1 103.6054 27.7523 46.5063 0.0000 -23.0790 0.0000
# 2 27.7523 118.9075 52.4922 0.0000 -16.4697 0.0000
# 3 46.5063 52.4922 132.9717 0.0000 -11.8680 0.0000
# 4 0.0000 0.0000 0.0000 23.6515 0.0000 4.1269
# 5 -23.0790 -16.4697 -11.8680 0.0000 24.9185 0.0000
# 6 0.0000 0.0000 0.0000 4.1269 0.0000 19.7668
#
#
#
# Elastic Compliance Matrix: (Units=1/GPa)
#
#
# Indices 1 2 3 4 5 6 
#
# 1 0.013827 -0.000007 -0.003855 0.000000 0.010966 0.000000
# 2 -0.000007 0.010827 -0.003795 0.000000 0.005342 0.000000
# 3 -0.003855 -0.003795 0.010260 0.000000 -0.001191 0.000000
# 4 0.000000 0.000000 0.000000 0.043879 0.000000 -0.009161
# 5 0.010966 0.005342 -0.001191 0.000000 0.053251 0.000000
# 6 0.000000 0.000000 0.000000 -0.009161 0.000000 0.052503
#
#
# Mechanical properties :
#
#
# Convention : Reuss Voigt Hill
#
# Bulk Modulus (GPa) = 51.01611 67.66516 59.34064
# Shear Modulus (GPa) = 24.22579 28.91627 26.57103
#
# Velocity S-wave (km/s) = 3.49980 3.82363 3.66530
# Velocity P-wave (km/s) = 6.49041 7.32839 6.92209
#
# Compressibility (1/GPa) = 0.01960165
#
# Stress axis : x y z
#
# Youngs Moduli (GPa) = 72.32377 92.36482 97.46387
#
# Poissons Ratio (x) = 0.00061 0.37567
# Poissons Ratio (y) = 0.00048 0.36986
# Poissons Ratio (z) = 0.27877 0.35051
#
# Static dielectric constant tensor:
#      x y z
#    x 3.616800 0.000000 0.087450 
#    y 0.000000 3.353550 0.000000 
#    z 0.087450 0.000000 3.940270 
# 
# 
# High freq. dielectric constant tensor:
#      x y z
#    x 1.764290 0.000000 0.001850 
#    y 0.000000 1.736320 0.000000 
#    z 0.001850 0.000000 1.795460 
# 
# From -- ./inp_files/169729.got.cif
#   From: 2010.06.25/outbox.cif.g09.slc.cpg/sg15_85_cif.got.tgz:169729.got - 2010.06.28 07:06:18.
