data_PCOD8142672
_publ_section_title
;
Structure prediction by ZEFSAII (Michael W. Deem and Ramdas Pophale) SiO2 
 PCOD8142672
Probable space group: C 2/C
;
_chemical_formula_sum "Si O2"
_cell_formula_units_Z 40
_cell_length_a 8.821660
_cell_length_b 24.307116
_cell_length_c 8.560003
_cell_angle_alpha 90.000000
_cell_angle_beta 96.184275
_cell_angle_gamma 90.000000
_cell_volume 1824.832201
_symmetry_space_group_name_H-M "C 2/C"
_symmetry_group_IT_number 15
_symmetry_cell_setting 'monoclinic'
loop_
_space_group_symop_operation_xyz
x,y,z
-x,y,1/2-z
-x,-y,-z
x,-y,1/2+z
1/2+x,1/2+y,z
1/2-x,1/2+y,1/2-z
1/2-x,1/2-y,-z
1/2+x,1/2-y,1/2+z
loop_
_atom_site_type_symbol
_atom_site_label
_atom_site_fract_x
_atom_site_fract_y
_atom_site_fract_z
Si Si1 0.343337 0.059599 0.429991
Si Si2 0.487296 0.271550 0.570731
Si Si3 0.304568 0.053104 0.061963
Si Si4 0.149897 0.849039 0.369391
Si Si5 0.192482 0.671952 0.912721
O O1 0.295039 0.058819 0.245627
O O2 0.523837 0.061000 0.479231
O O3 0.283813 0.114510 0.500946
O O4 0.259726 0.008752 0.506413
O O5 0.500000 0.292202 0.750000
O O6 0.625675 0.296109 0.481882
O O7 0.333878 0.292574 0.479706
O O8 0.465693 0.204469 0.564005
O O9 0.189863 0.096908 0.973847
O O10 0.293299 0.834938 0.273846
O O11 0.000000 0.862005 0.250000
#
# Coordination Sequence:
#
# PCOD8142672 Si02
#       5
#     8   8   8   8   8
#     4  10  21  39  63  93 120 160 203 253 313 359
#     4  10  22  40  59  86 123 165 204 254 302 366
#     4  10  21  39  64  91 124 157 205 257 303 370
#     4  10  22  41  62  90 126 165 207 251 309 367
#     4  10  22  40  59  89 125 159 206 255 304 368
#
# _framework density 21.919823000000001
#
# number of rings (size 3 to 8) (size 9 to 14) (size 15 to 20)
#    0.000    2.000    0.000    2.400    2.800    2.400 
#   18.000   10.000    0.000    0.000    0.000    0.000 
#    0.000    0.000    0.000    0.000    0.000    0.000 
#
# Total GULP energy -247869.327330 kJ/mol
# GULP energy per Si atom -12393.466366 kJ/mol
# Density = 2.186993 g / cm^3
# Si number density = 21.919823 Si / 1000 Ang^3
#
#
#
# Elastic Constant Matrix: (Units=GPa)
#
#
# Indices 1 2 3 4 5 6 
#
# 1 28.9273 47.9991 21.9010 0.0000 -10.5539 0.0000
# 2 47.9991 179.0398 63.6578 0.0000 -21.2279 0.0000
# 3 21.9010 63.6578 111.7827 0.0000 -15.1014 0.0000
# 4 0.0000 0.0000 0.0000 37.8787 0.0000 -2.4824
# 5 -10.5539 -21.2279 -15.1014 0.0000 37.7357 0.0000
# 6 0.0000 0.0000 0.0000 -2.4824 0.0000 44.7064
#
#
#
# Elastic Compliance Matrix: (Units=1/GPa)
#
#
# Indices 1 2 3 4 5 6 
#
# 1 0.065688 -0.015596 -0.002846 0.000000 0.008460 0.000000
# 2 -0.015596 0.010932 -0.003096 0.000000 0.000549 0.000000
# 3 -0.002846 -0.003096 0.011548 0.000000 0.002084 0.000000
# 4 0.000000 0.000000 0.000000 0.026496 0.000000 0.001471
# 5 0.008460 0.000549 0.002084 0.000000 0.030009 0.000000
# 6 0.000000 0.000000 0.000000 0.001471 0.000000 0.022450
#
#
# Mechanical properties :
#
#
# Convention : Reuss Voigt Hill
#
# Bulk Modulus (GPa) = 22.17595 65.20729 43.69162
# Shear Modulus (GPa) = 22.19959 36.47695 29.33827
#
# Velocity S-wave (km/s) = 3.18585 4.08377 3.66243
# Velocity P-wave (km/s) = 4.86535 7.21450 6.15307
#
# Compressibility (1/GPa) = 0.04509390
#
# Stress axis : x y z
#
# Youngs Moduli (GPa) = 15.22349 91.47228 86.59452
#
# Poissons Ratio (x) = 1.42656 0.24642
# Poissons Ratio (y) = 0.23742 0.26809
# Poissons Ratio (z) = 0.04332 0.28319
#
# Static dielectric constant tensor:
#      x y z
#    x 3.896820 0.000000 -0.179690 
#    y 0.000000 4.363850 0.000000 
#    z -0.179690 0.000000 4.181180 
# 
# 
# High freq. dielectric constant tensor:
#      x y z
#    x 1.842670 0.000000 0.007210 
#    y 0.000000 1.871610 0.000000 
#    z 0.007210 0.000000 1.877620 
# 
# From -- ./inp_files/23635.got.cif
#   From: 2010.06.25/outbox.cif.g09.slc.cpg/sg15_12_cif.got.tgz:23635.got - 2010.06.28 07:06:18.
