data_PCOD8142909
_publ_section_title
;
Structure prediction by ZEFSAII (Michael W. Deem and Ramdas Pophale) SiO2 
 PCOD8142909
Probable space group: C 2/C
;
_chemical_formula_sum "Si O2"
_cell_formula_units_Z 64
_cell_length_a 16.808979
_cell_length_b 15.970884
_cell_length_c 14.438780
_cell_angle_alpha 90.000000
_cell_angle_beta 50.102925
_cell_angle_gamma 90.000000
_cell_volume 2973.775595
_symmetry_space_group_name_H-M "C 2/C"
_symmetry_group_IT_number 15
_symmetry_cell_setting 'monoclinic'
loop_
_space_group_symop_operation_xyz
x,y,z
-x,y,1/2-z
-x,-y,-z
x,-y,1/2+z
1/2+x,1/2+y,z
1/2-x,1/2+y,1/2-z
1/2-x,1/2-y,-z
1/2+x,1/2-y,1/2+z
loop_
_atom_site_type_symbol
_atom_site_label
_atom_site_fract_x
_atom_site_fract_y
_atom_site_fract_z
Si Si1 0.900900 0.039535 0.619634
Si Si2 0.146395 0.327704 0.391826
Si Si3 0.697866 0.054973 0.218249
Si Si4 0.201058 0.194915 0.885185
Si Si5 0.805831 0.186814 0.023909
Si Si6 0.415629 0.128743 0.024961
Si Si7 0.802894 0.571830 0.938398
Si Si8 0.181047 0.936951 0.132608
O O1 0.884691 0.128995 0.584744
O O2 0.909812 0.049745 0.724359
O O3 0.806631 0.976474 0.675665
O O4 0.000000 0.000000 0.500000
O O5 0.206245 0.297000 0.256792
O O6 0.118509 0.242606 0.469196
O O7 0.217197 0.393592 0.396003
O O8 0.038475 0.368107 0.444157
O O9 0.622556 0.071497 0.360853
O O10 0.654445 0.983633 0.180275
O O11 0.715998 0.141516 0.150631
O O12 0.143835 0.283028 0.937101
O O13 0.252523 0.159704 0.941734
O O14 0.866752 0.120233 0.914459
O O15 0.750000 0.250000 0.000000
O O16 0.396750 0.085844 0.939631
O O17 0.712410 0.523857 0.061822
#
# Coordination Sequence:
#
# PCOD8142909 Si02
#       8
#     8   8   8   8   8   8   8   8
#     4  10  21  39  67  94 125 178 218 266 333 393
#     4  10  22  39  65 101 125 173 218 267 339 387
#     4  10  21  41  64  91 131 169 216 275 320 395
#     4  10  23  42  63  94 138 163 222 277 325 392
#     4   9  18  38  64  88 134 166 205 274 327 373
#     4  12  23  41  71  95 130 181 215 275 337 392
#     4  10  22  43  64  93 131 175 219 272 330 388
#     4   9  19  41  65  93 132 168 216 276 316 394
#
# _framework density 21.521462
#
# number of rings (size 3 to 8) (size 9 to 14) (size 15 to 20)
#    0.000    2.000    2.500    0.375    1.750    1.000 
#    2.250   11.875    0.000    0.000    0.000    0.000 
#    0.000    0.000    0.000    0.000    0.000    0.000 
#
# Total GULP energy -396608.367168 kJ/mol
# GULP energy per Si atom -12394.011474 kJ/mol
# Density = 2.147248 g / cm^3
# Si number density = 21.521462 Si / 1000 Ang^3
#
#
#
# Elastic Constant Matrix: (Units=GPa)
#
#
# Indices 1 2 3 4 5 6 
#
# 1 66.2455 34.9704 58.9693 0.0000 19.5959 0.0000
# 2 34.9704 92.8000 40.4514 0.0000 5.5795 0.0000
# 3 58.9693 40.4514 118.6198 0.0000 10.7956 0.0000
# 4 0.0000 0.0000 0.0000 34.6658 0.0000 9.4950
# 5 19.5959 5.5795 10.7956 0.0000 34.0839 0.0000
# 6 0.0000 0.0000 0.0000 9.4950 0.0000 30.1490
#
#
#
# Elastic Compliance Matrix: (Units=1/GPa)
#
#
# Indices 1 2 3 4 5 6 
#
# 1 0.035319 -0.006287 -0.014065 0.000000 -0.014822 0.000000
# 2 -0.006287 0.013794 -0.001752 0.000000 0.001912 0.000000
# 3 -0.014065 -0.001752 0.015711 0.000000 0.003397 0.000000
# 4 0.000000 0.000000 0.000000 0.031570 0.000000 -0.009943
# 5 -0.014822 0.001912 0.003397 0.000000 0.036472 0.000000
# 6 0.000000 0.000000 0.000000 -0.009943 0.000000 0.036300
#
#
# Mechanical properties :
#
#
# Convention : Reuss Voigt Hill
#
# Bulk Modulus (GPa) = 48.50998 60.71640 54.61319
# Shear Modulus (GPa) = 22.70179 29.33137 26.01658
#
# Velocity S-wave (km/s) = 3.25136 3.69574 3.48065
# Velocity P-wave (km/s) = 6.05676 6.81796 6.44860
#
# Compressibility (1/GPa) = 0.02061431
#
# Stress axis : x y z
#
# Youngs Moduli (GPa) = 28.31335 72.49482 63.65030
#
# Poissons Ratio (x) = 0.45581 0.89524
# Poissons Ratio (y) = 0.17802 0.11154
# Poissons Ratio (z) = 0.39823 0.12704
#
# Static dielectric constant tensor:
#      x y z
#    x 4.056850 0.000000 0.826600 
#    y 0.000000 4.592350 0.000000 
#    z 0.826600 0.000000 3.856730 
# 
# 
# High freq. dielectric constant tensor:
#      x y z
#    x 1.835600 0.000000 0.033110 
#    y 0.000000 1.860150 0.000000 
#    z 0.033110 0.000000 1.835590 
# 
# From -- ./inp_files/155483.got.cif
#   From: 2010.06.25/outbox.cif.g09.slc.cpg/sg15_78_cif.got.tgz:155483.got - 2010.06.28 07:06:18.
