data_PCOD8142515
_publ_section_title
;
Structure prediction by ZEFSAII (Michael W. Deem and Ramdas Pophale) SiO2 
 PCOD8142515
Probable space group: C 2/C
;
_chemical_formula_sum "Si O2"
_cell_formula_units_Z 48
_cell_length_a 28.345563
_cell_length_b 9.058903
_cell_length_c 16.100828
_cell_angle_alpha 90.000000
_cell_angle_beta 145.998120
_cell_angle_gamma 90.000000
_cell_volume 2312.020522
_symmetry_space_group_name_H-M "C 2/C"
_symmetry_group_IT_number 15
_symmetry_cell_setting 'monoclinic'
loop_
_space_group_symop_operation_xyz
x,y,z
-x,y,1/2-z
-x,-y,-z
x,-y,1/2+z
1/2+x,1/2+y,z
1/2-x,1/2+y,1/2-z
1/2-x,1/2-y,-z
1/2+x,1/2-y,1/2+z
loop_
_atom_site_type_symbol
_atom_site_label
_atom_site_fract_x
_atom_site_fract_y
_atom_site_fract_z
Si Si1 0.916896 0.888290 0.592868
Si Si2 0.250730 0.580394 0.595652
Si Si3 0.926467 0.112304 0.915959
Si Si4 0.736322 0.577399 0.077169
Si Si5 0.581040 0.070397 0.158188
Si Si6 0.410870 0.930484 0.151152
O O1 0.933373 0.837786 0.522005
O O2 0.906448 0.746285 0.637515
O O3 0.000000 0.972805 0.750000
O O4 0.836005 0.992962 0.478173
O O5 0.335078 0.537362 0.769137
O O6 0.268214 0.534006 0.526066
O O7 0.222736 0.748779 0.565338
O O8 0.171685 0.489223 0.518317
O O9 0.933333 0.252866 0.864109
O O10 0.000000 0.000000 0.000000
O O11 0.827936 0.537806 0.252322
O O12 0.594824 0.998758 0.266739
O O13 0.500000 0.000000 0.000000
O O14 0.500000 0.992384 0.250000
#
# Coordination Sequence:
#
# PCOD8142515 Si02
#       6
#     8   8   8   8   8   8
#     4  11  23  38  59  88 120 153 201 251 294 355
#     4   9  20  38  58  84 120 155 195 243 300 357
#     4  11  24  40  60  89 122 157 199 250 300 360
#     4   9  20  38  59  85 117 156 197 245 296 354
#     4  10  21  39  61  86 121 158 198 246 300 359
#     4  10  22  38  59  87 119 156 198 248 299 357
#
# _framework density 20.761061999999999
#
# number of rings (size 3 to 8) (size 9 to 14) (size 15 to 20)
#    0.000    2.000    0.000    4.000    0.000   10.000 
#    0.000    0.000    0.000    0.000    0.000    0.000 
#    0.000    0.000    0.000    0.000    0.000    0.000 
#
# Total GULP energy -297377.656761 kJ/mol
# GULP energy per Si atom -12390.735698 kJ/mol
# Density = 2.071381 g / cm^3
# Si number density = 20.761062 Si / 1000 Ang^3
#
#
#
# Elastic Constant Matrix: (Units=GPa)
#
#
# Indices 1 2 3 4 5 6 
#
# 1 73.4788 50.5463 38.2064 0.0000 14.0968 0.0000
# 2 50.5463 88.1082 54.2233 0.0000 18.5348 0.0000
# 3 38.2064 54.2233 180.8487 0.0000 35.7627 0.0000
# 4 0.0000 0.0000 0.0000 40.6715 0.0000 5.7420
# 5 14.0968 18.5348 35.7627 0.0000 46.2098 0.0000
# 6 0.0000 0.0000 0.0000 5.7420 0.0000 30.8797
#
#
#
# Elastic Compliance Matrix: (Units=1/GPa)
#
#
# Indices 1 2 3 4 5 6 
#
# 1 0.022726 -0.012216 -0.000869 0.000000 -0.001360 0.000000
# 2 -0.012216 0.020794 -0.003237 0.000000 -0.002109 0.000000
# 3 -0.000869 -0.003237 0.007526 0.000000 -0.004261 0.000000
# 4 0.000000 0.000000 0.000000 0.025250 0.000000 -0.004695
# 5 -0.001360 -0.002109 -0.004261 0.000000 0.026199 0.000000
# 6 0.000000 0.000000 0.000000 -0.004695 0.000000 0.033257
#
#
# Mechanical properties :
#
#
# Convention : Reuss Voigt Hill
#
# Bulk Modulus (GPa) = 54.34511 69.82086 62.08298
# Shear Modulus (GPa) = 28.64833 36.84951 32.74892
#
# Velocity S-wave (km/s) = 3.71874 4.21757 3.97598
# Velocity P-wave (km/s) = 6.68371 7.57765 7.14468
#
# Compressibility (1/GPa) = 0.01840092
#
# Stress axis : x y z
#
# Youngs Moduli (GPa) = 44.00235 48.09193 132.86847
#
# Poissons Ratio (x) = 0.58751 0.11552
# Poissons Ratio (y) = 0.53755 0.43004
# Poissons Ratio (z) = 0.03826 0.15565
#
# Static dielectric constant tensor:
#      x y z
#    x 3.651070 0.000000 0.414270 
#    y 0.000000 3.495220 0.000000 
#    z 0.414270 0.000000 4.301240 
# 
# 
# High freq. dielectric constant tensor:
#      x y z
#    x 1.792580 0.000000 0.016310 
#    y 0.000000 1.794720 0.000000 
#    z 0.016310 0.000000 1.846400 
# 
# From -- ./inp_files/209266.got.cif
#   From: 2010.06.25/outbox.cif.g09.slc.cpg/sg15_105_cif.got.tgz:209266.got - 2010.06.28 07:06:18.
