data_PCOD8142962
_publ_section_title
;
Structure prediction by ZEFSAII (Michael W. Deem and Ramdas Pophale) SiO2 
 PCOD8142962
Probable space group: C 2/C
;
_chemical_formula_sum "Si O2"
_cell_formula_units_Z 60
_cell_length_a 13.749042
_cell_length_b 17.352573
_cell_length_c 18.326035
_cell_angle_alpha 90.000000
_cell_angle_beta 138.326287
_cell_angle_gamma 90.000000
_cell_volume 2907.054338
_symmetry_space_group_name_H-M "C 2/C"
_symmetry_group_IT_number 15
_symmetry_cell_setting 'monoclinic'
loop_
_space_group_symop_operation_xyz
x,y,z
-x,y,1/2-z
-x,-y,-z
x,-y,1/2+z
1/2+x,1/2+y,z
1/2-x,1/2+y,1/2-z
1/2-x,1/2-y,-z
1/2+x,1/2-y,1/2+z
loop_
_atom_site_type_symbol
_atom_site_label
_atom_site_fract_x
_atom_site_fract_y
_atom_site_fract_z
Si Si1 0.934237 0.604826 0.565736
Si Si2 0.640144 0.237071 0.235409
Si Si3 0.251251 0.039236 0.983035
Si Si4 0.958705 0.030050 0.306802
Si Si5 0.754427 0.901450 0.181061
Si Si6 0.000000 0.305535 0.250000
Si Si7 0.716785 0.677024 0.326083
Si Si8 0.318411 0.809131 0.592966
O O1 0.891154 0.516134 0.553255
O O2 0.949400 0.644057 0.652901
O O3 0.807538 0.643035 0.444761
O O4 0.086665 0.609013 0.609056
O O5 0.649048 0.329707 0.236036
O O6 0.676328 0.197195 0.179692
O O7 0.744166 0.211324 0.361173
O O8 0.488550 0.203400 0.176643
O O9 0.232277 0.088326 0.898221
O O10 0.278001 0.101728 0.060177
O O11 0.112574 0.986906 0.933835
O O12 0.907650 0.118707 0.274618
O O13 0.000000 0.000253 0.250000
O O14 0.824890 0.976675 0.260387
O O15 0.138961 0.254621 0.307093
O O16 0.250000 0.750000 0.500000
#
# Coordination Sequence:
#
# PCOD8142962 Si02
#       8
#     8   8   8   8   8   4   8   8
#     4  12  25  43  68  97 130 180 219 276 332 400
#     4  11  25  39  65 102 133 173 221 278 329 399
#     4  11  22  42  69  96 132 179 223 267 339 398
#     4  10  21  39  69  93 125 171 227 268 323 400
#     4  11  21  40  66  98 129 169 223 266 326 400
#     4  12  26  46  66  98 136 168 226 280 334 392
#     4  12  23  45  69  96 129 175 228 276 330 392
#     4  11  23  41  65  96 140 173 217 276 336 394
#
# _framework density 20.639448999999999
#
# number of rings (size 3 to 8) (size 9 to 14) (size 15 to 20)
#    0.000    0.800    6.000    2.400    5.600    1.067 
#    0.000    0.667    0.000    0.000    0.000    0.000 
#    0.000    0.000    0.000    0.000    0.000    0.000 
#
# Total GULP energy -371788.554122 kJ/mol
# GULP energy per Si atom -12392.951804 kJ/mol
# Density = 2.059247 g / cm^3
# Si number density = 20.639449 Si / 1000 Ang^3
#
#
#
# Elastic Constant Matrix: (Units=GPa)
#
#
# Indices 1 2 3 4 5 6 
#
# 1 74.0043 21.0765 26.5215 0.0000 -6.8045 0.0000
# 2 21.0765 113.1114 35.1345 0.0000 -9.4215 0.0000
# 3 26.5215 35.1345 66.2458 -0.0002 -4.7042 -0.0001
# 4 0.0000 0.0000 -0.0002 30.0225 -0.0001 0.5443
# 5 -6.8045 -9.4215 -4.7042 -0.0001 36.9505 0.0000
# 6 0.0000 0.0000 -0.0001 0.5443 0.0000 31.6448
#
#
#
# Elastic Compliance Matrix: (Units=1/GPa)
#
#
# Indices 1 2 3 4 5 6 
#
# 1 0.016044 -0.001047 -0.005729 0.000000 0.001958 0.000000
# 2 -0.001047 0.010802 -0.005175 0.000000 0.001903 0.000000
# 3 -0.005729 -0.005175 0.020147 0.000000 0.000191 0.000000
# 4 0.000000 0.000000 0.000000 0.033319 0.000000 -0.000573
# 5 0.001958 0.001903 0.000191 0.000000 0.027933 0.000000
# 6 0.000000 0.000000 0.000000 -0.000573 0.000000 0.031611
#
#
# Mechanical properties :
#
#
# Convention : Reuss Voigt Hill
#
# Bulk Modulus (GPa) = 43.30564 46.53627 44.92096
# Shear Modulus (GPa) = 29.16244 31.09882 30.13063
#
# Velocity S-wave (km/s) = 3.76300 3.88592 3.82495
# Velocity P-wave (km/s) = 6.31725 6.53682 6.42798
#
# Compressibility (1/GPa) = 0.02309168
#
# Stress axis : x y z
#
# Youngs Moduli (GPa) = 62.32836 92.57775 49.63563
#
# Poissons Ratio (x) = 0.09692 0.28436
# Poissons Ratio (y) = 0.06525 0.25685
# Poissons Ratio (z) = 0.35707 0.47905
#
# Static dielectric constant tensor:
#      x y z
#    x 3.847340 0.000000 -0.025090 
#    y 0.000000 3.837150 0.000000 
#    z -0.025090 0.000000 4.215600 
# 
# 
# High freq. dielectric constant tensor:
#      x y z
#    x 1.798380 0.000000 0.013500 
#    y 0.000000 1.819440 0.000000 
#    z 0.013500 0.000000 1.804550 
# 
# From -- ./inp_files/244712.got.cif
#   From: 2010.06.25/outbox.cif.g09.slc.cpg/sg15_123_cif.got.tgz:244712.got - 2010.06.28 07:06:18.
