data_PCOD8142025
_publ_section_title
;
Structure prediction by ZEFSAII (Michael W. Deem and Ramdas Pophale) SiO2 
 PCOD8142025
Probable space group: C 2/C
;
_chemical_formula_sum "Si O2"
_cell_formula_units_Z 44
_cell_length_a 12.928405
_cell_length_b 18.328831
_cell_length_c 9.535327
_cell_angle_alpha 90.000000
_cell_angle_beta 77.502957
_cell_angle_gamma 90.000000
_cell_volume 2205.981104
_symmetry_space_group_name_H-M "C 2/C"
_symmetry_group_IT_number 15
_symmetry_cell_setting 'monoclinic'
loop_
_space_group_symop_operation_xyz
x,y,z
-x,y,1/2-z
-x,-y,-z
x,-y,1/2+z
1/2+x,1/2+y,z
1/2-x,1/2+y,1/2-z
1/2-x,1/2-y,-z
1/2+x,1/2-y,1/2+z
loop_
_atom_site_type_symbol
_atom_site_label
_atom_site_fract_x
_atom_site_fract_y
_atom_site_fract_z
Si Si1 0.943376 0.558013 0.414205
Si Si2 0.000000 0.820042 0.250000
Si Si3 0.182646 0.078054 0.779376
Si Si4 0.706882 0.549039 0.461865
Si Si5 0.598703 0.155548 0.820075
Si Si6 0.853665 0.785979 0.532218
O O1 0.829357 0.532367 0.394108
O O2 0.926589 0.629616 0.513971
O O3 0.000000 0.574477 0.250000
O O4 0.000000 0.500000 0.500000
O O5 0.087455 0.865357 0.309567
O O6 0.943566 0.773588 0.387569
O O7 0.186036 0.037410 0.630608
O O8 0.295548 0.118361 0.774339
O O9 0.148291 0.016198 0.899339
O O10 0.666624 0.629095 0.425065
O O11 0.500000 0.136761 0.750000
O O12 0.615040 0.242926 0.834026
O O13 0.750000 0.750000 0.500000
#
# Coordination Sequence:
#
# PCOD8142025 Si02
#       6
#     8   4   8   8   8   8
#     4  11  20  33  60  92 119 164 207 254 315 365
#     4  10  22  40  68  86 120 164 214 250 310 376
#     4  10  21  40  62  89 120 160 206 258 303 370
#     4  10  21  38  61  86 126 157 205 256 305 370
#     4  11  23  41  60  89 132 157 206 269 310 370
#     4  11  21  43  63  89 124 169 207 251 316 382
#
# _framework density 19.945774
#
# number of rings (size 3 to 8) (size 9 to 14) (size 15 to 20)
#    0.000    1.455    5.455    3.818    1.273    2.909 
#    4.909    0.909    0.000    0.000    0.000    0.000 
#    0.000    0.000    0.000    0.000    0.000    0.000 
#
# Total GULP energy -272629.176708 kJ/mol
# GULP energy per Si atom -12392.235305 kJ/mol
# Density = 1.990038 g / cm^3
# Si number density = 19.945774 Si / 1000 Ang^3
#
#
#
# Elastic Constant Matrix: (Units=GPa)
#
#
# Indices 1 2 3 4 5 6 
#
# 1 98.0325 34.6366 35.2501 0.0000 -6.6074 0.0000
# 2 34.6366 79.9055 17.1936 0.0000 4.5964 0.0000
# 3 35.2501 17.1936 62.8712 0.0000 -9.6237 0.0000
# 4 0.0000 0.0000 0.0000 40.4352 0.0000 13.3193
# 5 -6.6074 4.5964 -9.6237 0.0000 34.2219 0.0000
# 6 0.0000 0.0000 0.0000 13.3193 0.0000 22.7232
#
#
#
# Elastic Compliance Matrix: (Units=1/GPa)
#
#
# Indices 1 2 3 4 5 6 
#
# 1 0.014378 -0.004935 -0.006463 0.000000 0.001621 0.000000
# 2 -0.004935 0.015279 -0.001956 0.000000 -0.003555 0.000000
# 3 -0.006463 -0.001956 0.020809 0.000000 0.004867 0.000000
# 4 0.000000 0.000000 0.000000 0.030648 0.000000 -0.017965
# 5 0.001621 -0.003555 0.004867 0.000000 0.031380 0.000000
# 6 0.000000 0.000000 0.000000 -0.017965 0.000000 0.054538
#
#
# Mechanical properties :
#
#
# Convention : Reuss Voigt Hill
#
# Bulk Modulus (GPa) = 42.09116 46.10773 44.09945
# Shear Modulus (GPa) = 24.79422 29.72465 27.25944
#
# Velocity S-wave (km/s) = 3.52956 3.86459 3.70087
# Velocity P-wave (km/s) = 6.14484 6.56355 6.35764
#
# Compressibility (1/GPa) = 0.02375796
#
# Stress axis : x y z
#
# Youngs Moduli (GPa) = 69.55275 65.44860 48.05566
#
# Poissons Ratio (x) = 0.32297 0.31060
# Poissons Ratio (y) = 0.34322 0.09399
# Poissons Ratio (z) = 0.44955 0.12801
#
# Static dielectric constant tensor:
#      x y z
#    x 4.573980 0.000000 -0.115390 
#    y 0.000000 3.961780 0.000000 
#    z -0.115390 0.000000 3.540350 
# 
# 
# High freq. dielectric constant tensor:
#      x y z
#    x 1.787990 0.000000 -0.007600 
#    y 0.000000 1.778080 0.000000 
#    z -0.007600 0.000000 1.763720 
# 
# From -- ./inp_files/30845.got.cif
#   From: 2010.06.25/outbox.cif.g09.slc.cpg/sg15_16_cif.got.tgz:30845.got - 2010.06.28 07:06:18.
