data_PCOD8142763
_publ_section_title
;
Structure prediction by ZEFSAII (Michael W. Deem and Ramdas Pophale) SiO2 
 PCOD8142763
Probable space group: C 2/C
;
_chemical_formula_sum "Si O2"
_cell_formula_units_Z 48
_cell_length_a 20.988163
_cell_length_b 14.787148
_cell_length_c 8.349467
_cell_angle_alpha 90.000000
_cell_angle_beta 72.887227
_cell_angle_gamma 90.000000
_cell_volume 2476.575978
_symmetry_space_group_name_H-M "C 2/C"
_symmetry_group_IT_number 15
_symmetry_cell_setting 'monoclinic'
loop_
_space_group_symop_operation_xyz
x,y,z
-x,y,1/2-z
-x,-y,-z
x,-y,1/2+z
1/2+x,1/2+y,z
1/2-x,1/2+y,1/2-z
1/2-x,1/2-y,-z
1/2+x,1/2-y,1/2+z
loop_
_atom_site_type_symbol
_atom_site_label
_atom_site_fract_x
_atom_site_fract_y
_atom_site_fract_z
Si Si1 0.748864 0.542392 0.925260
Si Si2 0.545332 0.435748 0.861044
Si Si3 0.338303 0.427040 0.289261
Si Si4 0.075345 0.596094 0.167339
Si Si5 0.655093 0.954024 0.894656
Si Si6 0.568710 0.298486 0.110960
O O1 0.691589 0.594357 0.866680
O O2 0.801653 0.511724 0.757456
O O3 0.717747 0.456105 0.041041
O O4 0.792432 0.599354 0.025588
O O5 0.500000 0.399592 0.750000
O O6 0.609383 0.490346 0.752389
O O7 0.500000 0.500000 0.000000
O O8 0.570453 0.348395 0.939139
O O9 0.371646 0.334616 0.321972
O O10 0.108477 0.609808 0.320152
O O11 0.078331 0.692183 0.074757
O O12 0.000000 0.563925 0.250000
O O13 0.110570 0.521412 0.033693
O O14 0.500000 0.321126 0.250000
#
# Coordination Sequence:
#
# PCOD8142763 Si02
#       6
#     8   8   8   8   8   8
#     4   9  19  32  59  81 108 160 193 222 269 357
#     4  12  19  32  55  83 123 162 186 221 275 335
#     4  11  17  32  56  83 116 156 191 211 279 345
#     4  10  21  39  65  84 108 144 189 245 301 342
#     4   9  19  40  59  81 108 144 196 244 290 330
#     4  11  22  35  54  92 121 146 191 240 278 337
#
# _framework density 19.381599999999999
#
# number of rings (size 3 to 8) (size 9 to 14) (size 15 to 20)
#    0.000    1.667    5.000    0.500    0.000    0.000 
#    0.000   15.833    0.000    0.000    0.000    0.000 
#    0.000    0.000    0.000    0.000    0.000    0.000 
#
# Total GULP energy -297363.253163 kJ/mol
# GULP energy per Si atom -12390.135548 kJ/mol
# Density = 1.933749 g / cm^3
# Si number density = 19.381600 Si / 1000 Ang^3
#
#
#
# Elastic Constant Matrix: (Units=GPa)
#
#
# Indices 1 2 3 4 5 6 
#
# 1 127.5619 16.9774 36.2270 0.0000 27.3112 0.0000
# 2 16.9774 57.8574 20.5550 0.0000 1.1852 0.0000
# 3 36.2270 20.5550 75.8561 0.0000 9.6207 0.0000
# 4 0.0000 0.0000 0.0000 33.4424 0.0000 11.0989
# 5 27.3112 1.1852 9.6207 0.0000 49.2731 0.0000
# 6 0.0000 0.0000 0.0000 11.0989 0.0000 13.7805
#
#
#
# Elastic Compliance Matrix: (Units=1/GPa)
#
#
# Indices 1 2 3 4 5 6 
#
# 1 0.010168 -0.001524 -0.003828 0.000000 -0.004852 0.000000
# 2 -0.001524 0.019369 -0.004685 0.000000 0.001294 0.000000
# 3 -0.003828 -0.004685 0.016403 0.000000 -0.000968 0.000000
# 4 0.000000 0.000000 0.000000 0.040811 0.000000 -0.032869
# 5 -0.004852 0.001294 -0.000968 0.000000 0.023142 0.000000
# 6 0.000000 0.000000 0.000000 -0.032869 0.000000 0.099039
#
#
# Mechanical properties :
#
#
# Convention : Reuss Voigt Hill
#
# Bulk Modulus (GPa) = 38.65934 45.42158 42.04046
# Shear Modulus (GPa) = 21.04129 31.80029 26.42079
#
# Velocity S-wave (km/s) = 3.29847 4.05501 3.69614
# Velocity P-wave (km/s) = 5.87335 6.73872 6.32086
#
# Compressibility (1/GPa) = 0.02586697
#
# Stress axis : x y z
#
# Youngs Moduli (GPa) = 98.34735 51.62902 60.96436
#
# Poissons Ratio (x) = 0.07871 0.23334
# Poissons Ratio (y) = 0.14992 0.28559
# Poissons Ratio (z) = 0.37643 0.24186
#
# Static dielectric constant tensor:
#      x y z
#    x 4.597700 0.000000 0.491380 
#    y 0.000000 3.045440 0.000000 
#    z 0.491380 0.000000 3.948430 
# 
# 
# High freq. dielectric constant tensor:
#      x y z
#    x 1.788780 0.000000 0.007830 
#    y 0.000000 1.691030 0.000000 
#    z 0.007830 0.000000 1.767860 
# 
# From -- ./inp_files/55253.got.cif
#   From: 2010.06.25/outbox.cif.g09.slc.cpg/sg15_28_cif.got.tgz:55253.got - 2010.06.28 07:06:18.
