data_PCOD8142019
_publ_section_title
;
Structure prediction by ZEFSAII (Michael W. Deem and Ramdas Pophale) SiO2 
 PCOD8142019
Probable space group: C 2/C
;
_chemical_formula_sum "Si O2"
_cell_formula_units_Z 60
_cell_length_a 8.522185
_cell_length_b 12.550712
_cell_length_c 30.040603
_cell_angle_alpha 90.000000
_cell_angle_beta 113.850292
_cell_angle_gamma 90.000000
_cell_volume 2938.742853
_symmetry_space_group_name_H-M "C 2/C"
_symmetry_group_IT_number 15
_symmetry_cell_setting 'monoclinic'
loop_
_space_group_symop_operation_xyz
x,y,z
-x,y,1/2-z
-x,-y,-z
x,-y,1/2+z
1/2+x,1/2+y,z
1/2-x,1/2+y,1/2-z
1/2-x,1/2-y,-z
1/2+x,1/2-y,1/2+z
loop_
_atom_site_type_symbol
_atom_site_label
_atom_site_fract_x
_atom_site_fract_y
_atom_site_fract_z
Si Si1 0.665409 0.471478 0.184150
Si Si2 0.626456 0.249044 0.428304
Si Si3 0.481636 0.258195 0.180419
Si Si4 0.543349 0.474066 0.073644
Si Si5 0.723517 0.303035 0.724776
Si Si6 0.992105 0.699674 0.995162
Si Si7 0.209662 0.901737 0.009350
Si Si8 0.000000 0.352427 0.250000
O O1 0.525244 0.384769 0.184162
O O2 0.640587 0.503716 0.129973
O O3 0.645345 0.579105 0.210377
O O4 0.856315 0.426504 0.211699
O O5 0.550486 0.211132 0.372481
O O6 0.549818 0.361793 0.433336
O O7 0.832213 0.258823 0.447507
O O8 0.575558 0.168211 0.462769
O O9 0.640616 0.193198 0.219075
O O10 0.312927 0.241175 0.190490
O O11 0.681853 0.478803 0.048924
O O12 0.395221 0.559135 0.045961
O O13 0.570843 0.222097 0.718594
O O14 0.088475 0.601757 0.981302
O O15 0.139958 0.787536 0.016831
#
# Coordination Sequence:
#
# PCOD8142019 Si02
#       8
#     8   8   8   8   8   8   8   4
#     4  10  21  40  59  86 120 151 193 244 291 346
#     4   9  18  34  54  78 113 149 180 235 291 330
#     4   9  20  38  59  82 120 151 189 246 289 347
#     4   9  19  35  53  77 115 149 181 237 286 336
#     4  10  21  38  61  85 111 159 191 237 299 349
#     4   9  18  32  55  81 111 147 188 232 275 345
#     4   9  18  34  53  81 112 146 188 230 282 337
#     4  10  22  38  60  88 114 146 196 246 286 356
#
# _framework density 20.416895
#
# number of rings (size 3 to 8) (size 9 to 14) (size 15 to 20)
#    0.000    2.667    0.000    0.800    1.867    3.733 
#    9.600    0.000    2.933    0.000    0.000    0.000 
#    0.000    0.000    0.000    0.000    0.000    0.000 
#
# Total GULP energy -371901.241445 kJ/mol
# GULP energy per Si atom -12396.708048 kJ/mol
# Density = 2.037042 g / cm^3
# Si number density = 20.416895 Si / 1000 Ang^3
#
#
#
# Elastic Constant Matrix: (Units=GPa)
#
#
# Indices 1 2 3 4 5 6 
#
# 1 99.7996 13.8843 28.8211 0.0000 -3.8060 0.0000
# 2 13.8843 45.9867 24.7728 0.0000 -3.0277 0.0000
# 3 28.8211 24.7728 129.9756 0.0000 -3.9483 0.0000
# 4 0.0000 0.0000 0.0000 24.8396 0.0000 0.4348
# 5 -3.8060 -3.0277 -3.9483 0.0000 18.5985 0.0000
# 6 0.0000 0.0000 0.0000 0.4348 0.0000 29.0873
#
#
#
# Elastic Compliance Matrix: (Units=1/GPa)
#
#
# Indices 1 2 3 4 5 6 
#
# 1 0.010944 -0.002144 -0.001973 0.000000 0.001472 0.000000
# 2 -0.002144 0.024819 -0.004172 0.000000 0.002716 0.000000
# 3 -0.001973 -0.004172 0.008951 0.000000 0.000817 0.000000
# 4 0.000000 0.000000 0.000000 0.040269 0.000000 -0.000602
# 5 0.001472 0.002716 0.000817 0.000000 0.054685 0.000000
# 6 0.000000 0.000000 0.000000 -0.000602 0.000000 0.034388
#
#
# Mechanical properties :
#
#
# Convention : Reuss Voigt Hill
#
# Bulk Modulus (GPa) = 35.54335 45.63534 40.58935
# Shear Modulus (GPa) = 24.99803 28.39065 26.69434
#
# Velocity S-wave (km/s) = 3.50291 3.73305 3.61981
# Velocity P-wave (km/s) = 5.81439 6.40165 6.11507
#
# Compressibility (1/GPa) = 0.02813466
#
# Stress axis : x y z
#
# Youngs Moduli (GPa) = 91.37058 40.29116 111.71406
#
# Poissons Ratio (x) = 0.08640 0.22046
# Poissons Ratio (y) = 0.19593 0.46612
# Poissons Ratio (z) = 0.18031 0.16811
#
# Static dielectric constant tensor:
#      x y z
#    x 3.876900 0.000000 -0.184670 
#    y 0.000000 3.571520 0.000000 
#    z -0.184670 0.000000 3.840500 
# 
# 
# High freq. dielectric constant tensor:
#      x y z
#    x 1.798200 0.000000 -0.004610 
#    y 0.000000 1.784090 0.000000 
#    z -0.004610 0.000000 1.794530 
# 
# From -- ./inp_files/307512.got.cif
#   From: 2010.06.25/outbox.cif.g09.slc.cpg/sg15_154_cif.got.tgz:307512.got - 2010.06.28 07:06:18.
