data_PCOD8142467
_publ_section_title
;
Structure prediction by ZEFSAII (Michael W. Deem and Ramdas Pophale) SiO2 
 PCOD8142467
Probable space group: C 2/C
;
_chemical_formula_sum "Si O2"
_cell_formula_units_Z 44
_cell_length_a 19.897510
_cell_length_b 20.990554
_cell_length_c 5.198632
_cell_angle_alpha 90.000000
_cell_angle_beta 120.924228
_cell_angle_gamma 90.000000
_cell_volume 1862.609811
_symmetry_space_group_name_H-M "C 2/C"
_symmetry_group_IT_number 15
_symmetry_cell_setting 'monoclinic'
loop_
_space_group_symop_operation_xyz
x,y,z
-x,y,1/2-z
-x,-y,-z
x,-y,1/2+z
1/2+x,1/2+y,z
1/2-x,1/2+y,1/2-z
1/2-x,1/2-y,-z
1/2+x,1/2-y,1/2+z
loop_
_atom_site_type_symbol
_atom_site_label
_atom_site_fract_x
_atom_site_fract_y
_atom_site_fract_z
Si Si1 0.238330 0.531595 0.309263
Si Si2 0.500000 0.956565 0.250000
Si Si3 0.409062 0.210643 0.040642
Si Si4 0.409233 0.523340 0.206093
Si Si5 0.950272 0.842662 0.909703
Si Si6 0.138681 0.357186 0.553843
O O1 0.198251 0.502593 0.484782
O O2 0.330528 0.515861 0.471894
O O3 0.222280 0.607586 0.262993
O O4 0.574258 0.911779 0.441173
O O5 0.500000 0.000000 0.500000
O O6 0.500000 0.191429 0.250000
O O7 0.370867 0.197578 0.245655
O O8 0.401257 0.283318 0.926552
O O9 0.363650 0.170907 0.736526
O O10 0.454182 0.483414 0.519969
O O11 0.393851 0.598179 0.227509
O O12 0.000000 0.822561 0.750000
O O13 0.000000 0.867709 0.250000
#
# Coordination Sequence:
#
# PCOD8142467 Si02
#       6
#     8   4   8   8   8   8
#     4  10  21  39  60  84 117 169 212 255 312 363
#     4  12  22  32  50  86 122 156 206 254 296 358
#     4  11  21  38  56  87 127 166 205 252 305 373
#     4  10  22  40  65  90 125 161 205 265 323 376
#     4  11  23  39  64  97 128 162 206 256 321 386
#     4  12  21  36  59  84 125 172 205 254 306 367
#
# _framework density 23.622767
#
# number of rings (size 3 to 8) (size 9 to 14) (size 15 to 20)
#    0.000    1.091    1.818    6.545    0.000    2.182 
#    0.000    0.000    0.000   26.182    0.000    0.000 
#    0.000    0.000    0.000    0.000    0.000    0.000 
#
# Total GULP energy -272610.393910 kJ/mol
# GULP energy per Si atom -12391.381541 kJ/mol
# Density = 2.356900 g / cm^3
# Si number density = 23.622767 Si / 1000 Ang^3
#
#
#
# Elastic Constant Matrix: (Units=GPa)
#
#
# Indices 1 2 3 4 5 6 
#
# 1 52.3120 37.0835 49.2937 0.0000 -5.5315 0.0000
# 2 37.0835 151.5493 66.6572 0.0000 -1.4964 0.0000
# 3 49.2937 66.6572 159.9225 0.0000 -43.6285 0.0000
# 4 0.0000 0.0000 0.0000 43.8822 0.0000 -11.1331
# 5 -5.5315 -1.4964 -43.6285 0.0000 44.5350 0.0000
# 6 0.0000 0.0000 0.0000 -11.1331 0.0000 33.1080
#
#
#
# Elastic Compliance Matrix: (Units=1/GPa)
#
#
# Indices 1 2 3 4 5 6 
#
# 1 0.029547 -0.003202 -0.009281 0.000000 -0.005530 0.000000
# 2 -0.003202 0.009025 -0.003822 0.000000 -0.003839 0.000000
# 3 -0.009281 -0.003822 0.014135 0.000000 0.012566 0.000000
# 4 0.000000 0.000000 0.000000 0.024914 0.000000 0.008378
# 5 -0.005530 -0.003839 0.012566 0.000000 0.033949 0.000000
# 6 0.000000 0.000000 0.000000 0.008378 0.000000 0.033021
#
#
# Mechanical properties :
#
#
# Convention : Reuss Voigt Hill
#
# Bulk Modulus (GPa) = 49.76073 74.42808 62.09441
# Shear Modulus (GPa) = 27.18843 38.35499 32.77171
#
# Velocity S-wave (km/s) = 3.39623 4.03382 3.72868
# Velocity P-wave (km/s) = 6.04067 7.29869 6.69928
#
# Compressibility (1/GPa) = 0.02009617
#
# Stress axis : x y z
#
# Youngs Moduli (GPa) = 33.84396 110.80011 70.74593
#
# Poissons Ratio (x) = 0.35483 0.65662
# Poissons Ratio (y) = 0.10838 0.27039
# Poissons Ratio (z) = 0.31412 0.42347
#
# Static dielectric constant tensor:
#      x y z
#    x 4.916530 0.000000 -0.598520 
#    y 0.000000 4.299810 0.000000 
#    z -0.598520 0.000000 4.946960 
# 
# 
# High freq. dielectric constant tensor:
#      x y z
#    x 1.923160 0.000000 -0.029020 
#    y 0.000000 1.933440 0.000000 
#    z -0.029020 0.000000 1.971990 
# 
# From -- ./inp_files/15466.got.cif
#   From: 2010.06.25/outbox.cif.g09.slc.cpg/sg15_8_cif.got.tgz:15466.got - 2010.06.28 07:06:18.
