data_PCOD8142642
_publ_section_title
;
Structure prediction by ZEFSAII (Michael W. Deem and Ramdas Pophale) SiO2 
 PCOD8142642
Probable space group: C 2/C
;
_chemical_formula_sum "Si O2"
_cell_formula_units_Z 52
_cell_length_a 11.687035
_cell_length_b 8.635433
_cell_length_c 26.319917
_cell_angle_alpha 90.000000
_cell_angle_beta 79.400394
_cell_angle_gamma 90.000000
_cell_volume 2610.949619
_symmetry_space_group_name_H-M "C 2/C"
_symmetry_group_IT_number 15
_symmetry_cell_setting 'monoclinic'
loop_
_space_group_symop_operation_xyz
x,y,z
-x,y,1/2-z
-x,-y,-z
x,-y,1/2+z
1/2+x,1/2+y,z
1/2-x,1/2+y,1/2-z
1/2-x,1/2-y,-z
1/2+x,1/2-y,1/2+z
loop_
_atom_site_type_symbol
_atom_site_label
_atom_site_fract_x
_atom_site_fract_y
_atom_site_fract_z
Si Si1 0.083849 0.950229 0.822945
Si Si2 0.141391 0.980823 0.932641
Si Si3 0.989618 0.398461 0.173148
Si Si4 0.660949 0.953659 0.735794
Si Si5 0.093151 0.511295 0.064178
Si Si6 0.515891 0.750929 0.998459
Si Si7 0.000000 0.173186 0.750000
O O1 0.105611 0.011865 0.877649
O O2 0.201835 0.945027 0.780759
O O3 0.020993 0.785577 0.829024
O O4 0.000277 0.069918 0.800908
O O5 0.279255 0.960621 0.924122
O O6 0.104715 0.124145 0.970358
O O7 0.080413 0.824443 0.956987
O O8 0.102600 0.438230 0.197672
O O9 0.004183 0.468475 0.116138
O O10 0.873502 0.474778 0.206609
O O11 0.614510 0.778600 0.735856
O O12 0.050919 0.670824 0.042890
O O13 0.093076 0.375135 0.022510
#
# Coordination Sequence:
#
# PCOD8142642 Si02
#       7
#     8   8   8   8   8   8   4
#     4  12  22  40  63  89 124 159 197 247 307 352
#     4  11  23  39  65  91 121 161 199 254 303 356
#     4  10  21  39  63  88 121 158 199 247 300 361
#     4  10  23  42  60  86 122 157 204 248 295 364
#     4  11  21  43  64  88 123 162 201 248 307 356
#     4  10  24  41  62  91 123 156 208 252 298 359
#     4  10  24  38  60  90 116 158 202 242 290 364
#
# _framework density 19.916124
#
# number of rings (size 3 to 8) (size 9 to 14) (size 15 to 20)
#    0.000    1.538    3.077    2.769    4.308    0.000 
#    0.000    1.538    0.000    0.000    0.000    0.000 
#    0.000    0.000    0.000    0.000    0.000    0.000 
#
# Total GULP energy -322516.066586 kJ/mol
# GULP energy per Si atom -12404.464099 kJ/mol
# Density = 1.987079 g / cm^3
# Si number density = 19.916124 Si / 1000 Ang^3
#
#
#
# Elastic Constant Matrix: (Units=GPa)
#
#
# Indices 1 2 3 4 5 6 
#
# 1 42.5929 16.1371 21.3800 0.0000 2.4840 0.0000
# 2 16.1371 68.5116 16.2179 0.0000 3.2350 0.0000
# 3 21.3800 16.2179 103.5431 0.0000 6.2814 0.0000
# 4 0.0000 0.0000 0.0000 27.6153 0.0000 3.0376
# 5 2.4840 3.2350 6.2814 0.0000 33.8713 0.0000
# 6 0.0000 0.0000 0.0000 3.0376 0.0000 18.0525
#
#
#
# Elastic Compliance Matrix: (Units=1/GPa)
#
#
# Indices 1 2 3 4 5 6 
#
# 1 0.028025 -0.005411 -0.004901 0.000000 -0.000630 0.000000
# 2 -0.005411 0.016238 -0.001371 0.000000 -0.000900 0.000000
# 3 -0.004901 -0.001371 0.010978 0.000000 -0.001546 0.000000
# 4 0.000000 0.000000 0.000000 0.036895 0.000000 -0.006208
# 5 -0.000630 -0.000900 -0.001546 0.000000 0.029942 0.000000
# 6 0.000000 0.000000 0.000000 -0.006208 0.000000 0.056439
#
#
# Mechanical properties :
#
#
# Convention : Reuss Voigt Hill
#
# Bulk Modulus (GPa) = 31.37347 35.79086 33.58217
# Shear Modulus (GPa) = 23.52848 26.63531 25.08190
#
# Velocity S-wave (km/s) = 3.44085 3.66098 3.55262
# Velocity P-wave (km/s) = 5.61898 5.99001 5.80746
#
# Compressibility (1/GPa) = 0.03187406
#
# Stress axis : x y z
#
# Youngs Moduli (GPa) = 35.68240 61.58503 91.08833
#
# Poissons Ratio (x) = 0.33324 0.44642
# Poissons Ratio (y) = 0.19308 0.12492
# Poissons Ratio (z) = 0.17488 0.08446
#
# Static dielectric constant tensor:
#      x y z
#    x 3.401030 0.000000 -0.003530 
#    y 0.000000 3.689680 0.000000 
#    z -0.003530 0.000000 3.750990 
# 
# 
# High freq. dielectric constant tensor:
#      x y z
#    x 1.765050 0.000000 0.001090 
#    y 0.000000 1.788050 0.000000 
#    z 0.001090 0.000000 1.788030 
# 
# From -- ./inp_files/291110.got.cif
#   From: 2010.06.25/outbox.cif.g09.slc.cpg/sg15_146_cif.got.tgz:291110.got - 2010.06.28 07:06:18.
