data_PCOD8142819
_publ_section_title
;
Structure prediction by ZEFSAII (Michael W. Deem and Ramdas Pophale) SiO2 
 PCOD8142819
Probable space group: C 2/C
;
_chemical_formula_sum "Si O2"
_cell_formula_units_Z 32
_cell_length_a 9.438485
_cell_length_b 20.421798
_cell_length_c 6.974070
_cell_angle_alpha 90.000000
_cell_angle_beta 91.555089
_cell_angle_gamma 90.000000
_cell_volume 1343.762712
_symmetry_space_group_name_H-M "C 2/C"
_symmetry_group_IT_number 15
_symmetry_cell_setting 'monoclinic'
loop_
_space_group_symop_operation_xyz
x,y,z
-x,y,1/2-z
-x,-y,-z
x,-y,1/2+z
1/2+x,1/2+y,z
1/2-x,1/2+y,1/2-z
1/2-x,1/2-y,-z
1/2+x,1/2-y,1/2+z
loop_
_atom_site_type_symbol
_atom_site_label
_atom_site_fract_x
_atom_site_fract_y
_atom_site_fract_z
Si Si1 0.874612 0.891479 0.376996
Si Si2 0.000000 0.666605 0.250000
Si Si3 0.760202 0.758812 0.273086
Si Si4 0.920482 0.434678 0.062030
Si Si5 0.500000 0.680727 0.250000
O O1 0.799872 0.834828 0.244441
O O2 0.749571 0.945292 0.410583
O O3 0.938956 0.865308 0.579257
O O4 0.000000 0.922667 0.250000
O O5 0.876907 0.714104 0.172360
O O6 0.933635 0.622384 0.410902
O O7 0.750000 0.750000 0.500000
O O8 0.616968 0.731454 0.171364
O O9 0.000000 0.407885 0.250000
O O10 0.000000 0.500000 0.000000
#
# Coordination Sequence:
#
# PCOD8142819 Si02
#       5
#     8   4   8   8   4
#     4  11  25  44  70 111 142 188 241 294 371 432
#     4  12  22  46  73 104 151 182 248 296 358 434
#     4  10  21  39  66 108 146 188 221 290 365 421
#     4  12  28  48  76 100 137 198 254 297 358 436
#     4  10  22  40  63 104 159 178 226 290 360 428
#
# _framework density 23.813728999999999
#
# number of rings (size 3 to 8) (size 9 to 14) (size 15 to 20)
#    0.000    1.000    7.500    0.000    5.250    1.000 
#    0.000    1.250    2.750    0.000    0.000    0.000 
#    0.000    0.000    0.000    0.000    0.000    0.000 
#
# Total GULP energy -198264.957975 kJ/mol
# GULP energy per Si atom -12391.559873 kJ/mol
# Density = 2.375953 g / cm^3
# Si number density = 23.813729 Si / 1000 Ang^3
#
#
#
# Elastic Constant Matrix: (Units=GPa)
#
#
# Indices 1 2 3 4 5 6 
#
# 1 236.4935 60.6442 32.5199 0.0000 -6.7084 0.0000
# 2 60.6442 85.9242 5.1277 0.0000 -6.6159 0.0000
# 3 32.5199 5.1277 83.4228 0.0000 3.9566 0.0000
# 4 0.0000 0.0000 0.0000 4.9875 0.0000 4.2627
# 5 -6.7084 -6.6159 3.9566 0.0000 41.7415 0.0000
# 6 0.0000 0.0000 0.0000 4.2627 0.0000 53.8965
#
#
#
# Elastic Compliance Matrix: (Units=1/GPa)
#
#
# Indices 1 2 3 4 5 6 
#
# 1 0.005455 -0.003699 -0.001921 0.000000 0.000472 0.000000
# 2 -0.003699 0.014346 0.000483 0.000000 0.001634 0.000000
# 3 -0.001921 0.000483 0.012775 0.000000 -0.001443 0.000000
# 4 0.000000 0.000000 0.000000 0.215035 0.000000 -0.017007
# 5 0.000472 0.001634 -0.001443 0.000000 0.024429 0.000000
# 6 0.000000 0.000000 0.000000 -0.017007 0.000000 0.019899
#
#
# Mechanical properties :
#
#
# Convention : Reuss Voigt Hill
#
# Bulk Modulus (GPa) = 44.84278 66.93599 55.88939
# Shear Modulus (GPa) = 16.14746 40.62837 28.38791
#
# Velocity S-wave (km/s) = 2.60681 4.13497 3.45640
# Velocity P-wave (km/s) = 5.28509 7.13908 6.28087
#
# Compressibility (1/GPa) = 0.02230013
#
# Stress axis : x y z
#
# Youngs Moduli (GPa) = 183.33469 69.70766 78.27852
#
# Poissons Ratio (x) = 0.25783 0.15040
# Poissons Ratio (y) = 0.67810 -0.03778
# Poissons Ratio (z) = 0.35225 -0.03364
#
# Static dielectric constant tensor:
#      x y z
#    x 5.089440 0.000000 0.215590 
#    y 0.000000 4.060850 0.000000 
#    z 0.215590 0.000000 4.670980 
# 
# 
# High freq. dielectric constant tensor:
#      x y z
#    x 1.971730 0.000000 -0.008520 
#    y 0.000000 1.910340 0.000000 
#    z -0.008520 0.000000 1.942230 
# 
# From -- ./inp_files/23186.got.cif
#   From: 2010.06.25/outbox.cif.g09.slc.cpg/sg15_12_cif.got.tgz:23186.got - 2010.06.28 07:06:18.
