data_PCOD8142532
_publ_section_title
;
Structure prediction by ZEFSAII (Michael W. Deem and Ramdas Pophale) SiO2 
 PCOD8142532
Probable space group: C 2/C
;
_chemical_formula_sum "Si O2"
_cell_formula_units_Z 64
_cell_length_a 16.136722
_cell_length_b 24.870506
_cell_length_c 14.305865
_cell_angle_alpha 90.000000
_cell_angle_beta 33.285470
_cell_angle_gamma 90.000000
_cell_volume 3150.915407
_symmetry_space_group_name_H-M "C 2/C"
_symmetry_group_IT_number 15
_symmetry_cell_setting 'monoclinic'
loop_
_space_group_symop_operation_xyz
x,y,z
-x,y,1/2-z
-x,-y,-z
x,-y,1/2+z
1/2+x,1/2+y,z
1/2-x,1/2+y,1/2-z
1/2-x,1/2-y,-z
1/2+x,1/2-y,1/2+z
loop_
_atom_site_type_symbol
_atom_site_label
_atom_site_fract_x
_atom_site_fract_y
_atom_site_fract_z
Si Si1 0.611774 0.403291 0.227532
Si Si2 0.566518 0.864955 0.589923
Si Si3 0.044980 0.821816 0.447294
Si Si4 0.439944 0.140841 0.911503
Si Si5 0.389142 0.213123 0.616329
Si Si6 0.590664 0.620201 0.252853
Si Si7 0.873766 0.986033 0.692300
Si Si8 0.068639 0.442585 0.923381
O O1 0.500000 0.419471 0.250000
O O2 0.529502 0.360211 0.371920
O O3 0.673945 0.456979 0.219581
O O4 0.760810 0.376041 0.047464
O O5 0.500000 0.845239 0.750000
O O6 0.548360 0.817937 0.532350
O O7 0.479514 0.916811 0.630007
O O8 0.212042 0.796856 0.299865
O O9 0.919069 0.775266 0.564825
O O10 0.006113 0.859371 0.569638
O O11 0.500000 0.129776 0.750000
O O12 0.517044 0.195074 0.879562
O O13 0.258631 0.145030 0.086386
O O14 0.490534 0.092502 0.932623
O O15 0.500000 0.640958 0.250000
O O16 0.582180 0.555022 0.266093
O O17 0.747544 0.952226 0.754738
O O18 0.000000 0.000000 0.500000
O O19 0.000000 0.500000 0.000000
#
# Coordination Sequence:
#
# PCOD8142532 Si02
#       8
#     8   8   8   8   8   8   8   8
#     4  11  24  40  62  93 126 163 205 254 307 364
#     4  10  23  41  62  92 126 164 207 251 303 364
#     4  11  23  43  65  89 122 160 206 258 312 364
#     4  10  22  39  62  93 125 161 203 253 305 364
#     4  10  23  42  66  90 121 160 205 259 310 367
#     4  11  23  39  62  93 126 164 204 250 305 367
#     4  11  22  39  62  90 127 166 204 251 303 361
#     4  10  21  39  61  88 126 166 208 245 299 361
#
# _framework density 20.311558000000002
#
# number of rings (size 3 to 8) (size 9 to 14) (size 15 to 20)
#    0.000    1.500    2.500    1.875    1.750    4.500 
#    0.000    5.000    0.000    0.000    0.000    0.000 
#    0.000    0.000    0.000    0.000    0.000    0.000 
#
# Total GULP energy -396720.836527 kJ/mol
# GULP energy per Si atom -12397.526141 kJ/mol
# Density = 2.026533 g / cm^3
# Si number density = 20.311558 Si / 1000 Ang^3
#
#
#
# Elastic Constant Matrix: (Units=GPa)
#
#
# Indices 1 2 3 4 5 6 
#
# 1 91.8097 8.6237 32.4188 0.0189 -0.3683 -0.0084
# 2 8.6237 87.5223 18.3995 0.0189 -2.4350 -0.0267
# 3 32.4188 18.3995 116.3817 0.0212 12.8728 -0.0473
# 4 0.0189 0.0189 0.0212 12.6133 -0.0181 -23.8930
# 5 -0.3683 -2.4350 12.8728 -0.0181 27.4433 0.0057
# 6 -0.0084 -0.0267 -0.0473 -23.8930 0.0057 5.2732
#
#
#
# Elastic Compliance Matrix: (Units=1/GPa)
#
#
# Indices 1 2 3 4 5 6 
#
# 1 0.012183 -0.000410 -0.003526 0.000005 0.001781 0.000008
# 2 -0.000410 0.011940 -0.001994 -0.000009 0.001989 0.000001
# 3 -0.003526 -0.001994 0.010457 -0.000019 -0.005129 -0.000001
# 4 0.000005 -0.000009 -0.000019 -0.010455 0.000011 -0.047373
# 5 0.001781 0.001989 -0.005129 0.000011 0.039045 -0.000025
# 6 0.000008 0.000001 -0.000001 -0.047373 -0.000025 -0.025008
#
#
# Mechanical properties :
#
#
# Convention : Reuss Voigt Hill
#
# Bulk Modulus (GPa) = 44.00995 46.06642 45.03819
# Shear Modulus (GPa) = 86.81457 24.81741 55.81599
#
# Velocity S-wave (km/s) = 6.54479 3.49927 5.24782
# Velocity P-wave (km/s) = 8.87845 6.24945 7.67732
#
# Compressibility (1/GPa) = 0.02272214
#
# Stress axis : x y z
#
# Youngs Moduli (GPa) = 82.08359 83.74871 95.62892
#
# Poissons Ratio (x) = 0.03430 0.33717
# Poissons Ratio (y) = 0.03362 0.19065
# Poissons Ratio (z) = 0.28941 0.16697
#
# Static dielectric constant tensor:
#      x y z
#    x 2.581930 0.002180 0.628320 
#    y 0.002180 3.904670 -0.001100 
#    z 0.628320 -0.001100 3.289390 
# 
# 
# High freq. dielectric constant tensor:
#      x y z
#    x 1.792990 0.000000 -0.006640 
#    y 0.000000 1.797860 0.000010 
#    z -0.006640 0.000010 1.799380 
# 
# From -- ./inp_files/164229.got.cif
#   From: 2010.06.25/outbox.cif.g09.slc.cpg/sg15_83_cif.got.tgz:164229.got - 2010.06.28 07:06:18.
