data_PCOD8142836
_publ_section_title
;
Structure prediction by ZEFSAII (Michael W. Deem and Ramdas Pophale) SiO2 
 PCOD8142836
Probable space group: C 2/C
;
_chemical_formula_sum "Si O2"
_cell_formula_units_Z 40
_cell_length_a 7.635021
_cell_length_b 16.058030
_cell_length_c 25.288450
_cell_angle_alpha 90.000000
_cell_angle_beta 145.026803
_cell_angle_gamma 90.000000
_cell_volume 1777.156693
_symmetry_space_group_name_H-M "C 2/C"
_symmetry_group_IT_number 15
_symmetry_cell_setting 'monoclinic'
loop_
_space_group_symop_operation_xyz
x,y,z
-x,y,1/2-z
-x,-y,-z
x,-y,1/2+z
1/2+x,1/2+y,z
1/2-x,1/2+y,1/2-z
1/2-x,1/2-y,-z
1/2+x,1/2-y,1/2+z
loop_
_atom_site_type_symbol
_atom_site_label
_atom_site_fract_x
_atom_site_fract_y
_atom_site_fract_z
Si Si1 0.570863 0.756912 0.351623
Si Si2 0.994652 0.774349 0.355998
Si Si3 0.454791 0.629289 0.486649
Si Si4 0.349020 0.593598 0.348100
Si Si5 0.204070 0.945726 0.440559
O O1 0.804040 0.752838 0.360897
O O2 0.229289 0.780622 0.249603
O O3 0.563444 0.666589 0.377632
O O4 0.708596 0.830176 0.422265
O O5 0.231485 0.700817 0.408735
O O6 0.190908 0.858582 0.406720
O O7 0.451855 0.572217 0.434133
O O8 0.326232 0.578090 0.504554
O O9 0.429686 0.501393 0.346662
O O10 0.000000 0.615366 0.250000
O O11 0.500000 0.000000 0.500000
#
# Coordination Sequence:
#
# PCOD8142836 Si02
#       5
#     8   8   8   8   8
#     4  10  21  39  66  92 126 172 217 263 319 394
#     4  10  21  41  68  93 124 173 221 258 324 397
#     4  11  22  42  68  92 129 171 217 261 325 395
#     4  12  24  40  64  96 135 164 217 276 330 377
#     4  11  24  42  65  95 131 170 214 273 333 385
#
# _framework density 22.507866
#
# number of rings (size 3 to 8) (size 9 to 14) (size 15 to 20)
#    0.000    1.200    2.000    6.000    5.600    0.000 
#    0.000    0.000    0.000    0.000    0.000    0.000 
#    0.000    0.000    0.000    0.000    0.000    0.000 
#
# Total GULP energy -247777.571284 kJ/mol
# GULP energy per Si atom -12388.878564 kJ/mol
# Density = 2.245664 g / cm^3
# Si number density = 22.507866 Si / 1000 Ang^3
#
#
#
# Elastic Constant Matrix: (Units=GPa)
#
#
# Indices 1 2 3 4 5 6 
#
# 1 44.6322 31.7564 29.2172 0.0003 2.4782 -0.0006
# 2 31.7564 117.2246 42.0857 -0.0010 14.5486 -0.0005
# 3 29.2172 42.0857 137.0851 0.0034 -0.3346 0.0024
# 4 0.0003 -0.0010 0.0034 40.7696 0.0028 9.6483
# 5 2.4782 14.5486 -0.3346 0.0028 32.4955 0.0004
# 6 -0.0006 -0.0005 0.0024 9.6483 0.0004 35.3590
#
#
#
# Elastic Compliance Matrix: (Units=1/GPa)
#
#
# Indices 1 2 3 4 5 6 
#
# 1 0.029928 -0.006628 -0.004342 0.000000 0.000640 0.000001
# 2 -0.006628 0.011704 -0.002192 0.000001 -0.004757 0.000000
# 3 -0.004342 -0.002192 0.008897 -0.000001 0.001404 -0.000001
# 4 0.000000 0.000001 -0.000001 0.026221 -0.000003 -0.007155
# 5 0.000640 -0.004757 0.001404 -0.000003 0.032869 0.000000
# 6 0.000001 0.000000 -0.000001 -0.007155 0.000000 0.030234
#
#
# Mechanical properties :
#
#
# Convention : Reuss Voigt Hill
#
# Bulk Modulus (GPa) = 41.31600 56.11783 48.71691
# Shear Modulus (GPa) = 28.69521 34.78366 31.73944
#
# Velocity S-wave (km/s) = 3.57444 3.93542 3.75927
# Velocity P-wave (km/s) = 5.95245 6.75550 6.36665
#
# Compressibility (1/GPa) = 0.02420370
#
# Stress axis : x y z
#
# Youngs Moduli (GPa) = 33.41308 85.44412 112.40272
#
# Poissons Ratio (x) = 0.56634 0.48808
# Poissons Ratio (y) = 0.22147 0.24638
# Poissons Ratio (z) = 0.14509 0.18729
#
# Static dielectric constant tensor:
#      x y z
#    x 3.931260 0.000000 -0.125160 
#    y 0.000000 4.237220 0.000000 
#    z -0.125160 0.000000 4.270040 
# 
# 
# High freq. dielectric constant tensor:
#      x y z
#    x 1.873960 0.000000 0.001560 
#    y 0.000000 1.904930 0.000000 
#    z 0.001560 0.000000 1.894130 
# 
# From -- ./inp_files/133266.got.cif
#   From: 2010.06.25/outbox.cif.g09.slc.cpg/sg15_67_cif.got.tgz:133266.got - 2010.06.28 07:06:18.
