data_PCOD8142176
_publ_section_title
;
Structure prediction by ZEFSAII (Michael W. Deem and Ramdas Pophale) SiO2 
 PCOD8142176
Probable space group: C 2/C
;
_chemical_formula_sum "Si O2"
_cell_formula_units_Z 40
_cell_length_a 19.344594
_cell_length_b 10.434099
_cell_length_c 9.612825
_cell_angle_alpha 90.000000
_cell_angle_beta 77.811280
_cell_angle_gamma 90.000000
_cell_volume 1896.546445
_symmetry_space_group_name_H-M "C 2/C"
_symmetry_group_IT_number 15
_symmetry_cell_setting 'monoclinic'
loop_
_space_group_symop_operation_xyz
x,y,z
-x,y,1/2-z
-x,-y,-z
x,-y,1/2+z
1/2+x,1/2+y,z
1/2-x,1/2+y,1/2-z
1/2-x,1/2-y,-z
1/2+x,1/2-y,1/2+z
loop_
_atom_site_type_symbol
_atom_site_label
_atom_site_fract_x
_atom_site_fract_y
_atom_site_fract_z
Si Si1 0.196130 0.784290 0.852997
Si Si2 0.199598 0.556947 0.048022
Si Si3 0.055803 0.888877 0.837437
Si Si4 0.463751 0.322068 0.130563
Si Si5 0.669134 0.153112 0.343476
O O1 0.170544 0.663673 0.953474
O O2 0.132044 0.825626 0.780977
O O3 0.264469 0.753731 0.725262
O O4 0.218937 0.901797 0.948823
O O5 0.190653 0.421392 0.975486
O O6 0.156440 0.559194 0.213897
O O7 0.000000 0.836590 0.750000
O O8 0.068654 0.040302 0.816373
O O9 0.027537 0.844935 0.998029
O O10 0.500000 0.257415 0.250000
O O11 0.401666 0.233010 0.096287
#
# Coordination Sequence:
#
# PCOD8142176 Si02
#       5
#     8   8   8   8   8
#     4   9  21  39  64  82 132 160 200 254 313 363
#     4   9  21  38  61  91 124 163 206 246 312 357
#     4  10  22  40  62  92 121 159 210 253 305 366
#     4  10  22  39  63  88 126 165 199 254 319 361
#     4  10  21  38  63  90 121 162 210 248 305 369
#
# _framework density 21.090966999999999
#
# number of rings (size 3 to 8) (size 9 to 14) (size 15 to 20)
#    1.200    1.200    0.000    1.200    2.800    4.800 
#    0.000    8.000    0.000    0.000    0.000    0.000 
#    0.000    0.000    0.000    0.000    0.000    0.000 
#
# Total GULP energy -247770.252512 kJ/mol
# GULP energy per Si atom -12388.512626 kJ/mol
# Density = 2.104296 g / cm^3
# Si number density = 21.090967 Si / 1000 Ang^3
#
#
#
# Elastic Constant Matrix: (Units=GPa)
#
#
# Indices 1 2 3 4 5 6 
#
# 1 119.6229 32.8390 5.6489 0.0000 16.1125 0.0000
# 2 32.8390 27.8267 15.6430 0.0000 9.8453 0.0000
# 3 5.6489 15.6430 52.7319 0.0000 7.1967 0.0000
# 4 0.0000 0.0000 0.0000 31.7653 0.0000 8.2059
# 5 16.1125 9.8453 7.1967 0.0000 29.6230 0.0000
# 6 0.0000 0.0000 0.0000 8.2059 0.0000 27.5204
#
#
#
# Elastic Compliance Matrix: (Units=1/GPa)
#
#
# Indices 1 2 3 4 5 6 
#
# 1 0.013126 -0.016809 0.003922 0.000000 -0.002506 0.000000
# 2 -0.016809 0.068895 -0.017335 0.000000 -0.009543 0.000000
# 3 0.003922 -0.017335 0.023986 0.000000 -0.002199 0.000000
# 4 0.000000 0.000000 0.000000 0.034108 0.000000 -0.010170
# 5 -0.002506 -0.009543 -0.002199 0.000000 0.038827 0.000000
# 6 0.000000 0.000000 0.000000 -0.010170 0.000000 0.039369
#
#
# Mechanical properties :
#
#
# Convention : Reuss Voigt Hill
#
# Bulk Modulus (GPa) = 21.94691 34.27149 28.10920
# Shear Modulus (GPa) = 17.01014 27.51846 22.26430
#
# Velocity S-wave (km/s) = 2.84300 3.61605 3.25257
# Velocity P-wave (km/s) = 4.60492 5.80681 5.24044
#
# Compressibility (1/GPa) = 0.04556450
#
# Stress axis : x y z
#
# Youngs Moduli (GPa) = 76.18260 14.51490 41.69064
#
# Poissons Ratio (x) = 0.24398 -0.16352
# Poissons Ratio (y) = 1.28056 0.72269
# Poissons Ratio (z) = -0.29881 0.25161
#
# Static dielectric constant tensor:
#      x y z
#    x 3.601780 0.000000 0.168330 
#    y 0.000000 3.404770 0.000000 
#    z 0.168330 0.000000 3.741620 
# 
# 
# High freq. dielectric constant tensor:
#      x y z
#    x 1.816950 0.000000 0.015180 
#    y 0.000000 1.789980 0.000000 
#    z 0.015180 0.000000 1.825790 
# 
# From -- ./inp_files/46106.got.cif
#   From: 2010.06.25/outbox.cif.g09.slc.cpg/sg15_24_cif.got.tgz:46106.got - 2010.06.28 07:06:18.
