data_PCOD8142525
_publ_section_title
;
Structure prediction by ZEFSAII (Michael W. Deem and Ramdas Pophale) SiO2 
 PCOD8142525
Probable space group: C 2/C
;
_chemical_formula_sum "Si O2"
_cell_formula_units_Z 56
_cell_length_a 17.333310
_cell_length_b 8.174775
_cell_length_c 19.072870
_cell_angle_alpha 90.000000
_cell_angle_beta 68.449615
_cell_angle_gamma 90.000000
_cell_volume 2513.625827
_symmetry_space_group_name_H-M "C 2/C"
_symmetry_group_IT_number 15
_symmetry_cell_setting 'monoclinic'
loop_
_space_group_symop_operation_xyz
x,y,z
-x,y,1/2-z
-x,-y,-z
x,-y,1/2+z
1/2+x,1/2+y,z
1/2-x,1/2+y,1/2-z
1/2-x,1/2-y,-z
1/2+x,1/2-y,1/2+z
loop_
_atom_site_type_symbol
_atom_site_label
_atom_site_fract_x
_atom_site_fract_y
_atom_site_fract_z
Si Si1 0.275713 0.990581 0.812256
Si Si2 0.368446 0.623704 0.456516
Si Si3 0.191817 0.516006 0.547284
Si Si4 0.483350 0.515622 0.678314
Si Si5 0.093108 0.451877 0.451446
Si Si6 0.354882 0.755481 0.191514
Si Si7 0.119249 0.796686 0.396167
O O1 0.234576 0.831888 0.789819
O O2 0.317824 0.937039 0.871918
O O3 0.343099 0.078080 0.739688
O O4 0.207866 0.127016 0.851691
O O5 0.286858 0.511701 0.489937
O O6 0.343194 0.800796 0.436288
O O7 0.429784 0.542095 0.381431
O O8 0.413328 0.639271 0.517361
O O9 0.139321 0.410487 0.508980
O O10 0.500000 0.588042 0.750000
O O11 0.418397 0.366392 0.708267
O O12 0.446547 0.659373 0.642080
O O13 0.102706 0.295485 0.397855
O O14 0.134841 0.603096 0.396152
O O15 0.000000 0.500000 0.500000
#
# Coordination Sequence:
#
# PCOD8142525 Si02
#       7
#     8   8   8   8   8   8   8
#     4  10  21  39  61  88 117 156 203 243 296 356
#     4   9  17  34  59  84 114 153 196 244 296 353
#     4   9  19  35  59  85 113 152 200 246 291 354
#     4  11  22  36  59  88 117 155 201 245 298 360
#     4  11  23  40  60  87 121 157 197 249 310 359
#     4  11  23  38  60  87 124 162 194 244 303 359
#     4   9  20  38  59  82 114 153 196 246 297 349
#
# _framework density 22.278575
#
# number of rings (size 3 to 8) (size 9 to 14) (size 15 to 20)
#    0.000    2.000    0.000    4.714    0.000    5.143 
#    0.000    5.000    0.000    0.000    0.000    0.000 
#    0.000    0.000    0.000    0.000    0.000    0.000 
#
# Total GULP energy -347219.268412 kJ/mol
# GULP energy per Si atom -12400.688158 kJ/mol
# Density = 2.222787 g / cm^3
# Si number density = 22.278575 Si / 1000 Ang^3
#
#
#
# Elastic Constant Matrix: (Units=GPa)
#
#
# Indices 1 2 3 4 5 6 
#
# 1 101.4155 4.9991 49.1836 -0.0003 29.4509 -0.0004
# 2 4.9991 31.1251 11.3077 -0.0004 7.7992 -0.0008
# 3 49.1836 11.3077 115.3643 -0.0002 24.7822 -0.0003
# 4 -0.0003 -0.0004 -0.0002 34.7854 0.0000 1.8981
# 5 29.4509 7.7992 24.7822 0.0000 40.1324 -0.0001
# 6 -0.0004 -0.0008 -0.0003 1.8981 -0.0001 25.0622
#
#
#
# Elastic Compliance Matrix: (Units=1/GPa)
#
#
# Indices 1 2 3 4 5 6 
#
# 1 0.014297 0.001340 -0.004516 0.000000 -0.007964 0.000000
# 2 0.001340 0.034386 -0.002646 0.000000 -0.006032 0.000001
# 3 -0.004516 -0.002646 0.011565 0.000000 -0.003313 0.000000
# 4 0.000000 0.000000 0.000000 0.028867 0.000000 -0.002186
# 5 -0.007964 -0.006032 -0.003313 0.000000 0.033980 0.000000
# 6 0.000000 0.000001 0.000000 -0.002186 0.000000 0.040066
#
#
# Mechanical properties :
#
#
# Convention : Reuss Voigt Hill
#
# Bulk Modulus (GPa) = 20.57465 42.09839 31.33652
# Shear Modulus (GPa) = 26.17725 32.15697 29.16711
#
# Velocity S-wave (km/s) = 3.43154 3.80334 3.62221
# Velocity P-wave (km/s) = 4.99558 6.18260 5.62052
#
# Compressibility (1/GPa) = 0.04860350
#
# Stress axis : x y z
#
# Youngs Moduli (GPa) = 69.94434 29.08170 86.47133
#
# Poissons Ratio (x) = -0.03896 0.39050
# Poissons Ratio (y) = -0.09371 0.22879
# Poissons Ratio (z) = 0.31586 0.07695
#
# Static dielectric constant tensor:
#      x y z
#    x 4.037850 0.000000 0.266650 
#    y 0.000000 3.780370 0.000000 
#    z 0.266650 0.000000 4.110350 
# 
# 
# High freq. dielectric constant tensor:
#      x y z
#    x 1.873540 0.000000 0.008350 
#    y 0.000000 1.852410 0.000000 
#    z 0.008350 0.000000 1.885220 
# 
# From -- ./inp_files/209504.got.cif
#   From: 2010.06.25/outbox.cif.g09.slc.cpg/sg15_105_cif.got.tgz:209504.got - 2010.06.28 07:06:18.
