data_PCOD8142926
_publ_section_title
;
Structure prediction by ZEFSAII (Michael W. Deem and Ramdas Pophale) SiO2 
 PCOD8142926
Probable space group: C 2/C
;
_chemical_formula_sum "Si O2"
_cell_formula_units_Z 56
_cell_length_a 11.056677
_cell_length_b 11.825373
_cell_length_c 19.325603
_cell_angle_alpha 90.000000
_cell_angle_beta 91.066867
_cell_angle_gamma 90.000000
_cell_volume 2526.371606
_symmetry_space_group_name_H-M "C 2/C"
_symmetry_group_IT_number 15
_symmetry_cell_setting 'monoclinic'
loop_
_space_group_symop_operation_xyz
x,y,z
-x,y,1/2-z
-x,-y,-z
x,-y,1/2+z
1/2+x,1/2+y,z
1/2-x,1/2+y,1/2-z
1/2-x,1/2-y,-z
1/2+x,1/2-y,1/2+z
loop_
_atom_site_type_symbol
_atom_site_label
_atom_site_fract_x
_atom_site_fract_y
_atom_site_fract_z
Si Si1 0.198929 0.575361 0.229878
Si Si2 0.868610 0.684469 0.481090
Si Si3 0.254895 0.970748 0.407675
Si Si4 0.962458 0.704541 0.889645
Si Si5 0.000000 0.746737 0.250000
Si Si6 0.579301 0.426248 0.680296
Si Si7 0.500000 0.101494 0.750000
Si Si8 0.011806 0.139531 0.886424
O O1 0.273323 0.543954 0.161581
O O2 0.107060 0.677256 0.214295
O O3 0.285900 0.605016 0.293982
O O4 0.121943 0.467534 0.248629
O O5 0.750000 0.750000 0.500000
O O6 0.826110 0.558987 0.457569
O O7 0.949223 0.666108 0.549088
O O8 0.948142 0.759510 0.428326
O O9 0.336606 0.860411 0.398448
O O10 0.123643 0.920367 0.429839
O O11 0.950384 0.839390 0.882459
O O12 0.021428 0.676827 0.816904
O O13 0.062830 0.814835 0.313268
O O14 0.500000 0.426225 0.750000
O O15 0.583508 0.544818 0.639285
#
# Coordination Sequence:
#
# PCOD8142926 Si02
#       8
#     8   8   8   8   4   8   4   8
#     4  10  21  39  68 104 135 177 229 293 360 413
#     4  12  29  47  70 101 147 192 234 295 364 439
#     4  11  23  48  71  98 142 182 239 298 351 433
#     4  11  25  45  69 101 134 188 235 294 354 424
#     4  11  20  41  72 104 136 181 237 300 348 420
#     4  12  23  39  67 103 140 177 232 293 352 423
#     4   9  22  41  68  96 134 175 239 290 348 420
#     4  12  25  45  70 104 144 188 241 291 363 430
#
# _framework density 22.166177999999999
#
# number of rings (size 3 to 8) (size 9 to 14) (size 15 to 20)
#    0.000    0.857    4.286    2.143    2.000    4.000 
#    0.000    0.000    0.000    0.000    0.000    0.000 
#    0.000    0.000    0.000    0.000    0.000    0.000 
#
# Total GULP energy -346940.364124 kJ/mol
# GULP energy per Si atom -12390.727290 kJ/mol
# Density = 2.211573 g / cm^3
# Si number density = 22.166178 Si / 1000 Ang^3
#
#
#
# Elastic Constant Matrix: (Units=GPa)
#
#
# Indices 1 2 3 4 5 6 
#
# 1 87.1077 27.5488 44.0625 0.0000 20.6168 0.0000
# 2 27.5488 104.4412 35.2963 0.0000 1.7416 0.0000
# 3 44.0625 35.2963 108.3984 0.0000 15.4027 0.0000
# 4 0.0000 0.0000 0.0000 47.7393 0.0000 21.7382
# 5 20.6168 1.7416 15.4027 0.0000 37.6999 0.0000
# 6 0.0000 0.0000 0.0000 21.7382 0.0000 16.2622
#
#
#
# Elastic Compliance Matrix: (Units=1/GPa)
#
#
# Indices 1 2 3 4 5 6 
#
# 1 0.016362 -0.002565 -0.004842 0.000000 -0.006851 0.000000
# 2 -0.002565 0.011196 -0.002897 0.000000 0.002069 0.000000
# 3 -0.004842 -0.002897 0.012465 0.000000 -0.002311 0.000000
# 4 0.000000 0.000000 0.000000 0.053530 0.000000 -0.071555
# 5 -0.006851 0.002069 -0.002311 0.000000 0.031120 0.000000
# 6 0.000000 0.000000 0.000000 -0.071555 0.000000 0.157142
#
#
# Mechanical properties :
#
#
# Convention : Reuss Voigt Hill
#
# Bulk Modulus (GPa) = 51.50751 57.08472 54.29612
# Shear Modulus (GPa) = 16.18669 33.20961 24.69815
#
# Velocity S-wave (km/s) = 2.70523 3.87487 3.34162
# Velocity P-wave (km/s) = 5.74849 6.76967 6.27987
#
# Compressibility (1/GPa) = 0.01941464
#
# Stress axis : x y z
#
# Youngs Moduli (GPa) = 61.11628 89.31843 80.22362
#
# Poissons Ratio (x) = 0.22912 0.38846
# Poissons Ratio (y) = 0.15678 0.23240
# Poissons Ratio (z) = 0.29594 0.25874
#
# Static dielectric constant tensor:
#      x y z
#    x 3.827390 0.000000 -0.083620 
#    y 0.000000 4.214510 0.000000 
#    z -0.083620 0.000000 3.850420 
# 
# 
# High freq. dielectric constant tensor:
#      x y z
#    x 1.872940 0.000000 0.014170 
#    y 0.000000 1.889070 0.000000 
#    z 0.014170 0.000000 1.863500 
# 
# From -- ./inp_files/237080.got.cif
#   From: 2010.06.25/outbox.cif.g09.slc.cpg/sg15_119_cif.got.tgz:237080.got - 2010.06.28 07:06:18.
