data_PCOD8142871
_publ_section_title
;
Structure prediction by ZEFSAII (Michael W. Deem and Ramdas Pophale) SiO2 
 PCOD8142871
Probable space group: C 2/C
;
_chemical_formula_sum "Si O2"
_cell_formula_units_Z 48
_cell_length_a 29.159866
_cell_length_b 9.231466
_cell_length_c 22.078015
_cell_angle_alpha 90.000000
_cell_angle_beta 160.617599
_cell_angle_gamma 90.000000
_cell_volume 1972.359353
_symmetry_space_group_name_H-M "C 2/C"
_symmetry_group_IT_number 15
_symmetry_cell_setting 'monoclinic'
loop_
_space_group_symop_operation_xyz
x,y,z
-x,y,1/2-z
-x,-y,-z
x,-y,1/2+z
1/2+x,1/2+y,z
1/2-x,1/2+y,1/2-z
1/2-x,1/2-y,-z
1/2+x,1/2-y,1/2+z
loop_
_atom_site_type_symbol
_atom_site_label
_atom_site_fract_x
_atom_site_fract_y
_atom_site_fract_z
Si Si1 0.341314 0.335980 0.338051
Si Si2 0.800200 0.564313 0.615146
Si Si3 0.403061 0.958148 0.985867
Si Si4 0.534831 0.434413 0.126347
Si Si5 0.293811 0.869692 0.971301
Si Si6 0.108209 0.174259 0.840089
O O1 0.346946 0.175588 0.374132
O O2 0.183065 0.392241 0.130737
O O3 0.434736 0.330549 0.393291
O O4 0.400752 0.465050 0.453690
O O5 0.750644 0.704349 0.588537
O O6 0.849041 0.591787 0.606725
O O7 0.661715 0.466502 0.442981
O O8 0.933325 0.504286 0.818963
O O9 0.403474 0.901851 0.055630
O O10 0.662320 0.539099 0.290795
O O11 0.519539 0.344393 0.168842
O O12 0.000000 0.257497 0.750000
O O13 0.250000 0.250000 0.000000
#
# Coordination Sequence:
#
# PCOD8142871 Si02
#       6
#     8   8   8   8   8   8
#     4  10  22  39  64  92 139 187 229 288 340 426
#     4  10  21  39  66  98 127 168 232 295 345 409
#     4  11  22  38  64  99 135 185 234 284 354 413
#     4   9  20  43  63  89 130 179 228 276 352 405
#     4   9  19  36  66  94 126 167 228 298 348 398
#     4  11  27  45  71 101 140 180 227 293 357 419
#
# _framework density 24.336334999999998
#
# number of rings (size 3 to 8) (size 9 to 14) (size 15 to 20)
#    0.000    2.000    1.667    0.500    2.333    6.667 
#    0.000    0.833    0.000    0.000    0.000    0.000 
#    0.000    0.000    0.000    0.000    0.000    0.000 
#
# Total GULP energy -297320.637757 kJ/mol
# GULP energy per Si atom -12388.359907 kJ/mol
# Density = 2.428094 g / cm^3
# Si number density = 24.336335 Si / 1000 Ang^3
#
#
#
# Elastic Constant Matrix: (Units=GPa)
#
#
# Indices 1 2 3 4 5 6 
#
# 1 98.2175 7.3735 11.4084 -0.0015 -1.6488 0.0001
# 2 7.3735 30.2867 0.4457 -0.0034 1.8249 0.0003
# 3 11.4084 0.4457 115.3637 -0.0044 -0.9472 0.0004
# 4 -0.0015 -0.0034 -0.0044 8615.9992 -0.0035 -701.0068
# 5 -1.6488 1.8249 -0.9472 -0.0035 32.8217 0.0003
# 6 0.0001 0.0003 0.0004 -701.0068 0.0003 85.0603
#
#
#
# Elastic Compliance Matrix: (Units=1/GPa)
#
#
# Indices 1 2 3 4 5 6 
#
# 1 0.010505 -0.002581 -0.001024 0.000000 0.000642 0.000000
# 2 -0.002581 0.033765 0.000108 0.000000 -0.002004 0.000000
# 3 -0.001024 0.000108 0.008771 0.000000 0.000196 0.000000
# 4 0.000000 0.000000 0.000000 0.000352 0.000000 0.002903
# 5 0.000642 -0.002004 0.000196 0.000000 0.030617 0.000000
# 6 0.000000 0.000000 0.000000 0.002903 0.000000 0.035682
#
#
# Mechanical properties :
#
#
# Convention : Reuss Voigt Hill
#
# Bulk Modulus (GPa) = 21.71636 31.36923 26.54279
# Shear Modulus (GPa) = 35.20290 1761.75227 898.47758
#
# Velocity S-wave (km/s) = 3.80744 26.93492 19.23521
# Velocity P-wave (km/s) = 5.31710 31.30875 22.45562
#
# Compressibility (1/GPa) = 0.04604822
#
# Stress axis : x y z
#
# Youngs Moduli (GPa) = 95.19351 29.61617 114.01659
#
# Poissons Ratio (x) = 0.07644 0.11671
# Poissons Ratio (y) = 0.24570 -0.01235
# Poissons Ratio (z) = 0.09744 -0.00321
#
# Static dielectric constant tensor:
#      x y z
#    x 4.904840 0.000000 -0.457270 
#    y 0.000000 4.298930 0.000000 
#    z -0.457270 0.000000 4.693840 
# 
# 
# High freq. dielectric constant tensor:
#      x y z
#    x 1.957530 0.000000 -0.008020 
#    y 0.000000 1.950770 0.000000 
#    z -0.008020 0.000000 1.983430 
# 
# From -- ./inp_files/257641.got.cif
#   From: 2010.06.25/outbox.cif.g09.slc.cpg/sg15_129_cif.got.tgz:257641.got - 2010.06.28 07:06:18.
