data_PCOD8142398
_publ_section_title
;
Structure prediction by ZEFSAII (Michael W. Deem and Ramdas Pophale) SiO2 
 PCOD8142398
Probable space group: C 2/C
;
_chemical_formula_sum "Si O2"
_cell_formula_units_Z 52
_cell_length_a 11.866206
_cell_length_b 20.323696
_cell_length_c 12.688840
_cell_angle_alpha 90.000000
_cell_angle_beta 56.093669
_cell_angle_gamma 90.000000
_cell_volume 2539.737110
_symmetry_space_group_name_H-M "C 2/C"
_symmetry_group_IT_number 15
_symmetry_cell_setting 'monoclinic'
loop_
_space_group_symop_operation_xyz
x,y,z
-x,y,1/2-z
-x,-y,-z
x,-y,1/2+z
1/2+x,1/2+y,z
1/2-x,1/2+y,1/2-z
1/2-x,1/2-y,-z
1/2+x,1/2-y,1/2+z
loop_
_atom_site_type_symbol
_atom_site_label
_atom_site_fract_x
_atom_site_fract_y
_atom_site_fract_z
Si Si1 0.353494 0.500889 0.438752
Si Si2 0.500000 0.725429 0.250000
Si Si3 0.978596 0.303010 0.052624
Si Si4 0.297913 0.370719 0.351988
Si Si5 0.509811 0.326829 0.075348
Si Si6 0.385860 0.432498 0.629417
Si Si7 0.240663 0.873248 0.609535
O O1 0.318737 0.448214 0.365441
O O2 0.311564 0.472194 0.574937
O O3 0.514842 0.519172 0.355505
O O4 0.268842 0.566752 0.466900
O O5 0.447918 0.770762 0.181718
O O6 0.375281 0.680470 0.353890
O O7 0.858369 0.351775 0.081303
O O8 0.003891 0.248398 0.950656
O O9 0.113279 0.345027 0.987798
O O10 0.376263 0.351955 0.204644
O O11 0.358627 0.330233 0.418350
O O12 0.526540 0.372617 0.964344
O O13 0.273476 0.401553 0.764670
#
# Coordination Sequence:
#
# PCOD8142398 Si02
#       7
#     8   4   8   8   8   8   8
#     4  10  22  39  65  95 126 163 221 263 313 376
#     4  12  24  44  66  98 128 176 224 248 320 394
#     4  12  25  43  63  96 140 165 210 267 329 383
#     4  10  24  41  67  94 127 171 216 265 323 379
#     4  10  21  41  68  92 124 171 216 265 314 383
#     4  10  21  38  70  97 119 164 223 269 306 378
#     4  12  23  41  69  96 130 170 211 274 315 381
#
# _framework density 20.474558999999999
#
# number of rings (size 3 to 8) (size 9 to 14) (size 15 to 20)
#    0.000    1.231    3.077    1.846   10.769    1.846 
#    2.769    0.000    3.385    0.000    0.000    0.000 
#    0.000    0.000    0.000    0.000    0.000    0.000 
#
# Total GULP energy -322455.221895 kJ/mol
# GULP energy per Si atom -12402.123919 kJ/mol
# Density = 2.042796 g / cm^3
# Si number density = 20.474559 Si / 1000 Ang^3
#
#
#
# Elastic Constant Matrix: (Units=GPa)
#
#
# Indices 1 2 3 4 5 6 
#
# 1 116.1722 67.6583 34.1738 0.0000 -16.2858 0.0000
# 2 67.6583 139.1555 43.6822 0.0000 -2.7648 0.0000
# 3 34.1738 43.6822 63.2146 0.0000 2.9405 0.0000
# 4 0.0000 0.0000 0.0000 21.9435 0.0000 22.5089
# 5 -16.2858 -2.7648 2.9405 0.0000 28.8520 0.0000
# 6 0.0000 0.0000 0.0000 22.5089 0.0000 32.9069
#
#
#
# Elastic Compliance Matrix: (Units=1/GPa)
#
#
# Indices 1 2 3 4 5 6 
#
# 1 0.014087 -0.005347 -0.004287 0.000000 0.007876 0.000000
# 2 -0.005347 0.011274 -0.004833 0.000000 -0.001445 0.000000
# 3 -0.004287 -0.004833 0.021713 0.000000 -0.005096 0.000000
# 4 0.000000 0.000000 0.000000 0.152741 0.000000 -0.104478
# 5 0.007876 -0.001445 -0.005096 0.000000 0.039486 0.000000
# 6 0.000000 0.000000 0.000000 -0.104478 0.000000 0.101854
#
#
# Mechanical properties :
#
#
# Convention : Reuss Voigt Hill
#
# Bulk Modulus (GPa) = 55.12388 67.73012 61.42700
# Shear Modulus (GPa) = 13.29302 28.27567 20.78434
#
# Velocity S-wave (km/s) = 2.55079 3.72023 3.18957
# Velocity P-wave (km/s) = 5.97134 7.18369 6.60539
#
# Compressibility (1/GPa) = 0.01814096
#
# Stress axis : x y z
#
# Youngs Moduli (GPa) = 70.98598 88.69675 46.05463
#
# Poissons Ratio (x) = 0.47427 0.19744
# Poissons Ratio (y) = 0.37957 0.22258
# Poissons Ratio (z) = 0.30432 0.42866
#
# Static dielectric constant tensor:
#      x y z
#    x 3.587750 0.000000 0.295750 
#    y 0.000000 3.905870 0.000000 
#    z 0.295750 0.000000 3.649670 
# 
# 
# High freq. dielectric constant tensor:
#      x y z
#    x 1.783530 0.000000 0.026120 
#    y 0.000000 1.815480 0.000000 
#    z 0.026120 0.000000 1.797030 
# 
# From -- ./inp_files/89499.got.cif
#   From: 2010.06.25/outbox.cif.g09.slc.cpg/sg15_45_cif.got.tgz:89499.got - 2010.06.28 07:06:18.
