data_PCOD8142024
_publ_section_title
;
Structure prediction by ZEFSAII (Michael W. Deem and Ramdas Pophale) SiO2 
 PCOD8142024
Probable space group: C 2/C
;
_chemical_formula_sum "Si O2"
_cell_formula_units_Z 40
_cell_length_a 23.183082
_cell_length_b 13.496647
_cell_length_c 13.483545
_cell_angle_alpha 90.000000
_cell_angle_beta 155.496901
_cell_angle_gamma 90.000000
_cell_volume 1749.764691
_symmetry_space_group_name_H-M "C 2/C"
_symmetry_group_IT_number 15
_symmetry_cell_setting 'monoclinic'
loop_
_space_group_symop_operation_xyz
x,y,z
-x,y,1/2-z
-x,-y,-z
x,-y,1/2+z
1/2+x,1/2+y,z
1/2-x,1/2+y,1/2-z
1/2-x,1/2-y,-z
1/2+x,1/2-y,1/2+z
loop_
_atom_site_type_symbol
_atom_site_label
_atom_site_fract_x
_atom_site_fract_y
_atom_site_fract_z
Si Si1 0.013761 0.288433 0.638413
Si Si2 0.275664 0.327132 0.155016
Si Si3 0.366880 0.406528 0.892636
Si Si4 0.283317 0.066014 0.749222
Si Si5 0.140059 0.984631 0.827965
O O1 0.113513 0.256583 0.702240
O O2 0.892040 0.206214 0.465267
O O3 0.942258 0.393704 0.498391
O O4 0.113201 0.293438 0.891673
O O5 0.304621 0.364075 0.311866
O O6 0.281236 0.416786 0.084601
O O7 0.226825 0.452416 0.723853
O O8 0.367447 0.406708 0.774113
O O9 0.487093 0.480272 0.122282
O O10 0.220579 0.071561 0.541479
#
# Coordination Sequence:
#
# PCOD8142024 Si02
#       5
#     8   8   8   8   8
#     4  10  21  38  61  86 121 160 204 252 299 364
#     4   9  21  40  60  88 122 158 206 251 300 371
#     4   9  20  38  58  84 118 159 203 243 300 370
#     4  11  21  35  63  91 119 159 202 251 307 356
#     4   9  19  37  58  82 118 157 197 250 302 357
#
# _framework density 22.860216999999999
#
# number of rings (size 3 to 8) (size 9 to 14) (size 15 to 20)
#    0.000    2.400    0.000    2.400    0.000    9.600 
#    0.000    0.000    0.000    7.200    0.000    0.000 
#    0.000    0.000    0.000    0.000    0.000    0.000 
#
# Total GULP energy -247864.255418 kJ/mol
# GULP energy per Si atom -12393.212771 kJ/mol
# Density = 2.280819 g / cm^3
# Si number density = 22.860217 Si / 1000 Ang^3
#
#
#
# Elastic Constant Matrix: (Units=GPa)
#
#
# Indices 1 2 3 4 5 6 
#
# 1 84.5678 39.1043 57.6751 0.0000 -18.5813 0.0000
# 2 39.1043 90.9108 53.8036 0.0000 5.3303 0.0000
# 3 57.6751 53.8036 108.8538 0.0000 -8.5162 0.0000
# 4 0.0000 0.0000 0.0000 41.1135 0.0000 0.6336
# 5 -18.5813 5.3303 -8.5162 0.0000 49.8571 0.0000
# 6 0.0000 0.0000 0.0000 0.6336 0.0000 35.3847
#
#
#
# Elastic Compliance Matrix: (Units=1/GPa)
#
#
# Indices 1 2 3 4 5 6 
#
# 1 0.021212 -0.004525 -0.008459 0.000000 0.006944 0.000000
# 2 -0.004525 0.016974 -0.006351 0.000000 -0.004586 0.000000
# 3 -0.008459 -0.006351 0.016839 0.000000 0.000403 0.000000
# 4 0.000000 0.000000 0.000000 0.024330 0.000000 -0.000436
# 5 0.006944 -0.004586 0.000403 0.000000 0.023205 0.000000
# 6 0.000000 0.000000 0.000000 -0.000436 0.000000 0.028269
#
#
# Mechanical properties :
#
#
# Convention : Reuss Voigt Hill
#
# Bulk Modulus (GPa) = 61.14355 65.05539 63.09947
# Shear Modulus (GPa) = 28.57963 34.18768 31.38366
#
# Velocity S-wave (km/s) = 3.53964 3.87138 3.70922
# Velocity P-wave (km/s) = 6.59622 6.96442 6.78282
#
# Compressibility (1/GPa) = 0.01635496
#
# Stress axis : x y z
#
# Youngs Moduli (GPa) = 47.14278 58.91461 59.38495
#
# Poissons Ratio (x) = 0.26659 0.50235
# Poissons Ratio (y) = 0.21332 0.37715
# Poissons Ratio (z) = 0.39879 0.37416
#
# Static dielectric constant tensor:
#      x y z
#    x 4.162430 0.000000 0.161960 
#    y 0.000000 4.069530 0.000000 
#    z 0.161960 0.000000 4.064950 
# 
# 
# High freq. dielectric constant tensor:
#      x y z
#    x 1.921770 0.000000 0.001630 
#    y 0.000000 1.884010 0.000000 
#    z 0.001630 0.000000 1.879060 
# 
# From -- ./inp_files/178491.got.cif
#   From: 2010.06.25/outbox.cif.g09.slc.cpg/sg15_90_cif.got.tgz:178491.got - 2010.06.28 07:06:18.
