data_PCOD8142027
_publ_section_title
;
Structure prediction by ZEFSAII (Michael W. Deem and Ramdas Pophale) SiO2 
 PCOD8142027
Probable space group: C 2/C
;
_chemical_formula_sum "Si O2"
_cell_formula_units_Z 48
_cell_length_a 8.756524
_cell_length_b 15.071669
_cell_length_c 18.052061
_cell_angle_alpha 90.000000
_cell_angle_beta 90.000000
_cell_angle_gamma 90.000000
_cell_volume 2382.428537
_symmetry_space_group_name_H-M "C 2/C"
_symmetry_group_IT_number 15
_symmetry_cell_setting 'monoclinic'
loop_
_space_group_symop_operation_xyz
x,y,z
-x,y,1/2-z
-x,-y,-z
x,-y,1/2+z
1/2+x,1/2+y,z
1/2-x,1/2+y,1/2-z
1/2-x,1/2-y,-z
1/2+x,1/2-y,1/2+z
loop_
_atom_site_type_symbol
_atom_site_label
_atom_site_fract_x
_atom_site_fract_y
_atom_site_fract_z
Si Si1 0.822749 0.666278 0.594576
Si Si2 0.324689 0.503049 0.835870
Si Si3 0.824689 0.996951 0.164131
Si Si4 0.677118 0.847766 0.576113
Si Si5 0.822882 0.347766 0.576113
Si Si6 0.822749 0.333722 0.405424
O O1 0.726279 0.603435 0.648306
O O2 0.774310 0.767385 0.610541
O O3 0.784400 0.640110 0.510237
O O4 1.000000 0.655215 0.613205
O O5 0.500000 0.490536 0.859480
O O6 0.300799 0.481820 0.750000
O O7 0.219117 0.438030 0.883070
O O8 0.719117 0.061971 0.116930
O O9 0.773721 0.896565 0.148306
O O10 0.500000 0.826119 0.587613
O O11 0.784400 0.359890 0.489763
O O12 0.725690 0.267385 0.610541
#
# Coordination Sequence:
#
# PCOD8142027 Si02
#       6
#     8   8   8   8   8   8
#     4  10  21  38  61  87 113 145 187 233 281 333
#     4  11  24  39  56  82 116 153 190 229 278 334
#     4  11  24  39  56  82 116 153 190 229 278 334
#     4  10  21  38  61  87 113 145 187 233 281 333
#     4  10  21  38  61  87 113 145 187 233 281 333
#     4  10  21  38  61  87 113 145 187 233 281 333
#
# _framework density 20.14751
#
# number of rings (size 3 to 8) (size 9 to 14) (size 15 to 20)
#    0.000    1.667    0.000    4.000    0.000   12.000 
#    0.000    0.000    0.000    0.000    0.000    0.000 
#    0.000    0.000    0.000    0.000    0.000    0.000 
#
# Total GULP energy -297790.145562 kJ/mol
# GULP energy per Si atom -12407.922732 kJ/mol
# Density = 2.010165 g / cm^3
# Si number density = 20.147510 Si / 1000 Ang^3
#
#
#
# Elastic Constant Matrix: (Units=GPa)
#
#
# Indices 1 2 3 4 5 6 
#
# 1 69.1930 17.1977 34.1662 0.0000 0.0000 0.0000
# 2 17.1977 79.2669 16.6211 0.0000 0.0000 0.0000
# 3 34.1662 16.6211 34.9620 0.0000 0.0000 0.0000
# 4 0.0000 0.0000 0.0000 12.0763 0.0000 0.0000
# 5 0.0000 0.0000 0.0000 0.0000 29.1348 0.0000
# 6 0.0000 0.0000 0.0000 0.0000 0.0000 44.2406
#
#
#
# Elastic Compliance Matrix: (Units=1/GPa)
#
#
# Indices 1 2 3 4 5 6 
#
# 1 0.027939 -0.000374 -0.027126 0.000000 0.000000 0.000000
# 2 -0.000374 0.014017 -0.006299 0.000000 0.000000 0.000000
# 3 -0.027126 -0.006299 0.058105 0.000000 0.000000 0.000000
# 4 0.000000 0.000000 0.000000 0.082807 0.000000 0.000000
# 5 0.000000 0.000000 0.000000 0.000000 0.034323 0.000000
# 6 0.000000 0.000000 0.000000 0.000000 0.000000 0.022604
#
#
# Mechanical properties :
#
#
# Convention : Reuss Voigt Hill
#
# Bulk Modulus (GPa) = 30.80182 35.48801 33.14491
# Shear Modulus (GPa) = 15.71270 24.78615 20.24943
#
# Velocity S-wave (km/s) = 2.79567 3.51127 3.17371
# Velocity P-wave (km/s) = 5.07369 5.83875 5.46962
#
# Compressibility (1/GPa) = 0.03246562
#
# Stress axis : x y z
#
# Youngs Moduli (GPa) = 35.79169 71.33964 17.21015
#
# Poissons Ratio (x) = 0.02667 0.46684
# Poissons Ratio (y) = 0.01338 0.10840
# Poissons Ratio (z) = 0.97088 0.44934
#
# Static dielectric constant tensor:
#      x y z
#    x 3.692910 0.000000 0.000000 
#    y 0.000000 3.600640 0.000000 
#    z 0.000000 0.000000 3.515650 
# 
# 
# High freq. dielectric constant tensor:
#      x y z
#    x 1.800480 0.000000 0.000000 
#    y 0.000000 1.796210 0.000000 
#    z 0.000000 0.000000 1.773850 
# 
# From -- ./inp_files/55212.got.cif
#   From: 2010.06.25/outbox.cif.g09.slc.cpg/sg15_28_cif.got.tgz:55212.got - 2010.06.28 07:06:18.
