data_PCOD8142441
_publ_section_title
;
Structure prediction by ZEFSAII (Michael W. Deem and Ramdas Pophale) SiO2 
 PCOD8142441
Probable space group: C 2/C
;
_chemical_formula_sum "Si O2"
_cell_formula_units_Z 40
_cell_length_a 12.463335
_cell_length_b 5.131203
_cell_length_c 30.472964
_cell_angle_alpha 90.000000
_cell_angle_beta 97.859203
_cell_angle_gamma 90.000000
_cell_volume 1930.499042
_symmetry_space_group_name_H-M "C 2/C"
_symmetry_group_IT_number 15
_symmetry_cell_setting 'monoclinic'
loop_
_space_group_symop_operation_xyz
x,y,z
-x,y,1/2-z
-x,-y,-z
x,-y,1/2+z
1/2+x,1/2+y,z
1/2-x,1/2+y,1/2-z
1/2-x,1/2-y,-z
1/2+x,1/2-y,1/2+z
loop_
_atom_site_type_symbol
_atom_site_label
_atom_site_fract_x
_atom_site_fract_y
_atom_site_fract_z
Si Si1 0.418429 0.363677 0.447524
Si Si2 0.166028 0.949516 0.475069
Si Si3 0.122755 0.373648 0.266847
Si Si4 0.776294 0.873902 0.193603
Si Si5 0.685569 0.892824 0.093488
O O1 0.545412 0.334477 0.463459
O O2 0.351151 0.313478 0.490127
O O3 0.393829 0.141780 0.410333
O O4 0.381614 0.648331 0.428819
O O5 0.250000 0.750000 0.500000
O O6 0.211671 0.002376 0.429010
O O7 0.166503 0.153742 0.302404
O O8 0.181788 0.358188 0.223735
O O9 0.000000 0.314601 0.250000
O O10 0.135666 0.651130 0.291219
O O11 0.724950 0.820006 0.143717
#
# Coordination Sequence:
#
# PCOD8142441 Si02
#       5
#     8   8   8   8   8
#     4  10  22  37  56  81 111 148 184 222 274 324
#     4   9  21  38  57  80 112 148 184 226 273 321
#     4  10  21  39  59  80 112 146 177 223 278 326
#     4  10  22  37  57  85 110 141 185 224 269 330
#     4  11  22  37  57  83 112 142 184 230 268 321
#
# _framework density 20.720030000000001
#
# number of rings (size 3 to 8) (size 9 to 14) (size 15 to 20)
#    0.000    2.000    0.000    2.400    0.000   13.600 
#    0.000    0.000    0.000    0.000    0.000    0.000 
#    0.000    0.000    0.000    0.000    0.000    0.000 
#
# Total GULP energy -247855.728487 kJ/mol
# GULP energy per Si atom -12392.786424 kJ/mol
# Density = 2.067287 g / cm^3
# Si number density = 20.720030 Si / 1000 Ang^3
#
#
#
# Elastic Constant Matrix: (Units=GPa)
#
#
# Indices 1 2 3 4 5 6 
#
# 1 96.1771 32.6000 39.7022 0.0000 24.8872 0.0000
# 2 32.6000 99.4995 27.2922 0.0000 -1.7261 0.0000
# 3 39.7022 27.2922 121.9319 0.0000 9.9530 0.0000
# 4 0.0000 0.0000 0.0000 28.2794 0.0000 4.1066
# 5 24.8872 -1.7261 9.9530 0.0000 16.8395 0.0000
# 6 0.0000 0.0000 0.0000 4.1066 0.0000 13.3932
#
#
#
# Elastic Compliance Matrix: (Units=1/GPa)
#
#
# Indices 1 2 3 4 5 6 
#
# 1 0.022282 -0.007005 -0.003090 0.000000 -0.031822 0.000000
# 2 -0.007005 0.013023 -0.001669 0.000000 0.012674 0.000000
# 3 -0.003090 -0.001669 0.009690 0.000000 -0.001332 0.000000
# 4 0.000000 0.000000 0.000000 0.037009 0.000000 -0.011348
# 5 -0.031822 0.012674 -0.001332 0.000000 0.108500 0.000000
# 6 0.000000 0.000000 0.000000 -0.011348 0.000000 0.078144
#
#
# Mechanical properties :
#
#
# Convention : Reuss Voigt Hill
#
# Bulk Modulus (GPa) = 46.58137 57.42194 52.00165
# Shear Modulus (GPa) = 16.70393 26.23668 21.47030
#
# Velocity S-wave (km/s) = 2.84240 3.56230 3.22251
# Velocity P-wave (km/s) = 5.77083 6.68531 6.24483
#
# Compressibility (1/GPa) = 0.02146781
#
# Stress axis : x y z
#
# Youngs Moduli (GPa) = 44.87980 76.78752 103.20430
#
# Poissons Ratio (x) = 0.53789 0.31887
# Poissons Ratio (y) = 0.31438 0.17221
# Poissons Ratio (z) = 0.13866 0.12813
#
# Static dielectric constant tensor:
#      x y z
#    x 3.989510 0.000000 -0.187520 
#    y 0.000000 3.729640 0.000000 
#    z -0.187520 0.000000 3.816270 
# 
# 
# High freq. dielectric constant tensor:
#      x y z
#    x 1.816850 0.000000 0.008890 
#    y 0.000000 1.812190 0.000000 
#    z 0.008890 0.000000 1.810200 
# 
# From -- ./inp_files/290516.got.cif
#   From: 2010.06.25/outbox.cif.g09.slc.cpg/sg15_146_cif.got.tgz:290516.got - 2010.06.28 07:06:18.
