data_PCOD8142435
_publ_section_title
;
Structure prediction by ZEFSAII (Michael W. Deem and Ramdas Pophale) SiO2 
 PCOD8142435
Probable space group: C 2/C
;
_chemical_formula_sum "Si O2"
_cell_formula_units_Z 48
_cell_length_a 15.599286
_cell_length_b 21.656760
_cell_length_c 8.351267
_cell_angle_alpha 90.000000
_cell_angle_beta 53.876116
_cell_angle_gamma 90.000000
_cell_volume 2278.895568
_symmetry_space_group_name_H-M "C 2/C"
_symmetry_group_IT_number 15
_symmetry_cell_setting 'monoclinic'
loop_
_space_group_symop_operation_xyz
x,y,z
-x,y,1/2-z
-x,-y,-z
x,-y,1/2+z
1/2+x,1/2+y,z
1/2-x,1/2+y,1/2-z
1/2-x,1/2-y,-z
1/2+x,1/2-y,1/2+z
loop_
_atom_site_type_symbol
_atom_site_label
_atom_site_fract_x
_atom_site_fract_y
_atom_site_fract_z
Si Si1 0.382307 0.069884 0.440833
Si Si2 0.252638 0.336469 0.857890
Si Si3 0.858134 0.214959 0.538990
Si Si4 0.808607 0.698064 0.536843
Si Si5 0.555387 0.695910 0.527316
Si Si6 0.378606 0.058972 0.826294
O O1 0.500000 0.066681 0.250000
O O2 0.333986 0.133240 0.420173
O O3 0.374348 0.070802 0.641987
O O4 0.330122 0.008571 0.422222
O O5 0.158477 0.288897 0.915279
O O6 0.336995 0.345858 0.618042
O O7 0.338330 0.302200 0.878073
O O8 0.200255 0.397051 0.987546
O O9 0.767743 0.177984 0.734822
O O10 0.973512 0.193582 0.469585
O O11 0.750000 0.750000 0.500000
O O12 0.915105 0.731268 0.483700
O O13 0.500000 0.670614 0.750000
O O14 0.500000 0.067383 0.750000
#
# Coordination Sequence:
#
# PCOD8142435 Si02
#       6
#     8   8   8   8   8   8
#     4  11  24  42  63  92 127 167 209 264 318 381
#     4  10  23  38  63  90 125 170 210 257 320 374
#     4  10  21  39  58  91 127 165 206 262 315 376
#     4  11  22  37  63  97 126 164 205 256 321 373
#     4  11  22  37  60  96 130 161 205 266 320 377
#     4  11  24  42  63  94 127 168 212 259 318 385
#
# _framework density 21.062833000000001
#
# number of rings (size 3 to 8) (size 9 to 14) (size 15 to 20)
#    0.000    1.333    3.333    3.000    2.333    4.000 
#    0.000    0.000    0.000    1.000    4.333    0.000 
#    0.000    0.000    0.000    0.000    0.000    0.000 
#
# Total GULP energy -297319.672655 kJ/mol
# GULP energy per Si atom -12388.319694 kJ/mol
# Density = 2.101489 g / cm^3
# Si number density = 21.062833 Si / 1000 Ang^3
#
#
#
# Elastic Constant Matrix: (Units=GPa)
#
#
# Indices 1 2 3 4 5 6 
#
# 1 72.3953 22.6606 7.1934 0.0000 -1.2004 0.0000
# 2 22.6606 143.5116 57.7270 0.0000 -9.5451 0.0000
# 3 7.1934 57.7270 121.8811 0.0000 -19.0186 0.0000
# 4 0.0000 0.0000 0.0000 36.7594 0.0000 -1.4611
# 5 -1.2004 -9.5451 -19.0186 0.0000 21.4122 0.0000
# 6 0.0000 0.0000 0.0000 -1.4611 0.0000 25.4760
#
#
#
# Elastic Compliance Matrix: (Units=1/GPa)
#
#
# Indices 1 2 3 4 5 6 
#
# 1 0.014539 -0.002410 0.000282 0.000000 -0.000009 0.000000
# 2 -0.002410 0.009009 -0.004085 0.000000 0.000252 0.000000
# 3 0.000282 -0.004085 0.011425 0.000000 0.008342 0.000000
# 4 0.000000 0.000000 0.000000 0.027266 0.000000 0.001564
# 5 -0.000009 0.000252 0.008342 0.000000 0.054224 0.000000
# 6 0.000000 0.000000 0.000000 0.001564 0.000000 0.039342
#
#
# Mechanical properties :
#
#
# Convention : Reuss Voigt Hill
#
# Bulk Modulus (GPa) = 44.35303 56.99444 50.67374
# Shear Modulus (GPa) = 28.45008 33.40998 30.93003
#
# Velocity S-wave (km/s) = 3.67921 3.98704 3.83621
# Velocity P-wave (km/s) = 6.25715 6.95078 6.61307
#
# Compressibility (1/GPa) = 0.02254637
#
# Stress axis : x y z
#
# Youngs Moduli (GPa) = 68.77976 111.00498 87.52957
#
# Poissons Ratio (x) = 0.26749 -0.02467
# Poissons Ratio (y) = 0.16574 0.35758
# Poissons Ratio (z) = -0.01939 0.45348
#
# Static dielectric constant tensor:
#      x y z
#    x 3.707230 0.000000 0.258640 
#    y 0.000000 3.921930 0.000000 
#    z 0.258640 0.000000 4.013810 
# 
# 
# High freq. dielectric constant tensor:
#      x y z
#    x 1.818510 0.000000 0.008300 
#    y 0.000000 1.793140 0.000000 
#    z 0.008300 0.000000 1.851180 
# 
# From -- ./inp_files/50046.got.cif
#   From: 2010.06.25/outbox.cif.g09.slc.cpg/sg15_26_cif.got.tgz:50046.got - 2010.06.28 07:06:18.
