data_PCOD8142692
_publ_section_title
;
Structure prediction by ZEFSAII (Michael W. Deem and Ramdas Pophale) SiO2 
 PCOD8142692
Probable space group: C 2/C
;
_chemical_formula_sum "Si O2"
_cell_formula_units_Z 64
_cell_length_a 13.310584
_cell_length_b 14.978506
_cell_length_c 18.270077
_cell_angle_alpha 90.000000
_cell_angle_beta 57.923563
_cell_angle_gamma 90.000000
_cell_volume 3086.483030
_symmetry_space_group_name_H-M "C 2/C"
_symmetry_group_IT_number 15
_symmetry_cell_setting 'monoclinic'
loop_
_space_group_symop_operation_xyz
x,y,z
-x,y,1/2-z
-x,-y,-z
x,-y,1/2+z
1/2+x,1/2+y,z
1/2-x,1/2+y,1/2-z
1/2-x,1/2-y,-z
1/2+x,1/2-y,1/2+z
loop_
_atom_site_type_symbol
_atom_site_label
_atom_site_fract_x
_atom_site_fract_y
_atom_site_fract_z
Si Si1 0.762735 0.178796 0.358579
Si Si2 0.119932 0.508189 0.409635
Si Si3 0.144008 0.760929 0.824299
Si Si4 0.443806 0.603993 0.396116
Si Si5 0.893924 0.576771 0.737035
Si Si6 0.678735 0.371173 0.413685
Si Si7 0.696224 0.359365 0.153820
Si Si8 0.478446 0.594729 0.651636
O O1 0.661289 0.107375 0.412063
O O2 0.778317 0.187225 0.265608
O O3 0.886273 0.147922 0.346654
O O4 0.722707 0.271049 0.410397
O O5 0.105569 0.496136 0.327760
O O6 0.215216 0.437996 0.404572
O O7 0.000000 0.500000 0.500000
O O8 0.088439 0.673318 0.807316
O O9 0.228175 0.731303 0.860181
O O10 0.041298 0.827388 0.891346
O O11 0.345822 0.586704 0.497217
O O12 0.499984 0.510667 0.350835
O O13 0.774715 0.570716 0.831922
O O14 0.000000 0.554800 0.750000
O O15 0.554992 0.373679 0.416601
O O16 0.634533 0.385337 0.254015
O O17 0.594956 0.348878 0.131204
#
# Coordination Sequence:
#
# PCOD8142692 Si02
#       8
#     8   8   8   8   8   8   8   8
#     4  11  22  41  61  98 124 163 219 269 326 386
#     4  11  23  38  65  93 126 168 222 268 314 403
#     4  10  21  39  63  95 124 161 212 275 322 377
#     4  12  24  35  71  96 124 164 223 276 314 393
#     4  10  22  41  60  85 133 173 201 262 345 379
#     4  11  24  41  61  96 134 160 212 277 336 378
#     4  10  21  41  65  88 126 173 212 261 327 385
#     4  11  21  43  65  92 125 175 218 258 323 393
#
# _framework density 20.735575999999998
#
# number of rings (size 3 to 8) (size 9 to 14) (size 15 to 20)
#    0.000    1.250    5.000    3.375    7.000    0.000 
#    0.000    1.875    0.000    0.000    0.000    0.000 
#    0.000    0.000    0.000    0.000    0.000    0.000 
#
# Total GULP energy -396834.089588 kJ/mol
# GULP energy per Si atom -12401.065300 kJ/mol
# Density = 2.068838 g / cm^3
# Si number density = 20.735576 Si / 1000 Ang^3
#
#
#
# Elastic Constant Matrix: (Units=GPa)
#
#
# Indices 1 2 3 4 5 6 
#
# 1 113.2229 36.7571 12.3947 0.0000 -1.6493 0.0000
# 2 36.7571 71.4791 11.9721 0.0000 -5.2636 0.0000
# 3 12.3947 11.9721 69.4599 0.0000 -13.4480 0.0000
# 4 0.0000 0.0000 0.0000 18.7536 0.0000 -6.9618
# 5 -1.6493 -5.2636 -13.4480 0.0000 29.1043 0.0000
# 6 0.0000 0.0000 0.0000 -6.9618 0.0000 36.9721
#
#
#
# Elastic Compliance Matrix: (Units=1/GPa)
#
#
# Indices 1 2 3 4 5 6 
#
# 1 0.010689 -0.005369 -0.001156 0.000000 -0.000899 0.000000
# 2 -0.005369 0.017171 -0.001603 0.000000 0.002061 0.000000
# 3 -0.001156 -0.001603 0.016266 0.000000 0.007160 0.000000
# 4 0.000000 0.000000 0.000000 0.057331 0.000000 0.010795
# 5 -0.000899 0.002061 0.007160 0.000000 0.037990 0.000000
# 6 0.000000 0.000000 0.000000 0.010795 0.000000 0.029080
#
#
# Mechanical properties :
#
#
# Convention : Reuss Voigt Hill
#
# Bulk Modulus (GPa) = 35.88081 41.82333 38.85207
# Shear Modulus (GPa) = 25.76373 29.83519 27.79946
#
# Velocity S-wave (km/s) = 3.52872 3.79732 3.66548
# Velocity P-wave (km/s) = 5.82615 6.28011 6.05739
#
# Compressibility (1/GPa) = 0.02787005
#
# Stress axis : x y z
#
# Youngs Moduli (GPa) = 93.55736 58.23689 61.47929
#
# Poissons Ratio (x) = 0.31268 0.07107
# Poissons Ratio (y) = 0.50232 0.09853
# Poissons Ratio (z) = 0.10816 0.09333
#
# Static dielectric constant tensor:
#      x y z
#    x 3.948780 0.000000 -0.005260 
#    y 0.000000 3.629010 0.000000 
#    z -0.005260 0.000000 3.672840 
# 
# 
# High freq. dielectric constant tensor:
#      x y z
#    x 1.819440 0.000000 -0.004340 
#    y 0.000000 1.793560 0.000000 
#    z -0.004340 0.000000 1.804230 
# 
# From -- ./inp_files/205403.got.cif
#   From: 2010.06.25/outbox.cif.g09.slc.cpg/sg15_103_cif.got.tgz:205403.got - 2010.06.28 07:06:18.
