data_PCOD8142182
_publ_section_title
;
Structure prediction by ZEFSAII (Michael W. Deem and Ramdas Pophale) SiO2 
 PCOD8142182
Probable space group: C 2/C
;
_chemical_formula_sum "Si O2"
_cell_formula_units_Z 48
_cell_length_a 9.046486
_cell_length_b 21.245693
_cell_length_c 19.719407
_cell_angle_alpha 90.000000
_cell_angle_beta 143.774574
_cell_angle_gamma 90.000000
_cell_volume 2239.780617
_symmetry_space_group_name_H-M "C 2/C"
_symmetry_group_IT_number 15
_symmetry_cell_setting 'monoclinic'
loop_
_space_group_symop_operation_xyz
x,y,z
-x,y,1/2-z
-x,-y,-z
x,-y,1/2+z
1/2+x,1/2+y,z
1/2-x,1/2+y,1/2-z
1/2-x,1/2-y,-z
1/2+x,1/2-y,1/2+z
loop_
_atom_site_type_symbol
_atom_site_label
_atom_site_fract_x
_atom_site_fract_y
_atom_site_fract_z
Si Si1 0.100706 0.631198 0.359519
Si Si2 0.359563 0.319454 0.435573
Si Si3 0.952593 0.611646 0.573661
Si Si4 0.067766 0.121760 0.667731
Si Si5 0.806946 0.016673 0.486557
Si Si6 0.048502 0.680729 0.481319
O O1 0.396236 0.638647 0.463266
O O2 0.076126 0.556974 0.368301
O O3 0.977008 0.670818 0.375461
O O4 0.000000 0.652466 0.250000
O O5 0.167602 0.333284 0.424841
O O6 0.256223 0.345342 0.325048
O O7 0.442863 0.247295 0.465529
O O8 0.813732 0.545952 0.528691
O O9 0.249519 0.607353 0.701492
O O10 0.920181 0.629642 0.482901
O O11 0.938920 0.056348 0.595851
O O12 0.849466 0.173558 0.602691
O O13 0.000000 0.000000 0.500000
#
# Coordination Sequence:
#
# PCOD8142182 Si02
#       6
#     8   8   8   8   8   8
#     4  10  22  39  65  85 122 172 203 253 320 365
#     4  10  21  39  62  91 127 164 212 255 300 375
#     4  12  22  38  70  94 128 165 208 258 318 368
#     4  10  22  39  64  92 124 173 205 253 315 372
#     4  10  21  38  63  91 124 156 215 258 297 376
#     4  10  23  42  58  95 129 160 211 262 305 372
#
# _framework density 21.430671
#
# number of rings (size 3 to 8) (size 9 to 14) (size 15 to 20)
#    0.000    2.000    3.333    3.500    2.333    5.333 
#    0.000    2.500    0.000    0.000    0.000    0.000 
#    0.000    0.000    0.000    0.000    0.000    0.000 
#
# Total GULP energy -297369.019683 kJ/mol
# GULP energy per Si atom -12390.375820 kJ/mol
# Density = 2.138189 g / cm^3
# Si number density = 21.430671 Si / 1000 Ang^3
#
#
#
# Elastic Constant Matrix: (Units=GPa)
#
#
# Indices 1 2 3 4 5 6 
#
# 1 102.2244 41.4442 34.0717 -0.0001 -16.2876 0.0003
# 2 41.4442 130.4524 41.2356 -0.0002 -1.9284 0.0008
# 3 34.0717 41.2356 74.8800 0.0086 -23.4851 0.0029
# 4 -0.0001 -0.0002 0.0086 12.1600 0.0049 5.4320
# 5 -16.2876 -1.9284 -23.4851 0.0049 30.2422 0.0017
# 6 0.0003 0.0008 0.0029 5.4320 0.0017 35.9986
#
#
#
# Elastic Compliance Matrix: (Units=1/GPa)
#
#
# Indices 1 2 3 4 5 6 
#
# 1 0.012648 -0.003133 -0.002586 0.000000 0.004604 0.000000
# 2 -0.003133 0.010537 -0.006207 0.000007 -0.005836 -0.000001
# 3 -0.002586 -0.006207 0.022988 -0.000023 0.016063 0.000001
# 4 0.000000 0.000007 -0.000023 0.088181 -0.000031 -0.013306
# 5 0.004604 -0.005836 0.016063 -0.000031 0.047648 0.000001
# 6 0.000000 -0.000001 0.000001 -0.013306 0.000001 0.029787
#
#
# Mechanical properties :
#
#
# Convention : Reuss Voigt Hill
#
# Bulk Modulus (GPa) = 44.80227 60.11774 52.46000
# Shear Modulus (GPa) = 20.56938 28.40050 24.48494
#
# Velocity S-wave (km/s) = 3.10144 3.64432 3.38378
# Velocity P-wave (km/s) = 5.81174 6.76913 6.30862
#
# Compressibility (1/GPa) = 0.02232030
#
# Stress axis : x y z
#
# Youngs Moduli (GPa) = 79.06430 94.90604 43.50185
#
# Poissons Ratio (x) = 0.29732 0.11249
# Poissons Ratio (y) = 0.24769 0.27003
# Poissons Ratio (z) = 0.20445 0.58911
#
# Static dielectric constant tensor:
#      x y z
#    x 4.208970 0.000000 -0.231810 
#    y 0.000000 3.965840 -0.000020 
#    z -0.231810 -0.000020 3.803420 
# 
# 
# High freq. dielectric constant tensor:
#      x y z
#    x 1.850740 0.000000 -0.008000 
#    y 0.000000 1.846710 0.000000 
#    z -0.008000 0.000000 1.811800 
# 
# From -- ./inp_files/233994.got.cif
#   From: 2010.06.25/outbox.cif.g09.slc.cpg/sg15_117_cif.got.tgz:233994.got - 2010.06.28 07:06:18.
