data_PCOD8142535
_publ_section_title
;
Structure prediction by ZEFSAII (Michael W. Deem and Ramdas Pophale) SiO2 
 PCOD8142535
Probable space group: C 2/C
;
_chemical_formula_sum "Si O2"
_cell_formula_units_Z 40
_cell_length_a 11.734535
_cell_length_b 30.201980
_cell_length_c 7.572918
_cell_angle_alpha 90.000000
_cell_angle_beta 45.413860
_cell_angle_gamma 90.000000
_cell_volume 1911.454701
_symmetry_space_group_name_H-M "C 2/C"
_symmetry_group_IT_number 15
_symmetry_cell_setting 'monoclinic'
loop_
_space_group_symop_operation_xyz
x,y,z
-x,y,1/2-z
-x,-y,-z
x,-y,1/2+z
1/2+x,1/2+y,z
1/2-x,1/2+y,1/2-z
1/2-x,1/2-y,-z
1/2+x,1/2-y,1/2+z
loop_
_atom_site_type_symbol
_atom_site_label
_atom_site_fract_x
_atom_site_fract_y
_atom_site_fract_z
Si Si1 0.172466 0.793480 0.865175
Si Si2 0.377011 0.974910 0.013673
Si Si3 0.316598 0.143976 0.925989
Si Si4 0.813862 0.052399 0.467382
Si Si5 0.302012 0.696790 0.764436
O O1 0.276146 0.816840 0.603567
O O2 0.209252 0.741723 0.822548
O O3 0.216136 0.814644 0.008151
O O4 0.987902 0.798838 0.015116
O O5 0.255382 0.943779 0.255903
O O6 0.500000 0.947810 0.750000
O O7 0.500000 0.000000 0.000000
O O8 0.271369 0.011365 0.030177
O O9 0.500000 0.131521 0.750000
O O10 0.219289 0.099824 0.086324
O O11 0.275715 0.158361 0.769922
O O12 0.000000 0.042279 0.250000
#
# Coordination Sequence:
#
# PCOD8142535 Si02
#       5
#     8   8   8   8   8
#     4  10  21  39  62  86 123 158 206 253 305 368
#     4   9  19  39  63  87 118 157 196 242 302 367
#     4  12  24  39  60  89 124 162 204 255 308 363
#     4  11  22  40  63  91 123 157 205 251 307 369
#     4  10  21  39  61  89 119 162 205 252 308 365
#
# _framework density 20.926470999999999
#
# number of rings (size 3 to 8) (size 9 to 14) (size 15 to 20)
#    0.000    1.600    0.000    6.000    0.000    2.400 
#   10.800    0.000    0.000    0.000    0.000    0.000 
#    0.000    0.000    0.000    0.000    0.000    0.000 
#
# Total GULP energy -247919.348993 kJ/mol
# GULP energy per Si atom -12395.967450 kJ/mol
# Density = 2.087884 g / cm^3
# Si number density = 20.926471 Si / 1000 Ang^3
#
#
#
# Elastic Constant Matrix: (Units=GPa)
#
#
# Indices 1 2 3 4 5 6 
#
# 1 108.0964 26.6458 43.9012 0.0000 -18.4948 0.0000
# 2 26.6458 52.6808 10.8436 0.0000 -7.7746 0.0000
# 3 43.9012 10.8436 129.3677 0.0000 -9.2561 0.0000
# 4 0.0000 0.0000 0.0000 27.9487 0.0000 -3.4140
# 5 -18.4948 -7.7746 -9.2561 0.0000 35.9094 0.0000
# 6 0.0000 0.0000 0.0000 -3.4140 0.0000 6.0484
#
#
#
# Elastic Compliance Matrix: (Units=1/GPa)
#
#
# Indices 1 2 3 4 5 6 
#
# 1 0.012717 -0.005027 -0.003569 0.000000 0.004541 0.000000
# 2 -0.005027 0.021836 0.000029 0.000000 0.002146 0.000000
# 3 -0.003569 0.000029 0.008973 0.000000 0.000481 0.000000
# 4 0.000000 0.000000 0.000000 0.038430 0.000000 0.021692
# 5 0.004541 0.002146 0.000481 0.000000 0.030775 0.000000
# 6 0.000000 0.000000 0.000000 0.021692 0.000000 0.177577
#
#
# Mechanical properties :
#
#
# Convention : Reuss Voigt Hill
#
# Bulk Modulus (GPa) = 37.89136 50.32512 44.10824
# Shear Modulus (GPa) = 15.81082 27.89823 21.85453
#
# Velocity S-wave (km/s) = 2.75169 3.65520 3.23514
# Velocity P-wave (km/s) = 5.31432 6.47416 5.92270
#
# Compressibility (1/GPa) = 0.02639124
#
# Stress axis : x y z
#
# Youngs Moduli (GPa) = 78.63653 45.79661 111.44456
#
# Poissons Ratio (x) = 0.23023 0.39776
# Poissons Ratio (y) = 0.39532 -0.00326
# Poissons Ratio (z) = 0.28067 -0.00134
#
# Static dielectric constant tensor:
#      x y z
#    x 3.998360 0.000000 0.284690 
#    y 0.000000 3.528290 0.000000 
#    z 0.284690 0.000000 4.468350 
# 
# 
# High freq. dielectric constant tensor:
#      x y z
#    x 1.830630 0.000000 -0.004550 
#    y 0.000000 1.799210 0.000000 
#    z -0.004550 0.000000 1.836170 
# 
# From -- ./inp_files/33899.got.cif
#   From: 2010.06.25/outbox.cif.g09.slc.cpg/sg15_17_cif.got.tgz:33899.got - 2010.06.28 07:06:18.
