data_PCOD8142697
_publ_section_title
;
Structure prediction by ZEFSAII (Michael W. Deem and Ramdas Pophale) SiO2 
 PCOD8142697
Probable space group: C 2/C
;
_chemical_formula_sum "Si O2"
_cell_formula_units_Z 44
_cell_length_a 28.421397
_cell_length_b 7.264427
_cell_length_c 9.187674
_cell_angle_alpha 90.000000
_cell_angle_beta 108.548598
_cell_angle_gamma 90.000000
_cell_volume 1798.396789
_symmetry_space_group_name_H-M "C 2/C"
_symmetry_group_IT_number 15
_symmetry_cell_setting 'monoclinic'
loop_
_space_group_symop_operation_xyz
x,y,z
-x,y,1/2-z
-x,-y,-z
x,-y,1/2+z
1/2+x,1/2+y,z
1/2-x,1/2+y,1/2-z
1/2-x,1/2-y,-z
1/2+x,1/2-y,1/2+z
loop_
_atom_site_type_symbol
_atom_site_label
_atom_site_fract_x
_atom_site_fract_y
_atom_site_fract_z
Si Si1 0.940058 0.317422 0.454790
Si Si2 0.187527 0.915465 0.857700
Si Si3 0.000000 0.465671 0.250000
Si Si4 0.856979 0.402584 0.821162
Si Si5 0.792386 0.475970 0.024943
Si Si6 0.120918 0.971172 0.052507
O O1 0.961430 0.403823 0.625424
O O2 0.889583 0.414951 0.357135
O O3 0.975760 0.334014 0.349016
O O4 0.926514 0.104599 0.474290
O O5 0.235022 0.040041 0.954227
O O6 0.171806 0.964220 0.679207
O O7 0.204914 0.704283 0.869706
O O8 0.137194 0.950593 0.901165
O O9 0.811619 0.417133 0.886983
O O10 0.829843 0.375515 0.636988
O O11 0.892860 0.229646 0.893584
#
# Coordination Sequence:
#
# PCOD8142697 Si02
#       6
#     8   8   4   8   8   8
#     4  11  24  50  70 102 129 168 222 284 345 434
#     4  10  22  40  61 101 139 190 218 275 305 389
#     4  10  26  48  80  94 130 172 214 288 384 408
#     4  11  23  40  69  99 131 189 213 280 324 398
#     4  10  21  39  63  97 146 178 235 257 318 375
#     4  11  25  40  68  97 136 176 230 266 336 387
#
# _framework density 24.466235999999999
#
# number of rings (size 3 to 8) (size 9 to 14) (size 15 to 20)
#    0.000    1.455    1.818    2.182    7.636    0.727 
#    0.000    5.455    0.000    0.000    0.000    0.000 
#    0.000    0.000    0.000    0.000    0.000    0.000 
#
# Total GULP energy -272756.249804 kJ/mol
# GULP energy per Si atom -12398.011355 kJ/mol
# Density = 2.441055 g / cm^3
# Si number density = 24.466236 Si / 1000 Ang^3
#
#
#
# Elastic Constant Matrix: (Units=GPa)
#
#
# Indices 1 2 3 4 5 6 
#
# 1 71.1220 32.6342 12.8978 0.0000 3.3077 0.0000
# 2 32.6342 78.1888 6.3996 0.0000 -11.2734 0.0000
# 3 12.8978 6.3996 86.5642 0.0000 9.4480 0.0000
# 4 0.0000 0.0000 0.0000 35.2849 0.0000 8.4590
# 5 3.3077 -11.2734 9.4480 0.0000 29.1341 0.0000
# 6 0.0000 0.0000 0.0000 8.4590 0.0000 37.7741
#
#
#
# Elastic Compliance Matrix: (Units=1/GPa)
#
#
# Indices 1 2 3 4 5 6 
#
# 1 0.018337 -0.008204 -0.001609 0.000000 -0.004735 0.000000
# 2 -0.008204 0.017442 -0.000939 0.000000 0.007985 0.000000
# 3 -0.001609 -0.000939 0.012317 0.000000 -0.004175 0.000000
# 4 0.000000 0.000000 0.000000 0.029949 0.000000 -0.006707
# 5 -0.004735 0.007985 -0.004175 0.000000 0.039305 0.000000
# 6 0.000000 0.000000 0.000000 -0.006707 0.000000 0.027975
#
#
# Mechanical properties :
#
#
# Convention : Reuss Voigt Hill
#
# Bulk Modulus (GPa) = 37.60498 37.74868 37.67683
# Shear Modulus (GPa) = 28.45889 32.70151 30.58020
#
# Velocity S-wave (km/s) = 3.41426 3.65992 3.53922
# Velocity P-wave (km/s) = 5.56295 5.77255 5.66872
#
# Compressibility (1/GPa) = 0.02659222
#
# Stress axis : x y z
#
# Youngs Moduli (GPa) = 54.53499 57.33299 81.18941
#
# Poissons Ratio (x) = 0.47038 0.13062
# Poissons Ratio (y) = 0.44742 0.07620
# Poissons Ratio (z) = 0.08774 0.05381
#
# Static dielectric constant tensor:
#      x y z
#    x 4.133020 0.000000 0.037850 
#    y 0.000000 4.402050 0.000000 
#    z 0.037850 0.000000 4.481730 
# 
# 
# High freq. dielectric constant tensor:
#      x y z
#    x 1.954030 0.000000 -0.003700 
#    y 0.000000 1.962010 0.000000 
#    z -0.003700 0.000000 1.985770 
# 
# From -- ./inp_files/68647.got.cif
#   From: 2010.06.25/outbox.cif.g09.slc.cpg/sg15_35_cif.got.tgz:68647.got - 2010.06.28 07:06:18.
