data_PCOD8142609
_publ_section_title
;
Structure prediction by ZEFSAII (Michael W. Deem and Ramdas Pophale) SiO2 
 PCOD8142609
Probable space group: C 2/C
;
_chemical_formula_sum "Si O2"
_cell_formula_units_Z 56
_cell_length_a 15.568787
_cell_length_b 12.676851
_cell_length_c 13.793010
_cell_angle_alpha 90.000000
_cell_angle_beta 62.099304
_cell_angle_gamma 90.000000
_cell_volume 2405.800043
_symmetry_space_group_name_H-M "C 2/C"
_symmetry_group_IT_number 15
_symmetry_cell_setting 'monoclinic'
loop_
_space_group_symop_operation_xyz
x,y,z
-x,y,1/2-z
-x,-y,-z
x,-y,1/2+z
1/2+x,1/2+y,z
1/2-x,1/2+y,1/2-z
1/2-x,1/2-y,-z
1/2+x,1/2-y,1/2+z
loop_
_atom_site_type_symbol
_atom_site_label
_atom_site_fract_x
_atom_site_fract_y
_atom_site_fract_z
Si Si1 0.849374 0.924244 0.166810
Si Si2 0.700458 0.996159 0.884796
Si Si3 0.036281 0.179713 0.625841
Si Si4 0.075367 0.307565 0.420991
Si Si5 0.073808 0.804003 0.629529
Si Si6 0.232380 0.774607 0.696650
Si Si7 0.324984 0.508152 0.987988
O O1 0.799472 0.949739 0.294769
O O2 0.812211 0.814011 0.144721
O O3 0.963524 0.909465 0.122599
O O4 0.817770 0.017819 0.108656
O O5 0.606239 0.067380 0.906048
O O6 0.701010 0.880286 0.836441
O O7 0.720644 0.987945 0.990353
O O8 0.053418 0.276772 0.543610
O O9 0.000000 0.222950 0.750000
O O10 0.136685 0.116417 0.579464
O O11 0.163099 0.238243 0.328108
O O12 0.976921 0.287147 0.410471
O O13 0.169136 0.759613 0.632524
O O14 0.100657 0.909233 0.557803
O O15 0.000000 0.843735 0.750000
#
# Coordination Sequence:
#
# PCOD8142609 Si02
#       7
#     8   8   8   8   8   8   8
#     4  11  22  39  62  94 122 161 204 259 314 364
#     4  10  22  40  60  94 124 163 207 255 308 375
#     4  12  23  38  61  91 126 159 204 256 314 372
#     4  10  21  39  62  93 128 163 200 260 319 362
#     4   9  18  33  60  90 119 155 205 255 303 358
#     4   9  21  40  65  91 125 159 209 259 307 371
#     4  11  21  35  64  90 119 154 208 258 310 359
#
# _framework density 23.277080000000002
#
# number of rings (size 3 to 8) (size 9 to 14) (size 15 to 20)
#    0.000    1.714    2.857    1.714    4.000    2.857 
#    2.571    0.714    0.000    0.857    0.000    0.000 
#    0.000    0.000    0.000    0.000    0.000    0.000 
#
# Total GULP energy -346905.569918 kJ/mol
# GULP energy per Si atom -12389.484640 kJ/mol
# Density = 2.322410 g / cm^3
# Si number density = 23.277080 Si / 1000 Ang^3
#
#
#
# Elastic Constant Matrix: (Units=GPa)
#
#
# Indices 1 2 3 4 5 6 
#
# 1 59.0382 31.2517 18.2435 0.0000 14.2798 0.0000
# 2 31.2517 92.4922 24.5540 0.0000 0.1581 0.0000
# 3 18.2435 24.5540 102.9603 0.0000 23.8610 0.0000
# 4 0.0000 0.0000 0.0000 21.8645 0.0000 -6.0454
# 5 14.2798 0.1581 23.8610 0.0000 26.0113 0.0000
# 6 0.0000 0.0000 0.0000 -6.0454 0.0000 31.9068
#
#
#
# Elastic Compliance Matrix: (Units=1/GPa)
#
#
# Indices 1 2 3 4 5 6 
#
# 1 0.024648 -0.008574 0.001017 0.000000 -0.014413 0.000000
# 2 -0.008574 0.014727 -0.003890 0.000000 0.008186 0.000000
# 3 0.001017 -0.003890 0.013441 0.000000 -0.012865 0.000000
# 4 0.000000 0.000000 0.000000 0.048265 0.000000 0.009145
# 5 -0.014413 0.008186 -0.012865 0.000000 0.058109 0.000000
# 6 0.000000 0.000000 0.000000 0.009145 0.000000 0.033074
#
#
# Mechanical properties :
#
#
# Convention : Reuss Voigt Hill
#
# Bulk Modulus (GPa) = 33.41769 44.73213 39.07491
# Shear Modulus (GPa) = 22.20913 27.98596 25.09754
#
# Velocity S-wave (km/s) = 3.09223 3.47118 3.28717
# Velocity P-wave (km/s) = 5.20931 5.94343 5.58844
#
# Compressibility (1/GPa) = 0.02992427
#
# Stress axis : x y z
#
# Youngs Moduli (GPa) = 40.57061 67.90066 74.39692
#
# Poissons Ratio (x) = 0.58217 -0.07569
# Poissons Ratio (y) = 0.34784 0.28941
# Poissons Ratio (z) = -0.04128 0.26414
#
# Static dielectric constant tensor:
#      x y z
#    x 4.126330 0.000000 0.178970 
#    y 0.000000 3.934260 0.000000 
#    z 0.178970 0.000000 4.354000 
# 
# 
# High freq. dielectric constant tensor:
#      x y z
#    x 1.908090 0.000000 0.013920 
#    y 0.000000 1.896280 0.000000 
#    z 0.013920 0.000000 1.926770 
# 
# From -- ./inp_files/161257.got.cif
#   From: 2010.06.25/outbox.cif.g09.slc.cpg/sg15_81_cif.got.tgz:161257.got - 2010.06.28 07:06:18.
