data_PCOD8142646
_publ_section_title
;
Structure prediction by ZEFSAII (Michael W. Deem and Ramdas Pophale) SiO2 
 PCOD8142646
Probable space group: C 2/C
;
_chemical_formula_sum "Si O2"
_cell_formula_units_Z 48
_cell_length_a 17.788958
_cell_length_b 15.414237
_cell_length_c 16.684914
_cell_angle_alpha 90.000000
_cell_angle_beta 28.673898
_cell_angle_gamma 90.000000
_cell_volume 2195.221489
_symmetry_space_group_name_H-M "C 2/C"
_symmetry_group_IT_number 15
_symmetry_cell_setting 'monoclinic'
loop_
_space_group_symop_operation_xyz
x,y,z
-x,y,1/2-z
-x,-y,-z
x,-y,1/2+z
1/2+x,1/2+y,z
1/2-x,1/2+y,1/2-z
1/2-x,1/2-y,-z
1/2+x,1/2-y,1/2+z
loop_
_atom_site_type_symbol
_atom_site_label
_atom_site_fract_x
_atom_site_fract_y
_atom_site_fract_z
Si Si1 0.042455 0.518713 0.122155
Si Si2 0.974325 0.323857 0.364905
Si Si3 0.673467 0.323039 0.741222
Si Si4 0.543865 0.329500 0.116259
Si Si5 0.147237 0.328168 0.760542
Si Si6 0.908298 0.993284 0.754422
O O1 0.000000 0.552243 0.250000
O O2 0.968780 0.423164 0.176271
O O3 0.961725 0.586287 0.137233
O O4 0.228391 0.517454 0.939061
O O5 0.065871 0.262045 0.340825
O O6 0.000000 0.292786 0.250000
O O7 0.791598 0.316573 0.555903
O O8 0.759681 0.328831 0.744280
O O9 0.572964 0.410948 0.821996
O O10 0.500000 0.316755 0.250000
O O11 0.462952 0.255653 0.139064
O O12 0.485772 0.423240 0.139591
O O13 0.730960 0.325551 0.927762
O O14 0.000000 0.971051 0.750000
#
# Coordination Sequence:
#
# PCOD8142646 Si02
#       6
#     8   8   8   8   8   8
#     4  10  21  39  63  89 119 158 203 246 294 355
#     4  10  22  40  63  87 118 164 205 243 290 354
#     4  11  24  39  61  92 126 157 195 250 302 353
#     4  11  23  40  62  86 118 161 204 244 291 359
#     4  12  24  39  62  92 124 157 195 249 307 354
#     4  10  22  40  62  88 119 158 204 248 292 353
#
# _framework density 21.865675
#
# number of rings (size 3 to 8) (size 9 to 14) (size 15 to 20)
#    0.000    1.333    0.000    6.000    0.000    8.667 
#    0.000    0.000    0.000    0.000    0.000    0.000 
#    0.000    0.000    0.000    0.000    0.000    0.000 
#
# Total GULP energy -297685.001951 kJ/mol
# GULP energy per Si atom -12403.541748 kJ/mol
# Density = 2.181591 g / cm^3
# Si number density = 21.865675 Si / 1000 Ang^3
#
#
#
# Elastic Constant Matrix: (Units=GPa)
#
#
# Indices 1 2 3 4 5 6 
#
# 1 106.8282 67.5679 8.8514 0.0028 -23.3349 0.0009
# 2 67.5679 165.5230 14.7509 0.0079 -28.4802 -0.0022
# 3 8.8514 14.7509 75.1869 0.0080 -12.6816 -0.0030
# 4 0.0028 0.0079 0.0080 24.1897 -0.0037 -9.9142
# 5 -23.3349 -28.4802 -12.6816 -0.0037 32.8780 0.0011
# 6 0.0009 -0.0022 -0.0030 -9.9142 0.0011 21.3897
#
#
#
# Elastic Compliance Matrix: (Units=1/GPa)
#
#
# Indices 1 2 3 4 5 6 
#
# 1 0.013456 -0.004531 0.000271 0.000000 0.005730 -0.000001
# 2 -0.004531 0.008636 -0.000472 -0.000001 0.004082 0.000000
# 3 0.000271 -0.000472 0.014252 -0.000004 0.005281 0.000000
# 4 0.000000 -0.000001 -0.000004 0.051035 0.000002 0.023655
# 5 0.005730 0.004082 0.005281 0.000002 0.040055 0.000000
# 6 -0.000001 0.000000 0.000000 0.023655 0.000000 0.057716
#
#
# Mechanical properties :
#
#
# Convention : Reuss Voigt Hill
#
# Bulk Modulus (GPa) = 37.20377 58.87537 48.03957
# Shear Modulus (GPa) = 24.56132 32.78269 28.67201
#
# Velocity S-wave (km/s) = 3.35518 3.87625 3.62509
# Velocity P-wave (km/s) = 5.66226 6.85698 6.28806
#
# Compressibility (1/GPa) = 0.02687899
#
# Stress axis : x y z
#
# Youngs Moduli (GPa) = 74.31744 115.79995 70.16776
#
# Poissons Ratio (x) = 0.52470 -0.01904
# Poissons Ratio (y) = 0.33674 0.03313
# Poissons Ratio (z) = -0.02016 0.05468
#
# Static dielectric constant tensor:
#      x y z
#    x 3.632520 0.000000 -0.094780 
#    y 0.000000 4.305410 0.000010 
#    z -0.094780 0.000010 4.072940 
# 
# 
# High freq. dielectric constant tensor:
#      x y z
#    x 1.845460 0.000000 -0.007230 
#    y 0.000000 1.879480 0.000000 
#    z -0.007230 0.000000 1.860910 
# 
# From -- ./inp_files/211304.got.cif
#   From: 2010.06.25/outbox.cif.g09.slc.cpg/sg15_106_cif.got.tgz:211304.got - 2010.06.28 07:06:18.
