data_PCOD8142028
_publ_section_title
;
Structure prediction by ZEFSAII (Michael W. Deem and Ramdas Pophale) SiO2 
 PCOD8142028
Probable space group: C 2/C
;
_chemical_formula_sum "Si O2"
_cell_formula_units_Z 48
_cell_length_a 12.665630
_cell_length_b 12.653628
_cell_length_c 16.480629
_cell_angle_alpha 90.000000
_cell_angle_beta 112.268712
_cell_angle_gamma 90.000000
_cell_volume 2444.291619
_symmetry_space_group_name_H-M "C 2/C"
_symmetry_group_IT_number 15
_symmetry_cell_setting 'monoclinic'
loop_
_space_group_symop_operation_xyz
x,y,z
-x,y,1/2-z
-x,-y,-z
x,-y,1/2+z
1/2+x,1/2+y,z
1/2-x,1/2+y,1/2-z
1/2-x,1/2-y,-z
1/2+x,1/2-y,1/2+z
loop_
_atom_site_type_symbol
_atom_site_label
_atom_site_fract_x
_atom_site_fract_y
_atom_site_fract_z
Si Si1 0.073977 0.206556 0.411932
Si Si2 0.500000 0.448778 0.750000
Si Si3 0.253696 0.621794 0.913715
Si Si4 0.323119 0.108998 0.079446
Si Si5 0.844591 0.715052 0.919003
Si Si6 0.334715 0.373313 0.256505
Si Si7 0.000000 0.701754 0.250000
O O1 0.043040 0.120286 0.336736
O O2 0.160355 0.287952 0.396557
O O3 0.130109 0.149782 0.505668
O O4 0.962268 0.268292 0.407249
O O5 0.605217 0.518371 0.750558
O O6 0.205199 0.513581 0.935411
O O7 0.278409 0.609634 0.826581
O O8 0.209872 0.172386 0.072773
O O9 0.423562 0.125916 0.173106
O O10 0.368392 0.146902 0.005837
O O11 0.761312 0.648771 0.837726
O O12 0.423971 0.276466 0.285988
#
# Coordination Sequence:
#
# PCOD8142028 Si02
#       7
#     8   4   8   8   8   8   4
#     4  11  24  40  58  85 121 155 191 238 288 342
#     4  11  22  39  64  88 114 151 194 237 286 344
#     4  11  24  39  57  84 118 156 195 235 286 343
#     4  10  21  38  61  87 114 152 197 239 287 343
#     4  10  21  39  62  87 117 150 193 243 289 342
#     4  10  21  38  61  87 115 149 191 239 290 344
#     4   9  20  37  58  86 116 147 188 241 294 342
#
# _framework density 19.637592999999999
#
# number of rings (size 3 to 8) (size 9 to 14) (size 15 to 20)
#    0.000    1.667    0.000    4.000    0.000    9.333 
#    0.000    0.000    0.000    0.000    0.000    0.000 
#    0.000    0.000    0.000    0.000    0.000    0.000 
#
# Total GULP energy -297759.810588 kJ/mol
# GULP energy per Si atom -12406.658775 kJ/mol
# Density = 1.959290 g / cm^3
# Si number density = 19.637593 Si / 1000 Ang^3
#
#
#
# Elastic Constant Matrix: (Units=GPa)
#
#
# Indices 1 2 3 4 5 6 
#
# 1 94.3047 39.7760 36.1356 0.0000 -0.2216 0.0000
# 2 39.7760 114.3760 52.6300 0.0000 6.6650 0.0000
# 3 36.1356 52.6300 87.2257 0.0000 -6.9121 0.0000
# 4 0.0000 0.0000 0.0000 1053.0784 0.0000 419.7140
# 5 -0.2216 6.6650 -6.9121 0.0000 34.9919 0.0000
# 6 0.0000 0.0000 0.0000 419.7140 0.0000 192.2923
#
#
#
# Elastic Compliance Matrix: (Units=1/GPa)
#
#
# Indices 1 2 3 4 5 6 
#
# 1 0.013259 -0.002869 -0.003771 0.000000 -0.000114 0.000000
# 2 -0.002869 0.013245 -0.007116 0.000000 -0.003947 0.000000
# 3 -0.003771 -0.007116 0.017703 0.000000 0.004828 0.000000
# 4 0.000000 0.000000 0.000000 0.007301 0.000000 -0.015935
# 5 -0.000114 -0.003947 0.004828 0.000000 0.030283 0.000000
# 6 0.000000 0.000000 0.000000 -0.015935 0.000000 0.039982
#
#
# Mechanical properties :
#
#
# Convention : Reuss Voigt Hill
#
# Bulk Modulus (GPa) = 59.89760 61.44329 60.67045
# Shear Modulus (GPa) = 32.28959 267.23017 149.75988
#
# Velocity S-wave (km/s) = 4.05936 11.67803 8.74228
# Velocity P-wave (km/s) = 7.24838 14.60108 11.52672
#
# Compressibility (1/GPa) = 0.01669516
#
# Stress axis : x y z
#
# Youngs Moduli (GPa) = 75.42241 75.49838 56.48804
#
# Poissons Ratio (x) = 0.21662 0.21299
# Poissons Ratio (y) = 0.21640 0.40197
# Poissons Ratio (z) = 0.28439 0.53725
#
# Static dielectric constant tensor:
#      x y z
#    x 3.637950 0.000000 0.075400 
#    y 0.000000 3.588660 0.000000 
#    z 0.075400 0.000000 3.700380 
# 
# 
# High freq. dielectric constant tensor:
#      x y z
#    x 1.772010 0.000000 0.002070 
#    y 0.000000 1.769820 0.000000 
#    z 0.002070 0.000000 1.781880 
# 
# From -- ./inp_files/151899.got.cif
#   From: 2010.06.25/outbox.cif.g09.slc.cpg/sg15_76_cif.got.tgz:151899.got - 2010.06.28 07:06:18.
