data_PCOD8142433
_publ_section_title
;
Structure prediction by ZEFSAII (Michael W. Deem and Ramdas Pophale) SiO2 
 PCOD8142433
Probable space group: C 2/C
;
_chemical_formula_sum "Si O2"
_cell_formula_units_Z 60
_cell_length_a 15.216435
_cell_length_b 16.955196
_cell_length_c 11.690787
_cell_angle_alpha 90.000000
_cell_angle_beta 79.620478
_cell_angle_gamma 90.000000
_cell_volume 2966.838189
_symmetry_space_group_name_H-M "C 2/C"
_symmetry_group_IT_number 15
_symmetry_cell_setting 'monoclinic'
loop_
_space_group_symop_operation_xyz
x,y,z
-x,y,1/2-z
-x,-y,-z
x,-y,1/2+z
1/2+x,1/2+y,z
1/2-x,1/2+y,1/2-z
1/2-x,1/2-y,-z
1/2+x,1/2-y,1/2+z
loop_
_atom_site_type_symbol
_atom_site_label
_atom_site_fract_x
_atom_site_fract_y
_atom_site_fract_z
Si Si1 0.261697 0.929740 0.425770
Si Si2 0.095664 0.716441 0.178029
Si Si3 0.391244 0.186815 0.576466
Si Si4 0.897346 0.495833 0.057855
Si Si5 0.500000 0.744253 0.250000
Si Si6 0.290461 0.929893 0.777271
Si Si7 0.261269 0.706794 0.729789
Si Si8 0.324887 0.656516 0.362314
O O1 0.273169 0.876984 0.309269
O O2 0.181409 0.885735 0.512281
O O3 0.348735 0.940945 0.485142
O O4 0.242846 0.017567 0.385935
O O5 0.165391 0.645579 0.175685
O O6 0.137820 0.789586 0.241950
O O7 0.000000 0.693871 0.250000
O O8 0.084802 0.733944 0.045636
O O9 0.371827 0.095630 0.550779
O O10 0.469418 0.199440 0.652605
O O11 0.302729 0.227306 0.648085
O O12 0.870463 0.523716 0.191810
O O13 0.000000 0.500000 0.000000
O O14 0.424029 0.686465 0.316009
O O15 0.205539 0.910106 0.719414
O O16 0.246298 0.771261 0.632345
#
# Coordination Sequence:
#
# PCOD8142433 Si02
#       8
#     8   8   8   8   4   8   8   8
#     4  11  21  38  63  87 126 166 209 258 315 383
#     4  11  23  40  62  93 128 163 211 266 312 366
#     4  11  22  39  60  92 123 170 204 261 310 378
#     4  11  23  34  58  91 130 161 202 252 317 380
#     4  10  24  42  66  90 128 162 224 254 316 372
#     4  10  21  39  58  90 124 164 201 253 320 378
#     4  10  22  40  63  86 127 167 216 248 319 384
#     4   9  22  40  61  89 122 168 205 264 309 375
#
# _framework density 20.223548999999998
#
# number of rings (size 3 to 8) (size 9 to 14) (size 15 to 20)
#    0.000    1.600    2.667    1.600    5.600    0.000 
#    0.000    0.667    1.467    0.000    0.000    0.000 
#    0.000    0.000    0.000    0.000    0.000    0.000 
#
# Total GULP energy -371718.426300 kJ/mol
# GULP energy per Si atom -12390.614210 kJ/mol
# Density = 2.017752 g / cm^3
# Si number density = 20.223549 Si / 1000 Ang^3
#
#
#
# Elastic Constant Matrix: (Units=GPa)
#
#
# Indices 1 2 3 4 5 6 
#
# 1 82.9845 36.6902 38.2286 0.0000 6.8100 0.0000
# 2 36.6902 73.7882 29.6500 0.0000 -0.9834 0.0000
# 3 38.2286 29.6500 105.4155 0.0000 9.4960 0.0000
# 4 0.0000 0.0000 0.0000 37.9760 0.0000 3.1728
# 5 6.8100 -0.9834 9.4960 0.0000 24.9082 0.0000
# 6 0.0000 0.0000 0.0000 3.1728 0.0000 28.9449
#
#
#
# Elastic Compliance Matrix: (Units=1/GPa)
#
#
# Indices 1 2 3 4 5 6 
#
# 1 0.017280 -0.007043 -0.003971 0.000000 -0.003489 0.000000
# 2 -0.007043 0.018280 -0.002927 0.000000 0.003763 0.000000
# 3 -0.003971 -0.002927 0.012077 0.000000 -0.003634 0.000000
# 4 0.000000 0.000000 0.000000 0.026576 0.000000 -0.002913
# 5 -0.003489 0.003763 -0.003634 0.000000 0.042635 0.000000
# 6 0.000000 0.000000 0.000000 -0.002913 0.000000 0.034868
#
#
# Mechanical properties :
#
#
# Convention : Reuss Voigt Hill
#
# Bulk Modulus (GPa) = 50.61828 52.36952 51.49390
# Shear Modulus (GPa) = 26.85524 28.87378 27.86451
#
# Velocity S-wave (km/s) = 3.64802 3.78263 3.71593
# Velocity P-wave (km/s) = 6.54429 6.71039 6.62786
#
# Compressibility (1/GPa) = 0.01975571
#
# Stress axis : x y z
#
# Youngs Moduli (GPa) = 57.86981 54.70322 82.80219
#
# Poissons Ratio (x) = 0.38528 0.32884
# Poissons Ratio (y) = 0.40758 0.24233
# Poissons Ratio (z) = 0.22982 0.16009
#
# Static dielectric constant tensor:
#      x y z
#    x 3.480460 0.000000 0.167320 
#    y 0.000000 3.748920 0.000000 
#    z 0.167320 0.000000 3.992510 
# 
# 
# High freq. dielectric constant tensor:
#      x y z
#    x 1.763640 0.000000 0.009600 
#    y 0.000000 1.781290 0.000000 
#    z 0.009600 0.000000 1.806170 
# 
# From -- ./inp_files/98296.got.cif
#   From: 2010.06.25/outbox.cif.g09.slc.cpg/sg15_50_cif.got.tgz:98296.got - 2010.06.28 07:06:18.
