data_PCOD8142079
_publ_section_title
;
Structure prediction by ZEFSAII (Michael W. Deem and Ramdas Pophale) SiO2 
 PCOD8142079
Probable space group: C 2/C
;
_chemical_formula_sum "Si O2"
_cell_formula_units_Z 64
_cell_length_a 8.938076
_cell_length_b 29.929236
_cell_length_c 14.124203
_cell_angle_alpha 90.000000
_cell_angle_beta 57.612740
_cell_angle_gamma 90.000000
_cell_volume 3190.627079
_symmetry_space_group_name_H-M "C 2/C"
_symmetry_group_IT_number 15
_symmetry_cell_setting 'monoclinic'
loop_
_space_group_symop_operation_xyz
x,y,z
-x,y,1/2-z
-x,-y,-z
x,-y,1/2+z
1/2+x,1/2+y,z
1/2-x,1/2+y,1/2-z
1/2-x,1/2-y,-z
1/2+x,1/2-y,1/2+z
loop_
_atom_site_type_symbol
_atom_site_label
_atom_site_fract_x
_atom_site_fract_y
_atom_site_fract_z
Si Si1 0.008151 0.948775 0.965590
Si Si2 0.901019 0.905602 0.186411
Si Si3 0.693965 0.313951 0.229619
Si Si4 0.856435 0.435317 0.727480
Si Si5 0.921695 0.686270 0.962202
Si Si6 0.672086 0.912097 0.972185
Si Si7 0.311274 0.746592 0.337454
Si Si8 0.083825 0.464087 0.318832
O O1 0.177298 0.939884 0.845391
O O2 0.841681 0.937319 0.956375
O O3 0.019575 0.916479 0.054004
O O4 0.000000 0.000000 0.000000
O O5 0.795583 0.858753 0.207777
O O6 0.786239 0.949547 0.244254
O O7 0.000000 0.896632 0.250000
O O8 0.500000 0.309539 0.250000
O O9 0.719097 0.268947 0.279360
O O10 0.863143 0.316053 0.099856
O O11 0.824679 0.406985 0.643029
O O12 0.931957 0.482912 0.667473
O O13 0.000000 0.412771 0.750000
O O14 0.858392 0.713649 0.893063
O O15 0.842127 0.636885 0.979052
O O16 0.832090 0.710293 0.082035
O O17 0.504121 0.941630 0.060017
O O18 0.500000 0.722554 0.250000
O O19 0.000000 0.445976 0.250000
#
# Coordination Sequence:
#
# PCOD8142079 Si02
#       8
#     8   8   8   8   8   8   8   8
#     4  12  24  40  58  87 120 161 210 257 310 368
#     4  11  23  36  64  90 120 154 205 259 304 370
#     4  10  21  38  61  96 123 155 201 255 324 375
#     4  11  26  41  56  86 125 167 208 258 312 366
#     4  10  21  39  64  91 119 163 205 256 311 371
#     4  12  24  40  66  86 125 166 212 257 311 376
#     4   9  20  38  63  90 124 155 203 258 306 379
#     4  11  21  40  60  89 113 156 209 255 307 352
#
# _framework density 20.058751000000001
#
# number of rings (size 3 to 8) (size 9 to 14) (size 15 to 20)
#    0.000    1.250    3.750    2.250    3.500    1.500 
#    0.000    1.875    0.000    0.000    0.000    0.000 
#    0.000    0.000    0.000    0.000    0.000    0.000 
#
# Total GULP energy -396647.916332 kJ/mol
# GULP energy per Si atom -12395.247385 kJ/mol
# Density = 2.001310 g / cm^3
# Si number density = 20.058751 Si / 1000 Ang^3
#
#
#
# Elastic Constant Matrix: (Units=GPa)
#
#
# Indices 1 2 3 4 5 6 
#
# 1 96.1888 30.9173 39.8485 0.0000 -5.7892 0.0000
# 2 30.9173 75.5309 41.9787 0.0000 -14.8177 0.0000
# 3 39.8485 41.9787 145.0256 0.0000 -8.2696 0.0000
# 4 0.0000 0.0000 0.0000 34.2806 0.0000 -5.2149
# 5 -5.7892 -14.8177 -8.2696 0.0000 32.7583 0.0000
# 6 0.0000 0.0000 0.0000 -5.2149 0.0000 18.6928
#
#
#
# Elastic Compliance Matrix: (Units=1/GPa)
#
#
# Indices 1 2 3 4 5 6 
#
# 1 0.012609 -0.003879 -0.002348 0.000000 -0.000119 0.000000
# 2 -0.003879 0.018259 -0.003843 0.000000 0.006603 0.000000
# 3 -0.002348 -0.003843 0.008655 0.000000 0.000032 0.000000
# 4 0.000000 0.000000 0.000000 0.030464 0.000000 0.008499
# 5 -0.000119 0.006603 0.000032 0.000000 0.033500 0.000000
# 6 0.000000 0.000000 0.000000 0.008499 0.000000 0.055867
#
#
# Mechanical properties :
#
#
# Convention : Reuss Voigt Hill
#
# Bulk Modulus (GPa) = 51.59602 60.24823 55.92212
# Shear Modulus (GPa) = 26.88816 30.74640 28.81728
#
# Velocity S-wave (km/s) = 3.66522 3.91937 3.79442
# Velocity P-wave (km/s) = 6.60984 7.11217 6.86560
#
# Compressibility (1/GPa) = 0.01938134
#
# Stress axis : x y z
#
# Youngs Moduli (GPa) = 79.30931 54.76834 115.54441
#
# Poissons Ratio (x) = 0.21247 0.27134
# Poissons Ratio (y) = 0.30768 0.44399
# Poissons Ratio (z) = 0.18625 0.21045
#
# Static dielectric constant tensor:
#      x y z
#    x 3.533240 0.000000 -0.112600 
#    y 0.000000 3.606340 0.000000 
#    z -0.112600 0.000000 3.933880 
# 
# 
# High freq. dielectric constant tensor:
#      x y z
#    x 1.776760 0.000000 -0.008440 
#    y 0.000000 1.774030 0.000000 
#    z -0.008440 0.000000 1.794140 
# 
# From -- ./inp_files/139814.got.cif
#   From: 2010.06.25/outbox.cif.g09.slc.cpg/sg15_70_cif.got.tgz:139814.got - 2010.06.28 07:06:18.
