data_PCOD8142360
_publ_section_title
;
Structure prediction by ZEFSAII (Michael W. Deem and Ramdas Pophale) SiO2 
 PCOD8142360
Probable space group: C 2/C
;
_chemical_formula_sum "Si O2"
_cell_formula_units_Z 44
_cell_length_a 10.698751
_cell_length_b 26.436625
_cell_length_c 8.931383
_cell_angle_alpha 90.000000
_cell_angle_beta 123.106968
_cell_angle_gamma 90.000000
_cell_volume 2116.028864
_symmetry_space_group_name_H-M "C 2/C"
_symmetry_group_IT_number 15
_symmetry_cell_setting 'monoclinic'
loop_
_space_group_symop_operation_xyz
x,y,z
-x,y,1/2-z
-x,-y,-z
x,-y,1/2+z
1/2+x,1/2+y,z
1/2-x,1/2+y,1/2-z
1/2-x,1/2-y,-z
1/2+x,1/2-y,1/2+z
loop_
_atom_site_type_symbol
_atom_site_label
_atom_site_fract_x
_atom_site_fract_y
_atom_site_fract_z
Si Si1 0.965801 0.853167 0.563017
Si Si2 0.158024 0.212095 0.768507
Si Si3 0.266459 0.178692 0.137637
Si Si4 0.154401 0.524564 0.547223
Si Si5 0.639973 0.534959 0.543877
Si Si6 0.000000 0.395078 0.750000
O O1 0.847949 0.819481 0.390556
O O2 0.915126 0.910812 0.546931
O O3 0.000000 0.830351 0.750000
O O4 0.116952 0.851771 0.570115
O O5 0.219673 0.267884 0.767357
O O6 0.000000 0.217805 0.750000
O O7 0.274167 0.186899 0.961725
O O8 0.397435 0.142025 0.282173
O O9 0.248555 0.544216 0.747293
O O10 0.262741 0.487433 0.527452
O O11 0.113391 0.572368 0.421213
O O12 0.000000 0.500000 0.500000
O O13 0.500000 0.500000 0.500000
#
# Coordination Sequence:
#
# PCOD8142360 Si02
#       6
#     8   8   8   8   8   4
#     4  11  24  39  64  94 133 170 217 264 338 401
#     4   9  19  41  64  93 126 166 223 276 316 385
#     4  10  21  38  67  95 122 170 224 271 319 386
#     4  12  25  44  66  97 136 169 222 279 335 396
#     4  12  25  45  67  96 132 178 223 273 331 406
#     4  12  22  38  70  94 128 170 218 274 336 382
#
# _framework density 20.793669000000001
#
# number of rings (size 3 to 8) (size 9 to 14) (size 15 to 20)
#    0.000    1.091    2.727    3.818    2.545    3.636 
#    0.000    0.000    0.000    0.000    0.000    0.000 
#    0.000    0.000    0.000    0.000    0.000    0.000 
#
# Total GULP energy -272704.432668 kJ/mol
# GULP energy per Si atom -12395.656030 kJ/mol
# Density = 2.074634 g / cm^3
# Si number density = 20.793669 Si / 1000 Ang^3
#
#
#
# Elastic Constant Matrix: (Units=GPa)
#
#
# Indices 1 2 3 4 5 6 
#
# 1 98.1580 48.1248 10.7475 0.0000 4.9306 0.0000
# 2 48.1248 133.4456 42.5727 0.0000 0.3559 0.0000
# 3 10.7475 42.5727 113.0546 0.0000 -3.6855 0.0000
# 4 0.0000 0.0000 0.0000 23.6304 0.0000 10.3438
# 5 4.9306 0.3559 -3.6855 0.0000 32.9646 0.0000
# 6 0.0000 0.0000 0.0000 10.3438 0.0000 32.7583
#
#
#
# Elastic Compliance Matrix: (Units=1/GPa)
#
#
# Indices 1 2 3 4 5 6 
#
# 1 0.012510 -0.004670 0.000512 0.000000 -0.001763 0.000000
# 2 -0.004670 0.010267 -0.003416 0.000000 0.000206 0.000000
# 3 0.000512 -0.003416 0.010118 0.000000 0.001092 0.000000
# 4 0.000000 0.000000 0.000000 0.049106 0.000000 -0.015506
# 5 -0.001763 0.000206 0.001092 0.000000 0.030719 0.000000
# 6 0.000000 0.000000 0.000000 -0.015506 0.000000 0.035423
#
#
# Mechanical properties :
#
#
# Convention : Reuss Voigt Hill
#
# Bulk Modulus (GPa) = 56.34527 60.83870 58.59199
# Shear Modulus (GPa) = 29.54979 34.08489 31.81734
#
# Velocity S-wave (km/s) = 3.77383 4.05309 3.91595
# Velocity P-wave (km/s) = 6.79303 7.15718 6.97748
#
# Compressibility (1/GPa) = 0.01774772
#
# Stress axis : x y z
#
# Youngs Moduli (GPa) = 79.93718 97.39981 98.82991
#
# Poissons Ratio (x) = 0.45486 -0.05059
# Poissons Ratio (y) = 0.37331 0.33756
# Poissons Ratio (z) = -0.04092 0.33267
#
# Static dielectric constant tensor:
#      x y z
#    x 3.631170 0.000000 0.177840 
#    y 0.000000 3.963480 0.000000 
#    z 0.177840 0.000000 4.207470 
# 
# 
# High freq. dielectric constant tensor:
#      x y z
#    x 1.799670 0.000000 0.022110 
#    y 0.000000 1.823400 0.000000 
#    z 0.022110 0.000000 1.824830 
# 
# From -- ./inp_files/32742.got.cif
#   From: 2010.06.25/outbox.cif.g09.slc.cpg/sg15_17_cif.got.tgz:32742.got - 2010.06.28 07:06:18.
