data_PCOD8142116
_publ_section_title
;
Structure prediction by ZEFSAII (Michael W. Deem and Ramdas Pophale) SiO2 
 PCOD8142116
Probable space group: C 2/C
;
_chemical_formula_sum "Si O2"
_cell_formula_units_Z 52
_cell_length_a 14.559669
_cell_length_b 22.733945
_cell_length_c 9.163322
_cell_angle_alpha 90.000000
_cell_angle_beta 120.394846
_cell_angle_gamma 90.000000
_cell_volume 2616.183241
_symmetry_space_group_name_H-M "C 2/C"
_symmetry_group_IT_number 15
_symmetry_cell_setting 'monoclinic'
loop_
_space_group_symop_operation_xyz
x,y,z
-x,y,1/2-z
-x,-y,-z
x,-y,1/2+z
1/2+x,1/2+y,z
1/2-x,1/2+y,1/2-z
1/2-x,1/2-y,-z
1/2+x,1/2-y,1/2+z
loop_
_atom_site_type_symbol
_atom_site_label
_atom_site_fract_x
_atom_site_fract_y
_atom_site_fract_z
Si Si1 0.381915 0.331712 0.183278
Si Si2 0.327094 0.663004 0.315471
Si Si3 0.219771 0.569220 0.614602
Si Si4 0.000000 0.206198 0.250000
Si Si5 0.620553 0.771077 0.584764
Si Si6 0.711225 0.047018 0.272243
Si Si7 0.494009 0.885177 0.916421
O O1 0.500000 0.357263 0.250000
O O2 0.311300 0.381915 0.203840
O O3 0.386324 0.274787 0.288267
O O4 0.332926 0.314213 0.987032
O O5 0.439285 0.667347 0.322223
O O6 0.238865 0.703121 0.166372
O O7 0.296674 0.594635 0.287014
O O8 0.209719 0.543606 0.444971
O O9 0.248050 0.516031 0.744494
O O10 0.107129 0.596585 0.574766
O O11 0.089614 0.243745 0.404666
O O12 0.535660 0.822492 0.541536
O O13 0.594482 0.065199 0.117795
O O14 0.500000 0.875872 0.750000
#
# Coordination Sequence:
#
# PCOD8142116 Si02
#       7
#     8   8   8   4   8   8   8
#     4  11  22  40  63  88 118 160 216 245 291 368
#     4  10  23  42  60  88 121 163 202 252 303 361
#     4  10  21  38  62  90 117 157 201 250 301 359
#     4  12  24  38  58  90 130 156 200 248 314 368
#     4  11  23  39  63  89 126 156 203 253 306 362
#     4   9  20  40  60  87 120 151 203 249 305 357
#     4   9  19  37  62  89 117 156 199 250 302 362
#
# _framework density 19.876283999999998
#
# number of rings (size 3 to 8) (size 9 to 14) (size 15 to 20)
#    0.000    1.846    1.538    2.769    2.154    1.231 
#    6.923    1.538    0.000    0.000    0.000    0.000 
#    0.000    0.000    0.000    0.000    0.000    0.000 
#
# Total GULP energy -322456.957134 kJ/mol
# GULP energy per Si atom -12402.190659 kJ/mol
# Density = 1.983105 g / cm^3
# Si number density = 19.876284 Si / 1000 Ang^3
#
#
#
# Elastic Constant Matrix: (Units=GPa)
#
#
# Indices 1 2 3 4 5 6 
#
# 1 91.0520 49.0002 19.1392 0.0000 3.4609 0.0000
# 2 49.0002 100.3517 30.9247 0.0000 -1.8169 0.0000
# 3 19.1392 30.9247 65.9152 0.0000 7.7075 0.0000
# 4 0.0000 0.0000 0.0000 26.4087 0.0000 -7.4253
# 5 3.4609 -1.8169 7.7075 0.0000 29.3188 0.0000
# 6 0.0000 0.0000 0.0000 -7.4253 0.0000 25.6509
#
#
#
# Elastic Compliance Matrix: (Units=1/GPa)
#
#
# Indices 1 2 3 4 5 6 
#
# 1 0.015075 -0.007156 -0.000784 0.000000 -0.002017 0.000000
# 2 -0.007156 0.015189 -0.005424 0.000000 0.003212 0.000000
# 3 -0.000784 -0.005424 0.018542 0.000000 -0.005118 0.000000
# 4 0.000000 0.000000 0.000000 0.041221 0.000000 0.011933
# 5 -0.002017 0.003212 -0.005118 0.000000 0.035890 0.000000
# 6 0.000000 0.000000 0.000000 0.011933 0.000000 0.042439
#
#
# Mechanical properties :
#
#
# Convention : Reuss Voigt Hill
#
# Bulk Modulus (GPa) = 45.29373 50.60526 47.94949
# Shear Modulus (GPa) = 24.69832 26.82600 25.76216
#
# Velocity S-wave (km/s) = 3.52888 3.67774 3.60408
# Velocity P-wave (km/s) = 6.28023 6.59923 6.44170
#
# Compressibility (1/GPa) = 0.02207811
#
# Stress axis : x y z
#
# Youngs Moduli (GPa) = 66.33414 65.83903 53.93254
#
# Poissons Ratio (x) = 0.47113 0.04229
# Poissons Ratio (y) = 0.47468 0.29251
# Poissons Ratio (z) = 0.05202 0.35709
#
# Static dielectric constant tensor:
#      x y z
#    x 3.743960 0.000000 0.191360 
#    y 0.000000 3.458390 0.000000 
#    z 0.191360 0.000000 3.553910 
# 
# 
# High freq. dielectric constant tensor:
#      x y z
#    x 1.781820 0.000000 0.006220 
#    y 0.000000 1.768010 0.000000 
#    z 0.006220 0.000000 1.769100 
# 
# From -- ./inp_files/42312.got.cif
#   From: 2010.06.25/outbox.cif.g09.slc.cpg/sg15_22_cif.got.tgz:42312.got - 2010.06.28 07:06:18.
