data_PCOD8142254
_publ_section_title
;
Structure prediction by ZEFSAII (Michael W. Deem and Ramdas Pophale) SiO2 
 PCOD8142254
Probable space group: C 2/C
;
_chemical_formula_sum "Si O2"
_cell_formula_units_Z 48
_cell_length_a 14.924792
_cell_length_b 16.889076
_cell_length_c 15.881823
_cell_angle_alpha 90.000000
_cell_angle_beta 143.626779
_cell_angle_gamma 90.000000
_cell_volume 2374.107835
_symmetry_space_group_name_H-M "C 2/C"
_symmetry_group_IT_number 15
_symmetry_cell_setting 'monoclinic'
loop_
_space_group_symop_operation_xyz
x,y,z
-x,y,1/2-z
-x,-y,-z
x,-y,1/2+z
1/2+x,1/2+y,z
1/2-x,1/2+y,1/2-z
1/2-x,1/2-y,-z
1/2+x,1/2-y,1/2+z
loop_
_atom_site_type_symbol
_atom_site_label
_atom_site_fract_x
_atom_site_fract_y
_atom_site_fract_z
Si Si1 0.623400 0.342317 0.773295
Si Si2 0.153931 0.631554 0.409105
Si Si3 0.170522 0.991345 0.904082
Si Si4 0.579638 0.432629 0.006114
Si Si5 0.814786 0.789102 0.329334
Si Si6 0.351227 0.259815 0.957673
O O1 0.500000 0.315524 0.750000
O O2 0.721314 0.415114 0.887307
O O3 0.545304 0.374462 0.629715
O O4 0.729506 0.268912 0.830105
O O5 0.216986 0.565014 0.521273
O O6 0.277526 0.656554 0.431572
O O7 0.117035 0.708075 0.436103
O O8 0.000000 0.600957 0.250000
O O9 0.000000 0.015785 0.750000
O O10 0.179781 0.972597 0.009974
O O11 0.500000 0.500000 0.000000
O O12 0.697515 0.380557 0.150529
O O13 0.759387 0.783001 0.191914
O O14 0.991534 0.771048 0.469680
#
# Coordination Sequence:
#
# PCOD8142254 Si02
#       6
#     8   8   8   8   8   8
#     4   9  22  42  63  94 127 166 216 261 312 381
#     4  11  23  42  59  91 134 159 209 263 325 381
#     4   9  22  40  63  89 121 174 209 252 318 382
#     4  10  21  38  64  93 124 166 213 258 315 378
#     4  12  22  43  65  93 127 162 219 263 313 381
#     4  11  25  37  64  95 119 169 207 268 321 378
#
# _framework density 20.218122000000001
#
# number of rings (size 3 to 8) (size 9 to 14) (size 15 to 20)
#    0.000    2.000    3.333    1.000    7.000    2.667 
#    3.000    0.833    0.000    0.000    0.000    0.000 
#    0.000    0.000    0.000    0.000    0.000    0.000 
#
# Total GULP energy -297518.124195 kJ/mol
# GULP energy per Si atom -12396.588508 kJ/mol
# Density = 2.017210 g / cm^3
# Si number density = 20.218122 Si / 1000 Ang^3
#
#
#
# Elastic Constant Matrix: (Units=GPa)
#
#
# Indices 1 2 3 4 5 6 
#
# 1 87.8622 38.5755 27.0437 -0.0030 2.2345 -0.0015
# 2 38.5755 92.3717 38.2130 -0.0054 6.2779 -0.0032
# 3 27.0437 38.2130 87.0711 -0.0056 -5.5212 -0.0036
# 4 -0.0030 -0.0054 -0.0056 41.3869 -0.0020 0.7074
# 5 2.2345 6.2779 -5.5212 -0.0020 34.2870 -0.0007
# 6 -0.0015 -0.0032 -0.0036 0.7074 -0.0007 27.2990
#
#
#
# Elastic Compliance Matrix: (Units=1/GPa)
#
#
# Indices 1 2 3 4 5 6 
#
# 1 0.014285 -0.005002 -0.002265 0.000000 -0.000380 0.000000
# 2 -0.005002 0.015381 -0.005410 0.000001 -0.003361 0.000001
# 3 -0.002265 -0.005410 0.014786 0.000001 0.003519 0.000001
# 4 0.000000 0.000001 0.000001 0.024173 0.000001 -0.000626
# 5 -0.000380 -0.003361 0.003519 0.000001 0.030372 0.000001
# 6 0.000000 0.000001 0.000001 -0.000626 0.000001 0.036648
#
#
# Mechanical properties :
#
#
# Convention : Reuss Voigt Hill
#
# Bulk Modulus (GPa) = 52.36560 52.77438 52.56999
# Shear Modulus (GPa) = 29.87467 31.49277 30.68372
#
# Velocity S-wave (km/s) = 3.84815 3.95099 3.89991
# Velocity P-wave (km/s) = 6.76024 6.85368 6.80712
#
# Compressibility (1/GPa) = 0.01909651
#
# Stress axis : x y z
#
# Youngs Moduli (GPa) = 70.00496 65.01378 67.63220
#
# Poissons Ratio (x) = 0.32523 0.15321
# Poissons Ratio (y) = 0.35020 0.36588
# Poissons Ratio (z) = 0.15859 0.35171
#
# Static dielectric constant tensor:
#      x y z
#    x 3.600460 0.000000 -0.187740 
#    y 0.000000 3.651000 0.000000 
#    z -0.187740 0.000000 3.591060 
# 
# 
# High freq. dielectric constant tensor:
#      x y z
#    x 1.781480 0.000000 -0.021230 
#    y 0.000000 1.789060 0.000000 
#    z -0.021230 0.000000 1.786590 
# 
# From -- ./inp_files/155269.got.cif
#   From: 2010.06.25/outbox.cif.g09.slc.cpg/sg15_78_cif.got.tgz:155269.got - 2010.06.28 07:06:18.
