data_PCOD8142349
_publ_section_title
;
Structure prediction by ZEFSAII (Michael W. Deem and Ramdas Pophale) SiO2 
 PCOD8142349
Probable space group: C 2/C
;
_chemical_formula_sum "Si O2"
_cell_formula_units_Z 60
_cell_length_a 24.248513
_cell_length_b 11.444020
_cell_length_c 15.656540
_cell_angle_alpha 90.000000
_cell_angle_beta 42.218793
_cell_angle_gamma 90.000000
_cell_volume 2919.478079
_symmetry_space_group_name_H-M "C 2/C"
_symmetry_group_IT_number 15
_symmetry_cell_setting 'monoclinic'
loop_
_space_group_symop_operation_xyz
x,y,z
-x,y,1/2-z
-x,-y,-z
x,-y,1/2+z
1/2+x,1/2+y,z
1/2-x,1/2+y,1/2-z
1/2-x,1/2-y,-z
1/2+x,1/2-y,1/2+z
loop_
_atom_site_type_symbol
_atom_site_label
_atom_site_fract_x
_atom_site_fract_y
_atom_site_fract_z
Si Si1 0.748734 0.933665 0.968626
Si Si2 0.688482 0.705013 0.952923
Si Si3 0.180755 0.733537 0.840840
Si Si4 0.817065 0.681415 0.474386
Si Si5 0.500000 0.152932 0.250000
Si Si6 0.117314 0.945313 0.825839
Si Si7 0.011713 0.613434 0.042344
Si Si8 0.950033 0.826527 0.013862
O O1 0.695062 0.824278 0.998876
O O2 0.822249 0.963377 0.821446
O O3 0.687374 0.043982 0.044302
O O4 0.790827 0.905609 0.011086
O O5 0.750948 0.695926 0.803759
O O6 0.596840 0.701948 0.020315
O O7 0.214825 0.709818 0.894946
O O8 0.159085 0.870623 0.854033
O O9 0.103300 0.651057 0.916119
O O10 0.750000 0.750000 0.500000
O O11 0.912741 0.724377 0.351597
O O12 0.499030 0.085419 0.158900
O O13 0.095829 0.072302 0.882860
O O14 0.039266 0.871189 0.882701
O O15 0.951607 0.715651 0.076506
O O16 0.000000 0.500000 0.000000
#
# Coordination Sequence:
#
# PCOD8142349 Si02
#       8
#     8   8   8   8   4   8   8   8
#     4  10  23  41  59  94 130 163 218 265 319 391
#     4  10  22  39  63  90 124 171 212 266 323 389
#     4   9  21  41  61  91 126 160 213 265 316 393
#     4  11  25  43  66  96 128 172 211 267 331 380
#     4  10  26  44  62 100 134 164 220 272 312 398
#     4   9  20  41  61  92 126 160 218 268 316 391
#     4  10  23  42  65  94 127 170 210 268 334 388
#     4  10  21  38  67  90 120 173 212 263 331 383
#
# _framework density 20.551617
#
# number of rings (size 3 to 8) (size 9 to 14) (size 15 to 20)
#    0.000    2.133    0.000    0.800   11.200    0.533 
#    0.000    0.000    0.000    0.000    0.000    0.000 
#    0.000    0.000    0.000    0.000    0.000    0.000 
#
# Total GULP energy -371806.171486 kJ/mol
# GULP energy per Si atom -12393.539050 kJ/mol
# Density = 2.050484 g / cm^3
# Si number density = 20.551617 Si / 1000 Ang^3
#
#
#
# Elastic Constant Matrix: (Units=GPa)
#
#
# Indices 1 2 3 4 5 6 
#
# 1 152.5388 52.2873 31.5748 0.0000 13.1187 0.0000
# 2 52.2873 112.1790 31.8821 -0.0001 7.2923 0.0000
# 3 31.5748 31.8821 42.1327 0.0000 -2.0399 0.0000
# 4 0.0000 -0.0001 0.0000 18.0918 0.0000 2.0647
# 5 13.1187 7.2923 -2.0399 0.0000 33.8018 0.0000
# 6 0.0000 0.0000 0.0000 2.0647 0.0000 26.5896
#
#
#
# Elastic Compliance Matrix: (Units=1/GPa)
#
#
# Indices 1 2 3 4 5 6 
#
# 1 0.008660 -0.002480 -0.004764 0.000000 -0.003113 0.000000
# 2 -0.002480 0.012374 -0.007610 0.000000 -0.002166 0.000000
# 3 -0.004764 -0.007610 0.033329 0.000000 0.005502 0.000000
# 4 0.000000 0.000000 0.000000 0.055768 0.000000 -0.004330
# 5 -0.003113 -0.002166 0.005502 0.000000 0.031592 0.000000
# 6 0.000000 0.000000 0.000000 -0.004330 0.000000 0.037945
#
#
# Mechanical properties :
#
#
# Convention : Reuss Voigt Hill
#
# Bulk Modulus (GPa) = 40.55841 59.81543 50.18692
# Shear Modulus (GPa) = 22.97873 28.43707 25.70790
#
# Velocity S-wave (km/s) = 3.34743 3.72383 3.54064
# Velocity P-wave (km/s) = 5.89221 6.90344 6.41777
#
# Compressibility (1/GPa) = 0.02465580
#
# Stress axis : x y z
#
# Youngs Moduli (GPa) = 115.47831 80.81574 30.00380
#
# Poissons Ratio (x) = 0.20043 0.14293
# Poissons Ratio (y) = 0.28639 0.22832
# Poissons Ratio (z) = 0.55010 0.61498
#
# Static dielectric constant tensor:
#      x y z
#    x 3.823020 0.000000 -0.571850 
#    y 0.000000 3.751040 0.000000 
#    z -0.571850 0.000000 2.643230 
# 
# 
# High freq. dielectric constant tensor:
#      x y z
#    x 1.818870 0.000000 -0.001940 
#    y 0.000000 1.792770 0.000000 
#    z -0.001940 0.000000 1.803920 
# 
# From -- ./inp_files/173144.got.cif
#   From: 2010.06.25/outbox.cif.g09.slc.cpg/sg15_87_cif.got.tgz:173144.got - 2010.06.28 07:06:18.
