data_PCOD8142286
_publ_section_title
;
Structure prediction by ZEFSAII (Michael W. Deem and Ramdas Pophale) SiO2 
 PCOD8142286
Probable space group: C 2/C
;
_chemical_formula_sum "Si O2"
_cell_formula_units_Z 56
_cell_length_a 17.784972
_cell_length_b 7.852639
_cell_length_c 22.302415
_cell_angle_alpha 90.000000
_cell_angle_beta 114.125741
_cell_angle_gamma 90.000000
_cell_volume 2842.662316
_symmetry_space_group_name_H-M "C 2/C"
_symmetry_group_IT_number 15
_symmetry_cell_setting 'monoclinic'
loop_
_space_group_symop_operation_xyz
x,y,z
-x,y,1/2-z
-x,-y,-z
x,-y,1/2+z
1/2+x,1/2+y,z
1/2-x,1/2+y,1/2-z
1/2-x,1/2-y,-z
1/2+x,1/2-y,1/2+z
loop_
_atom_site_type_symbol
_atom_site_label
_atom_site_fract_x
_atom_site_fract_y
_atom_site_fract_z
Si Si1 0.253146 0.993190 0.481878
Si Si2 0.696023 0.874386 0.275148
Si Si3 0.963584 0.905475 0.428912
Si Si4 0.364377 0.494673 0.783948
Si Si5 0.380530 0.764145 0.580608
Si Si6 0.908282 0.317563 0.723899
Si Si7 0.295668 0.696552 0.921349
O O1 0.338350 0.896484 0.521788
O O2 0.180661 0.889708 0.428804
O O3 0.275358 0.118964 0.437064
O O4 0.210442 0.063845 0.527213
O O5 0.647845 0.701490 0.240522
O O6 0.776220 0.912890 0.261742
O O7 0.725716 0.855313 0.352379
O O8 0.639491 0.043291 0.251053
O O9 0.921167 0.022524 0.362871
O O10 0.888205 0.789971 0.426504
O O11 0.032051 0.789194 0.419317
O O12 0.000000 0.000000 0.500000
O O13 0.406363 0.622948 0.749371
O O14 0.381795 0.839075 0.646917
O O15 0.000000 0.382707 0.750000
#
# Coordination Sequence:
#
# PCOD8142286 Si02
#       7
#     8   8   8   8   8   8   8
#     4  10  21  38  65  91 119 172 205 258 319 372
#     4  11  23  44  66  97 125 173 221 262 322 396
#     4  11  23  43  63  93 130 166 209 270 324 382
#     4  11  24  43  72  93 131 173 215 271 326 384
#     4  11  22  41  64  91 128 166 210 261 323 378
#     4  12  24  43  64  97 135 166 214 272 321 384
#     4  10  21  40  63  89 128 160 213 264 305 383
#
# _framework density 19.699843999999999
#
# number of rings (size 3 to 8) (size 9 to 14) (size 15 to 20)
#    0.000    1.143    5.714    0.857    0.000    1.143 
#    7.714    0.000    0.000    0.000    0.000    0.000 
#    0.000    0.000    0.000    0.000    0.000    0.000 
#
# Total GULP energy -346872.213812 kJ/mol
# GULP energy per Si atom -12388.293350 kJ/mol
# Density = 1.965501 g / cm^3
# Si number density = 19.699844 Si / 1000 Ang^3
#
#
#
# Elastic Constant Matrix: (Units=GPa)
#
#
# Indices 1 2 3 4 5 6 
#
# 1 129.4947 48.4948 29.3510 0.0000 11.7011 0.0000
# 2 48.4948 105.0073 6.0222 0.0000 7.7464 0.0000
# 3 29.3510 6.0222 66.1478 0.0000 10.3105 0.0000
# 4 0.0000 0.0000 0.0000 34.5846 0.0000 -0.4191
# 5 11.7011 7.7464 10.3105 0.0000 30.9184 0.0000
# 6 0.0000 0.0000 0.0000 -0.4191 0.0000 39.3969
#
#
#
# Elastic Compliance Matrix: (Units=1/GPa)
#
#
# Indices 1 2 3 4 5 6 
#
# 1 0.010441 -0.004483 -0.003991 0.000000 -0.001497 0.000000
# 2 -0.004483 0.011645 0.001181 0.000000 -0.001615 0.000000
# 3 -0.003991 0.001181 0.017502 0.000000 -0.004622 0.000000
# 4 0.000000 0.000000 0.000000 0.028918 0.000000 0.000308
# 5 -0.001497 -0.001615 -0.004622 0.000000 0.034856 0.000000
# 6 0.000000 0.000000 0.000000 0.000308 0.000000 0.025386
#
#
# Mechanical properties :
#
#
# Convention : Reuss Voigt Hill
#
# Bulk Modulus (GPa) = 39.99917 52.04286 46.02101
# Shear Modulus (GPa) = 32.96688 35.43210 34.19949
#
# Velocity S-wave (km/s) = 4.09523 4.24559 4.17109
# Velocity P-wave (km/s) = 6.53526 7.10694 6.82709
#
# Compressibility (1/GPa) = 0.02500052
#
# Stress axis : x y z
#
# Youngs Moduli (GPa) = 95.77666 85.87602 57.13772
#
# Poissons Ratio (x) = 0.38494 0.22806
# Poissons Ratio (y) = 0.42932 -0.06745
# Poissons Ratio (z) = 0.38228 -0.10138
#
# Static dielectric constant tensor:
#      x y z
#    x 3.647510 0.000000 0.040150 
#    y 0.000000 3.532010 0.000000 
#    z 0.040150 0.000000 3.617420 
# 
# 
# High freq. dielectric constant tensor:
#      x y z
#    x 1.779220 0.000000 0.003260 
#    y 0.000000 1.759200 0.000000 
#    z 0.003260 0.000000 1.782550 
# 
# From -- ./inp_files/247594.got.cif
#   From: 2010.06.25/outbox.cif.g09.slc.cpg/sg15_124_cif.got.tgz:247594.got - 2010.06.28 07:06:18.
