data_PCOD8142404
_publ_section_title
;
Structure prediction by ZEFSAII (Michael W. Deem and Ramdas Pophale) SiO2 
 PCOD8142404
Probable space group: C 2/C
;
_chemical_formula_sum "Si O2"
_cell_formula_units_Z 56
_cell_length_a 27.593876
_cell_length_b 9.212038
_cell_length_c 10.950772
_cell_angle_alpha 90.000000
_cell_angle_beta 70.022765
_cell_angle_gamma 90.000000
_cell_volume 2616.144624
_symmetry_space_group_name_H-M "C 2/C"
_symmetry_group_IT_number 15
_symmetry_cell_setting 'monoclinic'
loop_
_space_group_symop_operation_xyz
x,y,z
-x,y,1/2-z
-x,-y,-z
x,-y,1/2+z
1/2+x,1/2+y,z
1/2-x,1/2+y,1/2-z
1/2-x,1/2-y,-z
1/2+x,1/2-y,1/2+z
loop_
_atom_site_type_symbol
_atom_site_label
_atom_site_fract_x
_atom_site_fract_y
_atom_site_fract_z
Si Si1 0.446928 0.138053 0.867405
Si Si2 0.247319 0.439688 0.626092
Si Si3 0.983678 0.837740 0.027249
Si Si4 0.289033 0.612604 0.824993
Si Si5 0.419720 0.838715 0.999085
Si Si6 0.864111 0.549925 0.759089
Si Si7 0.603373 0.734613 0.734700
O O1 0.500000 0.145201 0.750000
O O2 0.395059 0.144650 0.831675
O O3 0.447109 0.987159 0.938361
O O4 0.444544 0.279056 0.957069
O O5 0.274666 0.510083 0.721910
O O6 0.276119 0.456914 0.470028
O O7 0.238175 0.269972 0.663470
O O8 0.194492 0.528537 0.650658
O O9 0.952694 0.826089 0.180840
O O10 0.035523 0.745863 0.970468
O O11 0.000000 0.000000 0.000000
O O12 0.350685 0.629609 0.762704
O O13 0.395780 0.744049 0.911887
O O14 0.369698 0.865267 0.126839
O O15 0.891089 0.394898 0.714416
#
# Coordination Sequence:
#
# PCOD8142404 Si02
#       7
#     8   8   8   8   8   8   8
#     4  11  21  38  64  93 123 167 223 271 319 390
#     4  10  24  43  71 104 138 178 228 290 347 407
#     4  12  25  41  60  93 140 171 213 267 334 414
#     4  10  24  46  70 100 141 179 232 284 344 411
#     4  11  21  40  67  93 125 170 226 276 323 387
#     4  10  21  38  71  98 122 166 229 280 321 390
#     4  10  23  42  67  95 129 178 219 274 339 400
#
# _framework density 21.405543999999999
#
# number of rings (size 3 to 8) (size 9 to 14) (size 15 to 20)
#    0.000    1.429    2.857    2.571    8.000    2.857 
#    0.000    0.000    0.000    0.000    0.000    0.000 
#    0.000    0.000    0.000    0.000    0.000    0.000 
#
# Total GULP energy -347079.090455 kJ/mol
# GULP energy per Si atom -12395.681802 kJ/mol
# Density = 2.135682 g / cm^3
# Si number density = 21.405544 Si / 1000 Ang^3
#
#
#
# Elastic Constant Matrix: (Units=GPa)
#
#
# Indices 1 2 3 4 5 6 
#
# 1 95.6068 39.1329 42.2829 0.0000 12.1169 0.0000
# 2 39.1329 78.2038 53.3910 0.0000 18.3430 0.0000
# 3 42.2829 53.3910 113.0462 0.0000 12.8809 0.0000
# 4 0.0000 0.0000 0.0000 27.4620 0.0000 4.5191
# 5 12.1169 18.3430 12.8809 0.0000 37.0204 0.0000
# 6 0.0000 0.0000 0.0000 4.5191 0.0000 37.7711
#
#
#
# Elastic Compliance Matrix: (Units=1/GPa)
#
#
# Indices 1 2 3 4 5 6 
#
# 1 0.013772 -0.004702 -0.002793 0.000000 -0.001206 0.000000
# 2 -0.004702 0.022114 -0.007927 0.000000 -0.006660 0.000000
# 3 -0.002793 -0.007927 0.013623 0.000000 0.000102 0.000000
# 4 0.000000 0.000000 0.000000 0.037145 0.000000 -0.004444
# 5 -0.001206 -0.006660 0.000102 0.000000 0.030671 0.000000
# 6 0.000000 0.000000 0.000000 -0.004444 0.000000 0.027007
#
#
# Mechanical properties :
#
#
# Convention : Reuss Voigt Hill
#
# Bulk Modulus (GPa) = 53.57489 61.83007 57.70248
# Shear Modulus (GPa) = 27.56382 30.58737 29.07559
#
# Velocity S-wave (km/s) = 3.59234 3.78424 3.68954
# Velocity P-wave (km/s) = 6.50303 6.93122 6.72053
#
# Compressibility (1/GPa) = 0.01866546
#
# Stress axis : x y z
#
# Youngs Moduli (GPa) = 72.61038 45.22102 73.40617
#
# Poissons Ratio (x) = 0.21261 0.20504
# Poissons Ratio (y) = 0.34139 0.58187
# Poissons Ratio (z) = 0.20282 0.35845
#
# Static dielectric constant tensor:
#      x y z
#    x 4.042720 0.000000 0.110650 
#    y 0.000000 3.777830 0.000000 
#    z 0.110650 0.000000 4.173410 
# 
# 
# High freq. dielectric constant tensor:
#      x y z
#    x 1.840430 0.000000 0.003010 
#    y 0.000000 1.820150 0.000000 
#    z 0.003010 0.000000 1.851380 
# 
# From -- ./inp_files/125836.got.cif
#   From: 2010.06.25/outbox.cif.g09.slc.cpg/sg15_63_cif.got.tgz:125836.got - 2010.06.28 07:06:18.
