data_PCOD8142013
_publ_section_title
;
Structure prediction by ZEFSAII (Michael W. Deem and Ramdas Pophale) SiO2 
 PCOD8142013
Probable space group: C 2/C
;
_chemical_formula_sum "Si O2"
_cell_formula_units_Z 56
_cell_length_a 11.574604
_cell_length_b 26.260151
_cell_length_c 10.311203
_cell_angle_alpha 90.000000
_cell_angle_beta 51.341339
_cell_angle_gamma 90.000000
_cell_volume 2447.359282
_symmetry_space_group_name_H-M "C 2/C"
_symmetry_group_IT_number 15
_symmetry_cell_setting 'monoclinic'
loop_
_space_group_symop_operation_xyz
x,y,z
-x,y,1/2-z
-x,-y,-z
x,-y,1/2+z
1/2+x,1/2+y,z
1/2-x,1/2+y,1/2-z
1/2-x,1/2-y,-z
1/2+x,1/2-y,1/2+z
loop_
_atom_site_type_symbol
_atom_site_label
_atom_site_fract_x
_atom_site_fract_y
_atom_site_fract_z
Si Si1 0.756204 0.401662 0.947473
Si Si2 0.093890 0.998874 0.562252
Si Si3 0.130393 0.196987 0.399469
Si Si4 0.477183 0.103153 0.077811
Si Si5 0.930929 0.715454 0.070638
Si Si6 0.210801 0.592089 0.534099
Si Si7 0.500000 0.170981 0.750000
Si Si8 0.000000 0.146762 0.250000
O O1 0.683179 0.346969 0.962510
O O2 0.850297 0.406333 0.014923
O O3 0.863297 0.422220 0.758480
O O4 0.629840 0.442440 0.060515
O O5 0.000000 0.978153 0.750000
O O6 0.238243 0.961966 0.441164
O O7 0.000000 0.000000 0.500000
O O8 0.038671 0.239431 0.544820
O O9 0.013008 0.177533 0.374559
O O10 0.261341 0.226285 0.230039
O O11 0.426403 0.085162 0.971128
O O12 0.468358 0.163170 0.114702
O O13 0.953861 0.707363 0.900209
O O14 0.142811 0.633686 0.682875
O O15 0.350539 0.614053 0.358888
#
# Coordination Sequence:
#
# PCOD8142013 Si02
#       8
#     8   8   8   8   8   8   4   4
#     4  10  21  42  66  89 128 175 222 279 339 404
#     4  12  26  44  69 104 141 180 232 285 347 420
#     4  11  23  39  64  94 130 180 221 284 340 414
#     4   9  20  43  65  87 128 170 221 281 335 409
#     4  10  22  39  58  98 129 171 228 274 342 407
#     4  11  22  40  67  96 131 176 219 282 352 406
#     4  10  21  38  60  98 136 164 222 289 328 422
#     4  12  19  38  64  88 130 174 210 279 360 398
#
# _framework density 22.881805
#
# number of rings (size 3 to 8) (size 9 to 14) (size 15 to 20)
#    0.000    1.429    5.000    2.143    2.000    5.714 
#    2.571    0.000    0.000    0.857    0.000    0.000 
#    0.000    0.000    0.000    0.000    0.000    0.000 
#
# Total GULP energy -346877.747365 kJ/mol
# GULP energy per Si atom -12388.490977 kJ/mol
# Density = 2.282973 g / cm^3
# Si number density = 22.881805 Si / 1000 Ang^3
#
#
#
# Elastic Constant Matrix: (Units=GPa)
#
#
# Indices 1 2 3 4 5 6 
#
# 1 165.1170 48.2924 24.3169 0.0000 -0.5515 0.0000
# 2 48.2924 105.3749 20.2350 0.0000 -19.5334 0.0000
# 3 24.3169 20.2350 42.2549 0.0000 -13.7344 0.0000
# 4 0.0000 0.0000 0.0000 29.6953 0.0000 -6.5206
# 5 -0.5515 -19.5334 -13.7344 0.0000 28.8363 0.0000
# 6 0.0000 0.0000 0.0000 -6.5206 0.0000 29.4360
#
#
#
# Elastic Compliance Matrix: (Units=1/GPa)
#
#
# Indices 1 2 3 4 5 6 
#
# 1 0.007670 -0.003503 -0.004094 0.000000 -0.004176 0.000000
# 2 -0.003503 0.012862 -0.001577 0.000000 0.007894 0.000000
# 3 -0.004094 -0.001577 0.031241 0.000000 0.013733 0.000000
# 4 0.000000 0.000000 0.000000 0.035397 0.000000 0.007841
# 5 -0.004176 0.007894 0.013733 0.000000 0.046487 0.000000
# 6 0.000000 0.000000 0.000000 0.007841 0.000000 0.035709
#
#
# Mechanical properties :
#
#
# Convention : Reuss Voigt Hill
#
# Bulk Modulus (GPa) = 29.91863 55.38173 42.65018
# Shear Modulus (GPa) = 25.14405 32.25367 28.69886
#
# Velocity S-wave (km/s) = 3.31851 3.75851 3.54534
# Velocity P-wave (km/s) = 5.27134 6.56438 5.95307
#
# Compressibility (1/GPa) = 0.03342400
#
# Stress axis : x y z
#
# Youngs Moduli (GPa) = 130.38199 77.75125 32.00951
#
# Poissons Ratio (x) = 0.27236 0.13104
# Poissons Ratio (y) = 0.45673 0.05049
# Poissons Ratio (z) = 0.53374 0.12264
#
# Static dielectric constant tensor:
#      x y z
#    x 4.173780 0.000000 -0.214110 
#    y 0.000000 4.101640 0.000000 
#    z -0.214110 0.000000 3.998400 
# 
# 
# High freq. dielectric constant tensor:
#      x y z
#    x 1.902820 0.000000 -0.014650 
#    y 0.000000 1.895610 0.000000 
#    z -0.014650 0.000000 1.889670 
# 
# From -- ./inp_files/91745.got.cif
#   From: 2010.06.25/outbox.cif.g09.slc.cpg/sg15_46_cif.got.tgz:91745.got - 2010.06.28 07:06:18.
