data_PCOD8142480
_publ_section_title
;
Structure prediction by ZEFSAII (Michael W. Deem and Ramdas Pophale) SiO2 
 PCOD8142480
Probable space group: C 2/C
;
_chemical_formula_sum "Si O2"
_cell_formula_units_Z 48
_cell_length_a 5.020541
_cell_length_b 19.709328
_cell_length_c 27.195834
_cell_angle_alpha 90.000000
_cell_angle_beta 52.434722
_cell_angle_gamma 90.000000
_cell_volume 2133.100173
_symmetry_space_group_name_H-M "C 2/C"
_symmetry_group_IT_number 15
_symmetry_cell_setting 'monoclinic'
loop_
_space_group_symop_operation_xyz
x,y,z
-x,y,1/2-z
-x,-y,-z
x,-y,1/2+z
1/2+x,1/2+y,z
1/2-x,1/2+y,1/2-z
1/2-x,1/2-y,-z
1/2+x,1/2-y,1/2+z
loop_
_atom_site_type_symbol
_atom_site_label
_atom_site_fract_x
_atom_site_fract_y
_atom_site_fract_z
Si Si1 0.238798 0.283505 0.320266
Si Si2 0.476441 0.355726 0.622221
Si Si3 0.169848 0.464186 0.100844
Si Si4 0.748631 0.059057 0.488683
Si Si5 0.286113 0.921748 0.678195
Si Si6 0.741447 0.627478 0.820127
O O1 0.500000 0.255815 0.250000
O O2 0.128503 0.223168 0.368870
O O3 0.398212 0.346528 0.333139
O O4 0.912275 0.309348 0.328448
O O5 0.730625 0.374781 0.548787
O O6 0.689027 0.368388 0.647329
O O7 0.141120 0.401201 0.662271
O O8 0.380823 0.527630 0.056215
O O9 0.338967 0.428645 0.129217
O O10 0.815133 0.499962 0.155028
O O11 0.147396 0.415158 0.055309
O O12 0.500000 0.000000 0.500000
O O13 0.000000 0.920824 0.750000
O O14 0.000000 0.598171 0.750000
#
# Coordination Sequence:
#
# PCOD8142480 Si02
#       6
#     8   8   8   8   8   8
#     4  10  21  39  60  87 122 162 204 251 311 371
#     4  11  22  39  63  89 123 163 208 255 312 369
#     4  10  23  39  61  90 123 161 206 251 312 377
#     4  10  21  41  63  86 122 167 205 256 310 362
#     4  11  22  35  60  94 122 154 200 263 320 375
#     4  10  23  40  62  89 124 164 200 252 312 372
#
# _framework density 22.502459999999999
#
# number of rings (size 3 to 8) (size 9 to 14) (size 15 to 20)
#    0.000    1.667    1.667    2.500    2.333    6.000 
#    0.000    1.667    0.000    0.000    0.000    0.000 
#    0.000    0.000    0.000    0.000    0.000    0.000 
#
# Total GULP energy -297490.715299 kJ/mol
# GULP energy per Si atom -12395.446471 kJ/mol
# Density = 2.245124 g / cm^3
# Si number density = 22.502460 Si / 1000 Ang^3
#
#
#
# Elastic Constant Matrix: (Units=GPa)
#
#
# Indices 1 2 3 4 5 6 
#
# 1 68.4878 -5.4086 11.9440 0.0000 15.8653 0.0000
# 2 -5.4086 60.6426 32.6415 0.0000 15.5038 0.0000
# 3 11.9440 32.6415 85.7832 0.0000 40.5662 0.0000
# 4 0.0000 0.0000 0.0000 32.5940 0.0000 6.2280
# 5 15.8653 15.5038 40.5662 0.0000 33.7992 0.0000
# 6 0.0000 0.0000 0.0000 6.2280 0.0000 29.4197
#
#
#
# Elastic Compliance Matrix: (Units=1/GPa)
#
#
# Indices 1 2 3 4 5 6 
#
# 1 0.017359 0.003600 0.001959 0.000000 -0.012151 0.000000
# 2 0.003600 0.021484 -0.007439 0.000000 -0.002616 0.000000
# 3 0.001959 -0.007439 0.030147 0.000000 -0.033690 0.000000
# 4 0.000000 0.000000 0.000000 0.031974 0.000000 -0.006769
# 5 -0.012151 -0.002616 -0.033690 0.000000 0.076926 0.000000
# 6 0.000000 0.000000 0.000000 -0.006769 0.000000 0.035424
#
#
# Mechanical properties :
#
#
# Convention : Reuss Voigt Hill
#
# Bulk Modulus (GPa) = 15.33024 32.58526 23.95775
# Shear Modulus (GPa) = 20.93668 30.87837 25.90752
#
# Velocity S-wave (km/s) = 3.05358 3.70837 3.39679
# Velocity P-wave (km/s) = 4.38862 5.73134 5.10432
#
# Compressibility (1/GPa) = 0.06523057
#
# Stress axis : x y z
#
# Youngs Moduli (GPa) = 57.60845 46.54602 33.17094
#
# Poissons Ratio (x) = -0.16757 -0.06500
# Poissons Ratio (y) = -0.20739 0.24676
# Poissons Ratio (z) = -0.11288 0.34625
#
# Static dielectric constant tensor:
#      x y z
#    x 4.067680 0.000000 0.153110 
#    y 0.000000 3.709050 0.000000 
#    z 0.153110 0.000000 4.666450 
# 
# 
# High freq. dielectric constant tensor:
#      x y z
#    x 1.892970 0.000000 0.008050 
#    y 0.000000 1.856630 0.000000 
#    z 0.008050 0.000000 1.894630 
# 
# From -- ./inp_files/227295.got.cif
#   From: 2010.06.25/outbox.cif.g09.slc.cpg/sg15_114_cif.got.tgz:227295.got - 2010.06.28 07:06:18.
