data_PCOD8142813
_publ_section_title
;
Structure prediction by ZEFSAII (Michael W. Deem and Ramdas Pophale) SiO2 
 PCOD8142813
Probable space group: C 2/C
;
_chemical_formula_sum "Si O2"
_cell_formula_units_Z 40
_cell_length_a 13.654209
_cell_length_b 25.447232
_cell_length_c 5.121580
_cell_angle_alpha 90.000000
_cell_angle_beta 108.926986
_cell_angle_gamma 90.000000
_cell_volume 1683.337858
_symmetry_space_group_name_H-M "C 2/C"
_symmetry_group_IT_number 15
_symmetry_cell_setting 'monoclinic'
loop_
_space_group_symop_operation_xyz
x,y,z
-x,y,1/2-z
-x,-y,-z
x,-y,1/2+z
1/2+x,1/2+y,z
1/2-x,1/2+y,1/2-z
1/2-x,1/2-y,-z
1/2+x,1/2-y,1/2+z
loop_
_atom_site_type_symbol
_atom_site_label
_atom_site_fract_x
_atom_site_fract_y
_atom_site_fract_z
Si Si1 0.500000 0.722856 0.750000
Si Si2 0.380595 0.031652 0.615317
Si Si3 0.171970 0.856662 0.579222
Si Si4 0.200371 0.358094 0.322411
Si Si5 0.115269 0.024509 0.082215
Si Si6 0.000000 0.709560 0.750000
O O1 0.406156 0.687185 0.579935
O O2 0.535352 0.756869 0.531384
O O3 0.500000 0.047777 0.750000
O O4 0.312553 0.082458 0.599924
O O5 0.354496 0.014211 0.298408
O O6 0.262685 0.858088 0.444157
O O7 0.113117 0.912709 0.553229
O O8 0.215301 0.836715 0.896263
O O9 0.095502 0.325654 0.242000
O O10 0.174485 0.004285 0.393216
O O11 0.000000 0.000000 0.000000
#
# Coordination Sequence:
#
# PCOD8142813 Si02
#       6
#     4   8   8   8   8   4
#     4  12  28  50  72 102 134 182 234 296 366 406
#     4  10  21  39  65  97 138 180 221 271 329 403
#     4  12  27  44  72 105 143 180 233 289 341 426
#     4  12  26  46  71 106 139 182 235 286 354 411
#     4  10  21  39  65  97 141 183 218 263 328 403
#     4  12  28  50  76  96 136 180 236 302 358 416
#
# _framework density 23.762312000000001
#
# number of rings (size 3 to 8) (size 9 to 14) (size 15 to 20)
#    0.000    0.800    1.000    6.000    0.000   12.800 
#    0.000    0.000    0.000    0.000    0.000    0.000 
#    0.000    0.000    0.000    0.000    0.000    0.000 
#
# Total GULP energy -248084.797128 kJ/mol
# GULP energy per Si atom -12404.239856 kJ/mol
# Density = 2.370823 g / cm^3
# Si number density = 23.762312 Si / 1000 Ang^3
#
#
#
# Elastic Constant Matrix: (Units=GPa)
#
#
# Indices 1 2 3 4 5 6 
#
# 1 78.1571 30.4161 14.9930 0.0000 -7.1841 0.0000
# 2 30.4161 98.2565 23.0906 0.0000 9.8683 0.0000
# 3 14.9930 23.0906 144.5332 0.0000 -9.9691 0.0000
# 4 0.0000 0.0000 0.0000 -353.0485 0.0000 -124.1187
# 5 -7.1841 9.8683 -9.9691 0.0000 42.3431 0.0000
# 6 0.0000 0.0000 0.0000 -124.1187 0.0000 -18.0598
#
#
#
# Elastic Compliance Matrix: (Units=1/GPa)
#
#
# Indices 1 2 3 4 5 6 
#
# 1 0.015143 -0.004922 -0.000537 0.000000 0.003590 0.000000
# 2 -0.004922 0.012539 -0.001781 0.000000 -0.004177 0.000000
# 3 -0.000537 -0.001781 0.007402 0.000000 0.002067 0.000000
# 4 0.000000 0.000000 0.000000 0.002000 0.000000 -0.013746
# 5 0.003590 -0.004177 0.002067 0.000000 0.025686 0.000000
# 6 0.000000 0.000000 0.000000 -0.013746 0.000000 0.039100
#
#
# Mechanical properties :
#
#
# Convention : Reuss Voigt Hill
#
# Bulk Modulus (GPa) = 48.53334 50.88293 49.70814
# Shear Modulus (GPa) = 40.57890 -48.92325 -4.17218
#
# Velocity S-wave (km/s) = 4.13692 -4.54239 -1.32650
# Velocity P-wave (km/s) = 6.57933 2.45993 4.31488
#
# Compressibility (1/GPa) = 0.02060439
#
# Stress axis : x y z
#
# Youngs Moduli (GPa) = 66.03612 79.75077 135.10690
#
# Poissons Ratio (x) = 0.39254 0.07254
# Poissons Ratio (y) = 0.32504 0.24059
# Poissons Ratio (z) = 0.03545 0.14201
#
# Static dielectric constant tensor:
#      x y z
#    x 4.638080 0.000000 -0.571860 
#    y 0.000000 4.228690 0.000000 
#    z -0.571860 0.000000 3.780640 
# 
# 
# High freq. dielectric constant tensor:
#      x y z
#    x 1.958200 0.000000 -0.001670 
#    y 0.000000 1.939450 0.000000 
#    z -0.001670 0.000000 1.971970 
# 
# From -- ./inp_files/10824.got.cif
#   From: 2010.06.25/outbox.cif.g09.slc.cpg/sg15_6_cif.got.tgz:10824.got - 2010.06.28 07:06:18.
