data_PCOD8142287
_publ_section_title
;
Structure prediction by ZEFSAII (Michael W. Deem and Ramdas Pophale) SiO2 
 PCOD8142287
Probable space group: C 2/C
;
_chemical_formula_sum "Si O2"
_cell_formula_units_Z 64
_cell_length_a 16.783709
_cell_length_b 11.842047
_cell_length_c 28.557323
_cell_angle_alpha 90.000000
_cell_angle_beta 147.843153
_cell_angle_gamma 90.000000
_cell_volume 3020.916700
_symmetry_space_group_name_H-M "C 2/C"
_symmetry_group_IT_number 15
_symmetry_cell_setting 'monoclinic'
loop_
_space_group_symop_operation_xyz
x,y,z
-x,y,1/2-z
-x,-y,-z
x,-y,1/2+z
1/2+x,1/2+y,z
1/2-x,1/2+y,1/2-z
1/2-x,1/2-y,-z
1/2+x,1/2-y,1/2+z
loop_
_atom_site_type_symbol
_atom_site_label
_atom_site_fract_x
_atom_site_fract_y
_atom_site_fract_z
Si Si1 0.173268 0.140364 0.908069
Si Si2 0.011003 0.718971 0.807639
Si Si3 0.016570 0.694713 0.400069
Si Si4 0.740216 0.592170 0.216785
Si Si5 0.309618 0.353326 0.351615
Si Si6 0.067732 0.914198 0.894319
Si Si7 0.753971 0.952753 0.422125
Si Si8 0.171434 0.677480 0.336058
O O1 0.071310 0.230259 0.884236
O O2 0.186166 0.193572 0.862237
O O3 0.091004 0.019940 0.870636
O O4 0.341609 0.124607 0.010857
O O5 0.118529 0.802223 0.891412
O O6 0.086236 0.594363 0.846499
O O7 0.000000 0.767992 0.750000
O O8 0.840114 0.710126 0.739195
O O9 0.894383 0.603387 0.322520
O O10 0.951479 0.777518 0.407750
O O11 0.696924 0.467075 0.180697
O O12 0.603795 0.622241 0.182702
O O13 0.753161 0.673054 0.177633
O O14 0.324735 0.381221 0.414333
O O15 0.148679 0.934771 0.983419
O O16 0.752451 0.086451 0.410653
O O17 0.000000 0.638162 0.250000
#
# Coordination Sequence:
#
# PCOD8142287 Si02
#       8
#     8   8   8   8   8   8   8   8
#     4  11  25  38  62  95 134 172 206 262 342 393
#     4  10  22  42  64  88 121 169 217 263 320 385
#     4  11  21  41  60  91 131 169 213 266 331 392
#     4  11  23  38  64  96 126 168 220 274 326 390
#     4  10  21  38  65  91 123 166 218 278 322 380
#     4  12  24  40  62  96 130 172 213 267 329 402
#     4  10  22  38  64  94 123 164 221 277 325 373
#     4  11  22  40  66  95 130 166 218 275 331 390
#
# _framework density 21.185621999999999
#
# number of rings (size 3 to 8) (size 9 to 14) (size 15 to 20)
#    0.000    1.250    3.750    3.750    3.500    1.500 
#    0.000    0.000    0.000    3.000    0.000    0.000 
#    0.000    0.000    0.000    0.000    0.000    0.000 
#
# Total GULP energy -396615.355588 kJ/mol
# GULP energy per Si atom -12394.229862 kJ/mol
# Density = 2.113740 g / cm^3
# Si number density = 21.185622 Si / 1000 Ang^3
#
#
#
# Elastic Constant Matrix: (Units=GPa)
#
#
# Indices 1 2 3 4 5 6 
#
# 1 74.8097 37.8625 17.0737 0.0002 9.9076 0.0001
# 2 37.8625 78.6562 20.1386 0.0006 -10.8711 0.0003
# 3 17.0737 20.1386 77.1060 0.0045 2.2691 0.0021
# 4 0.0002 0.0006 0.0045-3846.1175 0.0029-1724.5601
# 5 9.9076 -10.8711 2.2691 0.0029 34.8019 0.0013
# 6 0.0001 0.0003 0.0021-1724.5601 0.0013 -735.4472
#
#
#
# Elastic Compliance Matrix: (Units=1/GPa)
#
#
# Indices 1 2 3 4 5 6 
#
# 1 0.020269 -0.010630 -0.001447 0.000000 -0.008996 0.000000
# 2 -0.010630 0.019940 -0.003132 0.000000 0.009459 0.000000
# 3 -0.001447 -0.003132 0.014152 0.000000 -0.001489 0.000000
# 4 0.000000 0.000000 0.000000 0.005055 0.000000 -0.011853
# 5 -0.008996 0.009459 -0.001489 0.000000 0.034347 0.000000
# 6 0.000000 0.000000 0.000000 -0.011853 0.000000 0.026435
#
#
# Mechanical properties :
#
#
# Convention : Reuss Voigt Hill
#
# Bulk Modulus (GPa) = 41.76842 42.30241 42.03542
# Shear Modulus (GPa) = 31.52659 -898.98609 -433.72975
#
# Velocity S-wave (km/s) = 3.86179 -20.62181 -14.32385
# Velocity P-wave (km/s) = 6.29626 23.38806 15.92731
#
# Compressibility (1/GPa) = 0.02394153
#
# Stress axis : x y z
#
# Youngs Moduli (GPa) = 49.33691 50.15134 70.66347
#
# Poissons Ratio (x) = 0.53309 0.10226
# Poissons Ratio (y) = 0.52443 0.22135
# Poissons Ratio (z) = 0.07140 0.15710
#
# Static dielectric constant tensor:
#      x y z
#    x 4.250990 0.000000 0.368070 
#    y 0.000000 3.670530 0.000000 
#    z 0.368070 0.000000 4.056340 
# 
# 
# High freq. dielectric constant tensor:
#      x y z
#    x 1.833520 0.000000 0.006220 
#    y 0.000000 1.816370 0.000000 
#    z 0.006220 0.000000 1.829840 
# 
# From -- ./inp_files/316218.got.cif
#   From: 2010.06.25/outbox.cif.g09.slc.cpg/sg15_159_cif.got.tgz:316218.got - 2010.06.28 07:06:18.
