data_PCOD8142631
_publ_section_title
;
Structure prediction by ZEFSAII (Michael W. Deem and Ramdas Pophale) SiO2 
 PCOD8142631
Probable space group: C 2/C
;
_chemical_formula_sum "Si O2"
_cell_formula_units_Z 56
_cell_length_a 28.098127
_cell_length_b 8.601767
_cell_length_c 13.372805
_cell_angle_alpha 90.000000
_cell_angle_beta 58.501602
_cell_angle_gamma 90.000000
_cell_volume 2755.883058
_symmetry_space_group_name_H-M "C 2/C"
_symmetry_group_IT_number 15
_symmetry_cell_setting 'monoclinic'
loop_
_space_group_symop_operation_xyz
x,y,z
-x,y,1/2-z
-x,-y,-z
x,-y,1/2+z
1/2+x,1/2+y,z
1/2-x,1/2+y,1/2-z
1/2-x,1/2-y,-z
1/2+x,1/2-y,1/2+z
loop_
_atom_site_type_symbol
_atom_site_label
_atom_site_fract_x
_atom_site_fract_y
_atom_site_fract_z
Si Si1 0.136882 0.331290 0.201492
Si Si2 0.746085 0.456300 0.385659
Si Si3 0.090536 0.401081 0.879850
Si Si4 0.940501 0.770734 0.279274
Si Si5 0.058750 0.548432 0.632107
Si Si6 0.842388 0.996645 0.352612
Si Si7 0.793927 0.760338 0.252690
O O1 0.198119 0.403903 0.118276
O O2 0.103147 0.427561 0.322439
O O3 0.105441 0.341687 0.129618
O O4 0.138875 0.149585 0.230158
O O5 0.693491 0.443040 0.515336
O O6 0.751565 0.633082 0.342662
O O7 0.737250 0.339435 0.304336
O O8 0.056242 0.297939 0.837409
O O9 0.148403 0.317833 0.844805
O O10 0.053388 0.416425 0.020170
O O11 0.922325 0.630445 0.372448
O O12 0.000000 0.837782 0.250000
O O13 0.896397 0.908536 0.335644
O O14 0.000000 0.579421 0.750000
O O15 0.804678 0.887252 0.326021
#
# Coordination Sequence:
#
# PCOD8142631 Si02
#       7
#     8   8   8   8   8   8   8
#     4  10  22  36  58  88 113 150 193 233 286 339
#     4  11  22  38  59  84 118 152 194 238 280 340
#     4   9  20  40  59  83 115 146 190 240 283 341
#     4   9  21  38  59  85 115 151 189 232 287 339
#     4  10  21  39  63  85 111 150 193 236 286 338
#     4  11  22  38  58  85 119 153 192 235 283 340
#     4  10  22  37  56  84 116 154 190 233 292 339
#
# _framework density 20.320167000000001
#
# number of rings (size 3 to 8) (size 9 to 14) (size 15 to 20)
#    0.000    2.000    0.000    3.429    0.000   11.429 
#    0.000    0.000    0.000    7.714    0.000    0.000 
#    0.000    0.000    0.000    0.000    0.000    0.000 
#
# Total GULP energy -347278.112769 kJ/mol
# GULP energy per Si atom -12402.789742 kJ/mol
# Density = 2.027392 g / cm^3
# Si number density = 20.320167 Si / 1000 Ang^3
#
#
#
# Elastic Constant Matrix: (Units=GPa)
#
#
# Indices 1 2 3 4 5 6 
#
# 1 122.9855 44.1132 52.0225 0.0000 1.0295 0.0000
# 2 44.1132 118.3833 35.5610 0.0000 -1.5429 0.0000
# 3 52.0225 35.5610 103.8505 0.0000 4.3184 0.0000
# 4 0.0000 0.0000 0.0000 17.6376 0.0000 4.0785
# 5 1.0295 -1.5429 4.3184 0.0000 26.3893 0.0000
# 6 0.0000 0.0000 0.0000 4.0785 0.0000 36.7254
#
#
#
# Elastic Compliance Matrix: (Units=1/GPa)
#
#
# Indices 1 2 3 4 5 6 
#
# 1 0.011061 -0.002734 -0.004611 0.000000 0.000163 0.000000
# 2 -0.002734 0.010123 -0.002140 0.000000 0.001049 0.000000
# 3 -0.004611 -0.002140 0.012757 0.000000 -0.002033 0.000000
# 4 0.000000 0.000000 0.000000 0.058191 0.000000 -0.006462
# 5 0.000163 0.001049 -0.002033 0.000000 0.038282 0.000000
# 6 0.000000 0.000000 0.000000 -0.006462 0.000000 0.027947
#
#
# Mechanical properties :
#
#
# Convention : Reuss Voigt Hill
#
# Bulk Modulus (GPa) = 66.80660 67.62363 67.21512
# Shear Modulus (GPa) = 27.42411 30.38528 28.90469
#
# Velocity S-wave (km/s) = 3.67768 3.87114 3.77565
# Velocity P-wave (km/s) = 7.14018 7.30290 7.22199
#
# Compressibility (1/GPa) = 0.01496858
#
# Stress axis : x y z
#
# Youngs Moduli (GPa) = 90.40738 98.78913 78.39092
#
# Poissons Ratio (x) = 0.27012 0.36149
# Poissons Ratio (y) = 0.24721 0.16776
# Poissons Ratio (z) = 0.41690 0.21142
#
# Static dielectric constant tensor:
#      x y z
#    x 3.834380 0.000000 0.022400 
#    y 0.000000 3.756970 0.000000 
#    z 0.022400 0.000000 3.333310 
# 
# 
# High freq. dielectric constant tensor:
#      x y z
#    x 1.809680 0.000000 0.000360 
#    y 0.000000 1.797630 0.000000 
#    z 0.000360 0.000000 1.771420 
# 
# From -- ./inp_files/180769.got.cif
#   From: 2010.06.25/outbox.cif.g09.slc.cpg/sg15_91_cif.got.tgz:180769.got - 2010.06.28 07:06:18.
