data_PCOD8142754
_publ_section_title
;
Structure prediction by ZEFSAII (Michael W. Deem and Ramdas Pophale) SiO2 
 PCOD8142754
Probable space group: C 2/C
;
_chemical_formula_sum "Si O2"
_cell_formula_units_Z 64
_cell_length_a 22.577916
_cell_length_b 12.648717
_cell_length_c 14.680458
_cell_angle_alpha 90.000000
_cell_angle_beta 139.225900
_cell_angle_gamma 90.000000
_cell_volume 2738.011180
_symmetry_space_group_name_H-M "C 2/C"
_symmetry_group_IT_number 15
_symmetry_cell_setting 'monoclinic'
loop_
_space_group_symop_operation_xyz
x,y,z
-x,y,1/2-z
-x,-y,-z
x,-y,1/2+z
1/2+x,1/2+y,z
1/2-x,1/2+y,1/2-z
1/2-x,1/2-y,-z
1/2+x,1/2-y,1/2+z
loop_
_atom_site_type_symbol
_atom_site_label
_atom_site_fract_x
_atom_site_fract_y
_atom_site_fract_z
Si Si1 0.078769 0.714094 0.053619
Si Si2 0.272564 0.245360 0.732637
Si Si3 0.175748 0.061254 0.324823
Si Si4 0.314698 0.116676 0.949591
Si Si5 0.713228 0.545225 0.569830
Si Si6 0.018638 0.935271 0.932504
Si Si7 0.154060 0.622537 0.310912
Si Si8 0.488948 0.972085 0.136685
O O1 0.169682 0.715629 0.099935
O O2 0.110599 0.713578 0.196970
O O3 0.021202 0.613146 0.955277
O O4 0.017573 0.814077 0.962540
O O5 0.328858 0.336514 0.747294
O O6 0.303784 0.220994 0.873281
O O7 0.277691 0.129235 0.694500
O O8 0.222885 0.082152 0.476002
O O9 0.070913 0.039057 0.231159
O O10 0.227114 0.961928 0.336166
O O11 0.321903 0.164735 0.060275
O O12 0.406124 0.054237 0.033405
O O13 0.611117 0.535677 0.488743
O O14 0.756523 0.428442 0.632435
O O15 0.000000 0.000000 0.000000
O O16 0.082621 0.528890 0.229815
O O17 0.500000 0.918942 0.250000
#
# Coordination Sequence:
#
# PCOD8142754 Si02
#       8
#     8   8   8   8   8   8   8   8
#     4  11  23  39  64  98 128 171 225 269 329 400
#     4  11  23  37  66  93 130 167 215 272 328 400
#     4  11  22  41  68  94 131 175 218 274 331 395
#     4  10  22  43  65  96 133 174 216 271 339 400
#     4  10  23  42  64  97 130 170 223 271 335 389
#     4  11  26  43  65  92 135 178 223 271 327 400
#     4  10  23  40  67  94 133 171 217 278 335 397
#     4  10  21  39  64  98 135 165 211 277 341 398
#
# _framework density 23.374631000000001
#
# number of rings (size 3 to 8) (size 9 to 14) (size 15 to 20)
#    0.000    1.500    1.250    3.375    5.250    2.500 
#    0.000    0.000    2.750    0.000    0.000    0.000 
#    0.000    0.000    0.000    0.000    0.000    0.000 
#
# Total GULP energy -396605.144396 kJ/mol
# GULP energy per Si atom -12393.910762 kJ/mol
# Density = 2.332143 g / cm^3
# Si number density = 23.374631 Si / 1000 Ang^3
#
#
#
# Elastic Constant Matrix: (Units=GPa)
#
#
# Indices 1 2 3 4 5 6 
#
# 1 88.9302 24.1814 23.2737 0.0000 6.1718 0.0000
# 2 24.1814 47.6672 15.4153 0.0000 -0.1066 0.0000
# 3 23.2737 15.4153 101.2560 0.0000 2.6744 0.0000
# 4 0.0000 0.0000 0.0000 22.4676 0.0000 -6.3372
# 5 6.1718 -0.1066 2.6744 0.0000 41.3772 0.0000
# 6 0.0000 0.0000 0.0000 -6.3372 0.0000 26.5008
#
#
#
# Elastic Compliance Matrix: (Units=1/GPa)
#
#
# Indices 1 2 3 4 5 6 
#
# 1 0.013629 -0.006228 -0.002134 0.000000 -0.001911 0.000000
# 2 -0.006228 0.024914 -0.002392 0.000000 0.001148 0.000000
# 3 -0.002134 -0.002392 0.010741 0.000000 -0.000382 0.000000
# 4 0.000000 0.000000 0.000000 0.047728 0.000000 0.011413
# 5 -0.001911 0.001148 -0.000382 0.000000 0.024481 0.000000
# 6 0.000000 0.000000 0.000000 0.011413 0.000000 0.040464
#
#
# Mechanical properties :
#
#
# Convention : Reuss Voigt Hill
#
# Bulk Modulus (GPa) = 36.00181 40.39934 38.20058
# Shear Modulus (GPa) = 25.94387 29.73467 27.83927
#
# Velocity S-wave (km/s) = 3.33515 3.57051 3.45484
# Velocity P-wave (km/s) = 5.50150 5.85824 5.68267
#
# Compressibility (1/GPa) = 0.02777638
#
# Stress axis : x y z
#
# Youngs Moduli (GPa) = 73.37043 40.13738 93.10397
#
# Poissons Ratio (x) = 0.24999 0.19869
# Poissons Ratio (y) = 0.45697 0.22268
# Poissons Ratio (z) = 0.15658 0.09600
#
# Static dielectric constant tensor:
#      x y z
#    x 4.286490 0.000000 -0.272510 
#    y 0.000000 4.198850 0.000000 
#    z -0.272510 0.000000 3.906510 
# 
# 
# High freq. dielectric constant tensor:
#      x y z
#    x 1.928800 0.000000 0.003680 
#    y 0.000000 1.905070 0.000000 
#    z 0.003680 0.000000 1.942220 
# 
# From -- ./inp_files/173693.got.cif
#   From: 2010.06.25/outbox.cif.g09.slc.cpg/sg15_87_cif.got.tgz:173693.got - 2010.06.28 07:06:18.
