data_PCOD8142227
_publ_section_title
;
Structure prediction by ZEFSAII (Michael W. Deem and Ramdas Pophale) SiO2 
 PCOD8142227
Probable space group: C 2/C
;
_chemical_formula_sum "Si O2"
_cell_formula_units_Z 60
_cell_length_a 21.620649
_cell_length_b 8.790295
_cell_length_c 17.071772
_cell_angle_alpha 90.000000
_cell_angle_beta 75.049721
_cell_angle_gamma 90.000000
_cell_volume 3134.695537
_symmetry_space_group_name_H-M "C 2/C"
_symmetry_group_IT_number 15
_symmetry_cell_setting 'monoclinic'
loop_
_space_group_symop_operation_xyz
x,y,z
-x,y,1/2-z
-x,-y,-z
x,-y,1/2+z
1/2+x,1/2+y,z
1/2-x,1/2+y,1/2-z
1/2-x,1/2-y,-z
1/2+x,1/2-y,1/2+z
loop_
_atom_site_type_symbol
_atom_site_label
_atom_site_fract_x
_atom_site_fract_y
_atom_site_fract_z
Si Si1 0.701055 0.831181 0.459039
Si Si2 0.000000 0.053630 0.250000
Si Si3 0.184201 0.674064 0.502191
Si Si4 0.912597 0.895332 0.495150
Si Si5 0.235656 0.021075 0.701549
Si Si6 0.044746 0.120188 0.886306
Si Si7 0.376203 0.383901 0.867028
Si Si8 0.671086 0.755734 0.831469
O O1 0.750000 0.750000 0.500000
O O2 0.635790 0.739502 0.468909
O O3 0.733333 0.850029 0.363581
O O4 0.684712 0.993407 0.501850
O O5 0.980981 0.953210 0.183367
O O6 0.938430 0.152471 0.294312
O O7 0.250000 0.750000 0.500000
O O8 0.134301 0.725452 0.584716
O O9 0.168303 0.749091 0.425202
O O10 0.982445 0.819769 0.454205
O O11 0.917614 0.001532 0.570051
O O12 0.886478 0.983235 0.427305
O O13 0.204675 0.103871 0.786150
O O14 0.183385 0.926587 0.669139
O O15 0.291989 0.905818 0.711868
O O16 0.094495 0.249794 0.838555
#
# Coordination Sequence:
#
# PCOD8142227 Si02
#       8
#     8   4   8   8   8   8   8   8
#     4  11  22  37  64  97 121 160 212 254 303 372
#     4  10  22  36  64  88 116 162 210 246 298 370
#     4  11  21  39  62  89 126 163 199 255 312 364
#     4  10  21  38  65  90 117 161 212 243 303 363
#     4  11  24  37  60  92 127 163 196 257 313 360
#     4  10  21  38  64  87 120 164 203 258 292 372
#     4  11  19  39  62  90 120 159 205 248 306 365
#     4  11  23  39  58  90 124 161 205 251 310 363
#
# _framework density 19.140615
#
# number of rings (size 3 to 8) (size 9 to 14) (size 15 to 20)
#    0.000    1.333    6.667    0.000    1.867    0.000 
#    0.000    2.667    2.933    0.800    0.000    0.000 
#    0.000    0.000    0.000    0.000    0.000    0.000 
#
# Total GULP energy -371759.819008 kJ/mol
# GULP energy per Si atom -12391.993967 kJ/mol
# Density = 1.909705 g / cm^3
# Si number density = 19.140615 Si / 1000 Ang^3
#
#
#
# Elastic Constant Matrix: (Units=GPa)
#
#
# Indices 1 2 3 4 5 6 
#
# 1 120.8230 56.3134 37.0804 0.0000 -24.4004 0.0000
# 2 56.3134 86.7288 46.9721 0.0000 -7.6917 0.0000
# 3 37.0804 46.9721 86.8083 0.0000 -20.0910 0.0000
# 4 0.0000 0.0000 0.0000 32.8216 0.0000 -3.6376
# 5 -24.4004 -7.6917 -20.0910 0.0000 34.8055 0.0000
# 6 0.0000 0.0000 0.0000 -3.6376 0.0000 34.1133
#
#
#
# Elastic Compliance Matrix: (Units=1/GPa)
#
#
# Indices 1 2 3 4 5 6 
#
# 1 0.013678 -0.008506 0.000628 0.000000 0.008072 0.000000
# 2 -0.008506 0.021689 -0.009664 0.000000 -0.006749 0.000000
# 3 0.000628 -0.009664 0.018569 0.000000 0.009023 0.000000
# 4 0.000000 0.000000 0.000000 0.030832 0.000000 0.003288
# 5 0.008072 -0.006749 0.009023 0.000000 0.038107 0.000000
# 6 0.000000 0.000000 0.000000 0.003288 0.000000 0.029665
#
#
# Mechanical properties :
#
#
# Convention : Reuss Voigt Hill
#
# Bulk Modulus (GPa) = 53.04529 63.89908 58.47218
# Shear Modulus (GPa) = 25.78538 30.61437 28.19987
#
# Velocity S-wave (km/s) = 3.67434 4.00365 3.84252
# Velocity P-wave (km/s) = 6.76570 7.40464 7.09237
#
# Compressibility (1/GPa) = 0.01885182
#
# Stress axis : x y z
#
# Youngs Moduli (GPa) = 73.10851 46.10715 53.85245
#
# Poissons Ratio (x) = 0.39217 -0.03381
# Poissons Ratio (y) = 0.62183 0.52045
# Poissons Ratio (z) = -0.04590 0.44560
#
# Static dielectric constant tensor:
#      x y z
#    x 3.904200 0.000000 -0.279270 
#    y 0.000000 3.279080 0.000000 
#    z -0.279270 0.000000 3.714490 
# 
# 
# High freq. dielectric constant tensor:
#      x y z
#    x 1.761010 0.000000 -0.009180 
#    y 0.000000 1.710850 0.000000 
#    z -0.009180 0.000000 1.758930 
# 
# From -- ./inp_files/213884.got.cif
#   From: 2010.06.25/outbox.cif.g09.slc.cpg/sg15_107_cif.got.tgz:213884.got - 2010.06.28 07:06:18.
