data_PCOD8142261
_publ_section_title
;
Structure prediction by ZEFSAII (Michael W. Deem and Ramdas Pophale) SiO2 
 PCOD8142261
Probable space group: C 2/C
;
_chemical_formula_sum "Si O2"
_cell_formula_units_Z 24
_cell_length_a 7.670435
_cell_length_b 22.121830
_cell_length_c 4.857903
_cell_angle_alpha 90.000000
_cell_angle_beta 115.018123
_cell_angle_gamma 90.000000
_cell_volume 746.967165
_symmetry_space_group_name_H-M "C 2/C"
_symmetry_group_IT_number 15
_symmetry_cell_setting 'monoclinic'
loop_
_space_group_symop_operation_xyz
x,y,z
-x,y,1/2-z
-x,-y,-z
x,-y,1/2+z
1/2+x,1/2+y,z
1/2-x,1/2+y,1/2-z
1/2-x,1/2-y,-z
1/2+x,1/2-y,1/2+z
loop_
_atom_site_type_symbol
_atom_site_label
_atom_site_fract_x
_atom_site_fract_y
_atom_site_fract_z
Si Si1 0.000000 0.752396 0.250000
Si Si2 0.000000 0.332840 0.250000
Si Si3 0.793525 0.129746 0.547897
Si Si4 0.226999 0.962526 0.896900
O O1 0.175802 0.797241 0.465686
O O2 0.930279 0.709284 0.451281
O O3 0.168956 0.377270 0.246217
O O4 0.696686 0.099184 0.211046
O O5 0.000000 0.098109 0.750000
O O6 0.000000 0.955877 0.750000
O O7 0.296267 0.020393 0.753017
#
# Coordination Sequence:
#
# PCOD8142261 Si02
#       4
#     4   4   8   8
#     4  10  26  40  66  90 130 166 212 252 312 366
#     4  12  24  46  58  96 130 166 206 266 298 372
#     4  10  24  40  68  92 125 168 210 252 316 370
#     4  10  21  38  64  94 123 159 208 257 310 371
#
# _framework density 32.129928
#
# number of rings (size 3 to 8) (size 9 to 14) (size 15 to 20)
#    1.000    0.667    0.000    5.000    2.333    5.333 
#    0.000    1.667    0.000    0.000    0.000    2.333 
#    0.000    0.000    0.000    0.000    0.000    0.000 
#
# Total GULP energy -148710.887229 kJ/mol
# GULP energy per Si atom -12392.573936 kJ/mol
# Density = 3.205680 g / cm^3
# Si number density = 32.129928 Si / 1000 Ang^3
#
#
#
# Elastic Constant Matrix: (Units=GPa)
#
#
# Indices 1 2 3 4 5 6 
#
# 1 143.8937 37.7718 54.9291 0.0000 -42.2574 0.0000
# 2 37.7718 190.5066 39.7832 0.0000 -35.9926 0.0000
# 3 54.9291 39.7832 230.4792 0.0000 -42.6200 0.0000
# 4 0.0000 0.0000 0.0000 20.9944 0.0000 -18.0373
# 5 -42.2574 -35.9926 -42.6200 0.0000 54.7390 0.0000
# 6 0.0000 0.0000 0.0000 -18.0373 0.0000 28.0975
#
#
#
# Elastic Compliance Matrix: (Units=1/GPa)
#
#
# Indices 1 2 3 4 5 6 
#
# 1 0.009229 -0.000482 -0.001002 0.000000 0.006028 0.000000
# 2 -0.000482 0.006044 -0.000306 0.000000 0.003364 0.000000
# 3 -0.001002 -0.000306 0.005199 0.000000 0.003073 0.000000
# 4 0.000000 0.000000 0.000000 0.106211 0.000000 0.068183
# 5 0.006028 0.003364 0.003073 0.000000 0.027526 0.000000
# 6 0.000000 0.000000 0.000000 0.068183 0.000000 0.079360
#
#
# Mechanical properties :
#
#
# Convention : Reuss Voigt Hill
#
# Bulk Modulus (GPa) = 59.20087 92.20529 75.70308
# Shear Modulus (GPa) = 20.59485 49.59253 35.09369
#
# Velocity S-wave (km/s) = 2.53452 3.93300 3.30850
# Velocity P-wave (km/s) = 5.19909 7.02742 6.18123
#
# Compressibility (1/GPa) = 0.01689164
#
# Stress axis : x y z
#
# Youngs Moduli (GPa) = 108.35976 165.44809 192.35794
#
# Poissons Ratio (x) = 0.07971 0.19267
# Poissons Ratio (y) = 0.05221 0.05895
# Poissons Ratio (z) = 0.10854 0.05070
#
# Static dielectric constant tensor:
#      x y z
#    x 5.894300 0.000000 -0.225260 
#    y 0.000000 6.390370 0.000000 
#    z -0.225260 0.000000 6.018550 
# 
# 
# High freq. dielectric constant tensor:
#      x y z
#    x 2.314520 0.000000 -0.012960 
#    y 0.000000 2.384520 0.000000 
#    z -0.012960 0.000000 2.354740 
# 
# From -- ./inp_files/1646.got.cif
#   From: 2010.06.25/outbox.cif.g09.slc.cpg/sg15_1_cif.got.tgz:1646.got - 2010.06.28 07:06:18.
