data_PCOD8142727
_publ_section_title
;
Structure prediction by ZEFSAII (Michael W. Deem and Ramdas Pophale) SiO2 
 PCOD8142727
Probable space group: C 2/C
;
_chemical_formula_sum "Si O2"
_cell_formula_units_Z 56
_cell_length_a 14.152586
_cell_length_b 21.407769
_cell_length_c 9.394758
_cell_angle_alpha 90.000000
_cell_angle_beta 118.890662
_cell_angle_gamma 90.000000
_cell_volume 2492.128485
_symmetry_space_group_name_H-M "C 2/C"
_symmetry_group_IT_number 15
_symmetry_cell_setting 'monoclinic'
loop_
_space_group_symop_operation_xyz
x,y,z
-x,y,1/2-z
-x,-y,-z
x,-y,1/2+z
1/2+x,1/2+y,z
1/2-x,1/2+y,1/2-z
1/2-x,1/2-y,-z
1/2+x,1/2-y,1/2+z
loop_
_atom_site_type_symbol
_atom_site_label
_atom_site_fract_x
_atom_site_fract_y
_atom_site_fract_z
Si Si1 0.474916 0.646171 0.387097
Si Si2 0.602219 0.027817 0.216702
Si Si3 0.165031 0.832937 0.217438
Si Si4 0.217160 0.111072 0.058249
Si Si5 0.517214 0.097319 0.600157
Si Si6 0.116266 0.712462 0.321655
Si Si7 0.619492 0.777659 0.132620
O O1 0.500000 0.617609 0.250000
O O2 0.587573 0.633723 0.549452
O O3 0.385525 0.608192 0.411747
O O4 0.436189 0.718458 0.333136
O O5 0.500000 0.032851 0.250000
O O6 0.713614 0.047022 0.376165
O O7 0.611976 0.955736 0.169666
O O8 0.583970 0.069686 0.061449
O O9 0.187338 0.877503 0.370616
O O10 0.096265 0.771439 0.206429
O O11 0.273557 0.807753 0.215843
O O12 0.296764 0.164566 0.176435
O O13 0.500000 0.115614 0.750000
O O14 0.541309 0.163727 0.546188
O O15 0.158750 0.741963 0.502825
O O16 0.000000 0.678331 0.250000
#
# Coordination Sequence:
#
# PCOD8142727 Si02
#       7
#     8   8   8   8   8   8   8
#     4  12  25  37  54  88 135 167 200 245 318 387
#     4  10  21  39  64  92 117 159 212 260 303 362
#     4  11  21  37  58  87 124 160 215 257 292 371
#     4  11  20  37  59  86 118 164 206 259 306 354
#     4  10  22  38  58  91 128 157 203 254 311 372
#     4  11  17  32  60  87 115 152 206 254 290 352
#     4  11  20  35  57  85 121 167 195 242 313 363
#
# _framework density 22.470751
#
# number of rings (size 3 to 8) (size 9 to 14) (size 15 to 20)
#    0.000    1.143    4.286    4.714    0.000    1.714 
#    0.000    0.000    0.000    0.857    0.000    1.000 
#    0.000    0.000    0.000    0.000    0.000    0.000 
#
# Total GULP energy -346894.433133 kJ/mol
# GULP energy per Si atom -12389.086898 kJ/mol
# Density = 2.241961 g / cm^3
# Si number density = 22.470751 Si / 1000 Ang^3
#
#
#
# Elastic Constant Matrix: (Units=GPa)
#
#
# Indices 1 2 3 4 5 6 
#
# 1 68.0291 -7.3619 31.2483 0.0000 8.3455 0.0000
# 2 -7.3619 56.5455 8.7873 0.0000 4.0473 0.0000
# 3 31.2483 8.7873 115.6413 0.0000 3.5454 0.0000
# 4 0.0000 0.0000 0.0000 21.2602 0.0000 5.9293
# 5 8.3455 4.0473 3.5454 0.0000 36.3122 0.0000
# 6 0.0000 0.0000 0.0000 5.9293 0.0000 14.7707
#
#
#
# Elastic Compliance Matrix: (Units=1/GPa)
#
#
# Indices 1 2 3 4 5 6 
#
# 1 0.017829 0.003376 -0.004952 0.000000 -0.003990 0.000000
# 2 0.003376 0.018663 -0.002250 0.000000 -0.002636 0.000000
# 3 -0.004952 -0.002250 0.010144 0.000000 0.000398 0.000000
# 4 0.000000 0.000000 0.000000 0.052966 0.000000 -0.021262
# 5 -0.003990 -0.002636 0.000398 0.000000 0.028711 0.000000
# 6 0.000000 0.000000 0.000000 -0.021262 0.000000 0.076237
#
#
# Mechanical properties :
#
#
# Convention : Reuss Voigt Hill
#
# Bulk Modulus (GPa) = 25.65041 33.95149 29.80095
# Shear Modulus (GPa) = 22.20292 28.30476 25.25384
#
# Velocity S-wave (km/s) = 3.14679 3.55297 3.35603
# Velocity P-wave (km/s) = 4.96415 5.65451 5.32054
#
# Compressibility (1/GPa) = 0.03898572
#
# Stress axis : x y z
#
# Youngs Moduli (GPa) = 56.08799 53.58261 98.57780
#
# Poissons Ratio (x) = -0.18092 0.48815
# Poissons Ratio (y) = -0.18938 0.22177
# Poissons Ratio (z) = 0.27775 0.12054
#
# Static dielectric constant tensor:
#      x y z
#    x 3.894740 0.000000 0.081300 
#    y 0.000000 3.860070 0.000000 
#    z 0.081300 0.000000 4.104360 
# 
# 
# High freq. dielectric constant tensor:
#      x y z
#    x 1.870770 0.000000 0.006500 
#    y 0.000000 1.854650 0.000000 
#    z 0.006500 0.000000 1.885850 
# 
# From -- ./inp_files/42739.got.cif
#   From: 2010.06.25/outbox.cif.g09.slc.cpg/sg15_22_cif.got.tgz:42739.got - 2010.06.28 07:06:18.
