data_PCOD8142119
_publ_section_title
;
Structure prediction by ZEFSAII (Michael W. Deem and Ramdas Pophale) SiO2 
 PCOD8142119
Probable space group: C 2/C
;
_chemical_formula_sum "Si O2"
_cell_formula_units_Z 40
_cell_length_a 16.941334
_cell_length_b 21.890333
_cell_length_c 10.605767
_cell_angle_alpha 90.000000
_cell_angle_beta 31.718922
_cell_angle_gamma 90.000000
_cell_volume 2067.871211
_symmetry_space_group_name_H-M "C 2/C"
_symmetry_group_IT_number 15
_symmetry_cell_setting 'monoclinic'
loop_
_space_group_symop_operation_xyz
x,y,z
-x,y,1/2-z
-x,-y,-z
x,-y,1/2+z
1/2+x,1/2+y,z
1/2-x,1/2+y,1/2-z
1/2-x,1/2-y,-z
1/2+x,1/2-y,1/2+z
loop_
_atom_site_type_symbol
_atom_site_label
_atom_site_fract_x
_atom_site_fract_y
_atom_site_fract_z
Si Si1 0.670566 0.250236 0.790985
Si Si2 0.851502 0.289642 0.772838
Si Si3 0.070682 0.419321 0.790506
Si Si4 0.886044 0.445309 0.288026
Si Si5 0.153846 0.154813 0.110453
O O1 0.808448 0.271411 0.689832
O O2 0.729219 0.196276 0.624044
O O3 0.614620 0.309758 0.791625
O O4 0.526755 0.224491 0.062075
O O5 0.819010 0.361794 0.837032
O O6 0.750000 0.250000 0.000000
O O7 0.159324 0.483597 0.668639
O O8 0.000000 0.408838 0.750000
O O9 0.950750 0.420166 0.067844
O O10 0.734784 0.409384 0.528391
O O11 0.000000 0.437190 0.250000
O O12 0.000000 0.140096 0.250000
#
# Coordination Sequence:
#
# PCOD8142119 Si02
#       5
#     8   8   8   8   8
#     4  11  23  38  58  91 120 158 201 248 304 358
#     4  12  23  39  61  87 125 161 199 246 302 369
#     4  10  21  38  62  90 119 161 209 246 296 365
#     4  10  21  39  65  89 117 160 210 253 294 362
#     4  11  22  37  61  90 124 151 196 261 307 349
#
# _framework density 19.343565000000002
#
# number of rings (size 3 to 8) (size 9 to 14) (size 15 to 20)
#    0.000    1.200    4.000    3.000    0.000    0.000 
#    0.000    2.000    0.000   13.200    0.000    0.000 
#    0.000    0.000    0.000    0.000    0.000    0.000 
#
# Total GULP energy -247981.525593 kJ/mol
# GULP energy per Si atom -12399.076280 kJ/mol
# Density = 1.929954 g / cm^3
# Si number density = 19.343565 Si / 1000 Ang^3
#
#
#
# Elastic Constant Matrix: (Units=GPa)
#
#
# Indices 1 2 3 4 5 6 
#
# 1 81.1316 30.7895 16.8151 0.0001 2.7752 0.0027
# 2 30.7895 156.4160 46.5630 -0.0003 -8.4817 0.0013
# 3 16.8151 46.5630 79.8842 -0.0017 -5.2412 0.0068
# 4 0.0001 -0.0003 -0.0017 27.8120 -0.0004 -3.6509
# 5 2.7752 -8.4817 -5.2412 -0.0004 36.5537 -0.0044
# 6 0.0027 0.0013 0.0068 -3.6509 -0.0044 22.4807
#
#
#
# Elastic Compliance Matrix: (Units=1/GPa)
#
#
# Indices 1 2 3 4 5 6 
#
# 1 0.013595 -0.002283 -0.001649 0.000000 -0.001798 -0.000001
# 2 -0.002283 0.008168 -0.004184 0.000000 0.001469 0.000001
# 3 -0.001649 -0.004184 0.015393 0.000000 0.001362 -0.000004
# 4 0.000000 0.000000 0.000000 0.036739 0.000001 0.005966
# 5 -0.001798 0.001469 0.001362 0.000001 0.028029 0.000005
# 6 -0.000001 0.000001 -0.000004 0.005966 0.000005 0.045452
#
#
# Mechanical properties :
#
#
# Convention : Reuss Voigt Hill
#
# Bulk Modulus (GPa) = 47.79052 56.19634 51.99343
# Shear Modulus (GPa) = 29.31129 32.25357 30.78243
#
# Velocity S-wave (km/s) = 3.89691 4.08782 3.99350
# Velocity P-wave (km/s) = 6.70877 7.16904 6.94272
#
# Compressibility (1/GPa) = 0.02092465
#
# Stress axis : x y z
#
# Youngs Moduli (GPa) = 73.55508 122.43373 64.96318
#
# Poissons Ratio (x) = 0.27948 0.10713
# Poissons Ratio (y) = 0.16791 0.27180
# Poissons Ratio (z) = 0.12130 0.51226
#
# Static dielectric constant tensor:
#      x y z
#    x 3.350680 -0.000010 0.181960 
#    y -0.000010 3.827830 0.000010 
#    z 0.181960 0.000010 3.246250 
# 
# 
# High freq. dielectric constant tensor:
#      x y z
#    x 1.761770 0.000000 0.015440 
#    y 0.000000 1.768840 0.000000 
#    z 0.015440 0.000000 1.726830 
# 
# From -- ./inp_files/30194.got.cif
#   From: 2010.06.25/outbox.cif.g09.slc.cpg/sg15_16_cif.got.tgz:30194.got - 2010.06.28 07:06:18.
