data_PCOD8142721
_publ_section_title
;
Structure prediction by ZEFSAII (Michael W. Deem and Ramdas Pophale) SiO2 
 PCOD8142721
Probable space group: C 2/C
;
_chemical_formula_sum "Si O2"
_cell_formula_units_Z 48
_cell_length_a 8.477044
_cell_length_b 25.791971
_cell_length_c 12.904223
_cell_angle_alpha 90.000000
_cell_angle_beta 48.187305
_cell_angle_gamma 90.000000
_cell_volume 2102.850699
_symmetry_space_group_name_H-M "C 2/C"
_symmetry_group_IT_number 15
_symmetry_cell_setting 'monoclinic'
loop_
_space_group_symop_operation_xyz
x,y,z
-x,y,1/2-z
-x,-y,-z
x,-y,1/2+z
1/2+x,1/2+y,z
1/2-x,1/2+y,1/2-z
1/2-x,1/2-y,-z
1/2+x,1/2-y,1/2+z
loop_
_atom_site_type_symbol
_atom_site_label
_atom_site_fract_x
_atom_site_fract_y
_atom_site_fract_z
Si Si1 0.896224 0.735637 0.193091
Si Si2 0.534067 0.899684 0.058082
Si Si3 0.966665 0.723230 0.935674
Si Si4 0.487666 0.435791 0.922730
Si Si5 0.888397 0.615198 0.200332
Si Si6 0.891533 0.949919 0.189923
O O1 0.659644 0.757608 0.280337
O O2 0.899777 0.675503 0.211261
O O3 0.000000 0.763299 0.250000
O O4 0.019806 0.742742 0.030159
O O5 0.554204 0.838537 0.072758
O O6 0.348058 0.928084 0.202364
O O7 0.747126 0.930315 0.992920
O O8 0.493651 0.906114 0.953141
O O9 0.750000 0.750000 0.000000
O O10 0.636515 0.393781 0.803876
O O11 0.594601 0.488884 0.835551
O O12 0.504890 0.425897 0.039191
O O13 0.000000 0.587214 0.250000
O O14 0.000000 0.932754 0.250000
#
# Coordination Sequence:
#
# PCOD8142721 Si02
#       6
#     8   8   8   8   8   8
#     4  10  22  39  60  90 125 162 203 249 303 363
#     4  11  24  42  63  91 124 161 205 253 305 362
#     4  11  23  39  64  92 123 162 204 252 305 361
#     4  11  24  41  64  90 121 160 204 254 305 360
#     4  10  21  39  64  91 122 161 204 250 303 363
#     4  11  25  42  62  90 123 161 204 252 306 362
#
# _framework density 22.826156999999998
#
# number of rings (size 3 to 8) (size 9 to 14) (size 15 to 20)
#    0.000    1.333    0.000    5.000    0.000   12.667 
#    0.000    0.000    0.000    0.000    0.000    0.000 
#    0.000    0.000    0.000    0.000    0.000    0.000 
#
# Total GULP energy -297439.282271 kJ/mol
# GULP energy per Si atom -12393.303428 kJ/mol
# Density = 2.277420 g / cm^3
# Si number density = 22.826157 Si / 1000 Ang^3
#
#
#
# Elastic Constant Matrix: (Units=GPa)
#
#
# Indices 1 2 3 4 5 6 
#
# 1 43.4378 143.7801 5.5765 0.0000 -55.1846 0.0000
# 2 143.7801 -283.0795 81.1612 0.0000 184.4119 0.0000
# 3 5.5765 81.1612 109.7188 0.0000 -22.1601 0.0000
# 4 0.0000 0.0000 0.0000 34.2420 0.0000 -0.4245
# 5 -55.1846 184.4119 -22.1601 0.0000 -49.1414 0.0000
# 6 0.0000 0.0000 0.0000 -0.4245 0.0000 26.8013
#
#
#
# Elastic Compliance Matrix: (Units=1/GPa)
#
#
# Indices 1 2 3 4 5 6 
#
# 1 0.011362 0.001745 -0.002862 0.000000 -0.004920 0.000000
# 2 0.001745 0.002713 -0.000399 0.000000 0.008403 0.000000
# 3 -0.002862 -0.000399 0.009075 0.000000 -0.002375 0.000000
# 4 0.000000 0.000000 0.000000 0.029210 0.000000 0.000463
# 5 -0.004920 0.008403 -0.002375 0.000000 0.017780 0.000000
# 6 0.000000 0.000000 0.000000 0.000463 0.000000 0.037319
#
#
# Mechanical properties :
#
#
# Convention : Reuss Voigt Hill
#
# Bulk Modulus (GPa) = 49.70475 36.79029 43.24752
# Shear Modulus (GPa) = 42.66320 -21.64899 10.50710
#
# Velocity S-wave (km/s) = 4.32794 -3.08300 2.14781
# Velocity P-wave (km/s) = 6.84086 1.86532 5.01382
#
# Compressibility (1/GPa) = 0.02011880
#
# Stress axis : x y z
#
# Youngs Moduli (GPa) = 88.01271 368.53990 110.19268
#
# Poissons Ratio (x) = -0.64308 0.31538
# Poissons Ratio (y) = -0.15358 0.04394
# Poissons Ratio (z) = 0.25190 0.14694
#
# Static dielectric constant tensor:
#      x y z
#    x 4.595530 0.000000 0.447840 
#    y 0.000000 3.835270 0.000000 
#    z 0.447840 0.000000 4.498690 
# 
# 
# High freq. dielectric constant tensor:
#      x y z
#    x 1.911380 0.000000 0.013710 
#    y 0.000000 1.882800 0.000000 
#    z 0.013710 0.000000 1.918400 
# 
# From -- ./inp_files/139390.got.cif
#   From: 2010.06.25/outbox.cif.g09.slc.cpg/sg15_70_cif.got.tgz:139390.got - 2010.06.28 07:06:18.
