data_PCOD8142472
_publ_section_title
;
Structure prediction by ZEFSAII (Michael W. Deem and Ramdas Pophale) SiO2 
 PCOD8142472
Probable space group: C 2/C
;
_chemical_formula_sum "Si O2"
_cell_formula_units_Z 40
_cell_length_a 25.062530
_cell_length_b 5.012592
_cell_length_c 15.873312
_cell_angle_alpha 90.000000
_cell_angle_beta 72.776665
_cell_angle_gamma 90.000000
_cell_volume 1904.714851
_symmetry_space_group_name_H-M "C 2/C"
_symmetry_group_IT_number 15
_symmetry_cell_setting 'monoclinic'
loop_
_space_group_symop_operation_xyz
x,y,z
-x,y,1/2-z
-x,-y,-z
x,-y,1/2+z
1/2+x,1/2+y,z
1/2-x,1/2+y,1/2-z
1/2-x,1/2-y,-z
1/2+x,1/2-y,1/2+z
loop_
_atom_site_type_symbol
_atom_site_label
_atom_site_fract_x
_atom_site_fract_y
_atom_site_fract_z
Si Si1 0.372164 0.413223 0.764760
Si Si2 0.838636 0.937676 0.095313
Si Si3 0.633598 0.927044 0.522976
Si Si4 0.778361 0.365429 0.404795
Si Si5 0.434943 0.921322 0.796334
O O1 0.362584 0.523831 0.676244
O O2 0.312408 0.359201 0.837153
O O3 0.408036 0.630985 0.796905
O O4 0.407476 0.138663 0.746586
O O5 0.771305 0.987523 0.129382
O O6 0.852696 0.642182 0.055549
O O7 0.868989 0.140044 0.018237
O O8 0.575886 0.994224 0.599397
O O9 0.678953 0.913607 0.578914
O O10 0.750000 0.250000 0.500000
O O11 0.500000 0.906361 0.750000
#
# Coordination Sequence:
#
# PCOD8142472 Si02
#       5
#     8   8   8   8   8
#     4  11  24  39  61  94 122 154 206 254 300 359
#     4  11  22  38  59  92 128 155 190 250 303 356
#     4  10  21  39  60  86 120 163 203 237 293 371
#     4   9  20  36  59  86 120 161 191 228 294 367
#     4  11  23  44  65  84 115 163 211 257 302 355
#
# _framework density 21.000518
#
# number of rings (size 3 to 8) (size 9 to 14) (size 15 to 20)
#    0.000    1.600    0.000    6.000    0.000   11.200 
#    0.000    6.000    0.000    0.000    0.000    0.000 
#    0.000    0.000    0.000    0.000    0.000    0.000 
#
# Total GULP energy -247918.537628 kJ/mol
# GULP energy per Si atom -12395.926881 kJ/mol
# Density = 2.095272 g / cm^3
# Si number density = 21.000518 Si / 1000 Ang^3
#
#
#
# Elastic Constant Matrix: (Units=GPa)
#
#
# Indices 1 2 3 4 5 6 
#
# 1 92.1693 27.3176 70.9783 0.0000 -21.4253 0.0000
# 2 27.3176 81.0986 17.5039 0.0000 -4.9030 0.0000
# 3 70.9783 17.5039 108.6888 0.0000 -13.6628 0.0000
# 4 0.0000 0.0000 0.0000 32.0882 0.0000 4.0266
# 5 -21.4253 -4.9030 -13.6628 0.0000 36.5969 0.0000
# 6 0.0000 0.0000 0.0000 4.0266 0.0000 20.9428
#
#
#
# Elastic Compliance Matrix: (Units=1/GPa)
#
#
# Indices 1 2 3 4 5 6 
#
# 1 0.025984 -0.004965 -0.015047 0.000000 0.008930 0.000000
# 2 -0.004965 0.013758 0.000937 0.000000 -0.000714 0.000000
# 3 -0.015047 0.000937 0.018660 0.000000 -0.001717 0.000000
# 4 0.000000 0.000000 0.000000 0.031935 0.000000 -0.006140
# 5 0.008930 -0.000714 -0.001717 0.000000 0.031816 0.000000
# 6 0.000000 0.000000 0.000000 -0.006140 0.000000 0.048930
#
#
# Mechanical properties :
#
#
# Convention : Reuss Voigt Hill
#
# Bulk Modulus (GPa) = 49.37681 57.06181 53.21931
# Shear Modulus (GPa) = 23.15010 29.00271 26.07641
#
# Velocity S-wave (km/s) = 3.32378 3.72028 3.52760
# Velocity P-wave (km/s) = 6.18815 6.75903 6.47988
#
# Compressibility (1/GPa) = 0.02025242
#
# Stress axis : x y z
#
# Youngs Moduli (GPa) = 38.48507 72.68638 53.59094
#
# Poissons Ratio (x) = 0.36090 0.80636
# Poissons Ratio (y) = 0.19108 -0.05022
# Poissons Ratio (z) = 0.57907 -0.06811
#
# Static dielectric constant tensor:
#      x y z
#    x 4.243350 0.000000 -0.284520 
#    y 0.000000 3.825760 0.000000 
#    z -0.284520 0.000000 3.958710 
# 
# 
# High freq. dielectric constant tensor:
#      x y z
#    x 1.799880 0.000000 -0.008590 
#    y 0.000000 1.828000 0.000000 
#    z -0.008590 0.000000 1.831010 
# 
# From -- ./inp_files/170723.got.cif
#   From: 2010.06.25/outbox.cif.g09.slc.cpg/sg15_86_cif.got.tgz:170723.got - 2010.06.28 07:06:18.
