data_PCOD8142679
_publ_section_title
;
Structure prediction by ZEFSAII (Michael W. Deem and Ramdas Pophale) SiO2 
 PCOD8142679
Probable space group: C 2/C
;
_chemical_formula_sum "Si O2"
_cell_formula_units_Z 64
_cell_length_a 23.602934
_cell_length_b 12.107146
_cell_length_c 12.256122
_cell_angle_alpha 90.000000
_cell_angle_beta 119.772277
_cell_angle_gamma 90.000000
_cell_volume 3040.069290
_symmetry_space_group_name_H-M "C 2/C"
_symmetry_group_IT_number 15
_symmetry_cell_setting 'monoclinic'
loop_
_space_group_symop_operation_xyz
x,y,z
-x,y,1/2-z
-x,-y,-z
x,-y,1/2+z
1/2+x,1/2+y,z
1/2-x,1/2+y,1/2-z
1/2-x,1/2-y,-z
1/2+x,1/2-y,1/2+z
loop_
_atom_site_type_symbol
_atom_site_label
_atom_site_fract_x
_atom_site_fract_y
_atom_site_fract_z
Si Si1 0.473624 0.684396 0.114413
Si Si2 0.932604 0.369302 0.645372
Si Si3 0.907978 0.724351 0.893347
Si Si4 0.346152 0.367807 0.369248
Si Si5 0.781235 0.322983 0.940113
Si Si6 0.806688 0.727885 0.140657
Si Si7 0.293650 0.606036 0.315422
Si Si8 0.095195 0.611481 0.837122
O O1 0.500000 0.619497 0.250000
O O2 0.532020 0.698485 0.084557
O O3 0.447787 0.801044 0.136337
O O4 0.418975 0.623179 0.989885
O O5 0.927668 0.357047 0.510184
O O6 0.869886 0.320290 0.643584
O O7 0.940812 0.495876 0.690015
O O8 0.000000 0.310924 0.750000
O O9 0.849981 0.802126 0.882897
O O10 0.889201 0.649473 0.771610
O O11 0.309939 0.265370 0.385328
O O12 0.335343 0.337996 0.230296
O O13 0.315588 0.484993 0.372081
O O14 0.725628 0.397661 0.830881
O O15 0.750000 0.250000 0.000000
O O16 0.835345 0.405064 0.038318
O O17 0.773172 0.636689 0.186309
O O18 0.750000 0.750000 0.000000
#
# Coordination Sequence:
#
# PCOD8142679 Si02
#       8
#     8   8   8   8   8   8   8   8
#     4   9  20  43  65  95 135 168 222 284 313 387
#     4  12  26  42  68  97 133 180 214 270 344 396
#     4  11  22  42  65  92 134 167 225 269 322 393
#     4  10  24  41  64  94 128 174 221 264 337 390
#     4  10  21  39  63  93 126 163 218 272 320 385
#     4  11  25  45  61  96 141 169 218 281 326 394
#     4  11  24  40  69  95 127 178 218 267 328 395
#     4  10  23  40  68  98 125 173 219 272 327 389
#
# _framework density 21.052152
#
# number of rings (size 3 to 8) (size 9 to 14) (size 15 to 20)
#    0.000    1.500    2.500    1.875    3.500    5.500 
#    0.000    0.625    0.000    0.000    0.000    0.000 
#    0.000    0.000    0.000    0.000    0.000    0.000 
#
# Total GULP energy -396473.107221 kJ/mol
# GULP energy per Si atom -12389.784601 kJ/mol
# Density = 2.100424 g / cm^3
# Si number density = 21.052152 Si / 1000 Ang^3
#
#
#
# Elastic Constant Matrix: (Units=GPa)
#
#
# Indices 1 2 3 4 5 6 
#
# 1 123.6819 25.6056 44.2273 0.0000 9.8038 0.0000
# 2 25.6056 67.0513 44.1499 0.0000 7.7493 0.0000
# 3 44.2273 44.1499 143.5333 0.0000 24.2505 0.0000
# 4 0.0000 0.0000 0.0000 19.5634 0.0000 9.0118
# 5 9.8038 7.7493 24.2505 0.0000 43.3133 0.0000
# 6 0.0000 0.0000 0.0000 9.0118 0.0000 12.6010
#
#
#
# Elastic Compliance Matrix: (Units=1/GPa)
#
#
# Indices 1 2 3 4 5 6 
#
# 1 0.009326 -0.002090 -0.002140 0.000000 -0.000539 0.000000
# 2 -0.002090 0.019171 -0.005250 0.000000 -0.000018 0.000000
# 3 -0.002140 -0.005250 0.009941 0.000000 -0.004142 0.000000
# 4 0.000000 0.000000 0.000000 0.076228 0.000000 -0.054516
# 5 -0.000539 -0.000018 -0.004142 0.000000 0.025532 0.000000
# 6 0.000000 0.000000 0.000000 -0.054516 0.000000 0.118346
#
#
# Mechanical properties :
#
#
# Convention : Reuss Voigt Hill
#
# Bulk Modulus (GPa) = 51.33889 62.47024 56.90457
# Shear Modulus (GPa) = 17.60588 29.78112 23.69350
#
# Velocity S-wave (km/s) = 2.89502 3.76524 3.35844
# Velocity P-wave (km/s) = 5.96777 6.97433 6.49059
#
# Compressibility (1/GPa) = 0.01947841
#
# Stress axis : x y z
#
# Youngs Moduli (GPa) = 107.22924 52.16224 100.59392
#
# Poissons Ratio (x) = 0.10903 0.21523
# Poissons Ratio (y) = 0.22414 0.52810
# Poissons Ratio (z) = 0.22943 0.27384
#
# Static dielectric constant tensor:
#      x y z
#    x 3.827470 0.000000 0.189340 
#    y 0.000000 3.425350 0.000000 
#    z 0.189340 0.000000 4.359290 
# 
# 
# High freq. dielectric constant tensor:
#      x y z
#    x 1.837510 0.000000 0.011300 
#    y 0.000000 1.791260 0.000000 
#    z 0.011300 0.000000 1.849730 
# 
# From -- ./inp_files/118018.got.cif
#   From: 2010.06.25/outbox.cif.g09.slc.cpg/sg15_60_cif.got.tgz:118018.got - 2010.06.28 07:06:18.
