data_PCOD8142244
_publ_section_title
;
Structure prediction by ZEFSAII (Michael W. Deem and Ramdas Pophale) SiO2 
 PCOD8142244
Probable space group: C 2/C
;
_chemical_formula_sum "Si O2"
_cell_formula_units_Z 56
_cell_length_a 14.155840
_cell_length_b 12.075060
_cell_length_c 17.576751
_cell_angle_alpha 90.000000
_cell_angle_beta 113.866599
_cell_angle_gamma 90.000000
_cell_volume 2747.530324
_symmetry_space_group_name_H-M "C 2/C"
_symmetry_group_IT_number 15
_symmetry_cell_setting 'monoclinic'
loop_
_space_group_symop_operation_xyz
x,y,z
-x,y,1/2-z
-x,-y,-z
x,-y,1/2+z
1/2+x,1/2+y,z
1/2-x,1/2+y,1/2-z
1/2-x,1/2-y,-z
1/2+x,1/2-y,1/2+z
loop_
_atom_site_type_symbol
_atom_site_label
_atom_site_fract_x
_atom_site_fract_y
_atom_site_fract_z
Si Si1 0.165326 0.419944 0.164808
Si Si2 0.791888 0.326627 0.168187
Si Si3 0.554094 0.887746 0.989558
Si Si4 0.437100 0.336723 0.459382
Si Si5 0.992936 0.028310 0.122820
Si Si6 0.454114 0.003206 0.160432
Si Si7 0.343416 0.579948 0.201733
O O1 0.224466 0.344668 0.246058
O O2 0.227888 0.534223 0.174981
O O3 0.049156 0.437508 0.155017
O O4 0.151999 0.361870 0.077141
O O5 0.685360 0.339237 0.089499
O O6 0.867168 0.416336 0.155883
O O7 0.840136 0.206071 0.172798
O O8 0.473199 0.788704 0.962547
O O9 0.592223 0.908551 0.914905
O O10 0.500000 0.000000 0.000000
O O11 0.491314 0.410534 0.412407
O O12 0.465015 0.378877 0.552143
O O13 0.901527 0.012182 0.154253
O O14 0.096565 0.068999 0.198920
O O15 0.500000 0.065802 0.250000
#
# Coordination Sequence:
#
# PCOD8142244 Si02
#       7
#     8   8   8   8   8   8   8
#     4  10  21  40  58  95 126 160 211 264 319 372
#     4  11  22  37  69  94 126 168 219 265 320 380
#     4  10  21  38  64  91 129 165 208 268 320 371
#     4  11  23  45  64  96 133 172 213 268 325 384
#     4  10  25  42  67  93 134 169 219 264 320 393
#     4   9  21  37  58  96 130 158 211 268 318 370
#     4  11  23  42  67  94 125 174 218 260 324 388
#
# _framework density 20.38194
#
# number of rings (size 3 to 8) (size 9 to 14) (size 15 to 20)
#    0.000    1.714    1.429    2.571   12.000    0.571 
#    2.571    2.143    0.000    0.000    0.000    0.000 
#    0.000    0.000    0.000    0.000    0.000    0.000 
#
# Total GULP energy -347104.338147 kJ/mol
# GULP energy per Si atom -12396.583505 kJ/mol
# Density = 2.033555 g / cm^3
# Si number density = 20.381940 Si / 1000 Ang^3
#
#
#
# Elastic Constant Matrix: (Units=GPa)
#
#
# Indices 1 2 3 4 5 6 
#
# 1 85.0233 53.1529 66.8547 0.0000 7.5632 0.0000
# 2 53.1529 97.0756 51.3410 0.0000 0.7556 0.0000
# 3 66.8547 51.3410 184.7872 0.0000 -3.2560 0.0000
# 4 0.0000 0.0000 0.0000 27.8705 0.0000 2.1149
# 5 7.5632 0.7556 -3.2560 0.0000 28.1611 0.0000
# 6 0.0000 0.0000 0.0000 2.1149 0.0000 32.6048
#
#
#
# Elastic Compliance Matrix: (Units=1/GPa)
#
#
# Indices 1 2 3 4 5 6 
#
# 1 0.022681 -0.009340 -0.005725 0.000000 -0.006503 0.000000
# 2 -0.009340 0.015936 -0.001014 0.000000 0.001964 0.000000
# 3 -0.005725 -0.001014 0.007808 0.000000 0.002468 0.000000
# 4 0.000000 0.000000 0.000000 0.036058 0.000000 -0.002339
# 5 -0.006503 0.001964 0.002468 0.000000 0.037489 0.000000
# 6 0.000000 0.000000 0.000000 -0.002339 0.000000 0.030822
#
#
# Mechanical properties :
#
#
# Convention : Reuss Voigt Hill
#
# Bulk Modulus (GPa) = 70.09354 78.84259 74.46807
# Shear Modulus (GPa) = 26.63706 30.76309 28.70008
#
# Velocity S-wave (km/s) = 3.61902 3.88923 3.75655
# Velocity P-wave (km/s) = 7.20609 7.67689 7.44521
#
# Compressibility (1/GPa) = 0.01426665
#
# Stress axis : x y z
#
# Youngs Moduli (GPa) = 44.09017 62.74991 128.07055
#
# Poissons Ratio (x) = 0.58609 0.73324
# Poissons Ratio (y) = 0.41180 0.12986
# Poissons Ratio (z) = 0.25243 0.06363
#
# Static dielectric constant tensor:
#      x y z
#    x 3.520640 0.000000 -0.248720 
#    y 0.000000 3.463710 0.000000 
#    z -0.248720 0.000000 5.046440 
# 
# 
# High freq. dielectric constant tensor:
#      x y z
#    x 1.780130 0.000000 -0.001240 
#    y 0.000000 1.774880 0.000000 
#    z -0.001240 0.000000 1.833590 
# 
# From -- ./inp_files/204524.got.cif
#   From: 2010.06.25/outbox.cif.g09.slc.cpg/sg15_103_cif.got.tgz:204524.got - 2010.06.28 07:06:18.
