data_PCOD8142477
_publ_section_title
;
Structure prediction by ZEFSAII (Michael W. Deem and Ramdas Pophale) SiO2 
 PCOD8142477
Probable space group: C 2/C
;
_chemical_formula_sum "Si O2"
_cell_formula_units_Z 60
_cell_length_a 9.018384
_cell_length_b 25.637495
_cell_length_c 13.366041
_cell_angle_alpha 90.000000
_cell_angle_beta 83.337488
_cell_angle_gamma 90.000000
_cell_volume 3069.476156
_symmetry_space_group_name_H-M "C 2/C"
_symmetry_group_IT_number 15
_symmetry_cell_setting 'monoclinic'
loop_
_space_group_symop_operation_xyz
x,y,z
-x,y,1/2-z
-x,-y,-z
x,-y,1/2+z
1/2+x,1/2+y,z
1/2-x,1/2+y,1/2-z
1/2-x,1/2-y,-z
1/2+x,1/2-y,1/2+z
loop_
_atom_site_type_symbol
_atom_site_label
_atom_site_fract_x
_atom_site_fract_y
_atom_site_fract_z
Si Si1 0.691289 0.198967 0.879662
Si Si2 0.665949 0.599380 0.711601
Si Si3 0.143645 0.002817 0.852369
Si Si4 0.406835 0.210122 0.396833
Si Si5 0.812062 0.989941 0.422317
Si Si6 0.500000 0.267473 0.750000
Si Si7 0.794565 0.675698 0.203128
Si Si8 0.156761 0.560266 0.291618
O O1 0.727570 0.149891 0.804351
O O2 0.842661 0.231281 0.890869
O O3 0.567724 0.232936 0.833008
O O4 0.623180 0.183942 0.992849
O O5 0.500000 0.619494 0.750000
O O6 0.705249 0.555828 0.793370
O O7 0.689837 0.572240 0.600250
O O8 0.218865 0.951696 0.801184
O O9 0.190606 0.006202 0.963520
O O10 0.966760 0.993450 0.855118
O O11 0.326394 0.174271 0.319883
O O12 0.584766 0.212359 0.362699
O O13 0.672878 0.019316 0.381551
O O14 0.370395 0.303289 0.808354
O O15 0.814397 0.616908 0.163146
O O16 0.000000 0.554208 0.250000
#
# Coordination Sequence:
#
# PCOD8142477 Si02
#       8
#     8   8   8   8   8   4   8   8
#     4  10  21  39  61  86 113 160 193 245 292 359
#     4   9  19  35  60  87 116 159 194 235 298 352
#     4   9  20  40  59  86 119 153 199 240 291 356
#     4   9  20  40  61  82 117 150 207 233 292 359
#     4   9  20  39  60  86 117 155 200 244 283 361
#     4  10  24  38  56  88 120 150 194 250 304 330
#     4  10  21  39  60  87 115 155 190 250 294 354
#     4  11  21  35  59  88 115 152 192 242 300 349
#
# _framework density 19.547308999999998
#
# number of rings (size 3 to 8) (size 9 to 14) (size 15 to 20)
#    0.000    2.400    1.333    1.200    7.467    1.067 
#    7.200    1.333    0.000    0.000    0.000    0.000 
#    0.000    0.000    0.000    0.000    0.000    0.000 
#
# Total GULP energy -371784.559544 kJ/mol
# GULP energy per Si atom -12392.818651 kJ/mol
# Density = 1.950282 g / cm^3
# Si number density = 19.547309 Si / 1000 Ang^3
#
#
#
# Elastic Constant Matrix: (Units=GPa)
#
#
# Indices 1 2 3 4 5 6 
#
# 1 119.3132 48.4505 24.8535 0.0000 -1.8243 0.0000
# 2 48.4505 73.5699 26.9056 0.0000 -0.2726 0.0000
# 3 24.8535 26.9056 81.7675 0.0000 -6.9440 0.0000
# 4 0.0000 0.0000 0.0000 24.1086 0.0000 -2.8097
# 5 -1.8243 -0.2726 -6.9440 0.0000 20.3939 0.0000
# 6 0.0000 0.0000 0.0000 -2.8097 0.0000 31.1724
#
#
#
# Elastic Compliance Matrix: (Units=1/GPa)
#
#
# Indices 1 2 3 4 5 6 
#
# 1 0.011541 -0.007199 -0.001091 0.000000 0.000565 0.000000
# 2 -0.007199 0.019992 -0.004554 0.000000 -0.001927 0.000000
# 3 -0.001091 -0.004554 0.014465 0.000000 0.004767 0.000000
# 4 0.000000 0.000000 0.000000 0.041919 0.000000 0.003778
# 5 0.000565 -0.001927 0.004767 0.000000 0.050682 0.000000
# 6 0.000000 0.000000 0.000000 0.003778 0.000000 0.032420
#
#
# Mechanical properties :
#
#
# Convention : Reuss Voigt Hill
#
# Bulk Modulus (GPa) = 49.23860 52.78555 51.01207
# Shear Modulus (GPa) = 24.57290 26.76440 25.66865
#
# Velocity S-wave (km/s) = 3.54941 3.70430 3.62768
# Velocity P-wave (km/s) = 6.48397 6.73486 6.61061
#
# Compressibility (1/GPa) = 0.02030927
#
# Stress axis : x y z
#
# Youngs Moduli (GPa) = 86.65054 50.02030 69.13411
#
# Poissons Ratio (x) = 0.36010 0.07542
# Poissons Ratio (y) = 0.62381 0.31482
# Poissons Ratio (z) = 0.09453 0.22778
#
# Static dielectric constant tensor:
#      x y z
#    x 3.554170 0.000000 -0.067800 
#    y 0.000000 3.431310 0.000000 
#    z -0.067800 0.000000 3.608280 
# 
# 
# High freq. dielectric constant tensor:
#      x y z
#    x 1.754070 0.000000 -0.006140 
#    y 0.000000 1.751200 0.000000 
#    z -0.006140 0.000000 1.759430 
# 
# From -- ./inp_files/138231.got.cif
#   From: 2010.06.25/outbox.cif.g09.slc.cpg/sg15_70_cif.got.tgz:138231.got - 2010.06.28 07:06:18.
