data_PCOD8142830
_publ_section_title
;
Structure prediction by ZEFSAII (Michael W. Deem and Ramdas Pophale) SiO2 
 PCOD8142830
Probable space group: C 2/C
;
_chemical_formula_sum "Si O2"
_cell_formula_units_Z 60
_cell_length_a 6.512840
_cell_length_b 23.783076
_cell_length_c 19.257027
_cell_angle_alpha 90.000000
_cell_angle_beta 91.246649
_cell_angle_gamma 90.000000
_cell_volume 2982.118266
_symmetry_space_group_name_H-M "C 2/C"
_symmetry_group_IT_number 15
_symmetry_cell_setting 'monoclinic'
loop_
_space_group_symop_operation_xyz
x,y,z
-x,y,1/2-z
-x,-y,-z
x,-y,1/2+z
1/2+x,1/2+y,z
1/2-x,1/2+y,1/2-z
1/2-x,1/2-y,-z
1/2+x,1/2-y,1/2+z
loop_
_atom_site_type_symbol
_atom_site_label
_atom_site_fract_x
_atom_site_fract_y
_atom_site_fract_z
Si Si1 0.500000 0.574596 0.750000
Si Si2 0.892719 0.684073 0.544501
Si Si3 0.921891 0.382399 0.826889
Si Si4 0.270858 0.852943 0.551818
Si Si5 0.137984 0.808041 0.914467
Si Si6 0.921665 0.949093 0.041568
Si Si7 0.287953 0.910704 0.140391
Si Si8 0.835748 0.487708 0.340455
O O1 0.351184 0.613009 0.796670
O O2 0.348781 0.534215 0.707412
O O3 0.823656 0.741145 0.582321
O O4 0.718888 0.665494 0.487800
O O5 0.918747 0.638590 0.605867
O O6 0.102805 0.686530 0.501086
O O7 0.745444 0.337632 0.848772
O O8 0.840739 0.445914 0.826604
O O9 0.000000 0.366184 0.750000
O O10 0.097180 0.380345 0.886180
O O11 0.153678 0.900500 0.509138
O O12 0.105902 0.815176 0.591006
O O13 0.723339 0.971065 0.081877
O O14 0.120502 0.933170 0.086561
O O15 0.000000 0.000000 0.000000
O O16 0.441286 0.958956 0.171186
#
# Coordination Sequence:
#
# PCOD8142830 Si02
#       8
#     4   8   8   8   8   8   8   8
#     4  10  24  40  60  92 120 170 200 244 304 376
#     4  10  21  39  66  91 120 160 200 261 310 362
#     4  11  25  41  62  89 126 170 205 250 308 378
#     4  11  21  39  63  93 121 159 209 257 312 365
#     4  10  22  41  62  91 122 155 210 255 310 364
#     4  11  22  33  59  96 125 155 197 253 310 362
#     4  11  21  39  61  91 125 157 203 248 309 366
#     4  11  23  40  61  88 129 162 206 249 308 378
#
# _framework density 20.119926
#
# number of rings (size 3 to 8) (size 9 to 14) (size 15 to 20)
#    0.000    1.333    2.667    3.200    1.867    4.800 
#    1.200    0.000    2.933    0.000    0.000    0.000 
#    0.000    0.000    0.000    0.000    0.000    0.000 
#
# Total GULP energy -371772.389264 kJ/mol
# GULP energy per Si atom -12392.412975 kJ/mol
# Density = 2.007413 g / cm^3
# Si number density = 20.119926 Si / 1000 Ang^3
#
#
#
# Elastic Constant Matrix: (Units=GPa)
#
#
# Indices 1 2 3 4 5 6 
#
# 1 118.9775 27.9250 46.4001 0.0000 -16.1067 0.0000
# 2 27.9250 78.2663 40.6627 0.0000 -18.0889 0.0000
# 3 46.4001 40.6627 102.5456 0.0000 -21.8049 0.0000
# 4 0.0000 0.0000 0.0000 15.9084 0.0000 -9.5797
# 5 -16.1067 -18.0889 -21.8049 0.0000 36.3181 0.0000
# 6 0.0000 0.0000 0.0000 -9.5797 0.0000 27.9874
#
#
#
# Elastic Compliance Matrix: (Units=1/GPa)
#
#
# Indices 1 2 3 4 5 6 
#
# 1 0.010442 -0.001349 -0.003838 0.000000 0.001655 0.000000
# 2 -0.001349 0.017030 -0.005120 0.000000 0.004810 0.000000
# 3 -0.003838 -0.005120 0.014460 0.000000 0.004430 0.000000
# 4 0.000000 0.000000 0.000000 0.079180 0.000000 0.027102
# 5 0.001655 0.004810 0.004430 0.000000 0.033323 0.000000
# 6 0.000000 0.000000 0.000000 0.027102 0.000000 0.045007
#
#
# Mechanical properties :
#
#
# Convention : Reuss Voigt Hill
#
# Bulk Modulus (GPa) = 46.90725 58.86279 52.88502
# Shear Modulus (GPa) = 22.01053 28.36291 25.18672
#
# Velocity S-wave (km/s) = 3.31110 3.75866 3.54196
# Velocity P-wave (km/s) = 6.16298 6.93947 6.56272
#
# Compressibility (1/GPa) = 0.02131867
#
# Stress axis : x y z
#
# Youngs Moduli (GPa) = 95.76257 58.72054 69.15406
#
# Poissons Ratio (x) = 0.07923 0.26542
# Poissons Ratio (y) = 0.12921 0.35404
# Poissons Ratio (z) = 0.36755 0.30063
#
# Static dielectric constant tensor:
#      x y z
#    x 3.929330 0.000000 -0.225870 
#    y 0.000000 3.405790 0.000000 
#    z -0.225870 0.000000 3.906950 
# 
# 
# High freq. dielectric constant tensor:
#      x y z
#    x 1.804400 0.000000 -0.008520 
#    y 0.000000 1.766570 0.000000 
#    z -0.008520 0.000000 1.787790 
# 
# From -- ./inp_files/186172.got.cif
#   From: 2010.06.25/outbox.cif.g09.slc.cpg/sg15_94_cif.got.tgz:186172.got - 2010.06.28 07:06:18.
