data_PCOD8142699
_publ_section_title
;
Structure prediction by ZEFSAII (Michael W. Deem and Ramdas Pophale) SiO2 
 PCOD8142699
Probable space group: C 2/C
;
_chemical_formula_sum "Si O2"
_cell_formula_units_Z 56
_cell_length_a 21.552350
_cell_length_b 21.210019
_cell_length_c 10.452430
_cell_angle_alpha 90.000000
_cell_angle_beta 147.913566
_cell_angle_gamma 90.000000
_cell_volume 2538.103803
_symmetry_space_group_name_H-M "C 2/C"
_symmetry_group_IT_number 15
_symmetry_cell_setting 'monoclinic'
loop_
_space_group_symop_operation_xyz
x,y,z
-x,y,1/2-z
-x,-y,-z
x,-y,1/2+z
1/2+x,1/2+y,z
1/2-x,1/2+y,1/2-z
1/2-x,1/2-y,-z
1/2+x,1/2-y,1/2+z
loop_
_atom_site_type_symbol
_atom_site_label
_atom_site_fract_x
_atom_site_fract_y
_atom_site_fract_z
Si Si1 0.688116 0.280590 0.646094
Si Si2 0.633948 0.863862 0.676049
Si Si3 0.759399 0.976513 0.019208
Si Si4 0.539174 0.964468 0.191718
Si Si5 0.627215 0.462166 0.018148
Si Si6 0.051171 0.764706 0.148584
Si Si7 0.377597 0.681032 0.977383
O O1 0.767180 0.342604 0.755436
O O2 0.625389 0.263438 0.405555
O O3 0.584143 0.287044 0.568609
O O4 0.772233 0.224787 0.841837
O O5 0.527697 0.897827 0.416492
O O6 0.567052 0.805226 0.621810
O O7 0.691618 0.909526 0.885301
O O8 0.857679 0.972766 0.302213
O O9 0.679369 0.034418 0.931448
O O10 0.794916 0.993925 0.936649
O O11 0.500000 0.003000 0.250000
O O12 0.500000 0.000000 0.000000
O O13 0.500000 0.481383 0.750000
O O14 0.652737 0.389300 0.031436
O O15 0.109138 0.814953 0.153389
O O16 0.500000 0.705078 0.250000
#
# Coordination Sequence:
#
# PCOD8142699 Si02
#       7
#     8   8   8   8   8   8   8
#     4  10  21  40  66  97 125 169 215 256 318 381
#     4  10  21  39  63  99 131 166 211 268 314 387
#     4  11  22  42  66  93 132 168 214 273 323 382
#     4  10  22  41  63  97 129 167 209 265 326 384
#     4  11  24  43  64  93 127 173 219 266 324 390
#     4  10  21  40  66  96 126 171 213 256 319 384
#     4  10  22  41  62  89 131 164 211 268 315 380
#
# _framework density 22.063715999999999
#
# number of rings (size 3 to 8) (size 9 to 14) (size 15 to 20)
#    0.000    1.714    0.000    5.571    2.000    2.857 
#   25.714    0.000    0.000    0.000    0.000    0.000 
#    0.000    0.000    0.000    0.000    0.000    0.000 
#
# Total GULP energy -346867.693520 kJ/mol
# GULP energy per Si atom -12388.131911 kJ/mol
# Density = 2.201350 g / cm^3
# Si number density = 22.063716 Si / 1000 Ang^3
#
#
#
# Elastic Constant Matrix: (Units=GPa)
#
#
# Indices 1 2 3 4 5 6 
#
# 1 96.9554 40.5497 13.4849 0.0000 1.7951 0.0000
# 2 40.5497 88.0589 36.8894 0.0000 16.2643 0.0000
# 3 13.4849 36.8894 96.3322 0.0000 5.0343 0.0000
# 4 0.0000 0.0000 0.0000 24.5159 0.0000 12.8667
# 5 1.7951 16.2643 5.0343 0.0000 42.5799 0.0000
# 6 0.0000 0.0000 0.0000 12.8667 0.0000 24.9716
#
#
#
# Elastic Compliance Matrix: (Units=1/GPa)
#
#
# Indices 1 2 3 4 5 6 
#
# 1 0.012938 -0.006559 0.000602 0.000000 0.001889 0.000000
# 2 -0.006559 0.017802 -0.005593 0.000000 -0.005862 0.000000
# 3 0.000602 -0.005593 0.012404 0.000000 0.000644 0.000000
# 4 0.000000 0.000000 0.000000 0.055909 0.000000 -0.028807
# 5 0.001889 -0.005862 0.000644 0.000000 0.025569 0.000000
# 6 0.000000 0.000000 0.000000 -0.028807 0.000000 0.054889
#
#
# Mechanical properties :
#
#
# Convention : Reuss Voigt Hill
#
# Bulk Modulus (GPa) = 49.88662 51.46606 50.67634
# Shear Modulus (GPa) = 23.89008 31.10831 27.49920
#
# Velocity S-wave (km/s) = 3.29413 3.75898 3.53420
# Velocity P-wave (km/s) = 6.09325 6.49743 6.29858
#
# Compressibility (1/GPa) = 0.02004546
#
# Stress axis : x y z
#
# Youngs Moduli (GPa) = 77.28883 56.17401 80.61633
#
# Poissons Ratio (x) = 0.36844 -0.04851
# Poissons Ratio (y) = 0.50693 0.45085
# Poissons Ratio (z) = -0.04651 0.31415
#
# Static dielectric constant tensor:
#      x y z
#    x 4.222580 0.000000 0.304120 
#    y 0.000000 4.171600 0.000000 
#    z 0.304120 0.000000 4.799940 
# 
# 
# High freq. dielectric constant tensor:
#      x y z
#    x 1.864870 0.000000 -0.001260 
#    y 0.000000 1.852960 0.000000 
#    z -0.001260 0.000000 1.886270 
# 
# From -- ./inp_files/119867.got.cif
#   From: 2010.06.25/outbox.cif.g09.slc.cpg/sg15_60_cif.got.tgz:119867.got - 2010.06.28 07:06:18.
