data_PCOD8142411
_publ_section_title
;
Structure prediction by ZEFSAII (Michael W. Deem and Ramdas Pophale) SiO2 
 PCOD8142411
Probable space group: C 2/C
;
_chemical_formula_sum "Si O2"
_cell_formula_units_Z 64
_cell_length_a 10.180897
_cell_length_b 9.785543
_cell_length_c 32.061614
_cell_angle_alpha 90.000000
_cell_angle_beta 90.060504
_cell_angle_gamma 90.000000
_cell_volume 3194.155923
_symmetry_space_group_name_H-M "C 2/C"
_symmetry_group_IT_number 15
_symmetry_cell_setting 'monoclinic'
loop_
_space_group_symop_operation_xyz
x,y,z
-x,y,1/2-z
-x,-y,-z
x,-y,1/2+z
1/2+x,1/2+y,z
1/2-x,1/2+y,1/2-z
1/2-x,1/2-y,-z
1/2+x,1/2-y,1/2+z
loop_
_atom_site_type_symbol
_atom_site_label
_atom_site_fract_x
_atom_site_fract_y
_atom_site_fract_z
Si Si1 0.534561 0.530675 0.202740
Si Si2 0.760601 0.224320 0.431888
Si Si3 0.245798 0.712742 0.336899
Si Si4 0.547301 0.756604 0.668498
Si Si5 0.468578 0.734498 0.926166
Si Si6 0.355411 0.474320 0.484987
Si Si7 0.309038 0.015855 0.435706
Si Si8 0.767900 0.972136 0.656090
O O1 0.500000 0.562818 0.250000
O O2 0.655903 0.627410 0.191348
O O3 0.576367 0.371701 0.198588
O O4 0.409776 0.567562 0.173976
O O5 0.766790 0.167249 0.384973
O O6 0.616648 0.288269 0.442174
O O7 0.853823 0.356952 0.438613
O O8 0.796062 0.109403 0.464483
O O9 0.096544 0.678538 0.322551
O O10 0.272504 0.874270 0.331072
O O11 0.544865 0.693123 0.622038
O O12 0.658240 0.870915 0.675068
O O13 0.361048 0.647106 0.951269
O O14 0.441074 0.895955 0.931767
O O15 0.500000 0.500000 0.500000
O O16 0.267920 0.429870 0.523968
O O17 0.221469 0.040315 0.394042
#
# Coordination Sequence:
#
# PCOD8142411 Si02
#       8
#     8   8   8   8   8   8   8   8
#     4  11  23  38  61  92 119 147 185 234 291 353
#     4  10  21  39  56  80 111 155 191 236 283 332
#     4   9  20  38  62  83 116 150 194 236 282 343
#     4   9  20  41  63  84 115 155 192 234 287 341
#     4  10  21  40  58  82 114 149 196 239 278 332
#     4  12  23  34  56  84 118 154 192 237 288 329
#     4  10  21  39  57  81 114 151 196 241 282 330
#     4   9  21  40  60  84 116 154 194 239 284 341
#
# _framework density 20.036591999999999
#
# number of rings (size 3 to 8) (size 9 to 14) (size 15 to 20)
#    0.000    2.000    1.250    2.250    1.750    3.500 
#    2.250    3.125    0.000    0.000    0.000    0.000 
#    0.000    0.000    0.000    0.000    0.000    0.000 
#
# Total GULP energy -396819.936807 kJ/mol
# GULP energy per Si atom -12400.623025 kJ/mol
# Density = 1.999099 g / cm^3
# Si number density = 20.036592 Si / 1000 Ang^3
#
#
#
# Elastic Constant Matrix: (Units=GPa)
#
#
# Indices 1 2 3 4 5 6 
#
# 1 83.8734 47.9901 33.5796 0.0000 -15.8160 0.0000
# 2 47.9901 89.2566 32.1614 0.0000 -10.1900 0.0000
# 3 33.5796 32.1614 93.1920 0.0000 -23.6289 0.0000
# 4 0.0000 0.0000 0.0000 24.0435 0.0000 -9.5000
# 5 -15.8160 -10.1900 -23.6289 0.0000 28.7521 0.0000
# 6 0.0000 0.0000 0.0000 -9.5000 0.0000 34.3022
#
#
#
# Elastic Compliance Matrix: (Units=1/GPa)
#
#
# Indices 1 2 3 4 5 6 
#
# 1 0.018853 -0.008643 -0.002473 0.000000 0.005275 0.000000
# 2 -0.008643 0.016787 -0.003001 0.000000 -0.001272 0.000000
# 3 -0.002473 -0.003001 0.015213 0.000000 0.010078 0.000000
# 4 0.000000 0.000000 0.000000 0.046702 0.000000 0.012934
# 5 0.005275 -0.001272 0.010078 0.000000 0.045514 0.000000
# 6 0.000000 0.000000 0.000000 0.012934 0.000000 0.032735
#
#
# Mechanical properties :
#
#
# Convention : Reuss Voigt Hill
#
# Bulk Modulus (GPa) = 44.21306 54.86491 49.53899
# Shear Modulus (GPa) = 23.63204 27.59229 25.61216
#
# Velocity S-wave (km/s) = 3.43803 3.71495 3.57917
# Velocity P-wave (km/s) = 6.15420 6.77074 6.46982
#
# Compressibility (1/GPa) = 0.02261775
#
# Stress axis : x y z
#
# Youngs Moduli (GPa) = 53.04203 59.56933 65.73468
#
# Poissons Ratio (x) = 0.51488 0.16255
# Poissons Ratio (y) = 0.45846 0.19730
# Poissons Ratio (z) = 0.13116 0.17879
#
# Static dielectric constant tensor:
#      x y z
#    x 3.622860 0.000000 -0.077660 
#    y 0.000000 3.674680 0.000000 
#    z -0.077660 0.000000 3.551390 
# 
# 
# High freq. dielectric constant tensor:
#      x y z
#    x 1.771050 0.000000 -0.005190 
#    y 0.000000 1.782230 0.000000 
#    z -0.005190 0.000000 1.780840 
# 
# From -- ./inp_files/310315.got.cif
#   From: 2010.06.25/outbox.cif.g09.slc.cpg/sg15_156_cif.got.tgz:310315.got - 2010.06.28 07:06:18.
