data_PCOD8142792
_publ_section_title
;
Structure prediction by ZEFSAII (Michael W. Deem and Ramdas Pophale) SiO2 
 PCOD8142792
Probable space group: C 2/C
;
_chemical_formula_sum "Si O2"
_cell_formula_units_Z 48
_cell_length_a 28.129634
_cell_length_b 7.696922
_cell_length_c 18.320629
_cell_angle_alpha 90.000000
_cell_angle_beta 148.192553
_cell_angle_gamma 90.000000
_cell_volume 2090.676123
_symmetry_space_group_name_H-M "C 2/C"
_symmetry_group_IT_number 15
_symmetry_cell_setting 'monoclinic'
loop_
_space_group_symop_operation_xyz
x,y,z
-x,y,1/2-z
-x,-y,-z
x,-y,1/2+z
1/2+x,1/2+y,z
1/2-x,1/2+y,1/2-z
1/2-x,1/2-y,-z
1/2+x,1/2-y,1/2+z
loop_
_atom_site_type_symbol
_atom_site_label
_atom_site_fract_x
_atom_site_fract_y
_atom_site_fract_z
Si Si1 0.075211 0.863378 0.084743
Si Si2 0.857972 0.815871 0.026190
Si Si3 0.276209 0.883100 0.189407
Si Si4 0.039814 0.253619 0.695991
Si Si5 0.231056 0.501721 0.666503
Si Si6 0.532204 0.913647 0.116180
O O1 0.087576 0.771290 0.179899
O O2 0.166372 0.952093 0.178561
O O3 0.037037 0.747650 0.967479
O O4 0.000000 0.000000 0.000000
O O5 0.889917 0.802224 0.151022
O O6 0.943862 0.842216 0.084067
O O7 0.807295 0.635017 0.942778
O O8 0.792954 0.981127 0.936773
O O9 0.225532 0.698171 0.134298
O O10 0.363020 0.852219 0.251436
O O11 0.316616 0.967192 0.317231
O O12 0.019582 0.462037 0.670435
O O13 0.500000 0.000000 0.000000
#
# Coordination Sequence:
#
# PCOD8142792 Si02
#       6
#     8   8   8   8   8   8
#     4  11  21  40  65  97 128 164 218 266 325 393
#     4  11  24  46  64  94 133 173 221 267 328 391
#     4  12  24  41  65  98 132 167 220 271 324 385
#     4  10  24  44  66  90 132 176 215 274 327 384
#     4  12  24  39  68  98 128 173 215 271 327 391
#     4  10  21  39  65  93 125 169 212 265 323 383
#
# _framework density 22.959078999999999
#
# number of rings (size 3 to 8) (size 9 to 14) (size 15 to 20)
#    0.000    1.000    3.333    5.000    2.333    2.667 
#    3.000    3.333    0.000    0.000    0.000    0.000 
#    0.000    0.000    0.000    0.000    0.000    0.000 
#
# Total GULP energy -297460.916862 kJ/mol
# GULP energy per Si atom -12394.204869 kJ/mol
# Density = 2.290682 g / cm^3
# Si number density = 22.959079 Si / 1000 Ang^3
#
#
#
# Elastic Constant Matrix: (Units=GPa)
#
#
# Indices 1 2 3 4 5 6 
#
# 1 55.4866 4.2311 20.4058 0.0000 4.3136 0.0000
# 2 4.2311 142.9266 55.6918 0.0001 -9.4772 0.0000
# 3 20.4058 55.6918 121.6389 0.0000 0.2528 0.0000
# 4 0.0000 0.0001 0.0000 35.9798 0.0000 2.6539
# 5 4.3136 -9.4772 0.2528 0.0000 29.6780 0.0000
# 6 0.0000 0.0000 0.0000 2.6539 0.0000 26.4168
#
#
#
# Elastic Compliance Matrix: (Units=1/GPa)
#
#
# Indices 1 2 3 4 5 6 
#
# 1 0.019483 0.000636 -0.003554 0.000000 -0.002598 0.000000
# 2 0.000636 0.008768 -0.004127 0.000000 0.002743 0.000000
# 3 -0.003554 -0.004127 0.010708 0.000000 -0.000892 0.000000
# 4 0.000000 0.000000 0.000000 0.028001 0.000000 -0.002813
# 5 -0.002598 0.002743 -0.000892 0.000000 0.034956 0.000000
# 6 0.000000 0.000000 0.000000 -0.002813 0.000000 0.038137
#
#
# Mechanical properties :
#
#
# Convention : Reuss Voigt Hill
#
# Bulk Modulus (GPa) = 40.21027 53.41217 46.81122
# Shear Modulus (GPa) = 30.78201 34.39649 32.58925
#
# Velocity S-wave (km/s) = 3.66558 3.87481 3.77165
# Velocity P-wave (km/s) = 5.95543 6.58282 6.27697
#
# Compressibility (1/GPa) = 0.02486927
#
# Stress axis : x y z
#
# Youngs Moduli (GPa) = 51.32697 114.05695 93.38422
#
# Poissons Ratio (x) = -0.07252 0.33190
# Poissons Ratio (y) = -0.03263 0.38535
# Poissons Ratio (z) = 0.18242 0.47066
#
# Static dielectric constant tensor:
#      x y z
#    x 3.410230 0.000000 0.221420 
#    y 0.000000 4.687860 0.000000 
#    z 0.221420 0.000000 4.065590 
# 
# 
# High freq. dielectric constant tensor:
#      x y z
#    x 1.885420 0.000000 0.027150 
#    y 0.000000 1.915580 0.000000 
#    z 0.027150 0.000000 1.909630 
# 
# From -- ./inp_files/258770.got.cif
#   From: 2010.06.25/outbox.cif.g09.slc.cpg/sg15_130_cif.got.tgz:258770.got - 2010.06.28 07:06:18.
