data_PCOD8142319
_publ_section_title
;
Structure prediction by ZEFSAII (Michael W. Deem and Ramdas Pophale) SiO2 
 PCOD8142319
Probable space group: C 2/C
;
_chemical_formula_sum "Si O2"
_cell_formula_units_Z 64
_cell_length_a 30.930522
_cell_length_b 14.735500
_cell_length_c 10.176375
_cell_angle_alpha 90.000000
_cell_angle_beta 42.619255
_cell_angle_gamma 90.000000
_cell_volume 3140.602637
_symmetry_space_group_name_H-M "C 2/C"
_symmetry_group_IT_number 15
_symmetry_cell_setting 'monoclinic'
loop_
_space_group_symop_operation_xyz
x,y,z
-x,y,1/2-z
-x,-y,-z
x,-y,1/2+z
1/2+x,1/2+y,z
1/2-x,1/2+y,1/2-z
1/2-x,1/2-y,-z
1/2+x,1/2-y,1/2+z
loop_
_atom_site_type_symbol
_atom_site_label
_atom_site_fract_x
_atom_site_fract_y
_atom_site_fract_z
Si Si1 0.423501 0.946021 0.410540
Si Si2 0.749122 0.855331 0.040660
Si Si3 0.364718 0.513972 0.245354
Si Si4 0.929438 0.057534 0.350067
Si Si5 0.348454 0.998677 0.330980
Si Si6 0.662285 0.683526 0.667167
Si Si7 0.273673 0.833988 0.107142
Si Si8 0.073975 0.754002 0.563546
O O1 0.500000 0.954162 0.250000
O O2 0.399217 0.995438 0.334932
O O3 0.396685 0.842742 0.463211
O O4 0.390744 0.994133 0.606606
O O5 0.694310 0.907703 0.082261
O O6 0.735325 0.867343 0.225392
O O7 0.750000 0.750000 0.000000
O O8 0.816931 0.901613 0.857335
O O9 0.424969 0.525326 0.209653
O O10 0.332707 0.422774 0.376103
O O11 0.386193 0.501797 0.046535
O O12 0.902552 0.160729 0.401995
O O13 0.000000 0.054289 0.250000
O O14 0.302275 0.084704 0.455111
O O15 0.680362 0.745102 0.501137
O O16 0.707927 0.701437 0.690986
O O17 0.592082 0.717622 0.872509
O O18 0.000000 0.741587 0.750000
#
# Coordination Sequence:
#
# PCOD8142319 Si02
#       8
#     8   8   8   8   8   8   8   8
#     4  11  24  43  67  93 126 170 216 264 316 381
#     4  12  28  40  62  97 133 164 209 272 326 373
#     4  11  23  40  64  91 129 162 208 253 319 370
#     4  10  22  40  64  92 126 167 211 254 302 371
#     4  12  24  43  67  94 131 167 213 263 327 384
#     4  10  21  38  66  90 125 171 205 261 314 383
#     4  11  23  41  63  93 129 166 216 261 320 388
#     4   9  19  37  62  91 119 162 214 251 298 371
#
# _framework density 20.378253999999998
#
# number of rings (size 3 to 8) (size 9 to 14) (size 15 to 20)
#    0.000    1.250    3.750    2.250    5.250    0.000 
#    0.000    0.000    0.000    1.500    0.000    0.000 
#    0.000    0.000    0.000    0.000    0.000    0.000 
#
# Total GULP energy -396560.564026 kJ/mol
# GULP energy per Si atom -12392.517626 kJ/mol
# Density = 2.033187 g / cm^3
# Si number density = 20.378254 Si / 1000 Ang^3
#
#
#
# Elastic Constant Matrix: (Units=GPa)
#
#
# Indices 1 2 3 4 5 6 
#
# 1 93.8620 22.3336 34.7494 0.0000 4.0865 0.0000
# 2 22.3336 118.4648 32.2497 0.0000 -9.6643 0.0000
# 3 34.7494 32.2497 81.3926 0.0000 -3.6481 0.0000
# 4 0.0000 0.0000 0.0000 34.1806 0.0000 -5.4400
# 5 4.0865 -9.6643 -3.6481 0.0000 30.2830 0.0000
# 6 0.0000 0.0000 0.0000 -5.4400 0.0000 19.8691
#
#
#
# Elastic Compliance Matrix: (Units=1/GPa)
#
#
# Indices 1 2 3 4 5 6 
#
# 1 0.012990 -0.001269 -0.005168 0.000000 -0.002780 0.000000
# 2 -0.001269 0.009791 -0.003207 0.000000 0.002909 0.000000
# 3 -0.005168 -0.003207 0.015834 0.000000 0.001581 0.000000
# 4 0.000000 0.000000 0.000000 0.030589 0.000000 0.008375
# 5 -0.002780 0.002909 0.001581 0.000000 0.034516 0.000000
# 6 0.000000 0.000000 0.000000 0.008375 0.000000 0.052623
#
#
# Mechanical properties :
#
#
# Convention : Reuss Voigt Hill
#
# Bulk Modulus (GPa) = 51.74043 52.48721 52.11382
# Shear Modulus (GPa) = 27.46143 30.49231 28.97687
#
# Velocity S-wave (km/s) = 3.67493 3.87242 3.77497
# Velocity P-wave (km/s) = 6.59181 6.76806 6.68051
#
# Compressibility (1/GPa) = 0.01932724
#
# Stress axis : x y z
#
# Youngs Moduli (GPa) = 76.98145 102.13433 63.15478
#
# Poissons Ratio (x) = 0.12961 0.32637
# Poissons Ratio (y) = 0.09769 0.20255
# Poissons Ratio (z) = 0.39782 0.32757
#
# Static dielectric constant tensor:
#      x y z
#    x 3.513480 0.000000 -0.122950 
#    y 0.000000 3.950050 0.000000 
#    z -0.122950 0.000000 3.792130 
# 
# 
# High freq. dielectric constant tensor:
#      x y z
#    x 1.775570 0.000000 -0.010580 
#    y 0.000000 1.809070 0.000000 
#    z -0.010580 0.000000 1.804880 
# 
# From -- ./inp_files/70139.got.cif
#   From: 2010.06.25/outbox.cif.g09.slc.cpg/sg15_36_cif.got.tgz:70139.got - 2010.06.28 07:06:18.
