data_PCOD8142615
_publ_section_title
;
Structure prediction by ZEFSAII (Michael W. Deem and Ramdas Pophale) SiO2 
 PCOD8142615
Probable space group: C 2/C
;
_chemical_formula_sum "Si O2"
_cell_formula_units_Z 56
_cell_length_a 8.528632
_cell_length_b 11.179969
_cell_length_c 30.026222
_cell_angle_alpha 90.000000
_cell_angle_beta 65.981255
_cell_angle_gamma 90.000000
_cell_volume 2615.095423
_symmetry_space_group_name_H-M "C 2/C"
_symmetry_group_IT_number 15
_symmetry_cell_setting 'monoclinic'
loop_
_space_group_symop_operation_xyz
x,y,z
-x,y,1/2-z
-x,-y,-z
x,-y,1/2+z
1/2+x,1/2+y,z
1/2-x,1/2+y,1/2-z
1/2-x,1/2-y,-z
1/2+x,1/2-y,1/2+z
loop_
_atom_site_type_symbol
_atom_site_label
_atom_site_fract_x
_atom_site_fract_y
_atom_site_fract_z
Si Si1 0.766855 0.743834 0.647228
Si Si2 0.037786 0.545095 0.615209
Si Si3 0.161006 0.836872 0.475686
Si Si4 0.350788 0.031434 0.301695
Si Si5 0.514436 0.417446 0.577433
Si Si6 0.569253 0.637347 0.856928
Si Si7 0.846467 0.662419 0.091915
O O1 0.602750 0.672028 0.648684
O O2 0.908281 0.648589 0.645672
O O3 0.849115 0.830637 0.600086
O O4 0.715575 0.830728 0.694800
O O5 0.204779 0.593636 0.570985
O O6 0.085386 0.477904 0.654824
O O7 0.948635 0.457711 0.589975
O O8 0.250000 0.750000 0.500000
O O9 0.054774 0.926364 0.519916
O O10 0.053102 0.746060 0.456101
O O11 0.500000 0.004278 0.250000
O O12 0.196625 0.937611 0.309821
O O13 0.473370 0.553223 0.595651
O O14 0.659305 0.367207 0.594153
O O15 0.668946 0.756647 0.861618
#
# Coordination Sequence:
#
# PCOD8142615 Si02
#       7
#     8   8   8   8   8   8   8
#     4  11  22  41  68  94 126 167 211 266 320 383
#     4  12  22  42  68  90 132 177 214 265 323 386
#     4  10  21  39  62  94 138 180 217 254 311 378
#     4  11  26  46  68  93 122 161 215 280 336 388
#     4  10  22  39  62  92 135 176 213 257 308 372
#     4  11  22  41  68  92 126 165 217 261 322 387
#     4  11  21  38  63  91 127 176 214 252 311 379
#
# _framework density 21.414134000000001
#
# number of rings (size 3 to 8) (size 9 to 14) (size 15 to 20)
#    0.000    1.143    7.143    0.000    0.000    5.143 
#    0.000    1.429    0.000    0.000    0.000    0.000 
#    0.000    0.000    0.000    0.000    0.000    0.000 
#
# Total GULP energy -346938.167667 kJ/mol
# GULP energy per Si atom -12390.648845 kJ/mol
# Density = 2.136539 g / cm^3
# Si number density = 21.414134 Si / 1000 Ang^3
#
#
#
# Elastic Constant Matrix: (Units=GPa)
#
#
# Indices 1 2 3 4 5 6 
#
# 1 86.5387 26.4445 27.0467 0.0000 -16.8593 0.0000
# 2 26.4445 94.0585 16.6543 0.0000 -9.6090 0.0000
# 3 27.0467 16.6543 102.7890 0.0000 -22.9469 0.0000
# 4 0.0000 0.0000 0.0000 17.5271 0.0000 1.2714
# 5 -16.8593 -9.6090 -22.9469 0.0000 23.5632 0.0000
# 6 0.0000 0.0000 0.0000 1.2714 0.0000 40.7465
#
#
#
# Elastic Compliance Matrix: (Units=1/GPa)
#
#
# Indices 1 2 3 4 5 6 
#
# 1 0.014450 -0.003005 -0.001637 0.000000 0.007520 0.000000
# 2 -0.003005 0.011801 -0.000673 0.000000 0.002007 0.000000
# 3 -0.001637 -0.000673 0.012709 0.000000 0.010931 0.000000
# 4 0.000000 0.000000 0.000000 0.057184 0.000000 -0.001784
# 5 0.007520 0.002007 0.010931 0.000000 0.059282 0.000000
# 6 0.000000 0.000000 0.000000 -0.001784 0.000000 0.024598
#
#
# Mechanical properties :
#
#
# Convention : Reuss Voigt Hill
#
# Bulk Modulus (GPa) = 35.29827 47.07523 41.18675
# Shear Modulus (GPa) = 24.98797 30.58340 27.78569
#
# Velocity S-wave (km/s) = 3.41969 3.78324 3.60605
# Velocity P-wave (km/s) = 5.66672 6.41208 6.05089
#
# Compressibility (1/GPa) = 0.02833000
#
# Stress axis : x y z
#
# Youngs Moduli (GPa) = 69.20311 84.74087 78.68694
#
# Poissons Ratio (x) = 0.25462 0.12879
# Poissons Ratio (y) = 0.20793 0.05299
# Poissons Ratio (z) = 0.11326 0.05706
#
# Static dielectric constant tensor:
#      x y z
#    x 3.908290 0.000000 -0.204900 
#    y 0.000000 4.270770 0.000000 
#    z -0.204900 0.000000 3.451000 
# 
# 
# High freq. dielectric constant tensor:
#      x y z
#    x 1.840320 0.000000 -0.005220 
#    y 0.000000 1.871290 0.000000 
#    z -0.005220 0.000000 1.805930 
# 
# From -- ./inp_files/307386.got.cif
#   From: 2010.06.25/outbox.cif.g09.slc.cpg/sg15_154_cif.got.tgz:307386.got - 2010.06.28 07:06:18.
