data_PCOD8142740
_publ_section_title
;
Structure prediction by ZEFSAII (Michael W. Deem and Ramdas Pophale) SiO2 
 PCOD8142740
Probable space group: C 2/C
;
_chemical_formula_sum "Si O2"
_cell_formula_units_Z 56
_cell_length_a 14.729455
_cell_length_b 12.766480
_cell_length_c 27.619926
_cell_angle_alpha 90.000000
_cell_angle_beta 27.747736
_cell_angle_gamma 90.000000
_cell_volume 2418.099985
_symmetry_space_group_name_H-M "C 2/C"
_symmetry_group_IT_number 15
_symmetry_cell_setting 'monoclinic'
loop_
_space_group_symop_operation_xyz
x,y,z
-x,y,1/2-z
-x,-y,-z
x,-y,1/2+z
1/2+x,1/2+y,z
1/2-x,1/2+y,1/2-z
1/2-x,1/2-y,-z
1/2+x,1/2-y,1/2+z
loop_
_atom_site_type_symbol
_atom_site_label
_atom_site_fract_x
_atom_site_fract_y
_atom_site_fract_z
Si Si1 0.694349 0.388776 0.371353
Si Si2 0.294504 0.330137 0.868632
Si Si3 0.453430 0.785900 0.880487
Si Si4 0.176149 0.956980 0.558166
Si Si5 0.757686 0.045977 0.072040
Si Si6 0.458394 0.058615 0.084554
Si Si7 0.695608 0.587622 0.763459
O O1 0.756384 0.289196 0.373363
O O2 0.776937 0.489821 0.360597
O O3 0.461677 0.391310 0.475798
O O4 0.786044 0.390454 0.274344
O O5 0.500000 0.368647 0.750000
O O6 0.300513 0.346056 0.924372
O O7 0.124848 0.407607 0.928271
O O8 0.586359 0.844250 0.858044
O O9 0.582520 0.691212 0.798292
O O10 0.409759 0.867855 0.857764
O O11 0.250000 0.750000 0.000000
O O12 0.243485 0.957700 0.470235
O O13 0.308083 0.041976 0.525413
O O14 0.952202 0.990424 0.665541
O O15 0.366213 0.947891 0.146752
#
# Coordination Sequence:
#
# PCOD8142740 Si02
#       7
#     8   8   8   8   8   8   8
#     4  10  21  39  64  94 127 165 209 266 319 382
#     4  12  23  38  62  95 128 166 208 256 334 386
#     4  11  18  40  71  88 119 180 222 252 319 393
#     4  10  22  40  64  90 130 165 212 268 306 386
#     4   9  20  40  67  92 120 168 218 258 316 375
#     4  11  22  40  66  96 125 171 217 268 323 373
#     4  11  21  40  69  93 128 167 222 264 312 389
#
# _framework density 23.15868
#
# number of rings (size 3 to 8) (size 9 to 14) (size 15 to 20)
#    0.000    1.429    7.143    0.429    0.000    2.857 
#    0.000    4.286    3.143    0.000    0.000    0.000 
#    0.000    0.000    0.000    0.000    0.000    0.000 
#
# Total GULP energy -347076.830243 kJ/mol
# GULP energy per Si atom -12395.601080 kJ/mol
# Density = 2.310597 g / cm^3
# Si number density = 23.158680 Si / 1000 Ang^3
#
#
#
# Elastic Constant Matrix: (Units=GPa)
#
#
# Indices 1 2 3 4 5 6 
#
# 1 117.9675 42.0808 9.8284 0.0003 -1.2445 -0.0009
# 2 42.0808 86.4488 6.9854 -0.0020 9.6136 -0.0021
# 3 9.8284 6.9854 32.6885 -0.0039 -2.9511 0.0018
# 4 0.0003 -0.0020 -0.0039 29.5869 0.0006 -2.9838
# 5 -1.2445 9.6136 -2.9511 0.0006 23.1886 -0.0003
# 6 -0.0009 -0.0021 0.0018 -2.9838 -0.0003 47.3246
#
#
#
# Elastic Compliance Matrix: (Units=1/GPa)
#
#
# Indices 1 2 3 4 5 6 
#
# 1 0.010531 -0.005259 -0.001815 -0.000001 0.002514 0.000000
# 2 -0.005259 0.015068 -0.002254 0.000001 -0.006816 0.000001
# 3 -0.001815 -0.002254 0.032063 0.000004 0.004918 -0.000001
# 4 -0.000001 0.000001 0.000004 0.034015 -0.000001 0.002145
# 5 0.002514 -0.006816 0.004918 -0.000001 0.046711 0.000000
# 6 0.000000 0.000001 -0.000001 0.002145 0.000000 0.021266
#
#
# Mechanical properties :
#
#
# Convention : Reuss Voigt Hill
#
# Bulk Modulus (GPa) = 25.63794 39.43267 32.53530
# Shear Modulus (GPa) = 26.13535 31.90070 29.01803
#
# Velocity S-wave (km/s) = 3.36301 3.71547 3.54363
# Velocity P-wave (km/s) = 5.11609 5.95571 5.55179
#
# Compressibility (1/GPa) = 0.03900469
#
# Stress axis : x y z
#
# Youngs Moduli (GPa) = 94.96117 66.36790 31.18835
#
# Poissons Ratio (x) = 0.34902 0.05662
# Poissons Ratio (y) = 0.49939 0.07030
# Poissons Ratio (z) = 0.17239 0.14960
#
# Static dielectric constant tensor:
#      x y z
#    x 4.471640 -0.000010 -0.305290 
#    y -0.000010 4.133190 0.000010 
#    z -0.305290 0.000010 3.825710 
# 
# 
# High freq. dielectric constant tensor:
#      x y z
#    x 1.928750 0.000000 -0.026710 
#    y 0.000000 1.903800 0.000000 
#    z -0.026710 0.000000 1.883360 
# 
# From -- ./inp_files/313706.got.cif
#   From: 2010.06.25/outbox.cif.g09.slc.cpg/sg15_157_cif.got.tgz:313706.got - 2010.06.28 07:06:18.
