data_PCOD8142664
_publ_section_title
;
Structure prediction by ZEFSAII (Michael W. Deem and Ramdas Pophale) SiO2 
 PCOD8142664
Probable space group: C 2/C
;
_chemical_formula_sum "Si O2"
_cell_formula_units_Z 40
_cell_length_a 14.740376
_cell_length_b 28.801525
_cell_length_c 14.497481
_cell_angle_alpha 90.000000
_cell_angle_beta 159.742530
_cell_angle_gamma 90.000000
_cell_volume 2131.047082
_symmetry_space_group_name_H-M "C 2/C"
_symmetry_group_IT_number 15
_symmetry_cell_setting 'monoclinic'
loop_
_space_group_symop_operation_xyz
x,y,z
-x,y,1/2-z
-x,-y,-z
x,-y,1/2+z
1/2+x,1/2+y,z
1/2-x,1/2+y,1/2-z
1/2-x,1/2-y,-z
1/2+x,1/2-y,1/2+z
loop_
_atom_site_type_symbol
_atom_site_label
_atom_site_fract_x
_atom_site_fract_y
_atom_site_fract_z
Si Si1 0.978716 0.776967 0.338564
Si Si2 0.000000 0.994892 0.750000
Si Si3 0.436049 0.891752 0.377338
Si Si4 0.413039 0.364493 0.937751
Si Si5 0.102032 0.041184 0.661178
Si Si6 0.000000 0.563773 0.750000
O O1 0.046215 0.826811 0.444406
O O2 0.000000 0.781977 0.250000
O O3 0.184276 0.740201 0.578560
O O4 0.763487 0.965163 0.480977
O O5 0.865615 0.024676 0.702816
O O6 0.165334 0.862671 0.109653
O O7 0.377399 0.938671 0.382356
O O8 0.552181 0.904755 0.389016
O O9 0.645785 0.857821 0.626334
O O10 0.396539 0.415946 0.967178
O O11 0.000000 0.000000 0.500000
#
# Coordination Sequence:
#
# PCOD8142664 Si02
#       6
#     8   4   8   8   8   4
#     4  10  21  39  63  91 124 155 196 246 303 373
#     4  12  24  32  58  76 114 164 204 244 294 342
#     4  10  22  37  58  79 120 147 210 245 292 355
#     4  10  22  37  59  86 117 157 194 247 296 360
#     4  10  22  39  52  85 120 159 200 251 286 356
#     4  12  22  38  54  82 108 166 204 240 300 340
#
# _framework density 18.770116000000002
#
# number of rings (size 3 to 8) (size 9 to 14) (size 15 to 20)
#    1.200    0.400    2.000    3.600    4.200    1.600 
#    0.000    2.000    0.000    0.000    0.000   14.000 
#    0.000    0.000    0.000    0.000    0.000    0.000 
#
# Total GULP energy -247829.800687 kJ/mol
# GULP energy per Si atom -12391.490034 kJ/mol
# Density = 1.872739 g / cm^3
# Si number density = 18.770116 Si / 1000 Ang^3
#
#
#
# Elastic Constant Matrix: (Units=GPa)
#
#
# Indices 1 2 3 4 5 6 
#
# 1 83.4771 26.3762 31.7500 -0.0012 -11.2123 0.0007
# 2 26.3762 89.5015 35.8356 -0.0008 -11.7570 0.0007
# 3 31.7500 35.8356 129.9719 -0.0080 2.1874 0.0023
# 4 -0.0012 -0.0008 -0.0080 31.6572 -0.0049 -11.6094
# 5 -11.2123 -11.7570 2.1874 -0.0049 25.1441 0.0008
# 6 0.0007 0.0007 0.0023 -11.6094 0.0008 23.8925
#
#
#
# Elastic Compliance Matrix: (Units=1/GPa)
#
#
# Indices 1 2 3 4 5 6 
#
# 1 0.014637 -0.002357 -0.003022 0.000001 0.005688 0.000000
# 2 -0.002357 0.013978 -0.003376 0.000000 0.005779 0.000000
# 3 -0.003022 -0.003376 0.009426 0.000002 -0.003746 0.000000
# 4 0.000001 0.000000 0.000002 0.038438 0.000007 0.018677
# 5 0.005688 0.005779 -0.003746 0.000007 0.045335 0.000002
# 6 0.000000 0.000000 0.000000 0.018677 0.000002 0.050929
#
#
# Mechanical properties :
#
#
# Convention : Reuss Voigt Hill
#
# Bulk Modulus (GPa) = 48.70072 54.54158 51.62115
# Shear Modulus (GPa) = 25.36845 30.07134 27.71989
#
# Velocity S-wave (km/s) = 3.68031 4.00695 3.84710
# Velocity P-wave (km/s) = 6.63790 7.10832 6.87714
#
# Compressibility (1/GPa) = 0.02053358
#
# Stress axis : x y z
#
# Youngs Moduli (GPa) = 68.31924 71.54024 106.09125
#
# Poissons Ratio (x) = 0.16859 0.32056
# Poissons Ratio (y) = 0.16100 0.35812
# Poissons Ratio (z) = 0.20643 0.24149
#
# Static dielectric constant tensor:
#      x y z
#    x 3.258060 0.000000 0.081610 
#    y 0.000000 3.191230 -0.000010 
#    z 0.081610 -0.000010 3.539130 
# 
# 
# High freq. dielectric constant tensor:
#      x y z
#    x 1.713920 0.000000 0.003610 
#    y 0.000000 1.701470 0.000000 
#    z 0.003610 0.000000 1.741660 
# 
# From -- ./inp_files/157292.got.cif
#   From: 2010.06.25/outbox.cif.g09.slc.cpg/sg15_79_cif.got.tgz:157292.got - 2010.06.28 07:06:18.
