data_PCOD8142004
_publ_section_title
;
Structure prediction by ZEFSAII (Michael W. Deem and Ramdas Pophale) SiO2 
 PCOD8142004
Probable space group: C 2/C
;
_chemical_formula_sum "Si O2"
_cell_formula_units_Z 40
_cell_length_a 28.332945
_cell_length_b 4.955886
_cell_length_c 13.677073
_cell_angle_alpha 90.000000
_cell_angle_beta 75.280708
_cell_angle_gamma 90.000000
_cell_volume 1857.438792
_symmetry_space_group_name_H-M "C 2/C"
_symmetry_group_IT_number 15
_symmetry_cell_setting 'monoclinic'
loop_
_space_group_symop_operation_xyz
x,y,z
-x,y,1/2-z
-x,-y,-z
x,-y,1/2+z
1/2+x,1/2+y,z
1/2-x,1/2+y,1/2-z
1/2-x,1/2-y,-z
1/2+x,1/2-y,1/2+z
loop_
_atom_site_type_symbol
_atom_site_label
_atom_site_fract_x
_atom_site_fract_y
_atom_site_fract_z
Si Si1 0.718149 0.243356 0.265680
Si Si2 0.453647 0.499726 0.833766
Si Si3 0.045875 0.502329 0.044705
Si Si4 0.153063 0.084716 0.618575
Si Si5 0.347153 0.091661 0.018019
O O1 0.749102 0.495501 0.290222
O O2 0.687202 0.356892 0.191952
O O3 0.686147 0.121573 0.369901
O O4 0.500000 0.607950 0.750000
O O5 0.463538 0.188320 0.856156
O O6 0.401718 0.547495 0.807110
O O7 0.448859 0.684236 0.932183
O O8 0.096707 0.390920 0.972391
O O9 0.000000 0.500000 0.000000
O O10 0.159791 0.307652 0.531549
O O11 0.166923 0.808904 0.556921
#
# Coordination Sequence:
#
# PCOD8142004 Si02
#       5
#     8   8   8   8   8
#     4  12  26  42  66  97 119 169 223 258 321 374
#     4  10  21  38  60  92 124 164 204 247 316 371
#     4  10  21  38  60  92 124 164 204 248 314 373
#     4  10  23  43  63  91 132 163 206 266 314 375
#     4  10  23  43  63  92 131 164 206 263 318 372
#
# _framework density 21.535029000000002
#
# number of rings (size 3 to 8) (size 9 to 14) (size 15 to 20)
#    0.000    1.600    0.000    3.600    2.800    4.800 
#    3.600    0.000    0.000    0.000    0.000    0.000 
#    0.000    0.000    0.000    0.000    0.000    0.000 
#
# Total GULP energy -247865.234194 kJ/mol
# GULP energy per Si atom -12393.261710 kJ/mol
# Density = 2.148601 g / cm^3
# Si number density = 21.535029 Si / 1000 Ang^3
#
#
#
# Elastic Constant Matrix: (Units=GPa)
#
#
# Indices 1 2 3 4 5 6 
#
# 1 137.5603 28.4510 58.0809 0.0000 0.5768 0.0000
# 2 28.4510 87.3415 5.2510 0.0000 -3.7660 0.0000
# 3 58.0809 5.2510 77.9759 0.0000 -7.4674 0.0000
# 4 0.0000 0.0000 0.0000 23.8846 0.0000 1.4136
# 5 0.5768 -3.7660 -7.4674 0.0000 27.3362 0.0000
# 6 0.0000 0.0000 0.0000 1.4136 0.0000 34.0979
#
#
#
# Elastic Compliance Matrix: (Units=1/GPa)
#
#
# Indices 1 2 3 4 5 6 
#
# 1 0.011697 -0.003417 -0.008781 0.000000 -0.003116 0.000000
# 2 -0.003417 0.012547 0.001923 0.000000 0.002326 0.000000
# 3 -0.008781 0.001923 0.019796 0.000000 0.005858 0.000000
# 4 0.000000 0.000000 0.000000 0.041971 0.000000 -0.001740
# 5 -0.003116 0.002326 0.005858 0.000000 0.038568 0.000000
# 6 0.000000 0.000000 0.000000 -0.001740 0.000000 0.029399
#
#
# Mechanical properties :
#
#
# Convention : Reuss Voigt Hill
#
# Bulk Modulus (GPa) = 42.56993 54.04927 48.30960
# Shear Modulus (GPa) = 27.41867 31.13673 29.27770
#
# Velocity S-wave (km/s) = 3.57208 3.80658 3.69119
# Velocity P-wave (km/s) = 6.06825 6.66880 6.37560
#
# Compressibility (1/GPa) = 0.02349076
#
# Stress axis : x y z
#
# Youngs Moduli (GPa) = 85.49480 79.70075 50.51448
#
# Poissons Ratio (x) = 0.27230 0.44355
# Poissons Ratio (y) = 0.29210 -0.09712
# Poissons Ratio (z) = 0.75070 -0.15324
#
# Static dielectric constant tensor:
#      x y z
#    x 4.356460 0.000000 -0.154510 
#    y 0.000000 4.273040 0.000000 
#    z -0.154510 0.000000 3.412130 
# 
# 
# High freq. dielectric constant tensor:
#      x y z
#    x 1.863290 0.000000 -0.008890 
#    y 0.000000 1.870630 0.000000 
#    z -0.008890 0.000000 1.814020 
# 
# From -- ./inp_files/120716.got.cif
#   From: 2010.06.25/outbox.cif.g09.slc.cpg/sg15_61_cif.got.tgz:120716.got - 2010.06.28 07:06:18.
