data_PCOD8142305
_publ_section_title
;
Structure prediction by ZEFSAII (Michael W. Deem and Ramdas Pophale) SiO2 
 PCOD8142305
Probable space group: C 2/C
;
_chemical_formula_sum "Si O2"
_cell_formula_units_Z 48
_cell_length_a 20.606138
_cell_length_b 20.918395
_cell_length_c 9.266451
_cell_angle_alpha 90.000000
_cell_angle_beta 148.713422
_cell_angle_gamma 90.000000
_cell_volume 2074.304711
_symmetry_space_group_name_H-M "C 2/C"
_symmetry_group_IT_number 15
_symmetry_cell_setting 'monoclinic'
loop_
_space_group_symop_operation_xyz
x,y,z
-x,y,1/2-z
-x,-y,-z
x,-y,1/2+z
1/2+x,1/2+y,z
1/2-x,1/2+y,1/2-z
1/2-x,1/2-y,-z
1/2+x,1/2-y,1/2+z
loop_
_atom_site_type_symbol
_atom_site_label
_atom_site_fract_x
_atom_site_fract_y
_atom_site_fract_z
Si Si1 0.142533 0.029649 0.003196
Si Si2 0.775351 0.158990 0.442145
Si Si3 0.273370 0.577113 0.035873
Si Si4 0.111660 0.335628 0.362353
Si Si5 0.134600 0.292022 0.934310
Si Si6 0.875196 0.804713 0.598614
O O1 0.000000 0.009056 0.750000
O O2 0.220201 0.970191 0.086488
O O3 0.153663 0.090680 0.916110
O O4 0.197288 0.038420 0.265056
O O5 0.869176 0.219436 0.637317
O O6 0.662312 0.163084 0.345770
O O7 0.729860 0.164331 0.192253
O O8 0.135043 0.610245 0.784617
O O9 0.365722 0.638286 0.195410
O O10 0.103619 0.263947 0.280157
O O11 0.000000 0.357242 0.250000
O O12 0.000000 0.309120 0.750000
O O13 0.251473 0.303763 0.263415
O O14 0.000000 0.819663 0.750000
#
# Coordination Sequence:
#
# PCOD8142305 Si02
#       6
#     8   8   8   8   8   8
#     4  11  24  41  63  88 128 168 218 265 321 379
#     4   9  21  39  59  92 130 167 209 265 319 385
#     4  11  24  40  63  94 122 170 214 267 320 381
#     4   9  20  41  62  92 125 164 210 267 320 381
#     4  10  21  38  65  97 128 167 213 264 329 382
#     4  10  22  39  66  99 129 163 213 267 321 383
#
# _framework density 23.140283
#
# number of rings (size 3 to 8) (size 9 to 14) (size 15 to 20)
#    0.000    2.000    0.000    2.000    7.000    0.000 
#   12.000    4.167    0.000    0.000    0.000    0.000 
#    0.000    0.000    0.000    0.000    0.000    0.000 
#
# Total GULP energy -297341.957465 kJ/mol
# GULP energy per Si atom -12389.248228 kJ/mol
# Density = 2.308761 g / cm^3
# Si number density = 23.140283 Si / 1000 Ang^3
#
#
#
# Elastic Constant Matrix: (Units=GPa)
#
#
# Indices 1 2 3 4 5 6 
#
# 1 142.3074 87.3495 38.7624 0.0000 34.5796 0.0000
# 2 87.3495 149.0725 27.7099 0.0000 20.2704 0.0000
# 3 38.7624 27.7099 68.9934 0.0000 32.1800 0.0000
# 4 0.0000 0.0000 0.0000 3.4996 0.0000 19.4199
# 5 34.5796 20.2704 32.1800 0.0000 35.1268 0.0000
# 6 0.0000 0.0000 0.0000 19.4199 0.0000 60.4105
#
#
#
# Elastic Compliance Matrix: (Units=1/GPa)
#
#
# Indices 1 2 3 4 5 6 
#
# 1 0.013328 -0.006479 -0.000891 0.000000 -0.008566 0.000000
# 2 -0.006479 0.010543 -0.001277 0.000000 0.001464 0.000000
# 3 -0.000891 -0.001277 0.025763 0.000000 -0.021988 0.000000
# 4 0.000000 0.000000 0.000000 -0.364527 0.000000 0.117183
# 5 -0.008566 0.001464 -0.021988 0.000000 0.056199 0.000000
# 6 0.000000 0.000000 0.000000 0.117183 0.000000 -0.021117
#
#
# Mechanical properties :
#
#
# Convention : Reuss Voigt Hill
#
# Bulk Modulus (GPa) = 30.92148 74.22410 52.57279
# Shear Modulus (GPa) = -19.86200 33.57748 6.85774
#
# Velocity S-wave (km/s) = -2.93291 3.81338 1.72336
# Velocity P-wave (km/s) = 1.38650 7.17876 5.16996
#
# Compressibility (1/GPa) = 0.03233998
#
# Stress axis : x y z
#
# Youngs Moduli (GPa) = 75.02954 94.84943 38.81505
#
# Poissons Ratio (x) = 0.61456 0.03457
# Poissons Ratio (y) = 0.48614 0.04957
# Poissons Ratio (z) = 0.06682 0.12114
#
# Static dielectric constant tensor:
#      x y z
#    x 4.478760 0.000000 0.221320 
#    y 0.000000 4.509740 0.000000 
#    z 0.221320 0.000000 3.999990 
# 
# 
# High freq. dielectric constant tensor:
#      x y z
#    x 1.933540 0.000000 0.019140 
#    y 0.000000 1.908900 0.000000 
#    z 0.019140 0.000000 1.883060 
# 
# From -- ./inp_files/114312.got.cif
#   From: 2010.06.25/outbox.cif.g09.slc.cpg/sg15_58_cif.got.tgz:114312.got - 2010.06.28 07:06:18.
