data_PCOD8142724
_publ_section_title
;
Structure prediction by ZEFSAII (Michael W. Deem and Ramdas Pophale) SiO2 
 PCOD8142724
Probable space group: C 2/C
;
_chemical_formula_sum "Si O2"
_cell_formula_units_Z 64
_cell_length_a 17.357379
_cell_length_b 9.674575
_cell_length_c 29.157276
_cell_angle_alpha 90.000000
_cell_angle_beta 142.146958
_cell_angle_gamma 90.000000
_cell_volume 3004.522329
_symmetry_space_group_name_H-M "C 2/C"
_symmetry_group_IT_number 15
_symmetry_cell_setting 'monoclinic'
loop_
_space_group_symop_operation_xyz
x,y,z
-x,y,1/2-z
-x,-y,-z
x,-y,1/2+z
1/2+x,1/2+y,z
1/2-x,1/2+y,1/2-z
1/2-x,1/2-y,-z
1/2+x,1/2-y,1/2+z
loop_
_atom_site_type_symbol
_atom_site_label
_atom_site_fract_x
_atom_site_fract_y
_atom_site_fract_z
Si Si1 0.412811 0.157677 0.564925
Si Si2 0.146639 0.470043 0.804966
Si Si3 0.788360 0.195507 0.712229
Si Si4 0.552853 0.855579 0.042803
Si Si5 0.522133 0.467010 0.709365
Si Si6 0.109031 0.921701 0.523484
Si Si7 0.640504 0.805787 0.230118
Si Si8 0.835742 0.039946 0.047027
O O1 0.448427 0.196785 0.529530
O O2 0.529357 0.112989 0.651480
O O3 0.315743 0.028054 0.522192
O O4 0.358023 0.297202 0.559218
O O5 0.187872 0.354344 0.788428
O O6 0.248663 0.462438 0.894146
O O7 0.167458 0.618344 0.790648
O O8 0.000000 0.453746 0.750000
O O9 0.679372 0.124444 0.631110
O O10 0.761534 0.190620 0.754057
O O11 0.910674 0.112805 0.756530
O O12 0.578738 0.741872 0.015300
O O13 0.500000 0.000000 0.000000
O O14 0.500000 0.409587 0.750000
O O15 0.604294 0.353963 0.721042
O O16 0.395077 0.509819 0.622831
O O17 0.102129 0.958789 0.466401
O O18 0.000000 0.000000 0.500000
#
# Coordination Sequence:
#
# PCOD8142724 Si02
#       8
#     8   8   8   8   8   8   8   8
#     4   9  19  38  60  90 130 165 199 273 322 363
#     4  11  23  41  66  92 131 170 214 266 327 388
#     4  10  23  41  62  87 132 168 202 264 332 379
#     4  10  22  40  62  90 127 164 210 267 328 383
#     4  11  24  40  62  94 126 164 211 262 319 378
#     4  11  23  41  68  96 126 173 224 269 320 390
#     4  10  21  39  65  94 121 164 223 260 310 386
#     4  10  21  39  64  91 127 162 214 262 319 381
#
# _framework density 21.301223
#
# number of rings (size 3 to 8) (size 9 to 14) (size 15 to 20)
#    0.000    1.750    1.250    2.250    5.250    3.000 
#    4.500    0.625    0.000    0.000    0.000    0.000 
#    0.000    0.000    0.000    0.000    0.000    0.000 
#
# Total GULP energy -396608.754288 kJ/mol
# GULP energy per Si atom -12394.023572 kJ/mol
# Density = 2.125274 g / cm^3
# Si number density = 21.301223 Si / 1000 Ang^3
#
#
#
# Elastic Constant Matrix: (Units=GPa)
#
#
# Indices 1 2 3 4 5 6 
#
# 1 95.4672 0.5757 42.4931 0.0000 -7.3179 0.0000
# 2 0.5757 58.1487 22.0484 0.0000 -6.5424 0.0000
# 3 42.4931 22.0484 89.6928 0.0000 -6.3764 0.0000
# 4 0.0000 0.0000 0.0000 26.7119 0.0000 -1.7105
# 5 -7.3179 -6.5424 -6.3764 0.0000 35.4036 0.0000
# 6 0.0000 0.0000 0.0000 -1.7105 0.0000 33.2974
#
#
#
# Elastic Compliance Matrix: (Units=1/GPa)
#
#
# Indices 1 2 3 4 5 6 
#
# 1 0.013756 0.002772 -0.007050 0.000000 0.002086 0.000000
# 2 0.002772 0.019782 -0.005951 0.000000 0.003157 0.000000
# 3 -0.007050 -0.005951 0.015975 0.000000 0.000320 0.000000
# 4 0.000000 0.000000 0.000000 0.037560 0.000000 0.001930
# 5 0.002086 0.003157 0.000320 0.000000 0.029318 0.000000
# 6 0.000000 0.000000 0.000000 0.001930 0.000000 0.030131
#
#
# Mechanical properties :
#
#
# Convention : Reuss Voigt Hill
#
# Bulk Modulus (GPa) = 34.42005 41.50481 37.96243
# Shear Modulus (GPa) = 28.30194 30.96200 29.63197
#
# Velocity S-wave (km/s) = 3.64902 3.81666 3.73378
# Velocity P-wave (km/s) = 5.82646 6.24095 6.03727
#
# Compressibility (1/GPa) = 0.02905284
#
# Stress axis : x y z
#
# Youngs Moduli (GPa) = 72.69527 50.55192 62.59760
#
# Poissons Ratio (x) = -0.14012 0.44132
# Poissons Ratio (y) = -0.20149 0.37255
# Poissons Ratio (z) = 0.51251 0.30086
#
# Static dielectric constant tensor:
#      x y z
#    x 3.909650 0.000000 0.208730 
#    y 0.000000 3.554360 0.000000 
#    z 0.208730 0.000000 4.265210 
# 
# 
# High freq. dielectric constant tensor:
#      x y z
#    x 1.840770 0.000000 0.005360 
#    y 0.000000 1.820110 0.000000 
#    z 0.005360 0.000000 1.837010 
# 
# From -- ./inp_files/315742.got.cif
#   From: 2010.06.25/outbox.cif.g09.slc.cpg/sg15_158_cif.got.tgz:315742.got - 2010.06.28 07:06:18.
