data_PCOD8142947
_publ_section_title
;
Structure prediction by ZEFSAII (Michael W. Deem and Ramdas Pophale) SiO2 
 PCOD8142947
Probable space group: C 2/C
;
_chemical_formula_sum "Si O2"
_cell_formula_units_Z 56
_cell_length_a 8.859292
_cell_length_b 14.431063
_cell_length_c 23.168220
_cell_angle_alpha 90.000000
_cell_angle_beta 121.407170
_cell_angle_gamma 90.000000
_cell_volume 2528.053154
_symmetry_space_group_name_H-M "C 2/C"
_symmetry_group_IT_number 15
_symmetry_cell_setting 'monoclinic'
loop_
_space_group_symop_operation_xyz
x,y,z
-x,y,1/2-z
-x,-y,-z
x,-y,1/2+z
1/2+x,1/2+y,z
1/2-x,1/2+y,1/2-z
1/2-x,1/2-y,-z
1/2+x,1/2-y,1/2+z
loop_
_atom_site_type_symbol
_atom_site_label
_atom_site_fract_x
_atom_site_fract_y
_atom_site_fract_z
Si Si1 0.186944 0.227903 0.253743
Si Si2 0.111296 0.519248 0.966801
Si Si3 0.966106 0.663775 0.628547
Si Si4 0.147308 0.870701 0.143447
Si Si5 0.414780 0.455741 0.794804
Si Si6 0.079726 0.149269 0.433578
Si Si7 0.665270 0.655170 0.006580
O O1 0.347232 0.270750 0.322962
O O2 0.238676 0.122911 0.245752
O O3 0.000000 0.219631 0.250000
O O4 0.146741 0.294840 0.191196
O O5 0.976847 0.573925 0.897619
O O6 0.265852 0.594735 0.003921
O O7 0.183873 0.422521 0.957414
O O8 0.000000 0.500000 0.000000
O O9 0.830059 0.620065 0.646542
O O10 0.864941 0.746602 0.573614
O O11 0.978085 0.879544 0.068852
O O12 0.158418 0.950123 0.193638
O O13 0.500000 0.480143 0.750000
O O14 0.543065 0.408849 0.867985
O O15 0.916996 0.162312 0.446076
O O16 0.750000 0.750000 0.000000
#
# Coordination Sequence:
#
# PCOD8142947 Si02
#       7
#     8   8   8   8   8   8   8
#     4   8  19  39  63  92 117 168 229 267 327 398
#     4  12  24  38  64 101 134 177 222 279 340 407
#     4  10  21  39  68  97 128 173 225 279 336 405
#     4  11  21  42  70  91 137 177 225 283 340 399
#     4  10  21  41  66  92 128 183 227 272 338 410
#     4  11  22  44  71  95 137 181 224 281 348 404
#     4  12  26  44  66 103 142 181 230 283 350 417
#
# _framework density 22.151433999999998
#
# number of rings (size 3 to 8) (size 9 to 14) (size 15 to 20)
#    0.000    1.429    2.857    3.429    2.000    1.143 
#    7.714    0.000    0.000    0.000    0.000    0.000 
#    0.000    0.000    0.000    0.000    0.000    0.000 
#
# Total GULP energy -346936.601544 kJ/mol
# GULP energy per Si atom -12390.592912 kJ/mol
# Density = 2.210102 g / cm^3
# Si number density = 22.151434 Si / 1000 Ang^3
#
#
#
# Elastic Constant Matrix: (Units=GPa)
#
#
# Indices 1 2 3 4 5 6 
#
# 1 86.0694 37.7350 20.7299 0.0000 -36.0992 0.0000
# 2 37.7350 129.4477 32.5153 0.0000 -25.5998 0.0000
# 3 20.7299 32.5153 78.4228 0.0000 -31.2097 0.0000
# 4 0.0000 0.0000 0.0000 50.5339 0.0000 -9.0476
# 5 -36.0992 -25.5998 -31.2097 0.0000 33.7183 0.0000
# 6 0.0000 0.0000 0.0000 -9.0476 0.0000 32.0147
#
#
#
# Elastic Compliance Matrix: (Units=1/GPa)
#
#
# Indices 1 2 3 4 5 6 
#
# 1 0.023412 -0.002717 0.006479 0.000000 0.028999 0.000000
# 2 -0.002717 0.009537 -0.002394 0.000000 0.002116 0.000000
# 3 0.006479 -0.002394 0.022273 0.000000 0.025734 0.000000
# 4 0.000000 0.000000 0.000000 0.020843 0.000000 0.005891
# 5 0.028999 0.002116 0.025734 0.000000 0.086130 0.000000
# 6 0.000000 0.000000 0.000000 0.005891 0.000000 0.032900
#
#
# Mechanical properties :
#
#
# Convention : Reuss Voigt Hill
#
# Bulk Modulus (GPa) = 17.25422 52.87781 35.06602
# Shear Modulus (GPa) = 23.62056 36.78401 30.20229
#
# Velocity S-wave (km/s) = 3.26900 4.07943 3.69649
# Velocity P-wave (km/s) = 4.69623 6.79057 5.83809
#
# Compressibility (1/GPa) = 0.05795682
#
# Stress axis : x y z
#
# Youngs Moduli (GPa) = 42.71280 104.85520 44.89773
#
# Poissons Ratio (x) = 0.28492 -0.29087
# Poissons Ratio (y) = 0.11606 0.10748
# Poissons Ratio (z) = -0.27672 0.25101
#
# Static dielectric constant tensor:
#      x y z
#    x 3.549500 0.000000 -0.220950 
#    y 0.000000 2.790520 0.000000 
#    z -0.220950 0.000000 4.442860 
# 
# 
# High freq. dielectric constant tensor:
#      x y z
#    x 1.828130 0.000000 -0.026200 
#    y 0.000000 1.897230 0.000000 
#    z -0.026200 0.000000 1.883860 
# 
# From -- ./inp_files/264381.got.cif
#   From: 2010.06.25/outbox.cif.g09.slc.cpg/sg15_133_cif.got.tgz:264381.got - 2010.06.28 07:06:18.
