data_PCOD8142135
_publ_section_title
;
Structure prediction by ZEFSAII (Michael W. Deem and Ramdas Pophale) SiO2 
 PCOD8142135
Probable space group: C 2/C
;
_chemical_formula_sum "Si O2"
_cell_formula_units_Z 56
_cell_length_a 21.570078
_cell_length_b 6.067255
_cell_length_c 22.167736
_cell_angle_alpha 90.000000
_cell_angle_beta 78.687252
_cell_angle_gamma 90.000000
_cell_volume 2844.751703
_symmetry_space_group_name_H-M "C 2/C"
_symmetry_group_IT_number 15
_symmetry_cell_setting 'monoclinic'
loop_
_space_group_symop_operation_xyz
x,y,z
-x,y,1/2-z
-x,-y,-z
x,-y,1/2+z
1/2+x,1/2+y,z
1/2-x,1/2+y,1/2-z
1/2-x,1/2-y,-z
1/2+x,1/2-y,1/2+z
loop_
_atom_site_type_symbol
_atom_site_label
_atom_site_fract_x
_atom_site_fract_y
_atom_site_fract_z
Si Si1 0.543604 0.688667 0.562251
Si Si2 0.001425 0.570211 0.852060
Si Si3 0.678147 0.500018 0.321846
Si Si4 0.312753 0.184733 0.788851
Si Si5 0.594142 0.799929 0.755964
Si Si6 0.574025 0.381714 0.924057
Si Si7 0.090051 0.941613 0.661362
O O1 0.472665 0.591688 0.570090
O O2 0.575199 0.717408 0.490978
O O3 0.588183 0.523859 0.592516
O O4 0.541047 0.927167 0.593860
O O5 0.034291 0.418251 0.796437
O O6 0.053550 0.698017 0.880241
O O7 0.957765 0.736926 0.822398
O O8 0.691018 0.713590 0.277670
O O9 0.742919 0.375401 0.324194
O O10 0.627873 0.342634 0.300091
O O11 0.646013 0.560536 0.391959
O O12 0.340181 0.363612 0.831206
O O13 0.356161 0.969922 0.781658
O O14 0.567625 0.643049 0.707981
#
# Coordination Sequence:
#
# PCOD8142135 Si02
#       7
#     8   8   8   8   8   8   8
#     4  10  21  39  60  87 128 160 198 250 294 363
#     4  11  21  39  62  89 122 160 199 247 312 362
#     4  11  21  39  61  90 116 157 203 250 302 356
#     4  11  22  38  60  86 121 158 201 247 308 358
#     4  11  22  38  59  90 124 154 197 254 305 356
#     4  10  21  38  62  92 119 158 207 247 297 357
#     4  10  25  38  56  90 125 162 198 243 313 364
#
# _framework density 19.685373999999999
#
# number of rings (size 3 to 8) (size 9 to 14) (size 15 to 20)
#    0.000    1.429    4.286    1.286    0.000    3.429 
#    0.000    0.714    0.000    3.429    0.000    0.000 
#    0.000    0.000    0.000    0.000    0.000    0.000 
#
# Total GULP energy -347277.203732 kJ/mol
# GULP energy per Si atom -12402.757276 kJ/mol
# Density = 1.964057 g / cm^3
# Si number density = 19.685374 Si / 1000 Ang^3
#
#
#
# Elastic Constant Matrix: (Units=GPa)
#
#
# Indices 1 2 3 4 5 6 
#
# 1 92.0832 35.0792 69.0087 0.0000 -7.7864 0.0000
# 2 35.0792 87.3103 32.1046 0.0000 -5.8601 0.0000
# 3 69.0087 32.1046 109.1806 0.0000 -13.6205 0.0000
# 4 0.0000 0.0000 0.0000 21.8915 0.0000 4.7273
# 5 -7.7864 -5.8601 -13.6205 0.0000 26.0456 0.0000
# 6 0.0000 0.0000 0.0000 4.7273 0.0000 34.4314
#
#
#
# Elastic Compliance Matrix: (Units=1/GPa)
#
#
# Indices 1 2 3 4 5 6 
#
# 1 0.021929 -0.004190 -0.012761 0.000000 -0.001060 0.000000
# 2 -0.004190 0.013666 -0.001223 0.000000 0.001183 0.000000
# 3 -0.012761 -0.001223 0.018266 0.000000 0.005462 0.000000
# 4 0.000000 0.000000 0.000000 0.047075 0.000000 -0.006463
# 5 -0.001060 0.001183 0.005462 0.000000 0.041200 0.000000
# 6 0.000000 0.000000 0.000000 -0.006463 0.000000 0.029931
#
#
# Mechanical properties :
#
#
# Convention : Reuss Voigt Hill
#
# Bulk Modulus (GPa) = 57.09655 62.32877 59.71266
# Shear Modulus (GPa) = 23.33705 26.63248 24.98477
#
# Velocity S-wave (km/s) = 3.44685 3.68218 3.56645
# Velocity P-wave (km/s) = 6.70138 7.05756 6.88178
#
# Compressibility (1/GPa) = 0.01751419
#
# Stress axis : x y z
#
# Youngs Moduli (GPa) = 45.60074 73.17600 54.74703
#
# Poissons Ratio (x) = 0.30657 0.69863
# Poissons Ratio (y) = 0.19105 0.06694
# Poissons Ratio (z) = 0.58191 0.08948
#
# Static dielectric constant tensor:
#      x y z
#    x 3.486810 0.000000 0.132630 
#    y 0.000000 3.872450 0.000000 
#    z 0.132630 0.000000 3.510250 
# 
# 
# High freq. dielectric constant tensor:
#      x y z
#    x 1.753170 0.000000 0.011220 
#    y 0.000000 1.784770 0.000000 
#    z 0.011220 0.000000 1.751600 
# 
# From -- ./inp_files/254322.got.cif
#   From: 2010.06.25/outbox.cif.g09.slc.cpg/sg15_128_cif.got.tgz:254322.got - 2010.06.28 07:06:18.
