data_PCOD8142405
_publ_section_title
;
Structure prediction by ZEFSAII (Michael W. Deem and Ramdas Pophale) SiO2 
 PCOD8142405
Probable space group: C 2/C
;
_chemical_formula_sum "Si O2"
_cell_formula_units_Z 56
_cell_length_a 13.767739
_cell_length_b 19.804223
_cell_length_c 8.666297
_cell_angle_alpha 90.000000
_cell_angle_beta 95.118068
_cell_angle_gamma 90.000000
_cell_volume 2353.526000
_symmetry_space_group_name_H-M "C 2/C"
_symmetry_group_IT_number 15
_symmetry_cell_setting 'monoclinic'
loop_
_space_group_symop_operation_xyz
x,y,z
-x,y,1/2-z
-x,-y,-z
x,-y,1/2+z
1/2+x,1/2+y,z
1/2-x,1/2+y,1/2-z
1/2-x,1/2-y,-z
1/2+x,1/2-y,1/2+z
loop_
_atom_site_type_symbol
_atom_site_label
_atom_site_fract_x
_atom_site_fract_y
_atom_site_fract_z
Si Si1 0.893839 0.600937 0.452500
Si Si2 0.566187 0.539631 0.392717
Si Si3 0.346836 0.999648 0.194209
Si Si4 0.169055 0.802624 0.541607
Si Si5 0.685292 0.664251 0.401124
Si Si6 0.026762 0.267815 0.431973
Si Si7 0.224214 0.938675 0.420464
O O1 0.900336 0.562852 0.287897
O O2 0.913448 0.542627 0.584364
O O3 0.792957 0.642031 0.469183
O O4 0.974419 0.659528 0.481418
O O5 0.500000 0.570198 0.250000
O O6 0.500000 0.500000 0.500000
O O7 0.619015 0.605343 0.465455
O O8 0.643446 0.487241 0.334861
O O9 0.313994 0.943779 0.314912
O O10 0.255724 0.032804 0.091825
O O11 0.250000 0.750000 0.500000
O O12 0.185443 0.829085 0.716612
O O13 0.181577 0.864181 0.425215
O O14 0.059973 0.774537 0.501303
O O15 0.634438 0.732000 0.464557
O O16 0.000000 0.278616 0.250000
#
# Coordination Sequence:
#
# PCOD8142405 Si02
#       7
#     8   8   8   8   8   8   8
#     4  11  22  43  72 101 136 182 239 283 351 412
#     4  12  22  34  63 102 145 175 222 290 357 436
#     4  10  21  38  72 100 131 181 231 290 342 415
#     4  11  24  44  69  95 139 186 227 292 355 420
#     4  11  21  42  69 100 140 186 227 283 362 424
#     4  10  24  43  66 100 138 184 234 285 353 429
#     4  11  20  40  62  97 135 175 229 277 361 405
#
# _framework density 23.794087000000001
#
# number of rings (size 3 to 8) (size 9 to 14) (size 15 to 20)
#    0.000    1.143    4.286    4.286    4.000    0.000 
#    0.000    1.429    0.000    0.000    0.000    0.000 
#    0.000    0.000    0.000    0.000    0.000    0.000 
#
# Total GULP energy -346967.939987 kJ/mol
# GULP energy per Si atom -12391.712142 kJ/mol
# Density = 2.373993 g / cm^3
# Si number density = 23.794087 Si / 1000 Ang^3
#
#
#
# Elastic Constant Matrix: (Units=GPa)
#
#
# Indices 1 2 3 4 5 6 
#
# 1 41.9372 30.9462 16.6208 0.0000 -8.5058 0.0000
# 2 30.9462 148.9122 27.0295 0.0000 9.0928 0.0000
# 3 16.6208 27.0295 61.0531 0.0000 1.5359 0.0000
# 4 0.0000 0.0000 0.0000 36.2784 0.0000 8.0378
# 5 -8.5058 9.0928 1.5359 0.0000 17.6965 0.0000
# 6 0.0000 0.0000 0.0000 8.0378 0.0000 46.9528
#
#
#
# Elastic Compliance Matrix: (Units=1/GPa)
#
#
# Indices 1 2 3 4 5 6 
#
# 1 0.036938 -0.007735 -0.007194 0.000000 0.022353 0.000000
# 2 -0.007735 0.009142 -0.001734 0.000000 -0.008265 0.000000
# 3 -0.007194 -0.001734 0.019212 0.000000 -0.004234 0.000000
# 4 0.000000 0.000000 0.000000 0.028651 0.000000 -0.004905
# 5 0.022353 -0.008265 -0.004234 0.000000 0.071866 0.000000
# 6 0.000000 0.000000 0.000000 -0.004905 0.000000 0.022138
#
#
# Mechanical properties :
#
#
# Convention : Reuss Voigt Hill
#
# Bulk Modulus (GPa) = 31.28274 44.56617 37.92446
# Shear Modulus (GPa) = 21.55841 32.00594 26.78217
#
# Velocity S-wave (km/s) = 3.01332 3.67157 3.35861
# Velocity P-wave (km/s) = 5.02818 6.06172 5.56898
#
# Compressibility (1/GPa) = 0.03196651
#
# Stress axis : x y z
#
# Youngs Moduli (GPa) = 27.07239 109.38199 52.05191
#
# Poissons Ratio (x) = 0.84612 0.37444
# Poissons Ratio (y) = 0.20942 0.09024
# Poissons Ratio (z) = 0.19475 0.18963
#
# Static dielectric constant tensor:
#      x y z
#    x 5.092280 0.000000 -1.481700 
#    y 0.000000 4.520370 0.000000 
#    z -1.481700 0.000000 6.756780 
# 
# 
# High freq. dielectric constant tensor:
#      x y z
#    x 1.937450 0.000000 -0.000820 
#    y 0.000000 1.959270 0.000000 
#    z -0.000820 0.000000 1.923880 
# 
# From -- ./inp_files/41256.got.cif
#   From: 2010.06.25/outbox.cif.g09.slc.cpg/sg15_21_cif.got.tgz:41256.got - 2010.06.28 07:06:18.
