data_PCOD8142540
_publ_section_title
;
Structure prediction by ZEFSAII (Michael W. Deem and Ramdas Pophale) SiO2 
 PCOD8142540
Probable space group: C 2/C
;
_chemical_formula_sum "Si O2"
_cell_formula_units_Z 48
_cell_length_a 17.161714
_cell_length_b 20.514183
_cell_length_c 13.812498
_cell_angle_alpha 90.000000
_cell_angle_beta 151.296020
_cell_angle_gamma 90.000000
_cell_volume 2335.530904
_symmetry_space_group_name_H-M "C 2/C"
_symmetry_group_IT_number 15
_symmetry_cell_setting 'monoclinic'
loop_
_space_group_symop_operation_xyz
x,y,z
-x,y,1/2-z
-x,-y,-z
x,-y,1/2+z
1/2+x,1/2+y,z
1/2-x,1/2+y,1/2-z
1/2-x,1/2-y,-z
1/2+x,1/2-y,1/2+z
loop_
_atom_site_type_symbol
_atom_site_label
_atom_site_fract_x
_atom_site_fract_y
_atom_site_fract_z
Si Si1 0.450100 0.837409 0.299070
Si Si2 0.153403 0.536765 0.704578
Si Si3 0.383466 0.380486 0.344714
Si Si4 0.135775 0.930089 0.473198
Si Si5 0.606641 0.709273 0.460606
Si Si6 0.193380 0.678186 0.462988
O O1 0.500000 0.866724 0.250000
O O2 0.427258 0.897399 0.344423
O O3 0.583094 0.783161 0.475695
O O4 0.287407 0.795394 0.118093
O O5 0.280313 0.554940 0.758765
O O6 0.000000 0.500000 0.500000
O O7 0.247947 0.492162 0.884811
O O8 0.550808 0.403970 0.478299
O O9 0.429374 0.341317 0.491848
O O10 0.269850 0.337542 0.150862
O O11 0.239973 0.870978 0.544694
O O12 0.000000 0.953735 0.250000
O O13 0.500000 0.693363 0.250000
O O14 0.250000 0.750000 0.500000
O O15 0.000000 0.673421 0.250000
#
# Coordination Sequence:
#
# PCOD8142540 Si02
#       6
#     8   8   8   8   8   8
#     4  10  22  38  58  85 116 157 200 245 306 366
#     4  11  24  38  59  91 124 164 208 257 318 380
#     4  10  23  41  64  92 122 164 213 258 315 380
#     4  10  23  42  63  89 125 169 212 259 315 380
#     4  10  21  39  61  90 121 154 199 254 305 364
#     4  11  23  42  66  95 127 164 212 269 323 378
#
# _framework density 20.552073
#
# number of rings (size 3 to 8) (size 9 to 14) (size 15 to 20)
#    0.000    1.667    0.000    5.000    0.000   15.333 
#    0.000    0.000    0.000    0.000    0.000    0.000 
#    0.000    0.000    0.000    0.000    0.000    0.000 
#
# Total GULP energy -297514.058684 kJ/mol
# GULP energy per Si atom -12396.419112 kJ/mol
# Density = 2.050530 g / cm^3
# Si number density = 20.552073 Si / 1000 Ang^3
#
#
#
# Elastic Constant Matrix: (Units=GPa)
#
#
# Indices 1 2 3 4 5 6 
#
# 1 130.5885 58.3106 50.0435 0.0000 9.7590 0.0000
# 2 58.3106 147.6602 75.3893 0.0000 3.6517 0.0000
# 3 50.0435 75.3893 118.9417 0.0000 7.9296 0.0000
# 4 0.0000 0.0000 0.0000 -8.9788 0.0000 15.4458
# 5 9.7590 3.6517 7.9296 0.0000 35.3048 0.0000
# 6 0.0000 0.0000 0.0000 15.4458 0.0000 34.0972
#
#
#
# Elastic Compliance Matrix: (Units=1/GPa)
#
#
# Indices 1 2 3 4 5 6 
#
# 1 0.009889 -0.002659 -0.002346 0.000000 -0.001931 0.000000
# 2 -0.002659 0.010733 -0.005745 0.000000 0.000915 0.000000
# 3 -0.002346 -0.005745 0.013150 0.000000 -0.001711 0.000000
# 4 0.000000 0.000000 0.000000 -0.062595 0.000000 0.028355
# 5 -0.001931 0.000915 -0.001711 0.000000 0.029148 0.000000
# 6 0.000000 0.000000 0.000000 0.028355 0.000000 0.016483
#
#
# Mechanical properties :
#
#
# Convention : Reuss Voigt Hill
#
# Bulk Modulus (GPa) = 81.49643 84.96413 83.23028
# Shear Modulus (GPa) = 117.92750 26.31445 72.12097
#
# Velocity S-wave (km/s) = 7.58317 3.58212 5.93026
# Velocity P-wave (km/s) = 10.78945 7.65111 9.35285
#
# Compressibility (1/GPa) = 0.01227048
#
# Stress axis : x y z
#
# Youngs Moduli (GPa) = 101.12750 93.17025 76.04507
#
# Poissons Ratio (x) = 0.24777 0.17841
# Poissons Ratio (y) = 0.26893 0.43689
# Poissons Ratio (z) = 0.23726 0.53527
#
# Static dielectric constant tensor:
#      x y z
#    x 3.980060 0.000000 0.858490 
#    y 0.000000 4.132710 0.000000 
#    z 0.858490 0.000000 26.099540 
# 
# 
# High freq. dielectric constant tensor:
#      x y z
#    x 1.819890 0.000000 0.014940 
#    y 0.000000 1.812770 0.000000 
#    z 0.014940 0.000000 1.803740 
# 
# From -- ./inp_files/163318.got.cif
#   From: 2010.06.25/outbox.cif.g09.slc.cpg/sg15_82_cif.got.tgz:163318.got - 2010.06.28 07:06:18.
