data_PCOD8142544
_publ_section_title
;
Structure prediction by ZEFSAII (Michael W. Deem and Ramdas Pophale) SiO2 
 PCOD8142544
Probable space group: C 2/C
;
_chemical_formula_sum "Si O2"
_cell_formula_units_Z 48
_cell_length_a 20.420641
_cell_length_b 18.775080
_cell_length_c 14.159520
_cell_angle_alpha 90.000000
_cell_angle_beta 23.460777
_cell_angle_gamma 90.000000
_cell_volume 2161.299654
_symmetry_space_group_name_H-M "C 2/C"
_symmetry_group_IT_number 15
_symmetry_cell_setting 'monoclinic'
loop_
_space_group_symop_operation_xyz
x,y,z
-x,y,1/2-z
-x,-y,-z
x,-y,1/2+z
1/2+x,1/2+y,z
1/2-x,1/2+y,1/2-z
1/2-x,1/2-y,-z
1/2+x,1/2-y,1/2+z
loop_
_atom_site_type_symbol
_atom_site_label
_atom_site_fract_x
_atom_site_fract_y
_atom_site_fract_z
Si Si1 0.140366 0.131152 0.858845
Si Si2 0.130548 0.817228 0.655224
Si Si3 0.977347 0.701278 0.384992
Si Si4 0.147064 0.593503 0.287127
Si Si5 0.201746 0.561380 0.678295
Si Si6 0.483437 0.634110 0.881124
O O1 0.291025 0.186851 0.664596
O O2 0.191647 0.069701 0.865534
O O3 0.105865 0.099572 0.798553
O O4 0.970125 0.170617 0.114490
O O5 0.250000 0.750000 0.500000
O O6 0.222421 0.891029 0.505715
O O7 0.000000 0.796043 0.750000
O O8 0.024072 0.782901 0.335078
O O9 0.000000 0.673999 0.250000
O O10 0.116713 0.657717 0.255588
O O11 0.199096 0.522594 0.159146
O O12 0.987480 0.583687 0.561951
O O13 0.296338 0.616432 0.158055
O O14 0.500000 0.606790 0.750000
#
# Coordination Sequence:
#
# PCOD8142544 Si02
#       6
#     8   8   8   8   8   8
#     4  10  22  37  61  90 128 164 206 273 318 389
#     4  10  23  39  62  93 125 168 216 270 322 390
#     4  10  21  39  61  90 125 163 214 265 331 389
#     4  10  21  40  66  84 130 174 207 272 324 392
#     4   9  22  43  59  90 126 174 221 253 326 401
#     4  11  23  36  61  97 122 161 214 271 327 388
#
# _framework density 22.208859
#
# number of rings (size 3 to 8) (size 9 to 14) (size 15 to 20)
#    0.000    2.000    0.000    2.000    9.333    5.333 
#    0.000    5.833    0.000    0.000    0.000    0.000 
#    0.000    0.000    0.000    0.000    0.000    0.000 
#
# Total GULP energy -297431.705215 kJ/mol
# GULP energy per Si atom -12392.987717 kJ/mol
# Density = 2.215831 g / cm^3
# Si number density = 22.208859 Si / 1000 Ang^3
#
#
#
# Elastic Constant Matrix: (Units=GPa)
#
#
# Indices 1 2 3 4 5 6 
#
# 1 82.9323 4.7992 24.0779 -0.0246 -6.1531 0.0178
# 2 4.7992 74.5116 34.9013 -0.0148 -0.6385 0.0130
# 3 24.0779 34.9013 102.8001 -0.0228 -6.6354 0.0270
# 4 -0.0246 -0.0148 -0.0228 28.9394 0.0169 1.5133
# 5 -6.1531 -0.6385 -6.6354 0.0169 37.2606 -0.0157
# 6 0.0178 0.0130 0.0270 1.5133 -0.0157 19.3735
#
#
#
# Elastic Compliance Matrix: (Units=1/GPa)
#
#
# Indices 1 2 3 4 5 6 
#
# 1 0.013062 0.000662 -0.003181 0.000008 0.001602 -0.000007
# 2 0.000662 0.016010 -0.005631 0.000005 -0.000619 -0.000004
# 3 -0.003181 -0.005631 0.012488 0.000004 0.001602 -0.000010
# 4 0.000008 0.000005 0.000004 0.034697 -0.000015 -0.002710
# 5 0.001602 -0.000619 0.001602 -0.000015 0.027377 0.000020
# 6 -0.000007 -0.000004 -0.000010 -0.002710 0.000020 0.051829
#
#
# Mechanical properties :
#
#
# Convention : Reuss Voigt Hill
#
# Bulk Modulus (GPa) = 39.58581 43.08898 41.33740
# Shear Modulus (GPa) = 27.74980 30.21240 28.98110
#
# Velocity S-wave (km/s) = 3.53865 3.69233 3.61631
# Velocity P-wave (km/s) = 5.87870 6.13364 6.00752
#
# Compressibility (1/GPa) = 0.02526158
#
# Stress axis : x y z
#
# Youngs Moduli (GPa) = 76.55753 62.46027 80.07877
#
# Poissons Ratio (x) = -0.04137 0.25472
# Poissons Ratio (y) = -0.05071 0.45090
# Poissons Ratio (z) = 0.24352 0.35169
#
# Static dielectric constant tensor:
#      x y z
#    x 4.070250 -0.000010 0.008240 
#    y -0.000010 3.834830 0.000010 
#    z 0.008240 0.000010 4.355060 
# 
# 
# High freq. dielectric constant tensor:
#      x y z
#    x 1.860840 0.000000 -0.011570 
#    y 0.000000 1.858700 0.000000 
#    z -0.011570 0.000000 1.895310 
# 
# From -- ./inp_files/219951.got.cif
#   From: 2010.06.25/outbox.cif.g09.slc.cpg/sg15_110_cif.got.tgz:219951.got - 2010.06.28 07:06:18.
