data_PCOD8142394
_publ_section_title
;
Structure prediction by ZEFSAII (Michael W. Deem and Ramdas Pophale) SiO2 
 PCOD8142394
Probable space group: C 2/C
;
_chemical_formula_sum "Si O2"
_cell_formula_units_Z 40
_cell_length_a 14.264516
_cell_length_b 11.707059
_cell_length_c 10.433686
_cell_angle_alpha 90.000000
_cell_angle_beta 78.693829
_cell_angle_gamma 90.000000
_cell_volume 1708.565536
_symmetry_space_group_name_H-M "C 2/C"
_symmetry_group_IT_number 15
_symmetry_cell_setting 'monoclinic'
loop_
_space_group_symop_operation_xyz
x,y,z
-x,y,1/2-z
-x,-y,-z
x,-y,1/2+z
1/2+x,1/2+y,z
1/2-x,1/2+y,1/2-z
1/2-x,1/2-y,-z
1/2+x,1/2-y,1/2+z
loop_
_atom_site_type_symbol
_atom_site_label
_atom_site_fract_x
_atom_site_fract_y
_atom_site_fract_z
Si Si1 0.864562 0.938031 0.282375
Si Si2 0.948174 0.447347 0.892658
Si Si3 0.522235 0.315555 0.067994
Si Si4 0.785435 0.395509 0.371341
Si Si5 0.382539 0.332821 0.889771
O O1 0.934995 0.863432 0.176346
O O2 0.757046 0.919935 0.259393
O O3 0.883423 0.892734 0.424480
O O4 0.888507 0.073305 0.275163
O O5 0.839904 0.493798 0.912078
O O6 0.000000 0.488461 0.750000
O O7 0.949921 0.311962 0.902542
O O8 0.000000 0.500000 0.000000
O O9 0.486376 0.325039 0.931203
O O10 0.701313 0.368732 0.491861
O O11 0.858756 0.290215 0.336467
#
# Coordination Sequence:
#
# PCOD8142394 Si02
#       5
#     8   8   8   8   8
#     4  10  21  38  70  91 134 184 224 279 352 421
#     4  12  25  45  73 100 142 183 233 287 356 416
#     4  10  21  43  67  94 133 187 224 287 352 414
#     4  10  24  38  66 102 134 181 224 299 343 414
#     4  10  21  42  64  97 139 175 236 280 356 412
#
# _framework density 23.411452000000001
#
# number of rings (size 3 to 8) (size 9 to 14) (size 15 to 20)
#    0.000    1.600    4.000    0.600    5.600    0.000 
#    3.600    3.000    0.000    0.000    0.000    0.000 
#    0.000    0.000    0.000    0.000    0.000    0.000 
#
# Total GULP energy -247877.949001 kJ/mol
# GULP energy per Si atom -12393.897450 kJ/mol
# Density = 2.335817 g / cm^3
# Si number density = 23.411452 Si / 1000 Ang^3
#
#
#
# Elastic Constant Matrix: (Units=GPa)
#
#
# Indices 1 2 3 4 5 6 
#
# 1 136.4593 63.3465 52.7715 0.0000 66.3398 0.0000
# 2 63.3465 183.6854 39.9518 0.0000 29.9561 0.0000
# 3 52.7715 39.9518 65.9345 0.0000 44.6268 0.0000
# 4 0.0000 0.0000 0.0000 35.9764 0.0000 7.3443
# 5 66.3398 29.9561 44.6268 0.0000 58.5581 0.0000
# 6 0.0000 0.0000 0.0000 7.3443 0.0000 41.5227
#
#
#
# Elastic Compliance Matrix: (Units=1/GPa)
#
#
# Indices 1 2 3 4 5 6 
#
# 1 0.017811 -0.003158 0.000458 0.000000 -0.018911 0.000000
# 2 -0.003158 0.006842 -0.003451 0.000000 0.002707 0.000000
# 3 0.000458 -0.003451 0.033143 0.000000 -0.024012 0.000000
# 4 0.000000 0.000000 0.000000 0.028837 0.000000 -0.005101
# 5 -0.018911 0.002707 -0.024012 0.000000 0.055416 0.000000
# 6 0.000000 0.000000 0.000000 -0.005101 0.000000 0.024985
#
#
# Mechanical properties :
#
#
# Convention : Reuss Voigt Hill
#
# Bulk Modulus (GPa) = 21.98037 77.57986 49.78011
# Shear Modulus (GPa) = 25.70702 42.54541 34.12622
#
# Velocity S-wave (km/s) = 3.31728 4.26759 3.82209
# Velocity P-wave (km/s) = 4.90730 7.58239 6.38648
#
# Compressibility (1/GPa) = 0.04549514
#
# Stress axis : x y z
#
# Youngs Moduli (GPa) = 56.14638 146.15262 30.17255
#
# Poissons Ratio (x) = 0.46152 -0.01383
# Poissons Ratio (y) = 0.17730 0.10412
# Poissons Ratio (z) = -0.02573 0.50433
#
# Static dielectric constant tensor:
#      x y z
#    x 4.622510 0.000000 0.868020 
#    y 0.000000 4.552770 0.000000 
#    z 0.868020 0.000000 4.475450 
# 
# 
# High freq. dielectric constant tensor:
#      x y z
#    x 1.924120 0.000000 0.037650 
#    y 0.000000 1.941650 0.000000 
#    z 0.037650 0.000000 1.910810 
# 
# From -- ./inp_files/94601.got.cif
#   From: 2010.06.25/outbox.cif.g09.slc.cpg/sg15_48_cif.got.tgz:94601.got - 2010.06.28 07:06:18.
