data_PCOD8142566
_publ_section_title
;
Structure prediction by ZEFSAII (Michael W. Deem and Ramdas Pophale) SiO2 
 PCOD8142566
Probable space group: C 2/C
;
_chemical_formula_sum "Si O2"
_cell_formula_units_Z 44
_cell_length_a 21.331834
_cell_length_b 14.597017
_cell_length_c 15.598606
_cell_angle_alpha 90.000000
_cell_angle_beta 155.219654
_cell_angle_gamma 90.000000
_cell_volume 2035.813062
_symmetry_space_group_name_H-M "C 2/C"
_symmetry_group_IT_number 15
_symmetry_cell_setting 'monoclinic'
loop_
_space_group_symop_operation_xyz
x,y,z
-x,y,1/2-z
-x,-y,-z
x,-y,1/2+z
1/2+x,1/2+y,z
1/2-x,1/2+y,1/2-z
1/2-x,1/2-y,-z
1/2+x,1/2-y,1/2+z
loop_
_atom_site_type_symbol
_atom_site_label
_atom_site_fract_x
_atom_site_fract_y
_atom_site_fract_z
Si Si1 0.678909 0.107221 0.107647
Si Si2 0.662116 0.717436 0.473146
Si Si3 0.023843 0.820487 0.455480
Si Si4 0.000000 0.713048 0.250000
Si Si5 0.779135 0.416808 0.398933
Si Si6 0.409945 0.862884 0.382030
O O1 0.821191 0.123332 0.346700
O O2 0.710898 0.026722 0.077379
O O3 0.633726 0.197050 0.000131
O O4 0.540014 0.079142 0.996879
O O5 0.500000 0.675093 0.250000
O O6 0.750000 0.750000 0.500000
O O7 0.758342 0.637858 0.637773
O O8 0.996627 0.779264 0.327518
O O9 0.892916 0.889010 0.319863
O O10 0.027005 0.740707 0.530339
O O11 0.143441 0.644498 0.430596
O O12 0.870110 0.400920 0.424864
#
# Coordination Sequence:
#
# PCOD8142566 Si02
#       6
#     8   8   8   4   8   8
#     4  11  23  39  61  90 126 155 198 261 308 351
#     4  11  22  38  62  86 120 161 206 246 294 365
#     4  10  21  41  62  89 120 164 205 246 300 373
#     4  10  22  38  66  90 120 162 210 246 300 372
#     4  11  23  38  64  91 121 156 203 255 308 353
#     4  10  21  39  62  87 121 163 202 239 307 368
#
# _framework density 21.612987
#
# number of rings (size 3 to 8) (size 9 to 14) (size 15 to 20)
#    0.000    1.455    1.818    4.909    3.818    1.455 
#    0.000    1.818    0.000    0.000    0.000    0.000 
#    0.000    0.000    0.000    0.000    0.000    0.000 
#
# Total GULP energy -272787.500867 kJ/mol
# GULP energy per Si atom -12399.431858 kJ/mol
# Density = 2.156379 g / cm^3
# Si number density = 21.612987 Si / 1000 Ang^3
#
#
#
# Elastic Constant Matrix: (Units=GPa)
#
#
# Indices 1 2 3 4 5 6 
#
# 1 77.1712 8.0306 37.6697 -0.0003 4.5387 -0.0003
# 2 8.0306 69.4964 36.1149 -0.0002 3.1109 -0.0002
# 3 37.6697 36.1149 159.6253 -0.0002 14.5644 -0.0003
# 4 -0.0003 -0.0002 -0.0002 10.9944 -0.0006 2.7436
# 5 4.5387 3.1109 14.5644 -0.0006 36.1106 -0.0005
# 6 -0.0003 -0.0002 -0.0003 2.7436 -0.0005 29.9196
#
#
#
# Elastic Compliance Matrix: (Units=1/GPa)
#
#
# Indices 1 2 3 4 5 6 
#
# 1 0.014654 0.000116 -0.003442 0.000000 -0.000464 0.000000
# 2 0.000116 0.016308 -0.003725 0.000000 0.000083 0.000000
# 3 -0.003442 -0.003725 0.008151 0.000000 -0.002534 0.000000
# 4 0.000000 0.000000 0.000000 0.093086 0.000002 -0.008536
# 5 -0.000464 0.000083 -0.002534 0.000002 0.028766 0.000000
# 6 0.000000 0.000000 0.000000 -0.008536 0.000000 0.034206
#
#
# Mechanical properties :
#
#
# Convention : Reuss Voigt Hill
#
# Bulk Modulus (GPa) = 39.98212 52.21371 46.09792
# Shear Modulus (GPa) = 22.97718 30.37009 26.67363
#
# Velocity S-wave (km/s) = 3.26409 3.75264 3.51686
# Velocity P-wave (km/s) = 5.72232 6.55647 6.15355
#
# Compressibility (1/GPa) = 0.02501118
#
# Stress axis : x y z
#
# Youngs Moduli (GPa) = 68.24282 61.32107 122.68698
#
# Poissons Ratio (x) = -0.00712 0.42230
# Poissons Ratio (y) = -0.00793 0.45695
# Poissons Ratio (z) = 0.23490 0.22839
#
# Static dielectric constant tensor:
#      x y z
#    x 3.753310 0.000000 -0.103530 
#    y 0.000000 3.947030 0.000000 
#    z -0.103530 0.000000 4.397270 
# 
# 
# High freq. dielectric constant tensor:
#      x y z
#    x 1.841680 0.000000 0.004790 
#    y 0.000000 1.833070 0.000000 
#    z 0.004790 0.000000 1.864400 
# 
# From -- ./inp_files/39236.got.cif
#   From: 2010.06.25/outbox.cif.g09.slc.cpg/sg15_20_cif.got.tgz:39236.got - 2010.06.28 07:06:18.
