data_PCOD8142524
_publ_section_title
;
Structure prediction by ZEFSAII (Michael W. Deem and Ramdas Pophale) SiO2 
 PCOD8142524
Probable space group: C 2/C
;
_chemical_formula_sum "Si O2"
_cell_formula_units_Z 56
_cell_length_a 25.640820
_cell_length_b 10.177778
_cell_length_c 17.370098
_cell_angle_alpha 90.000000
_cell_angle_beta 141.877119
_cell_angle_gamma 90.000000
_cell_volume 2798.457182
_symmetry_space_group_name_H-M "C 2/C"
_symmetry_group_IT_number 15
_symmetry_cell_setting 'monoclinic'
loop_
_space_group_symop_operation_xyz
x,y,z
-x,y,1/2-z
-x,-y,-z
x,-y,1/2+z
1/2+x,1/2+y,z
1/2-x,1/2+y,1/2-z
1/2-x,1/2-y,-z
1/2+x,1/2-y,1/2+z
loop_
_atom_site_type_symbol
_atom_site_label
_atom_site_fract_x
_atom_site_fract_y
_atom_site_fract_z
Si Si1 0.141619 0.535635 0.575158
Si Si2 0.439950 0.376986 0.415395
Si Si3 0.806817 0.221378 0.457484
Si Si4 0.082638 0.717877 0.641049
Si Si5 0.975038 0.538733 0.804649
Si Si6 0.186925 0.068557 0.188177
Si Si7 0.879131 0.735835 0.200740
O O1 0.177741 0.628555 0.549666
O O2 0.118624 0.612866 0.624372
O O3 0.213308 0.429912 0.680925
O O4 0.059539 0.459585 0.452917
O O5 0.500000 0.500000 0.500000
O O6 0.484560 0.253233 0.508100
O O7 0.349495 0.418715 0.347539
O O8 0.428516 0.339821 0.311925
O O9 0.835848 0.124452 0.422789
O O10 0.863710 0.196220 0.599678
O O11 0.709173 0.196133 0.362751
O O12 0.086429 0.649029 0.729262
O O13 0.142654 0.845632 0.704506
O O14 0.933913 0.395152 0.754353
O O15 0.000000 0.588771 0.750000
#
# Coordination Sequence:
#
# PCOD8142524 Si02
#       7
#     8   8   8   8   8   8   8
#     4  11  20  37  63  91 117 157 205 257 295 365
#     4  10  21  39  61  87 123 160 202 250 304 370
#     4  10  22  37  63  95 119 160 204 257 308 350
#     4  10  23  38  60  89 120 162 203 251 311 357
#     4  12  24  38  60  91 125 161 208 254 306 366
#     4  10  22  40  61  93 122 159 210 248 308 375
#     4  11  21  40  63  90 126 159 206 263 306 353
#
# _framework density 20.011026999999999
#
# number of rings (size 3 to 8) (size 9 to 14) (size 15 to 20)
#    0.000    1.429    4.286    1.286    2.000    0.000 
#    0.000    3.571    0.000    0.000    0.000    0.000 
#    0.000    0.000    0.000    0.000    0.000    0.000 
#
# Total GULP energy -347110.197775 kJ/mol
# GULP energy per Si atom -12396.792778 kJ/mol
# Density = 1.996548 g / cm^3
# Si number density = 20.011027 Si / 1000 Ang^3
#
#
#
# Elastic Constant Matrix: (Units=GPa)
#
#
# Indices 1 2 3 4 5 6 
#
# 1 110.4755 48.6859 35.8550 0.0000 -9.9014 0.0000
# 2 48.6859 71.9773 44.6036 0.0000 -7.5941 0.0000
# 3 35.8550 44.6036 90.1443 0.0000 -0.5528 0.0000
# 4 0.0000 0.0000 0.0000 29.8027 0.0000 -0.1842
# 5 -9.9014 -7.5941 -0.5528 0.0000 36.9178 0.0000
# 6 0.0000 0.0000 0.0000 -0.1842 0.0000 43.0005
#
#
#
# Elastic Compliance Matrix: (Units=1/GPa)
#
#
# Indices 1 2 3 4 5 6 
#
# 1 0.013108 -0.007852 -0.001317 0.000000 0.001881 0.000000
# 2 -0.007852 0.025341 -0.009397 0.000000 0.002966 0.000000
# 3 -0.001317 -0.009397 0.016255 0.000000 -0.002043 0.000000
# 4 0.000000 0.000000 0.000000 0.033555 0.000000 0.000144
# 5 0.001881 0.002966 -0.002043 0.000000 0.028171 0.000000
# 6 0.000000 0.000000 0.000000 0.000144 0.000000 0.023256
#
#
# Mechanical properties :
#
#
# Convention : Reuss Voigt Hill
#
# Bulk Modulus (GPa) = 56.91291 58.98735 57.95013
# Shear Modulus (GPa) = 27.37106 31.50771 29.43939
#
# Velocity S-wave (km/s) = 3.70239 3.97232 3.83973
# Velocity P-wave (km/s) = 6.83955 7.11200 6.97710
#
# Compressibility (1/GPa) = 0.01757071
#
# Stress axis : x y z
#
# Youngs Moduli (GPa) = 76.28919 39.46241 61.52131
#
# Poissons Ratio (x) = 0.30985 0.08103
# Poissons Ratio (y) = 0.59900 0.57814
# Poissons Ratio (z) = 0.10049 0.37084
#
# Static dielectric constant tensor:
#      x y z
#    x 3.905290 0.000000 0.161990 
#    y 0.000000 3.669860 0.000000 
#    z 0.161990 0.000000 3.785810 
# 
# 
# High freq. dielectric constant tensor:
#      x y z
#    x 1.789020 0.000000 0.011780 
#    y 0.000000 1.765140 0.000000 
#    z 0.011780 0.000000 1.779180 
# 
# From -- ./inp_files/222068.got.cif
#   From: 2010.06.25/outbox.cif.g09.slc.cpg/sg15_112_cif.got.tgz:222068.got - 2010.06.28 07:06:18.
