data_PCOD8142193
_publ_section_title
;
Structure prediction by ZEFSAII (Michael W. Deem and Ramdas Pophale) SiO2 
 PCOD8142193
Probable space group: C 2/C
;
_chemical_formula_sum "Si O2"
_cell_formula_units_Z 52
_cell_length_a 14.118652
_cell_length_b 12.394921
_cell_length_c 14.368547
_cell_angle_alpha 90.000000
_cell_angle_beta 115.871050
_cell_angle_gamma 90.000000
_cell_volume 2262.483381
_symmetry_space_group_name_H-M "C 2/C"
_symmetry_group_IT_number 15
_symmetry_cell_setting 'monoclinic'
loop_
_space_group_symop_operation_xyz
x,y,z
-x,y,1/2-z
-x,-y,-z
x,-y,1/2+z
1/2+x,1/2+y,z
1/2-x,1/2+y,1/2-z
1/2-x,1/2-y,-z
1/2+x,1/2-y,1/2+z
loop_
_atom_site_type_symbol
_atom_site_label
_atom_site_fract_x
_atom_site_fract_y
_atom_site_fract_z
Si Si1 0.879736 0.115016 0.892582
Si Si2 0.163545 0.715800 0.536614
Si Si3 0.377908 0.008504 0.427283
Si Si4 0.808242 0.647530 0.566196
Si Si5 0.062986 0.120779 0.113633
Si Si6 0.954819 0.679540 0.333321
Si Si7 0.000000 0.256558 0.250000
O O1 0.760804 0.102299 0.877894
O O2 0.890855 0.208205 0.818806
O O3 0.914969 0.004466 0.859495
O O4 0.951640 0.139312 0.014109
O O5 0.250000 0.750000 0.500000
O O6 0.182349 0.607991 0.609069
O O7 0.155278 0.823287 0.594178
O O8 0.055551 0.685047 0.441462
O O9 0.317434 0.062674 0.487324
O O10 0.375091 0.082807 0.332030
O O11 0.500000 0.000000 0.500000
O O12 0.750000 0.750000 0.500000
O O13 0.924693 0.669493 0.655268
O O14 0.067547 0.178031 0.214541
O O15 0.000000 0.661005 0.250000
#
# Coordination Sequence:
#
# PCOD8142193 Si02
#       7
#     8   8   8   8   8   8   4
#     4  10  21  42  69  92 136 178 218 282 356 385
#     4  10  21  42  63  91 134 168 216 275 339 389
#     4  10  21  42  66  94 130 178 216 269 345 393
#     4  12  22  44  69  96 137 178 223 286 338 401
#     4  10  22  41  65  99 130 174 226 282 331 413
#     4  10  21  38  63  92 129 173 220 264 327 410
#     4  12  24  40  66 102 136 170 236 268 330 422
#
# _framework density 22.983595000000001
#
# number of rings (size 3 to 8) (size 9 to 14) (size 15 to 20)
#    0.000    1.538    3.077    2.769    1.077    1.231 
#   12.462    3.077    0.000    0.000    0.000    0.000 
#    0.000    0.000    0.000    0.000    0.000    0.000 
#
# Total GULP energy -322268.802250 kJ/mol
# GULP energy per Si atom -12394.953933 kJ/mol
# Density = 2.293128 g / cm^3
# Si number density = 22.983595 Si / 1000 Ang^3
#
#
#
# Elastic Constant Matrix: (Units=GPa)
#
#
# Indices 1 2 3 4 5 6 
#
# 1 130.0978 52.0064 16.0984 0.0000 -37.7953 0.0000
# 2 52.0064 147.2942 27.1290 0.0000 -18.7762 0.0000
# 3 16.0984 27.1290 48.8288 0.0000 -24.3087 0.0000
# 4 0.0000 0.0000 0.0000 15.4913 0.0000 -8.3541
# 5 -37.7953 -18.7762 -24.3087 0.0000 45.9292 0.0000
# 6 0.0000 0.0000 0.0000 -8.3541 0.0000 42.7486
#
#
#
# Elastic Compliance Matrix: (Units=1/GPa)
#
#
# Indices 1 2 3 4 5 6 
#
# 1 0.011450 -0.003348 0.002844 0.000000 0.009559 0.000000
# 2 -0.003348 0.008589 -0.004470 0.000000 -0.001609 0.000000
# 3 0.002844 -0.004470 0.030252 0.000000 0.016524 0.000000
# 4 0.000000 0.000000 0.000000 0.072157 0.000000 0.014101
# 5 0.009559 -0.001609 0.016524 0.000000 0.037726 0.000000
# 6 0.000000 0.000000 0.000000 0.014101 0.000000 0.026148
#
#
# Mechanical properties :
#
#
# Convention : Reuss Voigt Hill
#
# Bulk Modulus (GPa) = 24.78718 57.40980 41.09849
# Shear Modulus (GPa) = 23.84163 36.23298 30.03730
#
# Velocity S-wave (km/s) = 3.22426 3.97479 3.61903
# Velocity P-wave (km/s) = 4.96682 6.78956 5.94842
#
# Compressibility (1/GPa) = 0.04034344
#
# Stress axis : x y z
#
# Youngs Moduli (GPa) = 87.33696 116.42380 33.05607
#
# Poissons Ratio (x) = 0.38979 -0.09401
# Poissons Ratio (y) = 0.29241 0.14774
# Poissons Ratio (z) = -0.24837 0.52036
#
# Static dielectric constant tensor:
#      x y z
#    x 8.623420 0.000000 -4.580200 
#    y 0.000000 4.793200 0.000000 
#    z -4.580200 0.000000 8.396070 
# 
# 
# High freq. dielectric constant tensor:
#      x y z
#    x 1.916440 0.000000 -0.019100 
#    y 0.000000 1.923300 0.000000 
#    z -0.019100 0.000000 1.877200 
# 
# From -- ./inp_files/152707.got.cif
#   From: 2010.06.25/outbox.cif.g09.slc.cpg/sg15_77_cif.got.tgz:152707.got - 2010.06.28 07:06:18.
