data_PCOD8142702
_publ_section_title
;
Structure prediction by ZEFSAII (Michael W. Deem and Ramdas Pophale) SiO2 
 PCOD8142702
Probable space group: C 2/C
;
_chemical_formula_sum "Si O2"
_cell_formula_units_Z 40
_cell_length_a 18.774439
_cell_length_b 19.511626
_cell_length_c 9.989136
_cell_angle_alpha 90.000000
_cell_angle_beta 32.790928
_cell_angle_gamma 90.000000
_cell_volume 1981.741733
_symmetry_space_group_name_H-M "C 2/C"
_symmetry_group_IT_number 15
_symmetry_cell_setting 'monoclinic'
loop_
_space_group_symop_operation_xyz
x,y,z
-x,y,1/2-z
-x,-y,-z
x,-y,1/2+z
1/2+x,1/2+y,z
1/2-x,1/2+y,1/2-z
1/2-x,1/2-y,-z
1/2+x,1/2-y,1/2+z
loop_
_atom_site_type_symbol
_atom_site_label
_atom_site_fract_x
_atom_site_fract_y
_atom_site_fract_z
Si Si1 0.903222 0.193317 0.660230
Si Si2 0.000000 0.871114 0.750000
Si Si3 0.789438 0.015976 0.609964
Si Si4 0.390522 0.173311 0.325384
Si Si5 0.623662 0.021113 0.130957
Si Si6 0.000000 0.898136 0.250000
O O1 0.898286 0.275741 0.686862
O O2 0.987499 0.178606 0.395929
O O3 0.972517 0.150675 0.668438
O O4 0.752330 0.171373 0.880190
O O5 0.125919 0.919077 0.566873
O O6 0.670001 0.017590 0.691551
O O7 0.871619 0.945343 0.474603
O O8 0.742201 0.025621 0.836861
O O9 0.500000 0.204154 0.250000
O O10 0.425241 0.094966 0.236107
O O11 0.500000 0.985073 0.250000
#
# Coordination Sequence:
#
# PCOD8142702 Si02
#       6
#     8   4   8   8   8   4
#     4  11  21  39  63  88 116 158 199 246 294 348
#     4  11  22  38  62  92 122 143 200 258 296 329
#     4  11  21  38  59  93 119 155 192 246 295 348
#     4  10  21  39  64  82 117 163 200 230 291 365
#     4  11  22  38  62  86 123 158 195 234 297 359
#     4  11  20  36  64  88 118 153 200 240 298 351
#
# _framework density 20.184265
#
# number of rings (size 3 to 8) (size 9 to 14) (size 15 to 20)
#    0.000    1.200    5.000    1.800    0.000    3.200 
#    0.000    1.000   11.000    0.000    0.000    0.000 
#    0.000    0.000    0.000    0.000    0.000    0.000 
#
# Total GULP energy -247920.449332 kJ/mol
# GULP energy per Si atom -12396.022467 kJ/mol
# Density = 2.013832 g / cm^3
# Si number density = 20.184265 Si / 1000 Ang^3
#
#
#
# Elastic Constant Matrix: (Units=GPa)
#
#
# Indices 1 2 3 4 5 6 
#
# 1 111.9201 23.4075 28.5289 0.0023 -1.5932 -0.0036
# 2 23.4075 72.7372 33.9402 0.0012 16.6178 -0.0019
# 3 28.5289 33.9402 79.8765 0.0012 19.5067 -0.0022
# 4 0.0023 0.0012 0.0012 -10.7266 -0.0017 50.6488
# 5 -1.5932 16.6178 19.5067 -0.0017 38.4877 0.0028
# 6 -0.0036 -0.0019 -0.0022 50.6488 0.0028 -55.5834
#
#
#
# Elastic Compliance Matrix: (Units=1/GPa)
#
#
# Indices 1 2 3 4 5 6 
#
# 1 0.010377 -0.002472 -0.003448 0.000000 0.003244 0.000000
# 2 -0.002472 0.018364 -0.005659 0.000000 -0.005163 0.000000
# 3 -0.003448 -0.005659 0.017797 0.000000 -0.006719 0.000000
# 4 0.000000 0.000000 0.000000 0.028228 -0.000001 0.025722
# 5 0.003244 -0.005163 -0.006719 -0.000001 0.031751 0.000001
# 6 0.000000 0.000000 0.000000 0.025722 0.000001 0.005448
#
#
# Mechanical properties :
#
#
# Convention : Reuss Voigt Hill
#
# Bulk Modulus (GPa) = 42.77406 48.47633 45.62519
# Shear Modulus (GPa) = 34.98561 6.34601 20.66581
#
# Velocity S-wave (km/s) = 4.16782 1.77507 3.20325
# Velocity P-wave (km/s) = 6.66324 5.31697 6.02781
#
# Compressibility (1/GPa) = 0.02337866
#
# Stress axis : x y z
#
# Youngs Moduli (GPa) = 96.36622 54.45513 56.19070
#
# Poissons Ratio (x) = 0.13459 0.19377
# Poissons Ratio (y) = 0.23818 0.31800
# Poissons Ratio (z) = 0.33231 0.30818
#
# Static dielectric constant tensor:
#      x y z
#    x 3.858810 0.000000 -0.162600 
#    y 0.000000 3.636780 0.000000 
#    z -0.162600 0.000000 3.659910 
# 
# 
# High freq. dielectric constant tensor:
#      x y z
#    x 1.798110 0.000000 -0.014540 
#    y 0.000000 1.783820 0.000000 
#    z -0.014540 0.000000 1.775800 
# 
# From -- ./inp_files/30202.got.cif
#   From: 2010.06.25/outbox.cif.g09.slc.cpg/sg15_16_cif.got.tgz:30202.got - 2010.06.28 07:06:18.
