data_PCOD8142110
_publ_section_title
;
Structure prediction by ZEFSAII (Michael W. Deem and Ramdas Pophale) SiO2 
 PCOD8142110
Probable space group: C 2/C
;
_chemical_formula_sum "Si O2"
_cell_formula_units_Z 56
_cell_length_a 7.606982
_cell_length_b 20.554245
_cell_length_c 21.274990
_cell_angle_alpha 90.000000
_cell_angle_beta 55.010165
_cell_angle_gamma 90.000000
_cell_volume 2725.221094
_symmetry_space_group_name_H-M "C 2/C"
_symmetry_group_IT_number 15
_symmetry_cell_setting 'monoclinic'
loop_
_space_group_symop_operation_xyz
x,y,z
-x,y,1/2-z
-x,-y,-z
x,-y,1/2+z
1/2+x,1/2+y,z
1/2-x,1/2+y,1/2-z
1/2-x,1/2-y,-z
1/2+x,1/2-y,1/2+z
loop_
_atom_site_type_symbol
_atom_site_label
_atom_site_fract_x
_atom_site_fract_y
_atom_site_fract_z
Si Si1 0.148766 0.436971 0.036243
Si Si2 0.761639 0.728363 0.277673
Si Si3 0.440213 0.845710 0.330812
Si Si4 0.382179 0.812692 0.619189
Si Si5 0.351219 0.919050 0.982211
Si Si6 0.940844 0.166637 0.422598
Si Si7 0.518527 0.306038 0.042900
O O1 0.073178 0.404245 0.116365
O O2 0.212316 0.512084 0.035379
O O3 0.361376 0.404535 0.961641
O O4 0.946159 0.430883 0.031692
O O5 0.616025 0.792291 0.316041
O O6 0.753875 0.700910 0.208728
O O7 0.671026 0.669182 0.339974
O O8 0.000000 0.746349 0.250000
O O9 0.500000 0.874289 0.250000
O O10 0.207279 0.813416 0.373384
O O11 0.476293 0.885570 0.600079
O O12 0.228207 0.802090 0.590731
O O13 0.587760 0.763044 0.562782
O O14 0.149868 0.871055 0.030308
O O15 0.970842 0.208439 0.479631
#
# Coordination Sequence:
#
# PCOD8142110 Si02
#       7
#     8   8   8   8   8   8   8
#     4   9  23  41  64  86 126 166 205 252 297 369
#     4  12  24  37  60  93 126 155 202 259 315 373
#     4  11  22  39  60  90 122 160 199 249 317 362
#     4  11  21  38  61  90 128 156 196 258 311 365
#     4  10  22  41  62  94 120 162 212 249 301 364
#     4  10  21  38  62  89 122 160 202 249 312 363
#     4  11  21  36  64  90 119 158 203 255 303 366
#
# _framework density 20.548791999999999
#
# number of rings (size 3 to 8) (size 9 to 14) (size 15 to 20)
#    0.000    1.429    2.857    2.143    6.000    2.286 
#    0.000    3.571    0.000    3.429    0.000    0.000 
#    0.000    0.000    0.000    0.000    0.000    0.000 
#
# Total GULP energy -346982.601628 kJ/mol
# GULP energy per Si atom -12392.235772 kJ/mol
# Density = 2.050202 g / cm^3
# Si number density = 20.548792 Si / 1000 Ang^3
#
#
#
# Elastic Constant Matrix: (Units=GPa)
#
#
# Indices 1 2 3 4 5 6 
#
# 1 64.3357 38.5850 27.5325 0.0000 -4.2933 0.0000
# 2 38.5850 158.7814 72.2720 0.0000 2.0792 0.0000
# 3 27.5325 72.2720 142.8668 0.0000 10.1552 0.0000
# 4 0.0000 0.0000 0.0000 24.5358 0.0000 0.0896
# 5 -4.2933 2.0792 10.1552 0.0000 31.5413 0.0000
# 6 0.0000 0.0000 0.0000 0.0896 0.0000 28.1231
#
#
#
# Elastic Compliance Matrix: (Units=1/GPa)
#
#
# Indices 1 2 3 4 5 6 
#
# 1 0.018860 -0.003718 -0.001999 0.000000 0.003456 0.000000
# 2 -0.003718 0.008935 -0.003813 0.000000 0.000133 0.000000
# 3 -0.001999 -0.003813 0.009533 0.000000 -0.003090 0.000000
# 4 0.000000 0.000000 0.000000 0.040757 0.000000 -0.000130
# 5 0.003456 0.000133 -0.003090 0.000000 0.033161 0.000000
# 6 0.000000 0.000000 0.000000 -0.000130 0.000000 0.035558
#
#
# Mechanical properties :
#
#
# Convention : Reuss Voigt Hill
#
# Bulk Modulus (GPa) = 54.74236 71.41809 63.08023
# Shear Modulus (GPa) = 29.07737 32.01302 30.54519
#
# Velocity S-wave (km/s) = 3.76578 3.95131 3.85966
# Velocity P-wave (km/s) = 6.75324 7.45976 7.11527
#
# Compressibility (1/GPa) = 0.01826739
#
# Stress axis : x y z
#
# Youngs Moduli (GPa) = 53.02315 111.91507 104.89517
#
# Poissons Ratio (x) = 0.41614 0.20971
# Poissons Ratio (y) = 0.19716 0.39996
# Poissons Ratio (z) = 0.10600 0.42673
#
# Static dielectric constant tensor:
#      x y z
#    x 3.811040 0.000000 -0.064410 
#    y 0.000000 3.731960 0.000000 
#    z -0.064410 0.000000 3.938280 
# 
# 
# High freq. dielectric constant tensor:
#      x y z
#    x 1.811020 0.000000 -0.001140 
#    y 0.000000 1.788660 0.000000 
#    z -0.001140 0.000000 1.809250 
# 
# From -- ./inp_files/233775.got.cif
#   From: 2010.06.25/outbox.cif.g09.slc.cpg/sg15_117_cif.got.tgz:233775.got - 2010.06.28 07:06:18.
