data_PCOD8142354
_publ_section_title
;
Structure prediction by ZEFSAII (Michael W. Deem and Ramdas Pophale) SiO2 
 PCOD8142354
Probable space group: C 2/C
;
_chemical_formula_sum "Si O2"
_cell_formula_units_Z 56
_cell_length_a 11.722943
_cell_length_b 19.074356
_cell_length_c 11.217189
_cell_angle_alpha 90.000000
_cell_angle_beta 97.844805
_cell_angle_gamma 90.000000
_cell_volume 2484.774905
_symmetry_space_group_name_H-M "C 2/C"
_symmetry_group_IT_number 15
_symmetry_cell_setting 'monoclinic'
loop_
_space_group_symop_operation_xyz
x,y,z
-x,y,1/2-z
-x,-y,-z
x,-y,1/2+z
1/2+x,1/2+y,z
1/2-x,1/2+y,1/2-z
1/2-x,1/2-y,-z
1/2+x,1/2-y,1/2+z
loop_
_atom_site_type_symbol
_atom_site_label
_atom_site_fract_x
_atom_site_fract_y
_atom_site_fract_z
Si Si1 0.717495 0.570698 0.672564
Si Si2 0.083071 0.209769 0.651740
Si Si3 0.967554 0.822418 0.612361
Si Si4 0.163058 0.560789 0.572622
Si Si5 0.178875 0.082105 0.103529
Si Si6 0.723508 0.840058 0.666701
Si Si7 0.413863 0.085364 0.535066
O O1 0.617514 0.628268 0.670322
O O2 0.764475 0.539162 0.802626
O O3 0.665772 0.502255 0.600460
O O4 0.825851 0.609065 0.625339
O O5 0.027580 0.224253 0.509610
O O6 0.196354 0.258185 0.686111
O O7 0.000000 0.228891 0.750000
O O8 0.836453 0.849217 0.599963
O O9 0.000000 0.788482 0.750000
O O10 0.051092 0.887597 0.599328
O O11 0.254387 0.605318 0.507257
O O12 0.114864 0.496244 0.488997
O O13 0.045759 0.602184 0.591128
O O14 0.261682 0.114826 0.213811
O O15 0.611141 0.871043 0.587277
#
# Coordination Sequence:
#
# PCOD8142354 Si02
#       7
#     8   8   8   8   8   8   8
#     4  11  22  42  65 103 137 171 226 280 336 396
#     4  12  27  43  68 102 139 177 223 285 342 400
#     4  10  23  46  70  96 132 179 228 269 336 414
#     4  10  21  39  63 105 132 168 228 283 324 392
#     4  10  23  41  71  97 132 177 225 279 335 397
#     4  11  23  46  65  94 133 185 218 265 348 410
#     4  10  21  38  67  92 136 179 221 267 340 399
#
# _framework density 22.537251999999999
#
# number of rings (size 3 to 8) (size 9 to 14) (size 15 to 20)
#    0.000    1.429    2.857    1.714    2.000    2.286 
#    5.143    3.571    0.000    0.000    0.000    0.000 
#    0.000    0.000    0.000    0.000    0.000    0.000 
#
# Total GULP energy -346903.064037 kJ/mol
# GULP energy per Si atom -12389.395144 kJ/mol
# Density = 2.248596 g / cm^3
# Si number density = 22.537252 Si / 1000 Ang^3
#
#
#
# Elastic Constant Matrix: (Units=GPa)
#
#
# Indices 1 2 3 4 5 6 
#
# 1 124.8828 31.2008 37.4681 0.0000 -16.3508 0.0000
# 2 31.2008 76.0933 7.3018 0.0000 -0.1034 0.0000
# 3 37.4681 7.3018 111.0209 0.0000 -8.0600 0.0000
# 4 0.0000 0.0000 0.0000 19.3102 0.0000 4.4252
# 5 -16.3508 -0.1034 -8.0600 0.0000 35.8926 0.0000
# 6 0.0000 0.0000 0.0000 4.4252 0.0000 32.7046
#
#
#
# Elastic Compliance Matrix: (Units=1/GPa)
#
#
# Indices 1 2 3 4 5 6 
#
# 1 0.010424 -0.003985 -0.002960 0.000000 0.004073 0.000000
# 2 -0.003985 0.014749 0.000250 0.000000 -0.001717 0.000000
# 3 -0.002960 0.000250 0.010056 0.000000 0.000910 0.000000
# 4 0.000000 0.000000 0.000000 0.053443 0.000000 -0.007231
# 5 0.004073 -0.001717 0.000910 0.000000 0.029916 0.000000
# 6 0.000000 0.000000 0.000000 -0.007231 0.000000 0.031555
#
#
# Mechanical properties :
#
#
# Convention : Reuss Voigt Hill
#
# Bulk Modulus (GPa) = 45.78801 51.54871 48.66836
# Shear Modulus (GPa) = 29.27163 33.31657 31.29410
#
# Velocity S-wave (km/s) = 3.60781 3.84902 3.73037
# Velocity P-wave (km/s) = 6.14132 6.53266 6.34001
#
# Compressibility (1/GPa) = 0.02183978
#
# Stress axis : x y z
#
# Youngs Moduli (GPa) = 95.92808 67.79971 99.44280
#
# Poissons Ratio (x) = 0.27017 0.29439
# Poissons Ratio (y) = 0.38225 -0.02487
# Poissons Ratio (z) = 0.28398 -0.01696
#
# Static dielectric constant tensor:
#      x y z
#    x 4.164660 0.000000 -0.110820 
#    y 0.000000 3.636090 0.000000 
#    z -0.110820 0.000000 4.336680 
# 
# 
# High freq. dielectric constant tensor:
#      x y z
#    x 1.893290 0.000000 -0.006930 
#    y 0.000000 1.856230 0.000000 
#    z -0.006930 0.000000 1.899570 
# 
# From -- ./inp_files/88975.got.cif
#   From: 2010.06.25/outbox.cif.g09.slc.cpg/sg15_45_cif.got.tgz:88975.got - 2010.06.28 07:06:18.
