data_PCOD8142073
_publ_section_title
;
Structure prediction by ZEFSAII (Michael W. Deem and Ramdas Pophale) SiO2 
 PCOD8142073
Probable space group: C 2/C
;
_chemical_formula_sum "Si O2"
_cell_formula_units_Z 28
_cell_length_a 10.072269
_cell_length_b 24.869947
_cell_length_c 5.157998
_cell_angle_alpha 90.000000
_cell_angle_beta 103.568224
_cell_angle_gamma 90.000000
_cell_volume 1256.002152
_symmetry_space_group_name_H-M "C 2/C"
_symmetry_group_IT_number 15
_symmetry_cell_setting 'monoclinic'
loop_
_space_group_symop_operation_xyz
x,y,z
-x,y,1/2-z
-x,-y,-z
x,-y,1/2+z
1/2+x,1/2+y,z
1/2-x,1/2+y,1/2-z
1/2-x,1/2-y,-z
1/2+x,1/2-y,1/2+z
loop_
_atom_site_type_symbol
_atom_site_label
_atom_site_fract_x
_atom_site_fract_y
_atom_site_fract_z
Si Si1 0.347565 0.523523 0.453570
Si Si2 0.306296 0.648240 0.468232
Si Si3 0.353358 0.181458 0.603254
Si Si4 0.000000 0.783816 0.750000
O O1 0.500000 0.500000 0.500000
O O2 0.270310 0.492948 0.653637
O O3 0.347344 0.586472 0.503491
O O4 0.255762 0.668076 0.724154
O O5 0.444847 0.679748 0.459499
O O6 0.192783 0.657919 0.193608
O O7 0.500000 0.155344 0.750000
O O8 0.375206 0.246499 0.588743
#
# Coordination Sequence:
#
# PCOD8142073 Si02
#       4
#     8   8   8   4
#     4  10  21  38  61  93 120 150 202 262 320 362
#     4  12  22  42  65  94 129 167 203 267 316 359
#     4  10  25  39  63  91 136 168 212 242 307 385
#     4  10  24  38  66  96 132 164 214 250 312 376
#
# _framework density 22.292954000000002
#
# number of rings (size 3 to 8) (size 9 to 14) (size 15 to 20)
#    0.857    0.571    0.000    6.000    0.000    5.714 
#    0.000    0.000    0.000   17.143    0.000    0.000 
#    0.000    0.000    0.000    0.000    0.000    0.000 
#
# Total GULP energy -173522.425381 kJ/mol
# GULP energy per Si atom -12394.458956 kJ/mol
# Density = 2.224221 g / cm^3
# Si number density = 22.292954 Si / 1000 Ang^3
#
#
#
# Elastic Constant Matrix: (Units=GPa)
#
#
# Indices 1 2 3 4 5 6 
#
# 1 85.8051 45.3271 8.1959 0.0000 -16.2540 0.0000
# 2 45.3271 177.3963 29.9558 0.0000 -22.1385 0.0000
# 3 8.1959 29.9558 107.8057 0.0000 -25.2785 0.0000
# 4 0.0000 0.0000 0.0000 19.2251 0.0000 15.6299
# 5 -16.2540 -22.1385 -25.2785 0.0000 26.4464 0.0000
# 6 0.0000 0.0000 0.0000 15.6299 0.0000 14.2387
#
#
#
# Elastic Compliance Matrix: (Units=1/GPa)
#
#
# Indices 1 2 3 4 5 6 
#
# 1 0.014601 -0.003004 0.001597 0.000000 0.007986 0.000000
# 2 -0.003004 0.006950 -0.000994 0.000000 0.003021 0.000000
# 3 0.001597 -0.000994 0.012200 0.000000 0.011811 0.000000
# 4 0.000000 0.000000 0.000000 0.483568 0.000000 -0.530818
# 5 0.007986 0.003021 0.011811 0.000000 0.056539 0.000000
# 6 0.000000 0.000000 0.000000 -0.530818 0.000000 0.652915
#
#
# Mechanical properties :
#
#
# Convention : Reuss Voigt Hill
#
# Bulk Modulus (GPa) = 34.54342 59.77388 47.15865
# Shear Modulus (GPa) = 4.02828 31.15058 17.58943
#
# Velocity S-wave (km/s) = 1.34570 3.74214 2.81198
# Velocity P-wave (km/s) = 4.23596 6.74853 5.63409
#
# Compressibility (1/GPa) = 0.02894907
#
# Stress axis : x y z
#
# Youngs Moduli (GPa) = 68.48662 143.89445 81.96572
#
# Poissons Ratio (x) = 0.43225 -0.13092
# Poissons Ratio (y) = 0.20573 0.08150
# Poissons Ratio (z) = -0.10939 0.14308
#
# Static dielectric constant tensor:
#      x y z
#    x 3.785510 0.000000 0.348640 
#    y 0.000000 3.910240 0.000000 
#    z 0.348640 0.000000 0.426110 
# 
# 
# High freq. dielectric constant tensor:
#      x y z
#    x 1.858850 0.000000 -0.007870 
#    y 0.000000 1.875860 0.000000 
#    z -0.007870 0.000000 1.901070 
# 
# From -- ./inp_files/3890.got.cif
#   From: 2010.06.25/outbox.cif.g09.slc.cpg/sg15_2_cif.got.tgz:3890.got - 2010.06.28 07:06:18.
