data_PCOD8142165
_publ_section_title
;
Structure prediction by ZEFSAII (Michael W. Deem and Ramdas Pophale) SiO2 
 PCOD8142165
Probable space group: C 2/C
;
_chemical_formula_sum "Si O2"
_cell_formula_units_Z 56
_cell_length_a 18.408539
_cell_length_b 9.446494
_cell_length_c 28.239452
_cell_angle_alpha 90.000000
_cell_angle_beta 34.735299
_cell_angle_gamma 90.000000
_cell_volume 2798.066016
_symmetry_space_group_name_H-M "C 2/C"
_symmetry_group_IT_number 15
_symmetry_cell_setting 'monoclinic'
loop_
_space_group_symop_operation_xyz
x,y,z
-x,y,1/2-z
-x,-y,-z
x,-y,1/2+z
1/2+x,1/2+y,z
1/2-x,1/2+y,1/2-z
1/2-x,1/2-y,-z
1/2+x,1/2-y,1/2+z
loop_
_atom_site_type_symbol
_atom_site_label
_atom_site_fract_x
_atom_site_fract_y
_atom_site_fract_z
Si Si1 0.635170 0.627778 0.020163
Si Si2 0.612982 0.206885 0.050671
Si Si3 0.799765 0.880321 0.576123
Si Si4 0.348067 0.561724 0.157285
Si Si5 0.145138 0.879471 0.180710
Si Si6 0.215923 0.570986 0.467526
Si Si7 0.156131 0.804596 0.278140
O O1 0.488537 0.588457 0.100760
O O2 0.676396 0.614631 0.052485
O O3 0.723731 0.522830 0.941415
O O4 0.645348 0.783898 0.991965
O O5 0.491495 0.252751 0.146528
O O6 0.750000 0.250000 0.000000
O O7 0.597505 0.285329 0.007990
O O8 0.612479 0.037409 0.045052
O O9 0.852833 0.928150 0.598163
O O10 0.673787 0.781993 0.647824
O O11 0.248280 0.670488 0.233443
O O12 0.311420 0.404588 0.194673
O O13 0.183308 0.890970 0.215322
O O14 0.000000 0.914873 0.250000
O O15 0.224869 0.998181 0.110418
#
# Coordination Sequence:
#
# PCOD8142165 Si02
#       7
#     8   8   8   8   8   8   8
#     4  11  21  40  62  88 122 157 200 255 296 358
#     4  11  19  39  67  88 113 161 209 252 285 360
#     4  10  21  38  63  87 111 163 208 234 299 358
#     4  11  24  41  58  89 126 163 194 251 300 377
#     4  10  21  39  60  89 118 152 205 256 295 362
#     4  10  23  37  64  92 116 155 207 248 307 349
#     4  11  24  38  61  90 123 162 197 245 320 345
#
# _framework density 20.013822999999999
#
# number of rings (size 3 to 8) (size 9 to 14) (size 15 to 20)
#    0.000    1.429    2.857    3.000    2.000    1.143 
#    0.000    2.857    0.000    0.000    0.000    0.000 
#    0.000    0.000    0.000    0.000    0.000    0.000 
#
# Total GULP energy -347095.225218 kJ/mol
# GULP energy per Si atom -12396.258044 kJ/mol
# Density = 1.996827 g / cm^3
# Si number density = 20.013823 Si / 1000 Ang^3
#
#
#
# Elastic Constant Matrix: (Units=GPa)
#
#
# Indices 1 2 3 4 5 6 
#
# 1 48.9511 15.0412 25.4910 0.0003 10.2574 0.0017
# 2 15.0412 139.4251 40.0872 0.0002 8.5781 0.0014
# 3 25.4910 40.0872 96.0892 0.0002 8.0061 0.0005
# 4 0.0003 0.0002 0.0002 32.4783 0.0000 8.5234
# 5 10.2574 8.5781 8.0061 0.0000 24.0346 -0.0004
# 6 0.0017 0.0014 0.0005 8.5234 -0.0004 29.6184
#
#
#
# Elastic Compliance Matrix: (Units=1/GPa)
#
#
# Indices 1 2 3 4 5 6 
#
# 1 0.025444 -0.000541 -0.005796 0.000000 -0.008735 -0.000002
# 2 -0.000541 0.008240 -0.003156 0.000000 -0.001659 0.000000
# 3 -0.005796 -0.003156 0.013331 0.000000 -0.000841 0.000000
# 4 0.000000 0.000000 0.000000 0.033305 0.000000 -0.009584
# 5 -0.008735 -0.001659 -0.000841 0.000000 0.046207 0.000001
# 6 -0.000002 0.000000 0.000000 -0.009584 0.000001 0.036521
#
#
# Mechanical properties :
#
#
# Convention : Reuss Voigt Hill
#
# Bulk Modulus (GPa) = 35.67788 49.52269 42.60028
# Shear Modulus (GPa) = 26.12648 30.81599 28.47123
#
# Velocity S-wave (km/s) = 3.61698 3.92820 3.77580
# Velocity P-wave (km/s) = 5.94211 6.73590 6.35142
#
# Compressibility (1/GPa) = 0.02802857
#
# Stress axis : x y z
#
# Youngs Moduli (GPa) = 39.30277 121.35753 75.01119
#
# Poissons Ratio (x) = 0.06564 0.43479
# Poissons Ratio (y) = 0.02126 0.23673
# Poissons Ratio (z) = 0.22781 0.38300
#
# Static dielectric constant tensor:
#      x y z
#    x 3.523850 -0.000010 0.194560 
#    y -0.000010 3.939540 0.000000 
#    z 0.194560 0.000000 3.789120 
# 
# 
# High freq. dielectric constant tensor:
#      x y z
#    x 1.768790 0.000000 0.014280 
#    y 0.000000 1.789010 0.000000 
#    z 0.014280 0.000000 1.781430 
# 
# From -- ./inp_files/209657.got.cif
#   From: 2010.06.25/outbox.cif.g09.slc.cpg/sg15_105_cif.got.tgz:209657.got - 2010.06.28 07:06:18.
