data_PCOD8142611
_publ_section_title
;
Structure prediction by ZEFSAII (Michael W. Deem and Ramdas Pophale) SiO2 
 PCOD8142611
Probable space group: C 2/C
;
_chemical_formula_sum "Si O2"
_cell_formula_units_Z 48
_cell_length_a 21.474246
_cell_length_b 8.719729
_cell_length_c 10.601787
_cell_angle_alpha 90.000000
_cell_angle_beta 73.989383
_cell_angle_gamma 90.000000
_cell_volume 1908.176483
_symmetry_space_group_name_H-M "C 2/C"
_symmetry_group_IT_number 15
_symmetry_cell_setting 'monoclinic'
loop_
_space_group_symop_operation_xyz
x,y,z
-x,y,1/2-z
-x,-y,-z
x,-y,1/2+z
1/2+x,1/2+y,z
1/2-x,1/2+y,1/2-z
1/2-x,1/2-y,-z
1/2+x,1/2-y,1/2+z
loop_
_atom_site_type_symbol
_atom_site_label
_atom_site_fract_x
_atom_site_fract_y
_atom_site_fract_z
Si Si1 0.316763 0.774451 0.682499
Si Si2 0.529063 0.417220 0.102197
Si Si3 0.953227 0.620706 0.100592
Si Si4 0.665715 0.649434 0.566379
Si Si5 0.273360 0.037653 0.872774
Si Si6 0.400220 0.967193 0.896359
O O1 0.390674 0.779552 0.591115
O O2 0.317864 0.651959 0.795832
O O3 0.296765 0.949225 0.732069
O O4 0.264464 0.698294 0.618266
O O5 0.500000 0.477266 0.250000
O O6 0.514264 0.233926 0.093586
O O7 0.604863 0.459513 0.067353
O O8 0.500000 0.500000 0.000000
O O9 0.935305 0.536088 0.241012
O O10 0.956851 0.511797 0.968817
O O11 0.729081 0.595245 0.458635
O O12 0.638826 0.815761 0.540928
O O13 0.337648 0.082973 0.919861
#
# Coordination Sequence:
#
# PCOD8142611 Si02
#       6
#     8   8   8   8   8   8
#     4  10  21  39  62  93 136 165 223 276 333 402
#     4  12  24  49  68  93 135 175 227 279 331 401
#     4  10  23  45  66 101 132 180 221 285 335 401
#     4  10  22  39  65  87 133 178 210 268 340 400
#     4  10  22  37  64  97 130 178 218 275 343 398
#     4  10  22  41  69  94 142 168 223 275 346 404
#
# _framework density 25.154903999999998
#
# number of rings (size 3 to 8) (size 9 to 14) (size 15 to 20)
#    0.000    2.000    3.333    3.000    9.333    1.333 
#    6.000    0.000    0.000    0.000    0.000    0.000 
#    0.000    0.000    0.000    0.000    0.000    0.000 
#
# Total GULP energy -297339.118328 kJ/mol
# GULP energy per Si atom -12389.129930 kJ/mol
# Density = 2.509765 g / cm^3
# Si number density = 25.154904 Si / 1000 Ang^3
#
#
#
# Elastic Constant Matrix: (Units=GPa)
#
#
# Indices 1 2 3 4 5 6 
#
# 1 191.3194 12.9280 46.6648 0.0000 23.2113 0.0000
# 2 12.9280 28.5295 30.9056 0.0000 5.7293 0.0000
# 3 46.6648 30.9056 115.6436 0.0000 12.5021 0.0000
# 4 0.0000 0.0000 0.0000 26.1422 0.0000 14.4502
# 5 23.2113 5.7293 12.5021 0.0000 42.1726 0.0000
# 6 0.0000 0.0000 0.0000 14.4502 0.0000 45.5247
#
#
#
# Elastic Compliance Matrix: (Units=1/GPa)
#
#
# Indices 1 2 3 4 5 6 
#
# 1 0.006083 0.000183 -0.002210 0.000000 -0.002718 0.000000
# 2 0.000183 0.049682 -0.013028 0.000000 -0.002988 0.000000
# 3 -0.002210 -0.013028 0.013118 0.000000 -0.000903 0.000000
# 4 0.000000 0.000000 0.000000 0.046392 0.000000 -0.014725
# 5 -0.002718 -0.002988 -0.000903 0.000000 0.025882 0.000000
# 6 0.000000 0.000000 0.000000 -0.014725 0.000000 0.026640
#
#
# Mechanical properties :
#
#
# Convention : Reuss Voigt Hill
#
# Bulk Modulus (GPa) = 25.79082 57.38769 41.58925
# Shear Modulus (GPa) = 23.71561 39.10083 31.40822
#
# Velocity S-wave (km/s) = 3.07381 3.94687 3.53738
# Velocity P-wave (km/s) = 4.78255 6.60557 5.76656
#
# Compressibility (1/GPa) = 0.03877348
#
# Stress axis : x y z
#
# Youngs Moduli (GPa) = 164.38631 20.12805 76.22901
#
# Poissons Ratio (x) = -0.00369 0.16845
# Poissons Ratio (y) = -0.03010 0.99313
# Poissons Ratio (z) = 0.36326 0.26223
#
# Static dielectric constant tensor:
#      x y z
#    x 5.427480 0.000000 0.123750 
#    y 0.000000 4.257690 0.000000 
#    z 0.123750 0.000000 4.365560 
# 
# 
# High freq. dielectric constant tensor:
#      x y z
#    x 2.066840 0.000000 0.003150 
#    y 0.000000 1.969420 0.000000 
#    z 0.003150 0.000000 1.992200 
# 
# From -- ./inp_files/116279.got.cif
#   From: 2010.06.25/outbox.cif.g09.slc.cpg/sg15_59_cif.got.tgz:116279.got - 2010.06.28 07:06:18.
