data_PCOD8142198
_publ_section_title
;
Structure prediction by ZEFSAII (Michael W. Deem and Ramdas Pophale) SiO2 
 PCOD8142198
Probable space group: C 2/C
;
_chemical_formula_sum "Si O2"
_cell_formula_units_Z 64
_cell_length_a 8.636797
_cell_length_b 23.981552
_cell_length_c 15.263527
_cell_angle_alpha 90.000000
_cell_angle_beta 89.999464
_cell_angle_gamma 90.000000
_cell_volume 3161.439658
_symmetry_space_group_name_H-M "C 2/C"
_symmetry_group_IT_number 15
_symmetry_cell_setting 'monoclinic'
loop_
_space_group_symop_operation_xyz
x,y,z
-x,y,1/2-z
-x,-y,-z
x,-y,1/2+z
1/2+x,1/2+y,z
1/2-x,1/2+y,1/2-z
1/2-x,1/2-y,-z
1/2+x,1/2-y,1/2+z
loop_
_atom_site_type_symbol
_atom_site_label
_atom_site_fract_x
_atom_site_fract_y
_atom_site_fract_z
Si Si1 0.174695 0.366634 0.850498
Si Si2 0.174694 0.633365 0.149499
Si Si3 0.176297 0.023976 0.404165
Si Si4 0.316570 0.554574 0.750005
Si Si5 0.319126 0.254413 0.903690
Si Si6 0.319127 0.745586 0.096309
Si Si7 0.315906 0.319189 0.250000
Si Si8 0.323706 0.523979 0.404172
O O1 0.187606 0.384192 0.749999
O O2 0.290556 0.316359 0.868903
O O3 0.222351 0.420347 0.905869
O O4 0.000000 0.348576 0.875485
O O5 0.222349 0.579652 0.094127
O O6 0.290559 0.683639 0.131092
O O7 0.000001 0.039262 0.378792
O O8 0.242552 0.978407 0.335894
O O9 0.187833 0.999992 0.499992
O O10 0.500000 0.558995 0.750000
O O11 0.250690 0.617537 0.750003
O O12 0.257456 0.521598 0.835912
O O13 0.500000 0.242017 0.906810
O O14 0.242072 0.210338 0.838155
O O15 0.250000 0.250000 0.000000
O O16 0.242071 0.789659 0.161846
O O17 0.250000 0.750000 0.000000
O O18 0.500000 0.316574 0.250000
#
# Coordination Sequence:
#
# PCOD8142198 Si02
#       8
#     8   8   8   8   8   8   8   8
#     4  11  23  41  65  93 126 164 209 266 320 374
#     4  11  23  41  65  93 126 164 209 266 320 374
#     4  10  21  38  63  93 123 164 212 255 309 378
#     4   9  20  38  59  88 127 166 204 253 308 367
#     4  12  26  44  67  95 127 169 215 266 324 385
#     4  12  26  44  67  95 127 169 215 266 324 385
#     4  11  23  42  65  94 133 172 214 263 316 385
#     4  10  21  38  63  93 123 164 212 255 309 378
#
# _framework density 20.243942000000001
#
# number of rings (size 3 to 8) (size 9 to 14) (size 15 to 20)
#    0.000    1.250    2.500    3.375    3.500    1.500 
#    0.000    2.500    0.000    0.000    0.000    0.000 
#    0.000    0.000    0.000    0.000    0.000    0.000 
#
# Total GULP energy -396926.066115 kJ/mol
# GULP energy per Si atom -12403.939566 kJ/mol
# Density = 2.019787 g / cm^3
# Si number density = 20.243942 Si / 1000 Ang^3
#
#
#
# Elastic Constant Matrix: (Units=GPa)
#
#
# Indices 1 2 3 4 5 6 
#
# 1 91.3372 27.2736 34.7478 0.0000 0.0032 0.0000
# 2 27.2736 143.7561 43.2016 0.0000 0.0145 0.0000
# 3 34.7478 43.2016 118.7042 0.0000 0.0197 0.0000
# 4 0.0000 0.0000 0.0000 27.0644 0.0000 0.0017
# 5 0.0032 0.0145 0.0197 0.0000 16.7689 0.0000
# 6 0.0000 0.0000 0.0000 0.0017 0.0000 34.2537
#
#
#
# Elastic Compliance Matrix: (Units=1/GPa)
#
#
# Indices 1 2 3 4 5 6 
#
# 1 0.012579 -0.001437 -0.003159 0.000000 0.000003 0.000000
# 2 -0.001437 0.007975 -0.002482 0.000000 -0.000004 0.000000
# 3 -0.003159 -0.002482 0.010252 0.000000 -0.000009 0.000000
# 4 0.000000 0.000000 0.000000 0.036949 0.000000 -0.000002
# 5 0.000003 -0.000004 -0.000009 0.000000 0.059634 0.000000
# 6 0.000000 0.000000 0.000000 -0.000002 0.000000 0.029194
#
#
# Mechanical properties :
#
#
# Convention : Reuss Voigt Hill
#
# Bulk Modulus (GPa) = 60.05913 62.69371 61.37642
# Shear Modulus (GPa) = 28.36237 32.18902 30.27570
#
# Velocity S-wave (km/s) = 3.74709 3.99188 3.87142
# Velocity P-wave (km/s) = 6.96082 7.23071 7.09705
#
# Compressibility (1/GPa) = 0.01665026
#
# Stress axis : x y z
#
# Youngs Moduli (GPa) = 79.49454 125.39704 97.53927
#
# Poissons Ratio (x) = 0.18022 0.30815
# Poissons Ratio (y) = 0.11425 0.24206
# Poissons Ratio (z) = 0.25115 0.31119
#
# Static dielectric constant tensor:
#      x y z
#    x 3.874580 0.000000 0.000040 
#    y 0.000000 3.789930 0.000000 
#    z 0.000040 0.000000 3.698480 
# 
# 
# High freq. dielectric constant tensor:
#      x y z
#    x 1.782190 0.000000 0.000000 
#    y 0.000000 1.801800 0.000000 
#    z 0.000000 0.000000 1.802160 
# 
# From -- ./inp_files/137820.got.cif
#   From: 2010.06.25/outbox.cif.g09.slc.cpg/sg15_69_cif.got.tgz:137820.got - 2010.06.28 07:06:18.
