data_PCOD8142777
_publ_section_title
;
Structure prediction by ZEFSAII (Michael W. Deem and Ramdas Pophale) SiO2 
 PCOD8142777
Probable space group: C 2/C
;
_chemical_formula_sum "Si O2"
_cell_formula_units_Z 56
_cell_length_a 8.917537
_cell_length_b 16.374296
_cell_length_c 24.333455
_cell_angle_alpha 90.000000
_cell_angle_beta 130.492177
_cell_angle_gamma 90.000000
_cell_volume 2702.137763
_symmetry_space_group_name_H-M "C 2/C"
_symmetry_group_IT_number 15
_symmetry_cell_setting 'monoclinic'
loop_
_space_group_symop_operation_xyz
x,y,z
-x,y,1/2-z
-x,-y,-z
x,-y,1/2+z
1/2+x,1/2+y,z
1/2-x,1/2+y,1/2-z
1/2-x,1/2-y,-z
1/2+x,1/2-y,1/2+z
loop_
_atom_site_type_symbol
_atom_site_label
_atom_site_fract_x
_atom_site_fract_y
_atom_site_fract_z
Si Si1 0.166537 0.915883 0.835980
Si Si2 0.210584 0.802735 0.546739
Si Si3 0.834514 0.104229 0.930704
Si Si4 0.385593 0.536015 0.592203
Si Si5 0.707815 0.238876 0.825628
Si Si6 0.406430 0.965687 0.566388
Si Si7 0.450084 0.693174 0.674142
O O1 0.249013 0.824860 0.865847
O O2 0.357559 0.974695 0.870476
O O3 0.000000 0.923964 0.750000
O O4 0.074108 0.947729 0.871221
O O5 0.250000 0.750000 0.500000
O O6 0.345504 0.883198 0.583283
O O7 0.259477 0.747344 0.611644
O O8 0.984530 0.833528 0.497122
O O9 0.690977 0.162686 0.862309
O O10 0.959385 0.046136 0.920123
O O11 0.701229 0.047432 0.936952
O O12 0.165523 0.543269 0.514138
O O13 0.410975 0.600549 0.647466
O O14 0.500000 0.249831 0.750000
O O15 0.869004 0.228197 0.817276
O O16 0.500000 0.699744 0.750000
#
# Coordination Sequence:
#
# PCOD8142777 Si02
#       7
#     8   8   8   8   8   8   8
#     4  11  23  41  61  86 128 168 208 256 329 375
#     4  11  17  39  67  89 125 169 208 255 322 373
#     4  10  22  39  66  93 123 164 217 259 314 376
#     4  10  21  39  65  92 123 163 207 259 317 381
#     4  10  22  43  61  86 127 169 204 260 321 372
#     4  11  21  40  64  96 123 164 217 261 312 378
#     4  11  22  39  67  92 119 165 218 255 310 385
#
# _framework density 20.724332
#
# number of rings (size 3 to 8) (size 9 to 14) (size 15 to 20)
#    0.000    1.429    5.714    2.571    0.000    3.429 
#   10.286    1.429    0.000    0.000    0.000    0.000 
#    0.000    0.000    0.000    0.000    0.000    0.000 
#
# Total GULP energy -347001.234795 kJ/mol
# GULP energy per Si atom -12392.901243 kJ/mol
# Density = 2.067716 g / cm^3
# Si number density = 20.724332 Si / 1000 Ang^3
#
#
#
# Elastic Constant Matrix: (Units=GPa)
#
#
# Indices 1 2 3 4 5 6 
#
# 1 52.7220 53.4749 39.6095 0.0000 9.2755 0.0000
# 2 53.4749 110.6497 43.9244 0.0000 -6.6433 0.0000
# 3 39.6095 43.9244 107.6906 0.0000 -11.0844 0.0000
# 4 0.0000 0.0000 0.0000 29.0217 0.0000 0.5598
# 5 9.2755 -6.6433 -11.0844 0.0000 34.4895 0.0000
# 6 0.0000 0.0000 0.0000 0.5598 0.0000 32.6368
#
#
#
# Elastic Compliance Matrix: (Units=1/GPa)
#
#
# Indices 1 2 3 4 5 6 
#
# 1 0.058568 -0.024142 -0.014267 0.000000 -0.024986 0.000000
# 2 -0.024142 0.020750 0.001547 0.000000 0.010986 0.000000
# 3 -0.014267 0.001547 0.014818 0.000000 0.008897 0.000000
# 4 0.000000 0.000000 0.000000 0.034468 0.000000 -0.000591
# 5 -0.024986 0.010986 0.008897 0.000000 0.040690 0.000000
# 6 0.000000 0.000000 0.000000 -0.000591 0.000000 0.030650
#
#
# Mechanical properties :
#
#
# Convention : Reuss Voigt Hill
#
# Bulk Modulus (GPa) = 48.98766 60.56444 54.77605
# Shear Modulus (GPa) = 17.82701 28.16650 22.99675
#
# Velocity S-wave (km/s) = 2.93609 3.69060 3.33475
# Velocity P-wave (km/s) = 5.93155 6.88825 6.42772
#
# Compressibility (1/GPa) = 0.02041330
#
# Stress axis : x y z
#
# Youngs Moduli (GPa) = 17.07408 48.19205 67.48433
#
# Poissons Ratio (x) = 1.16343 0.96279
# Poissons Ratio (y) = 0.41220 -0.10438
# Poissons Ratio (z) = 0.24359 -0.07454
#
# Static dielectric constant tensor:
#      x y z
#    x 3.339860 0.000000 0.056750 
#    y 0.000000 4.157580 0.000000 
#    z 0.056750 0.000000 3.736740 
# 
# 
# High freq. dielectric constant tensor:
#      x y z
#    x 1.781220 0.000000 0.016720 
#    y 0.000000 1.828860 0.000000 
#    z 0.016720 0.000000 1.815740 
# 
# From -- ./inp_files/265598.got.cif
#   From: 2010.06.25/outbox.cif.g09.slc.cpg/sg15_133_cif.got.tgz:265598.got - 2010.06.28 07:06:18.
