data_PCOD8142832
_publ_section_title
;
Structure prediction by ZEFSAII (Michael W. Deem and Ramdas Pophale) SiO2 
 PCOD8142832
Probable space group: C 2/C
;
_chemical_formula_sum "Si O2"
_cell_formula_units_Z 48
_cell_length_a 19.865042
_cell_length_b 12.361214
_cell_length_c 10.131379
_cell_angle_alpha 90.000000
_cell_angle_beta 122.223034
_cell_angle_gamma 90.000000
_cell_volume 2104.644221
_symmetry_space_group_name_H-M "C 2/C"
_symmetry_group_IT_number 15
_symmetry_cell_setting 'monoclinic'
loop_
_space_group_symop_operation_xyz
x,y,z
-x,y,1/2-z
-x,-y,-z
x,-y,1/2+z
1/2+x,1/2+y,z
1/2-x,1/2+y,1/2-z
1/2-x,1/2-y,-z
1/2+x,1/2-y,1/2+z
loop_
_atom_site_type_symbol
_atom_site_label
_atom_site_fract_x
_atom_site_fract_y
_atom_site_fract_z
Si Si1 0.290828 0.342315 0.173378
Si Si2 0.000000 0.706026 0.250000
Si Si3 0.402278 0.609620 0.546785
Si Si4 0.500000 0.423548 0.750000
Si Si5 0.152610 0.833359 0.782404
Si Si6 0.232047 0.395544 0.376212
Si Si7 0.840326 0.619575 0.158397
O O1 0.352723 0.392248 0.132762
O O2 0.283241 0.600023 0.064039
O O3 0.295611 0.396947 0.322175
O O4 0.200580 0.357172 0.026575
O O5 0.041081 0.784900 0.400708
O O6 0.064545 0.627848 0.251178
O O7 0.454771 0.500778 0.597113
O O8 0.342823 0.616855 0.360317
O O9 0.562763 0.346975 0.741362
O O10 0.173890 0.706959 0.808635
O O11 0.178587 0.501731 0.306588
O O12 0.308010 0.215210 0.219360
#
# Coordination Sequence:
#
# PCOD8142832 Si02
#       7
#     8   4   8   4   8   8   8
#     4  10  22  42  67  94 123 169 226 258 300 384
#     4   9  20  39  64  92 120 165 218 253 300 384
#     4  10  22  44  68  92 123 166 221 268 308 369
#     4  11  24  39  68  96 128 169 210 271 326 368
#     4  11  25  42  60  96 134 164 208 262 327 384
#     4  11  25  42  64  96 133 166 205 265 325 378
#     4  10  21  39  66  91 125 171 215 258 308 377
#
# _framework density 22.806705999999998
#
# number of rings (size 3 to 8) (size 9 to 14) (size 15 to 20)
#    0.000    1.667    0.000    4.500    0.000   15.333 
#    0.000    3.333    0.000    0.000    0.000    0.000 
#    0.000    0.000    0.000    0.000    0.000    0.000 
#
# Total GULP energy -297581.886926 kJ/mol
# GULP energy per Si atom -12399.245289 kJ/mol
# Density = 2.275480 g / cm^3
# Si number density = 22.806706 Si / 1000 Ang^3
#
#
#
# Elastic Constant Matrix: (Units=GPa)
#
#
# Indices 1 2 3 4 5 6 
#
# 1 143.6773 77.6130 59.7647 0.0000 8.1790 0.0000
# 2 77.6130 134.9430 35.5269 0.0000 4.8344 0.0000
# 3 59.7647 35.5269 126.9631 0.0000 -6.9956 0.0000
# 4 0.0000 0.0000 0.0000 15.8349 0.0000 18.0951
# 5 8.1790 4.8344 -6.9956 0.0000 36.8615 0.0000
# 6 0.0000 0.0000 0.0000 18.0951 0.0000 41.3918
#
#
#
# Elastic Compliance Matrix: (Units=1/GPa)
#
#
# Indices 1 2 3 4 5 6 
#
# 1 0.011899 -0.005650 -0.004169 0.000000 -0.002690 0.000000
# 2 -0.005650 0.010764 -0.000365 0.000000 -0.000227 0.000000
# 3 -0.004169 -0.000365 0.010100 0.000000 0.002890 0.000000
# 4 0.000000 0.000000 0.000000 0.126193 0.000000 -0.055167
# 5 -0.002690 -0.000227 0.002890 0.000000 0.028304 0.000000
# 6 0.000000 0.000000 0.000000 -0.055167 0.000000 0.048277
#
#
# Mechanical properties :
#
#
# Convention : Reuss Voigt Hill
#
# Bulk Modulus (GPa) = 80.66860 83.48805 82.07833
# Shear Modulus (GPa) = 19.22806 34.32956 26.77881
#
# Velocity S-wave (km/s) = 2.90675 3.88395 3.43032
# Velocity P-wave (km/s) = 6.83469 7.53656 7.19419
#
# Compressibility (1/GPa) = 0.01239640
#
# Stress axis : x y z
#
# Youngs Moduli (GPa) = 84.03897 92.89853 99.01116
#
# Poissons Ratio (x) = 0.52488 0.41273
# Poissons Ratio (y) = 0.47482 0.03614
# Poissons Ratio (z) = 0.35032 0.03391
#
# Static dielectric constant tensor:
#      x y z
#    x 4.005780 0.000000 0.164380 
#    y 0.000000 4.169830 0.000000 
#    z 0.164380 0.000000 4.138120 
# 
# 
# High freq. dielectric constant tensor:
#      x y z
#    x 1.894990 0.000000 0.010400 
#    y 0.000000 1.909580 0.000000 
#    z 0.010400 0.000000 1.887200 
# 
# From -- ./inp_files/111249.got.cif
#   From: 2010.06.25/outbox.cif.g09.slc.cpg/sg15_56_cif.got.tgz:111249.got - 2010.06.28 07:06:18.
