data_PCOD8142060
_publ_section_title
;
Structure prediction by ZEFSAII (Michael W. Deem and Ramdas Pophale) SiO2 
 PCOD8142060
Probable space group: C 2/C
;
_chemical_formula_sum "Si O2"
_cell_formula_units_Z 64
_cell_length_a 28.026864
_cell_length_b 16.994875
_cell_length_c 8.777507
_cell_angle_alpha 90.000000
_cell_angle_beta 132.447549
_cell_angle_gamma 90.000000
_cell_volume 3085.023825
_symmetry_space_group_name_H-M "C 2/C"
_symmetry_group_IT_number 15
_symmetry_cell_setting 'monoclinic'
loop_
_space_group_symop_operation_xyz
x,y,z
-x,y,1/2-z
-x,-y,-z
x,-y,1/2+z
1/2+x,1/2+y,z
1/2-x,1/2+y,1/2-z
1/2-x,1/2-y,-z
1/2+x,1/2-y,1/2+z
loop_
_atom_site_type_symbol
_atom_site_label
_atom_site_fract_x
_atom_site_fract_y
_atom_site_fract_z
Si Si1 0.564249 0.358697 0.548213
Si Si2 0.162465 0.037923 0.395613
Si Si3 0.909753 0.276196 0.927940
Si Si4 0.746456 0.990440 0.665263
Si Si5 0.946828 0.301106 0.340923
Si Si6 0.953507 0.543243 0.012355
Si Si7 0.662953 0.070760 0.246337
Si Si8 0.082579 0.117721 0.743466
O O1 0.610020 0.393090 0.778233
O O2 0.560386 0.265093 0.546940
O O3 0.494377 0.397169 0.433705
O O4 0.595668 0.374608 0.451725
O O5 0.217503 0.057304 0.389257
O O6 0.197762 0.042540 0.633957
O O7 0.125514 0.955437 0.279785
O O8 0.855633 0.338980 0.763424
O O9 0.897183 0.193291 0.815760
O O10 0.908197 0.271160 0.108711
O O11 0.977933 0.314009 0.030257
O O12 0.716619 0.932426 0.728340
O O13 0.690998 0.043595 0.469342
O O14 0.920123 0.381998 0.356126
O O15 0.000000 0.571080 0.250000
O O16 0.896599 0.483740 0.938849
O O17 0.000000 0.500000 0.000000
#
# Coordination Sequence:
#
# PCOD8142060 Si02
#       8
#     8   8   8   8   8   8   8   8
#     4  10  22  38  64  96 131 157 203 261 335 387
#     4  11  21  44  64  87 126 166 219 264 315 369
#     4  10  21  38  61  90 133 159 200 255 322 386
#     4  10  24  39  64  85 119 174 222 260 293 368
#     4  10  22  36  58  99 130 162 193 254 329 391
#     4  12  23  36  66  97 127 166 210 260 334 384
#     4  11  22  41  62  90 125 166 217 262 305 376
#     4  10  22  38  66  98 123 164 204 267 331 388
#
# _framework density 20.745383
#
# number of rings (size 3 to 8) (size 9 to 14) (size 15 to 20)
#    0.000    1.500    2.500    2.625    5.250    0.000 
#    0.000    2.500    5.500    3.000    0.000    0.000 
#    0.000    0.000    0.000    0.000    0.000    0.000 
#
# Total GULP energy -396659.031917 kJ/mol
# GULP energy per Si atom -12395.594747 kJ/mol
# Density = 2.069817 g / cm^3
# Si number density = 20.745383 Si / 1000 Ang^3
#
#
#
# Elastic Constant Matrix: (Units=GPa)
#
#
# Indices 1 2 3 4 5 6 
#
# 1 70.1537 27.3583 11.4180 0.0000 -6.5068 0.0000
# 2 27.3583 88.0040 26.7573 0.0000 4.6157 0.0000
# 3 11.4180 26.7573 110.4391 0.0000 4.7211 0.0000
# 4 0.0000 0.0000 0.0000 25.0311 0.0000 -1.5369
# 5 -6.5068 4.6157 4.7211 0.0000 27.9033 0.0000
# 6 0.0000 0.0000 0.0000 -1.5369 0.0000 19.6704
#
#
#
# Elastic Compliance Matrix: (Units=1/GPa)
#
#
# Indices 1 2 3 4 5 6 
#
# 1 0.016890 -0.005305 -0.000672 0.000000 0.004930 0.000000
# 2 -0.005305 0.013999 -0.002711 0.000000 -0.003094 0.000000
# 3 -0.000672 -0.002711 0.009840 0.000000 -0.001373 0.000000
# 4 0.000000 0.000000 0.000000 0.040143 0.000000 0.003136
# 5 0.004930 -0.003094 -0.001373 0.000000 0.037732 0.000000
# 6 0.000000 0.000000 0.000000 0.003136 0.000000 0.051083
#
#
# Mechanical properties :
#
#
# Convention : Reuss Voigt Hill
#
# Bulk Modulus (GPa) = 42.82055 44.40710 43.61382
# Shear Modulus (GPa) = 25.66138 28.05849 26.85993
#
# Velocity S-wave (km/s) = 3.52087 3.68165 3.60216
# Velocity P-wave (km/s) = 6.10037 6.28689 6.19433
#
# Compressibility (1/GPa) = 0.02335328
#
# Stress axis : x y z
#
# Youngs Moduli (GPa) = 59.20739 71.43454 101.62907
#
# Poissons Ratio (x) = 0.37896 0.06826
# Poissons Ratio (y) = 0.31409 0.27551
# Poissons Ratio (z) = 0.03977 0.19365
#
# Static dielectric constant tensor:
#      x y z
#    x 3.776180 0.000000 0.026250 
#    y 0.000000 3.565700 0.000000 
#    z 0.026250 0.000000 3.744940 
# 
# 
# High freq. dielectric constant tensor:
#      x y z
#    x 1.810860 0.000000 -0.008690 
#    y 0.000000 1.791850 0.000000 
#    z -0.008690 0.000000 1.820140 
# 
# From -- ./inp_files/70158.got.cif
#   From: 2010.06.25/outbox.cif.g09.slc.cpg/sg15_36_cif.got.tgz:70158.got - 2010.06.28 07:06:18.
