data_PCOD8142424
_publ_section_title
;
Structure prediction by ZEFSAII (Michael W. Deem and Ramdas Pophale) SiO2 
 PCOD8142424
Probable space group: C 2/C
;
_chemical_formula_sum "Si O2"
_cell_formula_units_Z 56
_cell_length_a 14.106272
_cell_length_b 7.432887
_cell_length_c 33.674332
_cell_angle_alpha 90.000000
_cell_angle_beta 129.980534
_cell_angle_gamma 90.000000
_cell_volume 2705.493571
_symmetry_space_group_name_H-M "C 2/C"
_symmetry_group_IT_number 15
_symmetry_cell_setting 'monoclinic'
loop_
_space_group_symop_operation_xyz
x,y,z
-x,y,1/2-z
-x,-y,-z
x,-y,1/2+z
1/2+x,1/2+y,z
1/2-x,1/2+y,1/2-z
1/2-x,1/2-y,-z
1/2+x,1/2-y,1/2+z
loop_
_atom_site_type_symbol
_atom_site_label
_atom_site_fract_x
_atom_site_fract_y
_atom_site_fract_z
Si Si1 0.624773 0.413319 0.669510
Si Si2 0.897325 0.581108 0.250157
Si Si3 0.896890 0.167489 0.249783
Si Si4 0.493763 0.177253 0.443201
Si Si5 0.875290 0.661606 0.330985
Si Si6 0.082048 0.072951 0.443984
Si Si7 0.162884 0.376278 0.524956
O O1 0.763078 0.327881 0.705555
O O2 0.561252 0.354612 0.693474
O O3 0.632184 0.625889 0.669470
O O4 0.540460 0.345821 0.610314
O O5 0.887095 0.374677 0.235170
O O6 0.939909 0.601349 0.307414
O O7 0.000000 0.676310 0.250000
O O8 0.762944 0.076313 0.205995
O O9 0.000000 0.072270 0.250000
O O10 0.454009 0.094094 0.389870
O O11 0.553184 0.375133 0.453770
O O12 0.372280 0.170263 0.438922
O O13 0.596484 0.053089 0.490539
O O14 0.120898 0.198802 0.490404
O O15 0.191945 0.077663 0.440715
#
# Coordination Sequence:
#
# PCOD8142424 Si02
#       7
#     8   8   8   8   8   8   8
#     4   9  19  34  52  78 110 141 178 228 283 332
#     4   9  18  35  53  79 111 142 182 223 274 345
#     4   9  18  31  53  78 106 140 178 220 271 340
#     4  10  21  39  58  83 120 147 195 249 288 348
#     4   9  19  34  52  77 110 144 175 231 283 329
#     4  10  21  39  59  85 116 148 197 246 289 351
#     4  10  22  38  61  85 109 160 194 238 305 344
#
# _framework density 20.698626999999998
#
# number of rings (size 3 to 8) (size 9 to 14) (size 15 to 20)
#    0.000    2.571    0.000    0.857    4.000    0.571 
#    0.000    7.143    0.000    0.000    0.000    0.000 
#    0.000    0.000    0.000    0.000    0.000    0.000 
#
# Total GULP energy -347020.024515 kJ/mol
# GULP energy per Si atom -12393.572304 kJ/mol
# Density = 2.065152 g / cm^3
# Si number density = 20.698627 Si / 1000 Ang^3
#
#
#
# Elastic Constant Matrix: (Units=GPa)
#
#
# Indices 1 2 3 4 5 6 
#
# 1 159.4894 15.4405 69.6309 0.0000 -22.4693 0.0000
# 2 15.4405 56.5804 20.4451 0.0000 -0.9475 0.0000
# 3 69.6309 20.4451 106.8772 0.0000 -4.7349 0.0000
# 4 0.0000 0.0000 0.0000 17.5170 0.0000 -6.2641
# 5 -22.4693 -0.9475 -4.7349 0.0000 23.1799 0.0000
# 6 0.0000 0.0000 0.0000 -6.2641 0.0000 16.3669
#
#
#
# Elastic Compliance Matrix: (Units=1/GPa)
#
#
# Indices 1 2 3 4 5 6 
#
# 1 0.010237 -0.000405 -0.006209 0.000000 0.008638 0.000000
# 2 -0.000405 0.019002 -0.003385 0.000000 -0.000308 0.000000
# 3 -0.006209 -0.003385 0.013902 0.000000 -0.003317 0.000000
# 4 0.000000 0.000000 0.000000 0.066140 0.000000 0.025314
# 5 0.008638 -0.000308 -0.003317 0.000000 0.050824 0.000000
# 6 0.000000 0.000000 0.000000 0.025314 0.000000 0.070787
#
#
# Mechanical properties :
#
#
# Convention : Reuss Voigt Hill
#
# Bulk Modulus (GPa) = 43.20868 59.33112 51.26990
# Shear Modulus (GPa) = 19.33441 25.90811 22.62126
#
# Velocity S-wave (km/s) = 3.05961 3.54175 3.30947
# Velocity P-wave (km/s) = 5.77945 6.74180 6.27909
#
# Compressibility (1/GPa) = 0.02314350
#
# Stress axis : x y z
#
# Youngs Moduli (GPa) = 97.68348 52.62482 71.92999
#
# Poissons Ratio (x) = 0.02133 0.44663
# Poissons Ratio (y) = 0.03959 0.24346
# Poissons Ratio (z) = 0.60655 0.17812
#
# Static dielectric constant tensor:
#      x y z
#    x 4.187000 0.000000 0.138090 
#    y 0.000000 3.535900 0.000000 
#    z 0.138090 0.000000 3.885370 
# 
# 
# High freq. dielectric constant tensor:
#      x y z
#    x 1.815780 0.000000 -0.002530 
#    y 0.000000 1.802390 0.000000 
#    z -0.002530 0.000000 1.801670 
# 
# From -- ./inp_files/272830.got.cif
#   From: 2010.06.25/outbox.cif.g09.slc.cpg/sg15_137_cif.got.tgz:272830.got - 2010.06.28 07:06:18.
