data_PCOD8142395
_publ_section_title
;
Structure prediction by ZEFSAII (Michael W. Deem and Ramdas Pophale) SiO2 
 PCOD8142395
Probable space group: C 2/C
;
_chemical_formula_sum "Si O2"
_cell_formula_units_Z 52
_cell_length_a 7.098607
_cell_length_b 26.953084
_cell_length_c 12.357510
_cell_angle_alpha 90.000000
_cell_angle_beta 82.503687
_cell_angle_gamma 90.000000
_cell_volume 2344.146840
_symmetry_space_group_name_H-M "C 2/C"
_symmetry_group_IT_number 15
_symmetry_cell_setting 'monoclinic'
loop_
_space_group_symop_operation_xyz
x,y,z
-x,y,1/2-z
-x,-y,-z
x,-y,1/2+z
1/2+x,1/2+y,z
1/2-x,1/2+y,1/2-z
1/2-x,1/2-y,-z
1/2+x,1/2-y,1/2+z
loop_
_atom_site_type_symbol
_atom_site_label
_atom_site_fract_x
_atom_site_fract_y
_atom_site_fract_z
Si Si1 0.275712 0.128373 0.157009
Si Si2 0.500000 0.370364 0.250000
Si Si3 0.064217 0.724051 0.466502
Si Si4 0.980236 0.054541 0.927901
Si Si5 0.300930 0.022207 0.049889
Si Si6 0.360549 0.630554 0.102364
Si Si7 0.205370 0.801191 0.093585
O O1 0.404525 0.170634 0.092271
O O2 0.333681 0.073451 0.110809
O O3 0.707485 0.128205 0.212697
O O4 0.064254 0.141692 0.138020
O O5 0.433025 0.403067 0.154796
O O6 0.678343 0.337519 0.197304
O O7 0.250000 0.750000 0.500000
O O8 0.958724 0.759305 0.386809
O O9 0.920920 0.718792 0.580486
O O10 0.828567 0.018783 0.875055
O O11 0.867087 0.078371 0.038196
O O12 0.170118 0.027001 0.952457
O O13 0.500000 0.000000 0.000000
O O14 0.309700 0.673902 0.023707
#
# Coordination Sequence:
#
# PCOD8142395 Si02
#       7
#     8   4   8   8   8   8   8
#     4  10  21  38  70  93 128 165 219 264 325 386
#     4  10  22  44  68  94 134 182 218 266 338 396
#     4  11  23  42  67  95 132 167 214 278 327 389
#     4   9  21  42  64  89 138 169 211 272 322 386
#     4  10  22  40  66  97 129 169 215 271 331 390
#     4   9  19  40  64  93 122 171 210 266 319 376
#     4  10  23  42  64  92 133 172 216 265 329 390
#
# _framework density 22.182912999999999
#
# number of rings (size 3 to 8) (size 9 to 14) (size 15 to 20)
#    0.000    2.154    1.538    0.000    4.308    6.769 
#    0.000    3.846    0.000    0.000    0.000    0.000 
#    0.000    0.000    0.000    0.000    0.000    0.000 
#
# Total GULP energy -322155.845237 kJ/mol
# GULP energy per Si atom -12390.609432 kJ/mol
# Density = 2.213242 g / cm^3
# Si number density = 22.182913 Si / 1000 Ang^3
#
#
#
# Elastic Constant Matrix: (Units=GPa)
#
#
# Indices 1 2 3 4 5 6 
#
# 1 98.9969 56.1992 44.4810 0.0000 -29.0235 0.0000
# 2 56.1992 154.8393 63.0337 0.0000 -16.0485 0.0000
# 3 44.4810 63.0337 115.7486 0.0000 -17.2239 0.0000
# 4 0.0000 0.0000 0.0000 32.0759 0.0000 -10.2255
# 5 -29.0235 -16.0485 -17.2239 0.0000 23.1963 0.0000
# 6 0.0000 0.0000 0.0000 -10.2255 0.0000 28.4793
#
#
#
# Elastic Compliance Matrix: (Units=1/GPa)
#
#
# Indices 1 2 3 4 5 6 
#
# 1 0.019082 -0.003988 -0.002270 0.000000 0.019431 0.000000
# 2 -0.003988 0.009282 -0.003720 0.000000 -0.001330 0.000000
# 3 -0.002270 -0.003720 0.012065 0.000000 0.003545 0.000000
# 4 0.000000 0.000000 0.000000 0.035206 0.000000 0.012641
# 5 0.019431 -0.001330 0.003545 0.000000 0.069134 0.000000
# 6 0.000000 0.000000 0.000000 0.012641 0.000000 0.039652
#
#
# Mechanical properties :
#
#
# Convention : Reuss Voigt Hill
#
# Bulk Modulus (GPa) = 48.84435 77.44586 63.14511
# Shear Modulus (GPa) = 23.67409 30.47504 27.07457
#
# Velocity S-wave (km/s) = 3.27038 3.71051 3.49738
# Velocity P-wave (km/s) = 6.02721 7.30379 6.69599
#
# Compressibility (1/GPa) = 0.02047320
#
# Stress axis : x y z
#
# Youngs Moduli (GPa) = 52.40634 107.73118 82.88303
#
# Poissons Ratio (x) = 0.42960 0.18813
# Poissons Ratio (y) = 0.20898 0.30836
# Poissons Ratio (z) = 0.11896 0.40080
#
# Static dielectric constant tensor:
#      x y z
#    x 3.903610 0.000000 -0.144480 
#    y 0.000000 4.431360 0.000000 
#    z -0.144480 0.000000 3.964100 
# 
# 
# High freq. dielectric constant tensor:
#      x y z
#    x 1.863810 0.000000 -0.016710 
#    y 0.000000 1.898060 0.000000 
#    z -0.016710 0.000000 1.854230 
# 
# From -- ./inp_files/130683.got.cif
#   From: 2010.06.25/outbox.cif.g09.slc.cpg/sg15_66_cif.got.tgz:130683.got - 2010.06.28 07:06:18.
