data_PCOD8142220
_publ_section_title
;
Structure prediction by ZEFSAII (Michael W. Deem and Ramdas Pophale) SiO2 
 PCOD8142220
Probable space group: C 2/C
;
_chemical_formula_sum "Si O2"
_cell_formula_units_Z 52
_cell_length_a 27.159744
_cell_length_b 9.237837
_cell_length_c 26.820184
_cell_angle_alpha 90.000000
_cell_angle_beta 21.547398
_cell_angle_gamma 90.000000
_cell_volume 2471.406073
_symmetry_space_group_name_H-M "C 2/C"
_symmetry_group_IT_number 15
_symmetry_cell_setting 'monoclinic'
loop_
_space_group_symop_operation_xyz
x,y,z
-x,y,1/2-z
-x,-y,-z
x,-y,1/2+z
1/2+x,1/2+y,z
1/2-x,1/2+y,1/2-z
1/2-x,1/2-y,-z
1/2+x,1/2-y,1/2+z
loop_
_atom_site_type_symbol
_atom_site_label
_atom_site_fract_x
_atom_site_fract_y
_atom_site_fract_z
Si Si1 0.131743 0.749021 0.151001
Si Si2 0.811597 0.704696 0.803126
Si Si3 0.354935 0.450990 0.576346
Si Si4 0.786772 0.350956 0.098124
Si Si5 0.846195 0.048528 0.198922
Si Si6 0.000000 0.521298 0.750000
Si Si7 0.397880 0.877318 0.442770
O O1 0.170654 0.823342 0.166343
O O2 0.000000 0.826403 0.250000
O O3 0.094328 0.580114 0.196304
O O4 0.250000 0.750000 0.000000
O O5 0.754916 0.544708 0.849121
O O6 0.790275 0.802269 0.774238
O O7 0.969005 0.703017 0.664679
O O8 0.733447 0.782334 0.922124
O O9 0.364633 0.295355 0.540007
O O10 0.495444 0.533398 0.442189
O O11 0.305665 0.440940 0.679620
O O12 0.723489 0.412817 0.208422
O O13 0.889976 0.464635 0.976434
O O14 0.093782 0.613995 0.625113
#
# Coordination Sequence:
#
# PCOD8142220 Si02
#       7
#     8   8   8   8   8   4   8
#     4  10  21  38  64 101 130 164 221 283 328 377
#     4  11  23  46  64  94 132 179 207 271 339 396
#     4  11  23  40  68  95 133 174 223 272 329 399
#     4  11  23  42  70  97 129 175 224 281 329 382
#     4  10  24  42  62  99 133 174 224 267 332 405
#     4  10  22  40  64  96 128 164 224 272 318 394
#     4  11  24  44  67  93 132 172 220 269 333 398
#
# _framework density 21.040652000000001
#
# number of rings (size 3 to 8) (size 9 to 14) (size 15 to 20)
#    0.462    0.923    3.077    1.846    6.462    0.615 
#    0.000    2.308    6.769    0.923    0.000    0.000 
#    0.000    0.000    0.000    0.000    0.000    0.000 
#
# Total GULP energy -322329.667674 kJ/mol
# GULP energy per Si atom -12397.294911 kJ/mol
# Density = 2.099276 g / cm^3
# Si number density = 21.040652 Si / 1000 Ang^3
#
#
#
# Elastic Constant Matrix: (Units=GPa)
#
#
# Indices 1 2 3 4 5 6 
#
# 1 96.1831 42.7503 37.0023 -0.0075 16.5713 0.0023
# 2 42.7503 103.9609 36.1501 -0.0043 7.8166 -0.0003
# 3 37.0023 36.1501 109.2823 -0.0050 16.4494 -0.0008
# 4 -0.0075 -0.0043 -0.0050 24.3539 -0.0022 -0.2790
# 5 16.5713 7.8166 16.4494 -0.0022 40.4105 0.0013
# 6 0.0023 -0.0003 -0.0008 -0.2790 0.0013 26.3563
#
#
#
# Elastic Compliance Matrix: (Units=1/GPa)
#
#
# Indices 1 2 3 4 5 6 
#
# 1 0.014128 -0.004587 -0.002693 0.000003 -0.003810 -0.000001
# 2 -0.004587 0.012376 -0.002624 0.000000 0.000555 0.000000
# 3 -0.002693 -0.002624 0.011386 0.000001 -0.003023 0.000001
# 4 0.000003 0.000000 0.000001 0.041066 0.000001 0.000435
# 5 -0.003810 0.000555 -0.003023 0.000001 0.027431 -0.000001
# 6 -0.000001 0.000000 0.000001 0.000435 -0.000001 0.037946
#
#
# Mechanical properties :
#
#
# Convention : Reuss Voigt Hill
#
# Bulk Modulus (GPa) = 55.30573 60.13687 57.72130
# Shear Modulus (GPa) = 29.38264 31.12570 30.25417
#
# Velocity S-wave (km/s) = 3.74099 3.85036 3.79607
# Velocity P-wave (km/s) = 6.70837 6.95775 6.83420
#
# Compressibility (1/GPa) = 0.01808131
#
# Stress axis : x y z
#
# Youngs Moduli (GPa) = 70.78191 80.80155 87.83081
#
# Poissons Ratio (x) = 0.37062 0.23651
# Poissons Ratio (y) = 0.32466 0.23051
# Poissons Ratio (z) = 0.19060 0.21206
#
# Static dielectric constant tensor:
#      x y z
#    x 3.734070 -0.000010 0.195740 
#    y -0.000010 3.769340 0.000020 
#    z 0.195740 0.000020 3.892690 
# 
# 
# High freq. dielectric constant tensor:
#      x y z
#    x 1.816650 0.000000 0.015910 
#    y 0.000000 1.821820 0.000000 
#    z 0.015910 0.000000 1.833200 
# 
# From -- ./inp_files/320179.got.cif
#   From: 2010.06.25/outbox.cif.g09.slc.cpg/sg15_161_cif.got.tgz:320179.got - 2010.06.28 07:06:18.
