data_PCOD8142953
_publ_section_title
;
Structure prediction by ZEFSAII (Michael W. Deem and Ramdas Pophale) SiO2 
 PCOD8142953
Probable space group: C 2/C
;
_chemical_formula_sum "Si O2"
_cell_formula_units_Z 64
_cell_length_a 22.905426
_cell_length_b 8.707806
_cell_length_c 29.120396
_cell_angle_alpha 90.000000
_cell_angle_beta 152.437930
_cell_angle_gamma 90.000000
_cell_volume 2687.525473
_symmetry_space_group_name_H-M "C 2/C"
_symmetry_group_IT_number 15
_symmetry_cell_setting 'monoclinic'
loop_
_space_group_symop_operation_xyz
x,y,z
-x,y,1/2-z
-x,-y,-z
x,-y,1/2+z
1/2+x,1/2+y,z
1/2-x,1/2+y,1/2-z
1/2-x,1/2-y,-z
1/2+x,1/2-y,1/2+z
loop_
_atom_site_type_symbol
_atom_site_label
_atom_site_fract_x
_atom_site_fract_y
_atom_site_fract_z
Si Si1 0.240735 0.686877 0.061435
Si Si2 0.017899 0.193559 0.641616
Si Si3 0.922273 0.627543 0.156366
Si Si4 0.142655 0.034581 0.117658
Si Si5 0.324083 0.567823 0.209052
Si Si6 0.456524 0.805187 0.151147
Si Si7 0.305704 0.472904 0.945786
Si Si8 0.219313 0.279031 0.718028
O O1 0.257897 0.560228 0.113153
O O2 0.372554 0.698251 0.125904
O O3 0.203692 0.845221 0.059302
O O4 0.128611 0.634538 0.950404
O O5 0.095713 0.310872 0.663451
O O6 0.921953 0.281924 0.608265
O O7 0.946544 0.075685 0.558354
O O8 0.114977 0.096598 0.740165
O O9 0.996928 0.463838 0.203466
O O10 0.781157 0.605632 0.076176
O O11 0.000000 0.718282 0.250000
O O12 0.210186 0.894873 0.192450
O O13 0.221633 0.074102 0.126120
O O14 0.158441 0.180958 0.163477
O O15 0.000000 0.000000 0.000000
O O16 0.423681 0.708652 0.280787
O O17 0.220404 0.604397 0.175790
#
# Coordination Sequence:
#
# PCOD8142953 Si02
#       8
#     8   8   8   8   8   8   8   8
#     4  10  21  39  69 100 134 179 233 287 349 427
#     4  12  26  46  67 105 141 180 242 298 366 433
#     4  11  25  44  68 100 142 187 232 295 364 434
#     4  12  25  50  76 104 151 193 243 305 368 436
#     4  12  23  41  70  97 136 180 234 292 354 419
#     4  10  22  41  64  99 135 181 235 282 344 432
#     4  11  21  46  74  99 141 194 230 295 379 424
#     4  12  26  44  74 106 138 196 245 300 362 448
#
# _framework density 23.813728999999999
#
# number of rings (size 3 to 8) (size 9 to 14) (size 15 to 20)
#    0.000    0.750    5.000    3.000    1.750    1.000 
#    4.500    0.625    0.000    0.000    0.000    0.000 
#    0.000    0.000    0.000    0.000    0.000    0.000 
#
# Total GULP energy -396656.302001 kJ/mol
# GULP energy per Si atom -12395.509438 kJ/mol
# Density = 2.375953 g / cm^3
# Si number density = 23.813729 Si / 1000 Ang^3
#
#
#
# Elastic Constant Matrix: (Units=GPa)
#
#
# Indices 1 2 3 4 5 6 
#
# 1 159.5094 34.8669 40.1584 0.0000 -23.8396 -0.0001
# 2 34.8669 59.9014 29.0348 0.0008 -7.1729 0.0002
# 3 40.1584 29.0348 70.1128 0.0035 -18.2936 0.0008
# 4 0.0000 0.0008 0.0035 24.7637 0.0006 -6.7515
# 5 -23.8396 -7.1729 -18.2936 0.0006 40.1667 -0.0001
# 6 -0.0001 0.0002 0.0008 -6.7515 -0.0001 31.3268
#
#
#
# Elastic Compliance Matrix: (Units=1/GPa)
#
#
# Indices 1 2 3 4 5 6 
#
# 1 0.008039 -0.003088 -0.002525 0.000000 0.003070 0.000000
# 2 -0.003088 0.022075 -0.007743 0.000001 -0.001417 0.000000
# 3 -0.002525 -0.007743 0.020613 -0.000003 0.006507 -0.000001
# 4 0.000000 0.000001 -0.000003 0.042903 -0.000002 0.009246
# 5 0.003070 -0.001417 0.006507 -0.000002 0.029429 0.000000
# 6 0.000000 0.000000 -0.000001 0.009246 0.000000 0.033914
#
#
# Mechanical properties :
#
#
# Convention : Reuss Voigt Hill
#
# Bulk Modulus (GPa) = 41.63854 55.29375 48.46614
# Shear Modulus (GPa) = 26.08420 31.61566 28.84993
#
# Velocity S-wave (km/s) = 3.31319 3.64761 3.48441
# Velocity P-wave (km/s) = 5.67092 6.40389 6.04852
#
# Compressibility (1/GPa) = 0.02401621
#
# Stress axis : x y z
#
# Youngs Moduli (GPa) = 124.40043 45.30086 48.51342
#
# Poissons Ratio (x) = 0.13988 0.12248
# Poissons Ratio (y) = 0.38411 0.37562
# Poissons Ratio (z) = 0.31406 0.35075
#
# Static dielectric constant tensor:
#      x y z
#    x 4.679030 0.000000 -0.244570 
#    y 0.000000 3.915420 0.000000 
#    z -0.244570 0.000000 4.245890 
# 
# 
# High freq. dielectric constant tensor:
#      x y z
#    x 1.969870 0.000000 -0.017820 
#    y 0.000000 1.912360 0.000000 
#    z -0.017820 0.000000 1.937760 
# 
# From -- ./inp_files/318648.got.cif
#   From: 2010.06.25/outbox.cif.g09.slc.cpg/sg15_160_cif.got.tgz:318648.got - 2010.06.28 07:06:18.
