data_PCOD8142072
_publ_section_title
;
Structure prediction by ZEFSAII (Michael W. Deem and Ramdas Pophale) SiO2 
 PCOD8142072
Probable space group: C 2/C
;
_chemical_formula_sum "Si O2"
_cell_formula_units_Z 64
_cell_length_a 12.504229
_cell_length_b 27.280075
_cell_length_c 15.064877
_cell_angle_alpha 90.000000
_cell_angle_beta 142.991947
_cell_angle_gamma 90.000000
_cell_volume 3093.229088
_symmetry_space_group_name_H-M "C 2/C"
_symmetry_group_IT_number 15
_symmetry_cell_setting 'monoclinic'
loop_
_space_group_symop_operation_xyz
x,y,z
-x,y,1/2-z
-x,-y,-z
x,-y,1/2+z
1/2+x,1/2+y,z
1/2-x,1/2+y,1/2-z
1/2-x,1/2-y,-z
1/2+x,1/2-y,1/2+z
loop_
_atom_site_type_symbol
_atom_site_label
_atom_site_fract_x
_atom_site_fract_y
_atom_site_fract_z
Si Si1 0.830804 0.588009 0.501189
Si Si2 0.996627 0.272079 0.952179
Si Si3 0.454520 0.245654 0.629286
Si Si4 0.957624 0.921638 0.543606
Si Si5 0.190941 0.161602 0.269847
Si Si6 0.645331 0.309366 0.273070
Si Si7 0.154341 0.002395 0.284931
Si Si8 0.731432 0.090329 0.730239
O O1 0.723520 0.585537 0.521233
O O2 0.753786 0.635222 0.400717
O O3 0.794316 0.539431 0.420630
O O4 0.042278 0.593195 0.655323
O O5 0.862621 0.315373 0.832400
O O6 0.932634 0.222180 0.861704
O O7 0.202801 0.281761 0.067883
O O8 0.000131 0.274236 0.062495
O O9 0.500000 0.213680 0.750000
O O10 0.250000 0.250000 0.500000
O O11 0.559377 0.296024 0.712545
O O12 0.895782 0.923607 0.401949
O O13 0.090817 0.875698 0.638843
O O14 0.062027 0.971047 0.639162
O O15 0.500000 0.322117 0.250000
O O16 0.730374 0.358632 0.291823
O O17 0.268913 0.954292 0.339467
O O18 0.000000 0.987185 0.250000
#
# Coordination Sequence:
#
# PCOD8142072 Si02
#       8
#     8   8   8   8   8   8   8   8
#     4  10  21  38  61  92 129 169 196 250 323 397
#     4  12  24  44  61  87 125 165 218 263 324 378
#     4  12  22  35  59  92 125 162 199 260 320 380
#     4  10  22  37  63  91 131 164 199 251 324 385
#     4  11  21  39  57  82 126 161 206 246 318 382
#     4  12  27  45  66  88 120 172 224 277 317 367
#     4   9  20  40  63  92 127 166 200 253 316 378
#     4  12  22  38  65  96 121 159 221 262 312 373
#
# _framework density 20.690352000000001
#
# number of rings (size 3 to 8) (size 9 to 14) (size 15 to 20)
#    0.000    1.000    3.750    4.500    0.000    0.000 
#    0.000    0.000    0.000    0.000    0.000    0.000 
#    0.000    0.000    0.000    0.000    0.000    0.000 
#
# Total GULP energy -396535.082708 kJ/mol
# GULP energy per Si atom -12391.721335 kJ/mol
# Density = 2.064326 g / cm^3
# Si number density = 20.690352 Si / 1000 Ang^3
#
#
#
# Elastic Constant Matrix: (Units=GPa)
#
#
# Indices 1 2 3 4 5 6 
#
# 1 61.8419 20.9900 21.4618 0.0000 12.8859 0.0000
# 2 20.9900 104.7059 25.9863 0.0000 5.5391 0.0000
# 3 21.4618 25.9863 107.0088 0.0000 12.6621 0.0000
# 4 0.0000 0.0000 0.0000 14.5200 0.0000 9.5997
# 5 12.8859 5.5391 12.6621 0.0000 36.3866 0.0000
# 6 0.0000 0.0000 0.0000 9.5997 0.0000 27.2946
#
#
#
# Elastic Compliance Matrix: (Units=1/GPa)
#
#
# Indices 1 2 3 4 5 6 
#
# 1 0.019170 -0.002937 -0.002483 0.000000 -0.005478 0.000000
# 2 -0.002937 0.010631 -0.002007 0.000000 0.000120 0.000000
# 3 -0.002483 -0.002007 0.010628 0.000000 -0.002513 0.000000
# 4 0.000000 0.000000 0.000000 0.089737 0.000000 -0.031561
# 5 -0.005478 0.000120 -0.002513 0.000000 0.030279 0.000000
# 6 0.000000 0.000000 0.000000 -0.031561 0.000000 0.047738
#
#
# Mechanical properties :
#
#
# Convention : Reuss Voigt Hill
#
# Bulk Modulus (GPa) = 39.10093 45.60363 42.35228
# Shear Modulus (GPa) = 21.59252 29.31480 25.45366
#
# Velocity S-wave (km/s) = 3.23399 3.76817 3.51125
# Velocity P-wave (km/s) = 5.73447 6.40476 6.07886
#
# Compressibility (1/GPa) = 0.02557484
#
# Stress axis : x y z
#
# Youngs Moduli (GPa) = 52.16395 94.06435 94.09226
#
# Poissons Ratio (x) = 0.27625 0.23368
# Poissons Ratio (y) = 0.15320 0.18883
# Poissons Ratio (z) = 0.12955 0.18877
#
# Static dielectric constant tensor:
#      x y z
#    x 3.434670 0.000000 0.190500 
#    y 0.000000 3.701560 0.000000 
#    z 0.190500 0.000000 4.101830 
# 
# 
# High freq. dielectric constant tensor:
#      x y z
#    x 1.793580 0.000000 0.014920 
#    y 0.000000 1.807330 0.000000 
#    z 0.014920 0.000000 1.825850 
# 
# From -- ./inp_files/148806.got.cif
#   From: 2010.06.25/outbox.cif.g09.slc.cpg/sg15_75_cif.got.tgz:148806.got - 2010.06.28 07:06:18.
