data_PCOD8142982
_publ_section_title
;
Structure prediction by ZEFSAII (Michael W. Deem and Ramdas Pophale) SiO2 
 PCOD8142982
Probable space group: C 2/C
;
_chemical_formula_sum "Si O2"
_cell_formula_units_Z 48
_cell_length_a 7.536017
_cell_length_b 12.414396
_cell_length_c 22.423102
_cell_angle_alpha 90.000000
_cell_angle_beta 71.275369
_cell_angle_gamma 90.000000
_cell_volume 1986.764170
_symmetry_space_group_name_H-M "C 2/C"
_symmetry_group_IT_number 15
_symmetry_cell_setting 'monoclinic'
loop_
_space_group_symop_operation_xyz
x,y,z
-x,y,1/2-z
-x,-y,-z
x,-y,1/2+z
1/2+x,1/2+y,z
1/2-x,1/2+y,1/2-z
1/2-x,1/2-y,-z
1/2+x,1/2-y,1/2+z
loop_
_atom_site_type_symbol
_atom_site_label
_atom_site_fract_x
_atom_site_fract_y
_atom_site_fract_z
Si Si1 0.887276 0.863341 0.922800
Si Si2 0.455485 0.002581 0.323732
Si Si3 0.022913 0.284624 0.501512
Si Si4 0.763361 0.429210 0.109650
Si Si5 0.435412 0.224073 0.369935
Si Si6 0.140886 0.727390 0.679898
O O1 0.968207 0.796272 0.858035
O O2 0.013984 0.828742 0.965811
O O3 0.882049 0.990372 0.908524
O O4 0.678901 0.819630 0.953949
O O5 0.500000 0.017993 0.250000
O O6 0.347490 0.111393 0.356003
O O7 0.638362 0.991722 0.346438
O O8 0.328825 0.896043 0.346037
O O9 0.090848 0.385460 0.454979
O O10 0.131190 0.263333 0.552777
O O11 0.652204 0.329205 0.151748
O O12 0.655412 0.222146 0.329680
O O13 0.000000 0.727946 0.750000
#
# Coordination Sequence:
#
# PCOD8142982 Si02
#       6
#     8   8   8   8   8   8
#     4  10  21  39  72 101 131 183 217 263 342 401
#     4  11  25  46  67  93 131 181 223 279 333 386
#     4  10  21  40  68 103 139 172 216 272 335 402
#     4  12  23  43  70 102 136 174 219 283 332 395
#     4  11  26  44  69 104 132 174 229 271 334 403
#     4  10  22  46  66  91 135 181 223 274 331 392
#
# _framework density 24.159889
#
# number of rings (size 3 to 8) (size 9 to 14) (size 15 to 20)
#    0.000    1.333    5.000    1.000    0.000    4.667 
#    6.000    0.833    0.000    0.000    0.000    0.000 
#    0.000    0.000    0.000    0.000    0.000    0.000 
#
# Total GULP energy -297503.484445 kJ/mol
# GULP energy per Si atom -12395.978519 kJ/mol
# Density = 2.410490 g / cm^3
# Si number density = 24.159889 Si / 1000 Ang^3
#
#
#
# Elastic Constant Matrix: (Units=GPa)
#
#
# Indices 1 2 3 4 5 6 
#
# 1 28.3834 26.4053 27.0103 0.0000 14.2633 0.0000
# 2 26.4053 185.5652 52.9578 0.0000 10.2586 0.0000
# 3 27.0103 52.9578 109.3392 0.0000 7.0679 0.0000
# 4 0.0000 0.0000 0.0000 36.3374 0.0000 -1.9405
# 5 14.2633 10.2586 7.0679 0.0000 31.9382 0.0000
# 6 0.0000 0.0000 0.0000 -1.9405 0.0000 43.5999
#
#
#
# Elastic Compliance Matrix: (Units=1/GPa)
#
#
# Indices 1 2 3 4 5 6 
#
# 1 0.062406 -0.004177 -0.011848 0.000000 -0.023906 0.000000
# 2 -0.004177 0.006592 -0.002175 0.000000 0.000230 0.000000
# 3 -0.011848 -0.002175 0.012924 0.000000 0.003130 0.000000
# 4 0.000000 0.000000 0.000000 0.027585 0.000000 0.001228
# 5 -0.023906 0.000230 0.003130 0.000000 0.041220 0.000000
# 6 0.000000 0.000000 0.000000 0.001228 0.000000 0.022990
#
#
# Mechanical properties :
#
#
# Convention : Reuss Voigt Hill
#
# Bulk Modulus (GPa) = 21.96809 59.55940 40.76375
# Shear Modulus (GPa) = 22.19339 36.83608 29.51473
#
# Velocity S-wave (km/s) = 3.03414 3.90895 3.49899
# Velocity P-wave (km/s) = 4.62463 6.71408 5.76481
#
# Compressibility (1/GPa) = 0.04552056
#
# Stress axis : x y z
#
# Youngs Moduli (GPa) = 16.02406 151.71013 77.37565
#
# Poissons Ratio (x) = 0.63376 0.91672
# Poissons Ratio (y) = 0.06694 0.16833
# Poissons Ratio (z) = 0.18985 0.33004
#
# Static dielectric constant tensor:
#      x y z
#    x 4.287180 0.000000 0.217070 
#    y 0.000000 4.599240 0.000000 
#    z 0.217070 0.000000 4.329120 
# 
# 
# High freq. dielectric constant tensor:
#      x y z
#    x 1.948250 0.000000 0.003440 
#    y 0.000000 1.974020 0.000000 
#    z 0.003440 0.000000 1.957620 
# 
# From -- ./inp_files/263488.got.cif
#   From: 2010.06.25/outbox.cif.g09.slc.cpg/sg15_132_cif.got.tgz:263488.got - 2010.06.28 07:06:18.
