data_PCOD8142552
_publ_section_title
;
Structure prediction by ZEFSAII (Michael W. Deem and Ramdas Pophale) SiO2 
 PCOD8142552
Probable space group: C 2/C
;
_chemical_formula_sum "Si O2"
_cell_formula_units_Z 48
_cell_length_a 12.781315
_cell_length_b 18.230552
_cell_length_c 29.237904
_cell_angle_alpha 90.000000
_cell_angle_beta 159.305257
_cell_angle_gamma 90.000000
_cell_volume 2407.546237
_symmetry_space_group_name_H-M "C 2/C"
_symmetry_group_IT_number 15
_symmetry_cell_setting 'monoclinic'
loop_
_space_group_symop_operation_xyz
x,y,z
-x,y,1/2-z
-x,-y,-z
x,-y,1/2+z
1/2+x,1/2+y,z
1/2-x,1/2+y,1/2-z
1/2-x,1/2-y,-z
1/2+x,1/2-y,1/2+z
loop_
_atom_site_type_symbol
_atom_site_label
_atom_site_fract_x
_atom_site_fract_y
_atom_site_fract_z
Si Si1 0.804503 0.428961 0.932877
Si Si2 0.238601 0.635844 0.308849
Si Si3 0.359162 0.269381 0.296706
Si Si4 0.992906 0.666200 0.065041
Si Si5 0.846273 0.541719 0.307971
Si Si6 0.605776 0.113563 0.927013
O O1 0.469937 0.458998 0.795506
O O2 0.829117 0.363230 0.906191
O O3 0.892194 0.389798 0.016649
O O4 0.000000 0.500000 0.000000
O O5 0.175260 0.708674 0.255429
O O6 0.201849 0.563700 0.263648
O O7 0.576881 0.635237 0.464558
O O8 0.000000 0.629801 0.250000
O O9 0.675252 0.306734 0.418782
O O10 0.333456 0.231834 0.336849
O O11 0.109738 0.328425 0.184521
O O12 0.940481 0.598487 0.078363
O O13 0.005327 0.465098 0.369351
#
# Coordination Sequence:
#
# PCOD8142552 Si02
#       6
#     8   8   8   8   8   8
#     4  11  21  35  63 103 132 159 204 267 330 377
#     4  10  24  44  61  87 126 168 219 267 304 379
#     4  10  23  41  63  90 129 176 213 255 320 383
#     4  10  21  39  61  93 136 167 201 261 323 380
#     4  10  22  40  64  94 128 161 211 271 318 379
#     4  11  23  39  69  94 125 167 219 261 326 383
#
# _framework density 19.937311999999999
#
# number of rings (size 3 to 8) (size 9 to 14) (size 15 to 20)
#    0.000    1.667    1.667    2.000    4.667    2.000 
#    3.000    0.000    0.000    0.000    0.000    0.000 
#    0.000    0.000    0.000    0.000    0.000    0.000 
#
# Total GULP energy -297503.916722 kJ/mol
# GULP energy per Si atom -12395.996530 kJ/mol
# Density = 1.989193 g / cm^3
# Si number density = 19.937312 Si / 1000 Ang^3
#
#
#
# Elastic Constant Matrix: (Units=GPa)
#
#
# Indices 1 2 3 4 5 6 
#
# 1 107.9153 35.8635 58.4720 0.0120 26.4250 -0.0087
# 2 35.8635 125.6025 81.8640 -0.0060 -4.8230 -0.0059
# 3 58.4720 81.8640 163.6587 0.0278 7.2107 -0.0157
# 4 0.0120 -0.0060 0.0278 36.8676 -0.0065 1.3429
# 5 26.4250 -4.8230 7.2107 -0.0065 33.3907 0.0072
# 6 -0.0087 -0.0059 -0.0157 1.3429 0.0072 16.6962
#
#
#
# Elastic Compliance Matrix: (Units=1/GPa)
#
#
# Indices 1 2 3 4 5 6 
#
# 1 0.014733 -0.002267 -0.003636 -0.000005 -0.011202 0.000009
# 2 -0.002267 0.012469 -0.005639 0.000008 0.004813 -0.000005
# 3 -0.003636 -0.005639 0.010237 -0.000008 -0.000147 0.000006
# 4 -0.000005 0.000008 -0.000008 0.027204 0.000012 -0.002188
# 5 -0.011202 0.004813 -0.000147 0.000012 0.039540 -0.000022
# 6 0.000009 -0.000005 0.000006 -0.002188 -0.000022 0.060070
#
#
# Mechanical properties :
#
#
# Convention : Reuss Voigt Hill
#
# Bulk Modulus (GPa) = 69.66703 83.28617 76.47660
# Shear Modulus (GPa) = 26.02492 32.12269 29.07380
#
# Velocity S-wave (km/s) = 3.61686 4.01831 3.82286
# Velocity P-wave (km/s) = 7.24301 7.96202 7.61101
#
# Compressibility (1/GPa) = 0.01435399
#
# Stress axis : x y z
#
# Youngs Moduli (GPa) = 67.87409 80.19683 97.68543
#
# Poissons Ratio (x) = 0.18179 0.35523
# Poissons Ratio (y) = 0.15386 0.55089
# Poissons Ratio (z) = 0.24682 0.45227
#
# Static dielectric constant tensor:
#      x y z
#    x 3.614490 0.000090 -0.273320 
#    y 0.000090 3.719990 -0.000110 
#    z -0.273320 -0.000110 3.904800 
# 
# 
# High freq. dielectric constant tensor:
#      x y z
#    x 1.764170 0.000000 -0.014760 
#    y 0.000000 1.787520 -0.000010 
#    z -0.014760 -0.000010 1.792330 
# 
# From -- ./inp_files/311778.got.cif
#   From: 2010.06.25/outbox.cif.g09.slc.cpg/sg15_156_cif.got.tgz:311778.got - 2010.06.28 07:06:18.
