data_PCOD8142921
_publ_section_title
;
Structure prediction by ZEFSAII (Michael W. Deem and Ramdas Pophale) SiO2 
 PCOD8142921
Probable space group: C 2/C
;
_chemical_formula_sum "Si O2"
_cell_formula_units_Z 56
_cell_length_a 11.122295
_cell_length_b 19.063137
_cell_length_c 14.442853
_cell_angle_alpha 90.000000
_cell_angle_beta 118.581809
_cell_angle_gamma 90.000000
_cell_volume 2689.075611
_symmetry_space_group_name_H-M "C 2/C"
_symmetry_group_IT_number 15
_symmetry_cell_setting 'monoclinic'
loop_
_space_group_symop_operation_xyz
x,y,z
-x,y,1/2-z
-x,-y,-z
x,-y,1/2+z
1/2+x,1/2+y,z
1/2-x,1/2+y,1/2-z
1/2-x,1/2-y,-z
1/2+x,1/2-y,1/2+z
loop_
_atom_site_type_symbol
_atom_site_label
_atom_site_fract_x
_atom_site_fract_y
_atom_site_fract_z
Si Si1 0.573848 0.340117 0.872637
Si Si2 0.984764 0.782408 0.028386
Si Si3 0.095572 0.342891 0.107365
Si Si4 0.878705 0.122996 0.638696
Si Si5 0.893214 0.430537 0.132295
Si Si6 0.709284 0.788088 0.330610
Si Si7 0.625662 0.487215 0.975005
O O1 0.500000 0.356937 0.750000
O O2 0.678887 0.276656 0.888822
O O3 0.639332 0.413165 0.927974
O O4 0.481123 0.318553 0.926018
O O5 0.130519 0.783554 0.134790
O O6 0.874568 0.821986 0.051887
O O7 0.942302 0.701727 0.997258
O O8 0.241798 0.377485 0.147719
O O9 0.107688 0.291436 0.203561
O O10 0.986345 0.406062 0.079193
O O11 0.000000 0.145220 0.750000
O O12 0.898867 0.044811 0.611031
O O13 0.806312 0.361604 0.124131
O O14 0.000000 0.455795 0.250000
O O15 0.780260 0.492593 0.076251
O O16 0.500000 0.500000 0.000000
#
# Coordination Sequence:
#
# PCOD8142921 Si02
#       7
#     8   8   8   8   8   8   8
#     4  12  21  37  65 102 126 161 222 286 326 381
#     4  12  21  40  68  96 130 167 219 275 333 396
#     4  11  23  40  69  97 130 173 222 276 340 396
#     4  12  26  45  65  92 138 188 218 264 343 414
#     4  10  21  39  67  99 129 172 225 277 337 394
#     4  11  19  38  69  98 129 164 215 285 338 380
#     4  12  25  42  68  97 135 180 224 274 330 403
#
# _framework density 20.824998999999998
#
# number of rings (size 3 to 8) (size 9 to 14) (size 15 to 20)
#    0.000    0.571    7.143    2.571    2.000    0.571 
#    0.000    0.000    3.143    0.000    0.000    0.000 
#    0.000    0.000    0.000    0.000    0.000    0.000 
#
# Total GULP energy -346949.209394 kJ/mol
# GULP energy per Si atom -12391.043193 kJ/mol
# Density = 2.077760 g / cm^3
# Si number density = 20.824999 Si / 1000 Ang^3
#
#
#
# Elastic Constant Matrix: (Units=GPa)
#
#
# Indices 1 2 3 4 5 6 
#
# 1 122.3804 22.7856 30.8082 0.0000 6.2594 0.0000
# 2 22.7856 39.5280 23.3366 0.0000 -9.2842 0.0000
# 3 30.8082 23.3366 81.3827 0.0000 3.1992 0.0000
# 4 0.0000 0.0000 0.0000 25.9074 0.0000 -0.8423
# 5 6.2594 -9.2842 3.1992 0.0000 33.0256 0.0000
# 6 0.0000 0.0000 0.0000 -0.8423 0.0000 31.8985
#
#
#
# Elastic Compliance Matrix: (Units=1/GPa)
#
#
# Indices 1 2 3 4 5 6 
#
# 1 0.009820 -0.005135 -0.002123 0.000000 -0.003099 0.000000
# 2 -0.005135 0.036386 -0.008964 0.000000 0.012071 0.000000
# 3 -0.002123 -0.008964 0.015805 0.000000 -0.003649 0.000000
# 4 0.000000 0.000000 0.000000 0.038632 0.000000 0.001020
# 5 -0.003099 0.012071 -0.003649 0.000000 0.034614 0.000000
# 6 0.000000 0.000000 0.000000 0.001020 0.000000 0.031376
#
#
# Mechanical properties :
#
#
# Convention : Reuss Voigt Hill
#
# Bulk Modulus (GPa) = 33.82230 44.12801 38.97515
# Shear Modulus (GPa) = 23.93087 29.25702 26.59395
#
# Velocity S-wave (km/s) = 3.39358 3.75226 3.57742
# Velocity P-wave (km/s) = 5.62420 6.32523 5.98499
#
# Compressibility (1/GPa) = 0.02956629
#
# Stress axis : x y z
#
# Youngs Moduli (GPa) = 101.82895 27.48297 63.26982
#
# Poissons Ratio (x) = 0.14113 0.13433
# Poissons Ratio (y) = 0.52293 0.56717
# Poissons Ratio (z) = 0.21620 0.24636
#
# Static dielectric constant tensor:
#      x y z
#    x 3.883400 0.000000 -0.043680 
#    y 0.000000 3.650120 0.000000 
#    z -0.043680 0.000000 4.041030 
# 
# 
# High freq. dielectric constant tensor:
#      x y z
#    x 1.817120 0.000000 0.005500 
#    y 0.000000 1.795800 0.000000 
#    z 0.005500 0.000000 1.816880 
# 
# From -- ./inp_files/146179.got.cif
#   From: 2010.06.25/outbox.cif.g09.slc.cpg/sg15_74_cif.got.tgz:146179.got - 2010.06.28 07:06:18.
