data_PCOD8142438
_publ_section_title
;
Structure prediction by ZEFSAII (Michael W. Deem and Ramdas Pophale) SiO2 
 PCOD8142438
Probable space group: C 2/C
;
_chemical_formula_sum "Si O2"
_cell_formula_units_Z 36
_cell_length_a 4.979066
_cell_length_b 22.104020
_cell_length_c 15.784750
_cell_angle_alpha 90.000000
_cell_angle_beta 82.129198
_cell_angle_gamma 90.000000
_cell_volume 1720.862369
_symmetry_space_group_name_H-M "C 2/C"
_symmetry_group_IT_number 15
_symmetry_cell_setting 'monoclinic'
loop_
_space_group_symop_operation_xyz
x,y,z
-x,y,1/2-z
-x,-y,-z
x,-y,1/2+z
1/2+x,1/2+y,z
1/2-x,1/2+y,1/2-z
1/2-x,1/2-y,-z
1/2+x,1/2-y,1/2+z
loop_
_atom_site_type_symbol
_atom_site_label
_atom_site_fract_x
_atom_site_fract_y
_atom_site_fract_z
Si Si1 0.000000 0.567637 0.250000
Si Si2 0.280436 0.809479 0.943849
Si Si3 0.685417 0.329920 0.667951
Si Si4 0.741491 0.427317 0.047532
Si Si5 0.286479 0.982006 0.391609
O O1 0.799026 0.605793 0.197357
O O2 0.791808 0.526763 0.311648
O O3 0.537087 0.795815 0.870581
O O4 0.012788 0.831777 0.904656
O O5 0.250000 0.750000 0.000000
O O6 0.336495 0.862885 0.007406
O O7 0.500000 0.298900 0.750000
O O8 0.446267 0.430855 0.103084
O O9 0.939361 0.443651 0.115977
O O10 0.753974 0.477542 0.975416
#
# Coordination Sequence:
#
# PCOD8142438 Si02
#       5
#     4   8   8   8   8
#     4  12  24  38  68 100 130 168 220 274 344 392
#     4  12  25  43  69  96 128 180 227 270 321 390
#     4  12  23  41  68  99 128 158 226 283 322 381
#     4  10  21  39  58  93 126 166 201 260 322 381
#     4  10  22  34  64  90 132 156 204 265 324 387
#
# _framework density 20.919743
#
# number of rings (size 3 to 8) (size 9 to 14) (size 15 to 20)
#    0.000    0.889    4.444    2.000    9.333    0.000 
#    0.000    0.000   14.667    0.000    0.000    0.000 
#    0.000    0.000    0.000    0.000    0.000    0.000 
#
# Total GULP energy -222996.659658 kJ/mol
# GULP energy per Si atom -12388.703314 kJ/mol
# Density = 2.087213 g / cm^3
# Si number density = 20.919743 Si / 1000 Ang^3
#
#
#
# Elastic Constant Matrix: (Units=GPa)
#
#
# Indices 1 2 3 4 5 6 
#
# 1 159.1618 51.3949 58.3827 0.0000 -13.4014 0.0000
# 2 51.3949 87.9165 40.5533 0.0000 5.7757 0.0000
# 3 58.3827 40.5533 87.8114 0.0000 -3.7482 0.0000
# 4 0.0000 0.0000 0.0000 33.7989 0.0000 -5.2864
# 5 -13.4014 5.7757 -3.7482 0.0000 39.5644 0.0000
# 6 0.0000 0.0000 0.0000 -5.2864 0.0000 16.6529
#
#
#
# Elastic Compliance Matrix: (Units=1/GPa)
#
#
# Indices 1 2 3 4 5 6 
#
# 1 0.009350 -0.003658 -0.004387 0.000000 0.003286 0.000000
# 2 -0.003658 0.016190 -0.005219 0.000000 -0.004097 0.000000
# 3 -0.004387 -0.005219 0.016752 0.000000 0.000863 0.000000
# 4 0.000000 0.000000 0.000000 0.031133 0.000000 0.009883
# 5 0.003286 -0.004097 0.000863 0.000000 0.027068 0.000000
# 6 0.000000 0.000000 0.000000 0.009883 0.000000 0.063187
#
#
# Mechanical properties :
#
#
# Convention : Reuss Voigt Hill
#
# Bulk Modulus (GPa) = 63.44065 70.61683 67.02874
# Shear Modulus (GPa) = 25.58037 30.30715 27.94376
#
# Velocity S-wave (km/s) = 3.50063 3.81035 3.65877
# Velocity P-wave (km/s) = 6.83599 7.29299 7.06819
#
# Compressibility (1/GPa) = 0.01576276
#
# Stress axis : x y z
#
# Youngs Moduli (GPa) = 106.95241 61.76769 59.69454
#
# Poissons Ratio (x) = 0.22596 0.26187
# Poissons Ratio (y) = 0.39126 0.31157
# Poissons Ratio (z) = 0.46918 0.32239
#
# Static dielectric constant tensor:
#      x y z
#    x 4.492420 0.000000 -0.293060 
#    y 0.000000 3.687080 0.000000 
#    z -0.293060 0.000000 4.144290 
# 
# 
# High freq. dielectric constant tensor:
#      x y z
#    x 1.848200 0.000000 -0.005510 
#    y 0.000000 1.775090 0.000000 
#    z -0.005510 0.000000 1.810070 
# 
# From -- ./inp_files/128740.got.cif
#   From: 2010.06.25/outbox.cif.g09.slc.cpg/sg15_65_cif.got.tgz:128740.got - 2010.06.28 07:06:18.
