data_PCOD8142258
_publ_section_title
;
Structure prediction by ZEFSAII (Michael W. Deem and Ramdas Pophale) SiO2 
 PCOD8142258
Probable space group: C 2/C
;
_chemical_formula_sum "Si O2"
_cell_formula_units_Z 48
_cell_length_a 7.665989
_cell_length_b 12.481932
_cell_length_c 25.328782
_cell_angle_alpha 90.000000
_cell_angle_beta 70.906585
_cell_angle_gamma 90.000000
_cell_volume 2290.287065
_symmetry_space_group_name_H-M "C 2/C"
_symmetry_group_IT_number 15
_symmetry_cell_setting 'monoclinic'
loop_
_space_group_symop_operation_xyz
x,y,z
-x,y,1/2-z
-x,-y,-z
x,-y,1/2+z
1/2+x,1/2+y,z
1/2-x,1/2+y,1/2-z
1/2-x,1/2-y,-z
1/2+x,1/2-y,1/2+z
loop_
_atom_site_type_symbol
_atom_site_label
_atom_site_fract_x
_atom_site_fract_y
_atom_site_fract_z
Si Si1 0.593941 0.994552 0.819165
Si Si2 0.717271 0.537303 0.302840
Si Si3 0.194835 0.792542 0.888496
Si Si4 0.408658 0.162860 0.977430
Si Si5 0.088750 0.428948 0.561248
Si Si6 0.917827 0.139004 0.811134
O O1 0.708311 0.102034 0.818777
O O2 0.716058 0.929949 0.763056
O O3 0.388879 0.018231 0.816697
O O4 0.568971 0.933360 0.877451
O O5 0.642517 0.641869 0.340694
O O6 0.546406 0.455777 0.319413
O O7 0.228081 0.872479 0.934095
O O8 0.389994 0.731223 0.857549
O O9 0.039504 0.707967 0.918811
O O10 0.341948 0.045948 0.964685
O O11 0.250000 0.250000 0.000000
O O12 0.513942 0.145315 0.021908
O O13 0.000000 0.191292 0.750000
#
# Coordination Sequence:
#
# PCOD8142258 Si02
#       6
#     8   8   8   8   8   8
#     4   9  18  40  61  89 132 159 207 260 315 373
#     4   9  21  36  64  93 128 166 201 266 315 382
#     4  11  23  40  66  92 125 165 214 252 321 381
#     4  11  25  42  63  90 122 166 217 257 315 370
#     4  10  23  41  62  87 128 161 203 278 298 366
#     4  10  21  38  64  93 129 167 202 254 322 381
#
# _framework density 20.958072000000001
#
# number of rings (size 3 to 8) (size 9 to 14) (size 15 to 20)
#    0.000    2.000    1.667    0.500    7.000    3.333 
#    0.000    0.000   11.000    0.000    0.000    0.000 
#    0.000    0.000    0.000    0.000    0.000    0.000 
#
# Total GULP energy -297406.693430 kJ/mol
# GULP energy per Si atom -12391.945560 kJ/mol
# Density = 2.091037 g / cm^3
# Si number density = 20.958072 Si / 1000 Ang^3
#
#
#
# Elastic Constant Matrix: (Units=GPa)
#
#
# Indices 1 2 3 4 5 6 
#
# 1 58.8858 34.4917 30.6465 0.0000 -9.1142 0.0000
# 2 34.4917 101.6553 48.2594 0.0000 -5.5993 0.0000
# 3 30.6465 48.2594 121.0229 0.0000 0.6485 0.0000
# 4 0.0000 0.0000 0.0000 39.0614 0.0000 0.8068
# 5 -9.1142 -5.5993 0.6485 0.0000 28.6976 0.0000
# 6 0.0000 0.0000 0.0000 0.8068 0.0000 26.3355
#
#
#
# Elastic Compliance Matrix: (Units=1/GPa)
#
#
# Indices 1 2 3 4 5 6 
#
# 1 0.023249 -0.005833 -0.003595 0.000000 0.006327 0.000000
# 2 -0.005833 0.013776 -0.004021 0.000000 0.000926 0.000000
# 3 -0.003595 -0.004021 0.010789 0.000000 -0.002170 0.000000
# 4 0.000000 0.000000 0.000000 0.025617 0.000000 -0.000785
# 5 0.006327 0.000926 -0.002170 0.000000 0.037085 0.000000
# 6 0.000000 0.000000 0.000000 -0.000785 0.000000 0.037996
#
#
# Mechanical properties :
#
#
# Convention : Reuss Voigt Hill
#
# Bulk Modulus (GPa) = 47.81352 56.48434 52.14893
# Shear Modulus (GPa) = 27.41488 30.03001 28.72244
#
# Velocity S-wave (km/s) = 3.62067 3.78942 3.70600
# Velocity P-wave (km/s) = 6.35156 6.79381 6.57641
#
# Compressibility (1/GPa) = 0.02091459
#
# Stress axis : x y z
#
# Youngs Moduli (GPa) = 43.01252 72.58757 92.69127
#
# Poissons Ratio (x) = 0.42341 0.33324
# Poissons Ratio (y) = 0.25090 0.37275
# Poissons Ratio (z) = 0.15464 0.29190
#
# Static dielectric constant tensor:
#      x y z
#    x 3.647650 0.000000 0.083660 
#    y 0.000000 3.734120 0.000000 
#    z 0.083660 0.000000 4.231510 
# 
# 
# High freq. dielectric constant tensor:
#      x y z
#    x 1.797200 0.000000 0.003800 
#    y 0.000000 1.812830 0.000000 
#    z 0.003800 0.000000 1.843870 
# 
# From -- ./inp_files/287524.got.cif
#   From: 2010.06.25/outbox.cif.g09.slc.cpg/sg15_144_cif.got.tgz:287524.got - 2010.06.28 07:06:18.
