data_PCOD8142006
_publ_section_title
;
Structure prediction by ZEFSAII (Michael W. Deem and Ramdas Pophale) SiO2 
 PCOD8142006
Probable space group: C 2/C
;
_chemical_formula_sum "Si O2"
_cell_formula_units_Z 36
_cell_length_a 19.227750
_cell_length_b 12.229546
_cell_length_c 7.753174
_cell_angle_alpha 90.000000
_cell_angle_beta 73.648300
_cell_angle_gamma 90.000000
_cell_volume 1749.390191
_symmetry_space_group_name_H-M "C 2/C"
_symmetry_group_IT_number 15
_symmetry_cell_setting 'monoclinic'
loop_
_space_group_symop_operation_xyz
x,y,z
-x,y,1/2-z
-x,-y,-z
x,-y,1/2+z
1/2+x,1/2+y,z
1/2-x,1/2+y,1/2-z
1/2-x,1/2-y,-z
1/2+x,1/2-y,1/2+z
loop_
_atom_site_type_symbol
_atom_site_label
_atom_site_fract_x
_atom_site_fract_y
_atom_site_fract_z
Si Si1 0.230301 0.034525 0.452684
Si Si2 0.815417 0.379473 0.189071
Si Si3 0.656038 0.348814 0.704922
Si Si4 0.477085 0.119124 0.461106
Si Si5 0.500000 0.274959 0.750000
O O1 0.251405 0.117405 0.590891
O O2 0.172482 0.098509 0.378848
O O3 0.303965 0.992383 0.305074
O O4 0.193031 0.920798 0.532876
O O5 0.810643 0.273890 0.317129
O O6 0.890939 0.374922 0.037199
O O7 0.569959 0.350169 0.732309
O O8 0.500000 0.148412 0.250000
O O9 0.514790 0.201826 0.569425
O O10 0.500000 0.000000 0.500000
#
# Coordination Sequence:
#
# PCOD8142006 Si02
#       5
#     8   8   8   8   4
#     4  10  21  39  63  87 122 165 195 253 306 358
#     4  10  21  38  60  93 123 155 204 248 306 368
#     4  10  22  41  60  89 122 159 208 249 303 362
#     4  11  21  38  62  91 126 162 200 251 310 363
#     4  10  24  42  60  90 124 160 210 252 296 368
#
# _framework density 20.578599000000001
#
# number of rings (size 3 to 8) (size 9 to 14) (size 15 to 20)
#    0.000    1.778    1.111    2.667    3.111    0.889 
#   20.000    0.000    0.000    0.000    0.000    0.000 
#    0.000    0.000    0.000    0.000    0.000    0.000 
#
# Total GULP energy -223130.420141 kJ/mol
# GULP energy per Si atom -12396.134452 kJ/mol
# Density = 2.053176 g / cm^3
# Si number density = 20.578599 Si / 1000 Ang^3
#
#
#
# Elastic Constant Matrix: (Units=GPa)
#
#
# Indices 1 2 3 4 5 6 
#
# 1 113.5858 40.0617 11.6887 0.0000 5.9001 0.0000
# 2 40.0617 61.1503 -0.7700 0.0000 -1.3692 0.0000
# 3 11.6887 -0.7700 67.6991 0.0000 6.7864 0.0000
# 4 0.0000 0.0000 0.0000 27.6906 0.0000 4.0964
# 5 5.9001 -1.3692 6.7864 0.0000 32.5706 0.0000
# 6 0.0000 0.0000 0.0000 4.0964 0.0000 39.1301
#
#
#
# Elastic Compliance Matrix: (Units=1/GPa)
#
#
# Indices 1 2 3 4 5 6 
#
# 1 0.011881 -0.007855 -0.001932 0.000000 -0.002080 0.000000
# 2 -0.007855 0.021562 0.001397 0.000000 0.002038 0.000000
# 3 -0.001932 0.001397 0.015401 0.000000 -0.002800 0.000000
# 4 0.000000 0.000000 0.000000 0.036681 0.000000 -0.003840
# 5 -0.002080 0.002038 -0.002800 0.000000 0.031748 0.000000
# 6 0.000000 0.000000 0.000000 -0.003840 0.000000 0.025958
#
#
# Mechanical properties :
#
#
# Convention : Reuss Voigt Hill
#
# Bulk Modulus (GPa) = 31.18637 38.26621 34.72629
# Shear Modulus (GPa) = 29.29111 32.64193 30.96652
#
# Velocity S-wave (km/s) = 3.77686 3.98704 3.88337
# Velocity P-wave (km/s) = 5.84869 6.31117 6.08433
#
# Compressibility (1/GPa) = 0.03206529
#
# Stress axis : x y z
#
# Youngs Moduli (GPa) = 84.16729 46.37746 64.92893
#
# Poissons Ratio (x) = 0.36428 0.12545
# Poissons Ratio (y) = 0.66110 -0.09071
# Poissons Ratio (z) = 0.16263 -0.06479
#
# Static dielectric constant tensor:
#      x y z
#    x 20.490130 0.000000 -7.984720 
#    y 0.000000 3.286180 0.000000 
#    z -7.984720 0.000000 7.912360 
# 
# 
# High freq. dielectric constant tensor:
#      x y z
#    x 1.807100 0.000000 0.012250 
#    y 0.000000 1.800470 0.000000 
#    z 0.012250 0.000000 1.807860 
# 
# From -- ./inp_files/45882.got.cif
#   From: 2010.06.25/outbox.cif.g09.slc.cpg/sg15_23_cif.got.tgz:45882.got - 2010.06.28 07:06:18.
