data_PCOD8142911
_publ_section_title
;
Structure prediction by ZEFSAII (Michael W. Deem and Ramdas Pophale) SiO2 
 PCOD8142911
Probable space group: C 2/C
;
_chemical_formula_sum "Si O2"
_cell_formula_units_Z 52
_cell_length_a 25.151823
_cell_length_b 12.060205
_cell_length_c 8.848620
_cell_angle_alpha 90.000000
_cell_angle_beta 120.504431
_cell_angle_gamma 90.000000
_cell_volume 2312.598853
_symmetry_space_group_name_H-M "C 2/C"
_symmetry_group_IT_number 15
_symmetry_cell_setting 'monoclinic'
loop_
_space_group_symop_operation_xyz
x,y,z
-x,y,1/2-z
-x,-y,-z
x,-y,1/2+z
1/2+x,1/2+y,z
1/2-x,1/2+y,1/2-z
1/2-x,1/2-y,-z
1/2+x,1/2-y,1/2+z
loop_
_atom_site_type_symbol
_atom_site_label
_atom_site_fract_x
_atom_site_fract_y
_atom_site_fract_z
Si Si1 0.157163 0.431639 0.194773
Si Si2 0.435778 0.730976 0.979506
Si Si3 0.030977 0.344742 0.942425
Si Si4 0.674543 0.849995 0.550732
Si Si5 0.094495 0.145380 0.875761
Si Si6 0.782333 0.237812 0.385906
Si Si7 0.500000 0.545851 0.250000
O O1 0.182379 0.401840 0.396719
O O2 0.172849 0.557701 0.179471
O O3 0.184232 0.353373 0.103277
O O4 0.083394 0.423025 0.083849
O O5 0.477957 0.625571 0.083794
O O6 0.482175 0.831539 0.007937
O O7 0.386548 0.771499 0.034245
O O8 0.397343 0.702865 0.774585
O O9 0.053900 0.220632 0.929862
O O10 0.000000 0.401126 0.750000
O O11 0.735312 0.780843 0.679907
O O12 0.060932 0.027339 0.802949
O O13 0.165374 0.139486 0.038428
O O14 0.750000 0.250000 0.500000
#
# Coordination Sequence:
#
# PCOD8142911 Si02
#       7
#     8   8   8   8   8   8   4
#     4  11  26  45  69 100 135 183 230 286 348 416
#     4  11  22  40  64  98 140 174 227 287 343 417
#     4   9  20  41  66  94 130 176 228 286 346 407
#     4  12  26  45  70 101 139 182 236 284 346 418
#     4  10  21  39  67  95 131 179 220 289 344 415
#     4  11  23  47  72  95 135 181 235 292 345 412
#     4  12  22  38  64 102 138 176 224 282 362 414
#
# _framework density 22.485527000000001
#
# number of rings (size 3 to 8) (size 9 to 14) (size 15 to 20)
#    0.000    1.231    3.846    2.769    4.308    1.846 
#    4.154    0.000    0.000    0.000    0.000    0.000 
#    0.000    0.000    0.000    0.000    0.000    0.000 
#
# Total GULP energy -322353.379287 kJ/mol
# GULP energy per Si atom -12398.206896 kJ/mol
# Density = 2.243435 g / cm^3
# Si number density = 22.485527 Si / 1000 Ang^3
#
#
#
# Elastic Constant Matrix: (Units=GPa)
#
#
# Indices 1 2 3 4 5 6 
#
# 1 97.2423 18.3084 33.0706 0.0000 14.9346 0.0000
# 2 18.3084 62.7980 6.8753 0.0000 5.9014 0.0000
# 3 33.0706 6.8753 95.1296 0.0000 10.8245 0.0000
# 4 0.0000 0.0000 0.0000 27.7765 0.0000 7.0889
# 5 14.9346 5.9014 10.8245 0.0000 43.3914 0.0000
# 6 0.0000 0.0000 0.0000 7.0889 0.0000 20.7453
#
#
#
# Elastic Compliance Matrix: (Units=1/GPa)
#
#
# Indices 1 2 3 4 5 6 
#
# 1 0.012603 -0.002975 -0.003827 0.000000 -0.002978 0.000000
# 2 -0.002975 0.016915 -0.000044 0.000000 -0.001265 0.000000
# 3 -0.003827 -0.000044 0.012037 0.000000 -0.001679 0.000000
# 4 0.000000 0.000000 0.000000 0.039441 0.000000 -0.013477
# 5 -0.002978 -0.001265 -0.001679 0.000000 0.024662 0.000000
# 6 0.000000 0.000000 0.000000 -0.013477 0.000000 0.052809
#
#
# Mechanical properties :
#
#
# Convention : Reuss Voigt Hill
#
# Bulk Modulus (GPa) = 35.89222 41.29762 38.59492
# Shear Modulus (GPa) = 27.55610 31.51035 29.53322
#
# Velocity S-wave (km/s) = 3.50452 3.74754 3.62806
# Velocity P-wave (km/s) = 5.68969 6.09357 5.89509
#
# Compressibility (1/GPa) = 0.02786119
#
# Stress axis : x y z
#
# Youngs Moduli (GPa) = 79.34753 59.11813 83.07881
#
# Poissons Ratio (x) = 0.17590 0.31797
# Poissons Ratio (y) = 0.23609 0.00367
# Poissons Ratio (z) = 0.30368 0.00261
#
# Static dielectric constant tensor:
#      x y z
#    x 4.064880 0.000000 0.234400 
#    y 0.000000 3.781900 0.000000 
#    z 0.234400 0.000000 4.067380 
# 
# 
# High freq. dielectric constant tensor:
#      x y z
#    x 1.889410 0.000000 0.009850 
#    y 0.000000 1.865740 0.000000 
#    z 0.009850 0.000000 1.894810 
# 
# From -- ./inp_files/69190.got.cif
#   From: 2010.06.25/outbox.cif.g09.slc.cpg/sg15_35_cif.got.tgz:69190.got - 2010.06.28 07:06:18.
