data_PCOD8142748
_publ_section_title
;
Structure prediction by ZEFSAII (Michael W. Deem and Ramdas Pophale) SiO2 
 PCOD8142748
Probable space group: C 2/C
;
_chemical_formula_sum "Si O2"
_cell_formula_units_Z 60
_cell_length_a 25.476049
_cell_length_b 20.548662
_cell_length_c 15.090433
_cell_angle_alpha 90.000000
_cell_angle_beta 20.178892
_cell_angle_gamma 90.000000
_cell_volume 2725.062927
_symmetry_space_group_name_H-M "C 2/C"
_symmetry_group_IT_number 15
_symmetry_cell_setting 'monoclinic'
loop_
_space_group_symop_operation_xyz
x,y,z
-x,y,1/2-z
-x,-y,-z
x,-y,1/2+z
1/2+x,1/2+y,z
1/2-x,1/2+y,1/2-z
1/2-x,1/2-y,-z
1/2+x,1/2-y,1/2+z
loop_
_atom_site_type_symbol
_atom_site_label
_atom_site_fract_x
_atom_site_fract_y
_atom_site_fract_z
Si Si1 0.247885 0.162766 0.911067
Si Si2 0.339043 0.989428 0.917140
Si Si3 0.289857 0.825381 0.760688
Si Si4 0.156028 0.023160 0.043785
Si Si5 0.154224 0.461234 0.903072
Si Si6 0.568724 0.209277 0.725320
Si Si7 0.500000 0.753549 0.750000
Si Si8 0.049828 0.352787 0.818748
O O1 0.311245 0.165906 0.911447
O O2 0.381740 0.155216 0.626836
O O3 0.138806 0.100775 0.078740
O O4 0.146454 0.227019 0.058523
O O5 0.424396 0.920082 0.774358
O O6 0.470334 0.042400 0.686744
O O7 0.194928 0.994512 0.079563
O O8 0.284820 0.004450 0.103358
O O9 0.284173 0.888148 0.705428
O O10 0.426200 0.775827 0.516739
O O11 0.318779 0.847948 0.815545
O O12 0.129584 0.791082 0.002444
O O13 0.000000 0.993902 0.250000
O O14 0.293246 0.005665 0.761747
O O15 0.500000 0.169552 0.750000
O O16 0.576009 0.796123 0.706377
#
# Coordination Sequence:
#
# PCOD8142748 Si02
#       8
#     8   8   8   8   8   8   4   8
#     4  10  22  40  66  97 137 169 220 282 342 403
#     4  11  23  45  74 102 128 179 243 277 347 423
#     4  11  25  42  65  98 139 175 228 283 343 402
#     4  12  25  42  68 101 139 177 219 295 360 405
#     4  11  24  43  73  99 132 183 230 293 340 414
#     4  10  21  39  64  96 132 176 222 276 331 402
#     4  12  26  42  68  96 132 190 226 276 342 410
#     4  11  22  45  70  95 131 179 232 281 335 419
#
# _framework density 22.01784
#
# number of rings (size 3 to 8) (size 9 to 14) (size 15 to 20)
#    0.000    1.067    2.667    4.400    4.667    0.533 
#    0.000    0.000    0.000    0.000    0.000    0.000 
#    0.000    0.000    0.000    0.000    0.000    0.000 
#
# Total GULP energy -371939.044868 kJ/mol
# GULP energy per Si atom -12397.968162 kJ/mol
# Density = 2.196773 g / cm^3
# Si number density = 22.017840 Si / 1000 Ang^3
#
#
#
# Elastic Constant Matrix: (Units=GPa)
#
#
# Indices 1 2 3 4 5 6 
#
# 1 150.7496 31.7500 31.3480 0.0074 1.6056 -0.0032
# 2 31.7500 116.6945 40.6289 0.0095 9.0862 -0.0067
# 3 31.3480 40.6289 60.5424 0.0231 -5.6332 -0.0181
# 4 0.0074 0.0095 0.0231 34.2583 -0.0102 10.0563
# 5 1.6056 9.0862 -5.6332 -0.0102 36.3768 0.0062
# 6 -0.0032 -0.0067 -0.0181 10.0563 0.0062 29.7405
#
#
#
# Elastic Compliance Matrix: (Units=1/GPa)
#
#
# Indices 1 2 3 4 5 6 
#
# 1 0.007520 -0.000806 -0.003414 0.000001 -0.000659 -0.000002
# 2 -0.000806 0.011877 -0.007940 0.000002 -0.004161 -0.000002
# 3 -0.003414 -0.007940 0.024161 -0.000017 0.005875 0.000017
# 4 0.000001 0.000002 -0.000017 0.032407 0.000008 -0.010958
# 5 -0.000659 -0.004161 0.005875 0.000008 0.029468 -0.000006
# 6 -0.000002 -0.000002 0.000017 -0.010958 -0.000006 0.037329
#
#
# Mechanical properties :
#
#
# Convention : Reuss Voigt Hill
#
# Bulk Modulus (GPa) = 51.98420 59.49335 55.73878
# Shear Modulus (GPa) = 28.81912 35.02578 31.92245
#
# Velocity S-wave (km/s) = 3.62180 3.99280 3.81181
# Velocity P-wave (km/s) = 6.41492 6.95239 6.68906
#
# Compressibility (1/GPa) = 0.01923661
#
# Stress axis : x y z
#
# Youngs Moduli (GPa) = 132.97342 84.19488 41.38977
#
# Poissons Ratio (x) = 0.06786 0.14132
# Poissons Ratio (y) = 0.10718 0.32865
# Poissons Ratio (z) = 0.45402 0.66854
#
# Static dielectric constant tensor:
#      x y z
#    x 4.060560 -0.000010 0.118270 
#    y -0.000010 3.889390 0.000020 
#    z 0.118270 0.000020 3.790020 
# 
# 
# High freq. dielectric constant tensor:
#      x y z
#    x 1.879000 0.000000 0.006790 
#    y 0.000000 1.865010 0.000000 
#    z 0.006790 0.000000 1.847090 
# 
# From -- ./inp_files/179078.got.cif
#   From: 2010.06.25/outbox.cif.g09.slc.cpg/sg15_90_cif.got.tgz:179078.got - 2010.06.28 07:06:18.
