data_PCOD8142350
_publ_section_title
;
Structure prediction by ZEFSAII (Michael W. Deem and Ramdas Pophale) SiO2 
 PCOD8142350
Probable space group: C 2/C
;
_chemical_formula_sum "Si O2"
_cell_formula_units_Z 56
_cell_length_a 22.548191
_cell_length_b 26.242700
_cell_length_c 11.152150
_cell_angle_alpha 90.000000
_cell_angle_beta 25.244211
_cell_angle_gamma 90.000000
_cell_volume 2814.328561
_symmetry_space_group_name_H-M "C 2/C"
_symmetry_group_IT_number 15
_symmetry_cell_setting 'monoclinic'
loop_
_space_group_symop_operation_xyz
x,y,z
-x,y,1/2-z
-x,-y,-z
x,-y,1/2+z
1/2+x,1/2+y,z
1/2-x,1/2+y,1/2-z
1/2-x,1/2-y,-z
1/2+x,1/2-y,1/2+z
loop_
_atom_site_type_symbol
_atom_site_label
_atom_site_fract_x
_atom_site_fract_y
_atom_site_fract_z
Si Si1 0.642688 0.085218 0.273245
Si Si2 0.253070 0.172280 0.571804
Si Si3 0.156229 0.908269 0.424876
Si Si4 0.674141 0.084762 0.646381
Si Si5 0.655753 0.845368 0.967830
Si Si6 0.663985 0.488981 0.214938
Si Si7 0.854024 0.777059 0.464281
O O1 0.484843 0.064317 0.554607
O O2 0.675789 0.105667 0.345238
O O3 0.642614 0.131983 0.178986
O O4 0.762866 0.043444 0.026556
O O5 0.159446 0.143052 0.840177
O O6 0.155438 0.196631 0.648378
O O7 0.340002 0.216328 0.478283
O O8 0.264187 0.904192 0.335810
O O9 0.196718 0.958506 0.276215
O O10 0.000000 0.916132 0.750000
O O11 0.689567 0.136763 0.541361
O O12 0.762172 0.043000 0.414087
O O13 0.744671 0.797611 0.761259
O O14 0.500000 0.824542 0.250000
O O15 0.500000 0.500000 0.500000
O O16 0.000000 0.792519 0.250000
#
# Coordination Sequence:
#
# PCOD8142350 Si02
#       7
#     8   8   8   8   8   8   8
#     4   9  21  42  63  86 118 163 202 248 296 357
#     4   9  22  41  61  89 125 154 202 251 295 362
#     4  11  24  40  60  89 125 160 201 253 304 352
#     4  11  23  38  64  88 121 161 204 244 302 358
#     4   9  21  40  61  89 123 154 200 252 300 357
#     4  11  23  39  58  86 122 159 200 247 300 355
#     4  10  21  38  67  91 116 160 203 245 304 357
#
# _framework density 19.898174000000001
#
# number of rings (size 3 to 8) (size 9 to 14) (size 15 to 20)
#    0.000    2.000    1.429    0.429    6.000    3.429 
#    2.571    0.714    0.000    0.000    0.000    0.000 
#    0.000    0.000    0.000    0.000    0.000    0.000 
#
# Total GULP energy -347155.124584 kJ/mol
# GULP energy per Si atom -12398.397307 kJ/mol
# Density = 1.985289 g / cm^3
# Si number density = 19.898174 Si / 1000 Ang^3
#
#
#
# Elastic Constant Matrix: (Units=GPa)
#
#
# Indices 1 2 3 4 5 6 
#
# 1 106.7589 32.9857 35.9903 -0.0085 -0.1930 -0.0016
# 2 32.9857 93.6897 41.3450 -0.0305 -1.2039 -0.0047
# 3 35.9903 41.3450 124.8876 -0.0634 -7.5561 -0.0086
# 4 -0.0085 -0.0305 -0.0634 14.8032 0.0115 -0.6842
# 5 -0.1930 -1.2039 -7.5561 0.0115 30.4231 -0.0014
# 6 -0.0016 -0.0047 -0.0086 -0.6842 -0.0014 18.7075
#
#
#
# Elastic Compliance Matrix: (Units=1/GPa)
#
#
# Indices 1 2 3 4 5 6 
#
# 1 0.011020 -0.002893 -0.002255 -0.000009 -0.000605 -0.000001
# 2 -0.002893 0.013268 -0.003582 0.000011 -0.000383 0.000002
# 3 -0.002255 -0.003582 0.009983 0.000032 0.002323 0.000005
# 4 -0.000009 0.000011 0.000032 0.067668 -0.000017 0.002475
# 5 -0.000605 -0.000383 0.002323 -0.000017 0.033428 0.000003
# 6 -0.000001 0.000002 0.000005 0.002475 0.000003 0.053545
#
#
# Mechanical properties :
#
#
# Convention : Reuss Voigt Hill
#
# Bulk Modulus (GPa) = 59.47981 60.66426 60.07204
# Shear Modulus (GPa) = 23.58784 27.12109 25.35446
#
# Velocity S-wave (km/s) = 3.44674 3.69588 3.57348
# Velocity P-wave (km/s) = 6.76735 6.98328 6.87616
#
# Compressibility (1/GPa) = 0.01681243
#
# Stress axis : x y z
#
# Youngs Moduli (GPa) = 90.74737 75.37097 100.16651
#
# Poissons Ratio (x) = 0.21801 0.22584
# Poissons Ratio (y) = 0.26249 0.35879
# Poissons Ratio (z) = 0.20460 0.26998
#
# Static dielectric constant tensor:
#      x y z
#    x 3.637510 -0.000010 0.218340 
#    y -0.000010 3.617290 0.000050 
#    z 0.218340 0.000050 3.765890 
# 
# 
# High freq. dielectric constant tensor:
#      x y z
#    x 1.774990 0.000000 0.010500 
#    y 0.000000 1.772840 0.000010 
#    z 0.010500 0.000010 1.783540 
# 
# From -- ./inp_files/120398.got.cif
#   From: 2010.06.25/outbox.cif.g09.slc.cpg/sg15_61_cif.got.tgz:120398.got - 2010.06.28 07:06:18.
