data_PCOD8142196
_publ_section_title
;
Structure prediction by ZEFSAII (Michael W. Deem and Ramdas Pophale) SiO2 
 PCOD8142196
Probable space group: C 2/C
;
_chemical_formula_sum "Si O2"
_cell_formula_units_Z 52
_cell_length_a 15.897022
_cell_length_b 9.249317
_cell_length_c 20.641791
_cell_angle_alpha 90.000000
_cell_angle_beta 57.657892
_cell_angle_gamma 90.000000
_cell_volume 2564.260475
_symmetry_space_group_name_H-M "C 2/C"
_symmetry_group_IT_number 15
_symmetry_cell_setting 'monoclinic'
loop_
_space_group_symop_operation_xyz
x,y,z
-x,y,1/2-z
-x,-y,-z
x,-y,1/2+z
1/2+x,1/2+y,z
1/2-x,1/2+y,1/2-z
1/2-x,1/2-y,-z
1/2+x,1/2-y,1/2+z
loop_
_atom_site_type_symbol
_atom_site_label
_atom_site_fract_x
_atom_site_fract_y
_atom_site_fract_z
Si Si1 0.020799 0.776687 0.667218
Si Si2 0.669672 0.763076 0.341219
Si Si3 0.499682 0.595505 0.640067
Si Si4 0.221527 0.041718 0.788639
Si Si5 0.832772 0.448452 0.363069
Si Si6 0.000000 0.672068 0.250000
Si Si7 0.317545 0.664500 0.021706
O O1 0.117302 0.675858 0.612626
O O2 0.000000 0.731417 0.750000
O O3 0.936910 0.728933 0.650566
O O4 0.041218 0.948224 0.656339
O O5 0.736282 0.904414 0.297690
O O6 0.735966 0.630583 0.286831
O O7 0.659917 0.755894 0.422594
O O8 0.394558 0.566818 0.649665
O O9 0.478946 0.723641 0.698441
O O10 0.575260 0.637432 0.552859
O O11 0.286071 0.122719 0.817393
O O12 0.907207 0.574920 0.309231
O O13 0.740108 0.515862 0.440336
O O14 0.250000 0.750000 0.000000
#
# Coordination Sequence:
#
# PCOD8142196 Si02
#       7
#     8   8   8   8   8   4   8
#     4  11  21  39  65  96 125 157 211 271 307 360
#     4  10  22  39  66  92 127 159 210 263 307 365
#     4  11  24  38  64  90 126 164 213 255 311 373
#     4  10  21  38  63  93 118 163 209 253 305 367
#     4  11  22  40  68  89 124 164 206 259 315 364
#     4  12  20  38  68  92 112 172 218 250 300 374
#     4  11  24  43  61  91 130 167 206 260 314 372
#
# _framework density 20.278752000000001
#
# number of rings (size 3 to 8) (size 9 to 14) (size 15 to 20)
#    0.000    1.231    4.615    1.846    0.000    6.154 
#    0.000    0.769    0.000    0.000    0.000    0.000 
#    0.000    0.000    0.000    0.000    0.000    0.000 
#
# Total GULP energy -322281.325850 kJ/mol
# GULP energy per Si atom -12395.435610 kJ/mol
# Density = 2.023260 g / cm^3
# Si number density = 20.278752 Si / 1000 Ang^3
#
#
#
# Elastic Constant Matrix: (Units=GPa)
#
#
# Indices 1 2 3 4 5 6 
#
# 1 122.2807 34.2194 19.0739 0.0000 17.9110 0.0000
# 2 34.2194 81.7668 18.3532 0.0000 6.2920 0.0001
# 3 19.0739 18.3532 67.9731 0.0000 13.1185 0.0000
# 4 0.0000 0.0000 0.0000 30.2984 0.0000 -1.4108
# 5 17.9110 6.2920 13.1185 0.0000 30.3375 0.0000
# 6 0.0000 0.0001 0.0000 -1.4108 0.0000 34.3208
#
#
#
# Elastic Compliance Matrix: (Units=1/GPa)
#
#
# Indices 1 2 3 4 5 6 
#
# 1 0.010035 -0.003627 -0.000915 0.000000 -0.004777 0.000000
# 2 -0.003627 0.014376 -0.002948 0.000000 0.000434 0.000000
# 3 -0.000915 -0.002948 0.016957 0.000000 -0.006181 0.000000
# 4 0.000000 0.000000 0.000000 0.033068 0.000000 0.001359
# 5 -0.004777 0.000434 -0.006181 0.000000 0.038366 0.000000
# 6 0.000000 0.000000 0.000000 0.001359 0.000000 0.029193
#
#
# Mechanical properties :
#
#
# Convention : Reuss Voigt Hill
#
# Bulk Modulus (GPa) = 37.89343 46.14596 42.01969
# Shear Modulus (GPa) = 30.16223 32.34962 31.25592
#
# Velocity S-wave (km/s) = 3.86084 3.99839 3.93022
# Velocity P-wave (km/s) = 6.21302 6.64239 6.43129
#
# Compressibility (1/GPa) = 0.02638980
#
# Stress axis : x y z
#
# Youngs Moduli (GPa) = 99.64888 69.56067 58.97184
#
# Poissons Ratio (x) = 0.25228 0.05395
# Poissons Ratio (y) = 0.36141 0.17383
# Poissons Ratio (z) = 0.09116 0.20504
#
# Static dielectric constant tensor:
#      x y z
#    x 3.876090 0.000000 0.010390 
#    y 0.000000 3.772650 0.000000 
#    z 0.010390 0.000000 3.354390 
# 
# 
# High freq. dielectric constant tensor:
#      x y z
#    x 1.809590 0.000000 -0.004080 
#    y 0.000000 1.790070 0.000000 
#    z -0.004080 0.000000 1.775150 
# 
# From -- ./inp_files/247778.got.cif
#   From: 2010.06.25/outbox.cif.g09.slc.cpg/sg15_124_cif.got.tgz:247778.got - 2010.06.28 07:06:18.
