data_PCOD8142273
_publ_section_title
;
Structure prediction by ZEFSAII (Michael W. Deem and Ramdas Pophale) SiO2 
 PCOD8142273
Probable space group: C 2/C
;
_chemical_formula_sum "Si O2"
_cell_formula_units_Z 48
_cell_length_a 18.300218
_cell_length_b 15.761195
_cell_length_c 16.673691
_cell_angle_alpha 90.000000
_cell_angle_beta 148.237960
_cell_angle_gamma 90.000000
_cell_volume 2531.552464
_symmetry_space_group_name_H-M "C 2/C"
_symmetry_group_IT_number 15
_symmetry_cell_setting 'monoclinic'
loop_
_space_group_symop_operation_xyz
x,y,z
-x,y,1/2-z
-x,-y,-z
x,-y,1/2+z
1/2+x,1/2+y,z
1/2-x,1/2+y,1/2-z
1/2-x,1/2-y,-z
1/2+x,1/2-y,1/2+z
loop_
_atom_site_type_symbol
_atom_site_label
_atom_site_fract_x
_atom_site_fract_y
_atom_site_fract_z
Si Si1 0.950865 0.164923 0.294729
Si Si2 0.821860 0.261039 0.894532
Si Si3 0.515644 0.814961 0.856060
Si Si4 0.121549 0.993662 0.675845
Si Si5 0.099339 0.423672 0.615077
Si Si6 0.804519 0.180461 0.709587
O O1 0.812923 0.221790 0.176616
O O2 0.917317 0.068618 0.287645
O O3 0.000000 0.169390 0.250000
O O4 0.075905 0.196762 0.466695
O O5 0.908340 0.347154 0.956838
O O6 0.766922 0.218837 0.761174
O O7 0.500000 0.842693 0.750000
O O8 0.442341 0.890094 0.836715
O O9 0.439651 0.725449 0.799299
O O10 0.675377 0.804156 0.030200
O O11 0.244723 0.956902 0.736446
O O12 0.162994 0.081477 0.755124
O O13 0.000000 0.000000 0.500000
O O14 0.000000 0.500000 0.500000
#
# Coordination Sequence:
#
# PCOD8142273 Si02
#       6
#     8   8   8   8   8   8
#     4  11  23  40  60  94 124 156 202 256 307 356
#     4  10  21  38  65  86 119 162 205 242 300 370
#     4  11  24  41  63  94 124 158 207 260 315 360
#     4  11  23  40  64  91 122 164 210 247 301 369
#     4  10  21  40  63  85 120 163 206 247 301 371
#     4  11  22  41  67  88 124 165 209 250 303 376
#
# _framework density 18.960697
#
# number of rings (size 3 to 8) (size 9 to 14) (size 15 to 20)
#    0.000    1.333    3.333    3.000    4.667    0.667 
#    3.000    0.833    0.000    0.000    0.000    0.000 
#    0.000    0.000    0.000    0.000    0.000    0.000 
#
# Total GULP energy -297675.844740 kJ/mol
# GULP energy per Si atom -12403.160198 kJ/mol
# Density = 1.891754 g / cm^3
# Si number density = 18.960697 Si / 1000 Ang^3
#
#
#
# Elastic Constant Matrix: (Units=GPa)
#
#
# Indices 1 2 3 4 5 6 
#
# 1 128.6777 50.7365 47.6188 0.0001 -1.5807 0.0001
# 2 50.7365 130.8032 55.5610 0.0000 5.1585 0.0000
# 3 47.6188 55.5610 134.7814 -0.0002 0.8938 -0.0001
# 4 0.0001 0.0000 -0.0002 31.9127 -0.0001 5.5145
# 5 -1.5807 5.1585 0.8938 -0.0001 28.7859 0.0000
# 6 0.0001 0.0000 -0.0001 5.5145 0.0000 20.5958
#
#
#
# Elastic Compliance Matrix: (Units=1/GPa)
#
#
# Indices 1 2 3 4 5 6 
#
# 1 0.009755 -0.002862 -0.002274 0.000000 0.001119 0.000000
# 2 -0.002862 0.010177 -0.003171 0.000000 -0.001882 0.000000
# 3 -0.002274 -0.003171 0.009529 0.000000 0.000148 0.000000
# 4 0.000000 0.000000 0.000000 0.032856 0.000000 -0.008797
# 5 0.001119 -0.001882 0.000148 0.000000 0.035133 0.000000
# 6 0.000000 0.000000 0.000000 -0.008797 0.000000 0.050909
#
#
# Mechanical properties :
#
#
# Convention : Reuss Voigt Hill
#
# Bulk Modulus (GPa) = 77.84661 78.01052 77.92856
# Shear Modulus (GPa) = 29.54103 32.28196 30.91149
#
# Velocity S-wave (km/s) = 3.95145 4.13070 4.04207
# Velocity P-wave (km/s) = 7.87176 7.99893 7.93560
#
# Compressibility (1/GPa) = 0.01284578
#
# Stress axis : x y z
#
# Youngs Moduli (GPa) = 102.50997 98.26502 104.93981
#
# Poissons Ratio (x) = 0.28124 0.23865
# Poissons Ratio (y) = 0.29339 0.33281
# Poissons Ratio (z) = 0.23312 0.31164
#
# Static dielectric constant tensor:
#      x y z
#    x 3.500540 0.000000 0.173090 
#    y 0.000000 3.734950 0.000000 
#    z 0.173090 0.000000 3.560010 
# 
# 
# High freq. dielectric constant tensor:
#      x y z
#    x 1.733690 0.000000 0.015950 
#    y 0.000000 1.748080 0.000000 
#    z 0.015950 0.000000 1.746120 
# 
# From -- ./inp_files/163187.got.cif
#   From: 2010.06.25/outbox.cif.g09.slc.cpg/sg15_82_cif.got.tgz:163187.got - 2010.06.28 07:06:18.
