data_PCOD8142357
_publ_section_title
;
Structure prediction by ZEFSAII (Michael W. Deem and Ramdas Pophale) SiO2 
 PCOD8142357
Probable space group: C 2/C
;
_chemical_formula_sum "Si O2"
_cell_formula_units_Z 56
_cell_length_a 8.538016
_cell_length_b 22.618814
_cell_length_c 14.603294
_cell_angle_alpha 90.000000
_cell_angle_beta 110.747254
_cell_angle_gamma 90.000000
_cell_volume 2637.302321
_symmetry_space_group_name_H-M "C 2/C"
_symmetry_group_IT_number 15
_symmetry_cell_setting 'monoclinic'
loop_
_space_group_symop_operation_xyz
x,y,z
-x,y,1/2-z
-x,-y,-z
x,-y,1/2+z
1/2+x,1/2+y,z
1/2-x,1/2+y,1/2-z
1/2-x,1/2-y,-z
1/2+x,1/2-y,1/2+z
loop_
_atom_site_type_symbol
_atom_site_label
_atom_site_fract_x
_atom_site_fract_y
_atom_site_fract_z
Si Si1 0.758604 0.902950 0.624658
Si Si2 0.601131 0.280289 0.861784
Si Si3 0.314919 0.070094 0.194929
Si Si4 0.997681 0.996644 0.392270
Si Si5 0.398073 0.866606 0.528619
Si Si6 0.078690 0.866002 0.361231
Si Si7 0.969544 0.242145 0.955504
O O1 0.874603 0.850093 0.612917
O O2 0.732161 0.889078 0.727551
O O3 0.572867 0.900175 0.540623
O O4 0.851352 0.964591 0.620735
O O5 0.500000 0.265939 0.750000
O O6 0.776354 0.246861 0.888084
O O7 0.502759 0.255673 0.929236
O O8 0.500000 0.043767 0.250000
O O9 0.303218 0.104797 0.096566
O O10 0.185172 0.017048 0.175468
O O11 0.000810 0.929966 0.359792
O O12 0.000000 0.000000 0.500000
O O13 0.280885 0.872616 0.413698
O O14 0.429119 0.798263 0.562787
O O15 0.000000 0.841759 0.250000
O O16 0.034140 0.819573 0.430717
#
# Coordination Sequence:
#
# PCOD8142357 Si02
#       7
#     8   8   8   8   8   8   8
#     4  10  22  40  70  95 124 164 223 277 320 379
#     4  10  21  38  67  94 120 171 218 269 326 383
#     4  10  21  41  67  99 125 164 224 275 319 376
#     4  12  23  43  66  94 135 174 213 266 327 393
#     4  10  23  44  66  96 128 167 220 279 322 385
#     4  12  26  41  62  93 134 177 209 260 341 397
#     4  10  24  42  61  94 133 166 219 265 328 403
#
# _framework density 21.233819
#
# number of rings (size 3 to 8) (size 9 to 14) (size 15 to 20)
#    0.000    1.429    1.429    3.429    4.000    3.429 
#    2.571    0.714    0.000    0.000    0.000    0.000 
#    0.000    0.000    0.000    0.000    0.000    0.000 
#
# Total GULP energy -347100.409173 kJ/mol
# GULP energy per Si atom -12396.443185 kJ/mol
# Density = 2.118549 g / cm^3
# Si number density = 21.233819 Si / 1000 Ang^3
#
#
#
# Elastic Constant Matrix: (Units=GPa)
#
#
# Indices 1 2 3 4 5 6 
#
# 1 101.5988 51.5413 55.1986 0.0000 13.3663 0.0000
# 2 51.5413 117.1568 15.6832 0.0000 10.8218 0.0000
# 3 55.1986 15.6832 153.4718 0.0000 19.4921 0.0000
# 4 0.0000 0.0000 0.0000 25.7164 0.0000 1.5826
# 5 13.3663 10.8218 19.4921 0.0000 31.3145 0.0000
# 6 0.0000 0.0000 0.0000 1.5826 0.0000 20.5699
#
#
#
# Elastic Compliance Matrix: (Units=1/GPa)
#
#
# Indices 1 2 3 4 5 6 
#
# 1 0.015817 -0.006160 -0.004856 0.000000 -0.001599 0.000000
# 2 -0.006160 0.011261 0.001330 0.000000 -0.002090 0.000000
# 3 -0.004856 0.001330 0.008602 0.000000 -0.003741 0.000000
# 4 0.000000 0.000000 0.000000 0.039071 0.000000 -0.003006
# 5 -0.001599 -0.002090 -0.003741 0.000000 0.035668 0.000000
# 6 0.000000 0.000000 0.000000 -0.003006 0.000000 0.048846
#
#
# Mechanical properties :
#
#
# Convention : Reuss Voigt Hill
#
# Bulk Modulus (GPa) = 61.32381 68.56374 64.94377
# Shear Modulus (GPa) = 27.16342 32.17378 29.66860
#
# Velocity S-wave (km/s) = 3.58054 3.89680 3.74201
# Velocity P-wave (km/s) = 6.78503 7.25305 7.02294
#
# Compressibility (1/GPa) = 0.01630688
#
# Stress axis : x y z
#
# Youngs Moduli (GPa) = 63.22495 88.80412 116.25746
#
# Poissons Ratio (x) = 0.54707 0.56455
# Poissons Ratio (y) = 0.38949 -0.15467
# Poissons Ratio (z) = 0.30702 -0.11815
#
# Static dielectric constant tensor:
#      x y z
#    x 3.965410 0.000000 0.307340 
#    y 0.000000 3.581240 0.000000 
#    z 0.307340 0.000000 4.395850 
# 
# 
# High freq. dielectric constant tensor:
#      x y z
#    x 1.836380 0.000000 0.013380 
#    y 0.000000 1.824090 0.000000 
#    z 0.013380 0.000000 1.840960 
# 
# From -- ./inp_files/137976.got.cif
#   From: 2010.06.25/outbox.cif.g09.slc.cpg/sg15_69_cif.got.tgz:137976.got - 2010.06.28 07:06:18.
