data_PCOD8142563
_publ_section_title
;
Structure prediction by ZEFSAII (Michael W. Deem and Ramdas Pophale) SiO2 
 PCOD8142563
Probable space group: C 2/C
;
_chemical_formula_sum "Si O2"
_cell_formula_units_Z 64
_cell_length_a 15.904818
_cell_length_b 20.855282
_cell_length_c 9.040118
_cell_angle_alpha 90.000000
_cell_angle_beta 82.061959
_cell_angle_gamma 90.000000
_cell_volume 2969.869663
_symmetry_space_group_name_H-M "C 2/C"
_symmetry_group_IT_number 15
_symmetry_cell_setting 'monoclinic'
loop_
_space_group_symop_operation_xyz
x,y,z
-x,y,1/2-z
-x,-y,-z
x,-y,1/2+z
1/2+x,1/2+y,z
1/2-x,1/2+y,1/2-z
1/2-x,1/2-y,-z
1/2+x,1/2-y,1/2+z
loop_
_atom_site_type_symbol
_atom_site_label
_atom_site_fract_x
_atom_site_fract_y
_atom_site_fract_z
Si Si1 0.404514 0.713590 0.249448
Si Si2 0.740294 0.501138 0.180563
Si Si3 0.413408 0.585291 0.725909
Si Si4 0.199069 0.409332 0.568386
Si Si5 0.319281 0.195165 0.970948
Si Si6 0.672482 0.387910 0.527048
Si Si7 0.651095 0.686502 0.550980
Si Si8 0.400275 0.195083 0.267528
O O1 0.500000 0.692671 0.250000
O O2 0.385444 0.782958 0.328220
O O3 0.344932 0.657510 0.328366
O O4 0.390257 0.719747 0.079732
O O5 0.670148 0.457116 0.273852
O O6 0.781134 0.547736 0.291299
O O7 0.683921 0.539547 0.075907
O O8 0.808401 0.456942 0.072233
O O9 0.500000 0.546949 0.750000
O O10 0.407747 0.619776 0.566355
O O11 0.412543 0.636465 0.857932
O O12 0.265610 0.352927 0.513925
O O13 0.114150 0.369570 0.630013
O O14 0.265032 0.132489 0.935985
O O15 0.371665 0.181532 0.107256
O O16 0.250000 0.250000 0.000000
O O17 0.660858 0.746305 0.661859
O O18 0.500000 0.213182 0.250000
#
# Coordination Sequence:
#
# PCOD8142563 Si02
#       8
#     8   8   8   8   8   8   8   8
#     4  11  21  34  57  90 127 158 199 257 317 366
#     4  11  22  41  63  85 123 168 217 254 298 381
#     4  11  24  39  62  93 127 166 207 257 319 368
#     4  11  23  43  64  93 122 173 214 260 308 380
#     4  10  21  39  62  85 123 172 203 244 321 378
#     4  11  21  39  60  81 119 169 206 248 308 377
#     4  11  22  39  62  97 129 158 207 258 317 390
#     4  12  24  42  68  97 131 161 211 272 325 367
#
# _framework density 21.549766999999999
#
# number of rings (size 3 to 8) (size 9 to 14) (size 15 to 20)
#    0.000    1.000    3.750    4.500    0.000    3.000 
#    0.000    0.625    0.000    0.000    0.000    0.000 
#    0.000    0.000    0.000    0.000    0.000    0.000 
#
# Total GULP energy -396454.712712 kJ/mol
# GULP energy per Si atom -12389.209772 kJ/mol
# Density = 2.150072 g / cm^3
# Si number density = 21.549767 Si / 1000 Ang^3
#
#
#
# Elastic Constant Matrix: (Units=GPa)
#
#
# Indices 1 2 3 4 5 6 
#
# 1 49.4199 22.7228 16.6393 0.0000 8.1220 0.0000
# 2 22.7228 81.7502 23.4070 0.0000 -8.5646 0.0000
# 3 16.6393 23.4070 82.5645 0.0000 -0.9199 0.0000
# 4 0.0000 0.0000 0.0000 27.7080 0.0000 0.1322
# 5 8.1220 -8.5646 -0.9199 0.0000 25.8362 0.0000
# 6 0.0000 0.0000 0.0000 0.1322 0.0000 16.9688
#
#
#
# Elastic Compliance Matrix: (Units=1/GPa)
#
#
# Indices 1 2 3 4 5 6 
#
# 1 0.026672 -0.007612 -0.003340 0.000000 -0.011027 0.000000
# 2 -0.007612 0.015976 -0.002911 0.000000 0.007586 0.000000
# 3 -0.003340 -0.002911 0.013616 0.000000 0.000570 0.000000
# 4 0.000000 0.000000 0.000000 0.036092 0.000000 -0.000281
# 5 -0.011027 0.007586 0.000570 0.000000 0.044707 0.000000
# 6 0.000000 0.000000 0.000000 -0.000281 0.000000 0.058934
#
#
# Mechanical properties :
#
#
# Convention : Reuss Voigt Hill
#
# Bulk Modulus (GPa) = 35.04048 37.69697 36.36873
# Shear Modulus (GPa) = 21.43753 24.16696 22.80225
#
# Velocity S-wave (km/s) = 3.15745 3.35244 3.25641
# Velocity P-wave (km/s) = 5.43951 5.70229 5.57245
#
# Compressibility (1/GPa) = 0.02853842
#
# Stress axis : x y z
#
# Youngs Moduli (GPa) = 37.49296 62.59236 73.44106
#
# Poissons Ratio (x) = 0.47648 0.24529
# Poissons Ratio (y) = 0.28541 0.21376
# Poissons Ratio (z) = 0.12522 0.18218
#
# Static dielectric constant tensor:
#      x y z
#    x 3.733630 0.000000 -0.369490 
#    y 0.000000 4.253940 0.000000 
#    z -0.369490 0.000000 4.482160 
# 
# 
# High freq. dielectric constant tensor:
#      x y z
#    x 1.811610 0.000000 -0.002650 
#    y 0.000000 1.844420 0.000000 
#    z -0.002650 0.000000 1.864290 
# 
# From -- ./inp_files/50253.got.cif
#   From: 2010.06.25/outbox.cif.g09.slc.cpg/sg15_26_cif.got.tgz:50253.got - 2010.06.28 07:06:18.
