data_PCOD8142803
_publ_section_title
;
Structure prediction by ZEFSAII (Michael W. Deem and Ramdas Pophale) SiO2 
 PCOD8142803
Probable space group: C 2/C
;
_chemical_formula_sum "Si O2"
_cell_formula_units_Z 40
_cell_length_a 8.384402
_cell_length_b 20.169534
_cell_length_c 10.656230
_cell_angle_alpha 90.000000
_cell_angle_beta 104.429640
_cell_angle_gamma 90.000000
_cell_volume 1745.222127
_symmetry_space_group_name_H-M "C 2/C"
_symmetry_group_IT_number 15
_symmetry_cell_setting 'monoclinic'
loop_
_space_group_symop_operation_xyz
x,y,z
-x,y,1/2-z
-x,-y,-z
x,-y,1/2+z
1/2+x,1/2+y,z
1/2-x,1/2+y,1/2-z
1/2-x,1/2-y,-z
1/2+x,1/2-y,1/2+z
loop_
_atom_site_type_symbol
_atom_site_label
_atom_site_fract_x
_atom_site_fract_y
_atom_site_fract_z
Si Si1 0.196379 0.462008 0.794969
Si Si2 0.167918 0.540472 0.019024
Si Si3 0.142825 0.837104 0.562460
Si Si4 0.272117 0.325284 0.459504
Si Si5 0.185842 0.210579 0.806358
O O1 0.267286 0.474834 0.668046
O O2 0.250398 0.389846 0.844873
O O3 0.000000 0.463558 0.750000
O O4 0.262642 0.514278 0.912505
O O5 0.145147 0.620778 0.995252
O O6 0.000000 0.500000 0.000000
O O7 0.187527 0.839805 0.423638
O O8 0.185574 0.767795 0.636126
O O9 0.949666 0.850432 0.540749
O O10 0.250000 0.250000 0.500000
O O11 0.252388 0.327602 0.305155
O O12 0.000000 0.238911 0.750000
#
# Coordination Sequence:
#
# PCOD8142803 Si02
#       5
#     8   8   8   8   8
#     4  10  22  42  64  93 129 171 220 268 330 403
#     4  10  24  43  65  95 132 177 221 279 333 403
#     4  10  21  39  65  95 131 179 212 286 343 395
#     4  11  24  42  63  98 136 175 233 280 337 410
#     4   9  20  38  63  98 133 174 225 276 344 414
#
# _framework density 22.919716999999999
#
# number of rings (size 3 to 8) (size 9 to 14) (size 15 to 20)
#    0.000    2.000    0.000    1.800    2.800   12.000 
#    7.200    0.000    0.000    0.000    0.000    0.000 
#    0.000    0.000    0.000    0.000    0.000    0.000 
#
# Total GULP energy -247838.908763 kJ/mol
# GULP energy per Si atom -12391.945438 kJ/mol
# Density = 2.286755 g / cm^3
# Si number density = 22.919717 Si / 1000 Ang^3
#
#
#
# Elastic Constant Matrix: (Units=GPa)
#
#
# Indices 1 2 3 4 5 6 
#
# 1 43.8077 28.6881 30.6378 0.0000 -3.9484 0.0000
# 2 28.6881 122.0939 62.0706 0.0000 -23.4463 0.0000
# 3 30.6378 62.0706 217.9369 0.0000 -20.5151 0.0000
# 4 0.0000 0.0000 0.0000 39.5901 0.0000 0.5809
# 5 -3.9484 -23.4463 -20.5151 0.0000 25.3978 0.0000
# 6 0.0000 0.0000 0.0000 0.5809 0.0000 33.1206
#
#
#
# Elastic Compliance Matrix: (Units=1/GPa)
#
#
# Indices 1 2 3 4 5 6 
#
# 1 0.028228 -0.005931 -0.002577 0.000000 -0.003169 0.000000
# 2 -0.005931 0.012210 -0.001807 0.000000 0.008890 0.000000
# 3 -0.002577 -0.001807 0.005704 0.000000 0.002539 0.000000
# 4 0.000000 0.000000 0.000000 0.025265 0.000000 -0.000443
# 5 -0.003169 0.008890 0.002539 0.000000 0.049139 0.000000
# 6 0.000000 0.000000 0.000000 -0.000443 0.000000 0.030200
#
#
# Mechanical properties :
#
#
# Convention : Reuss Voigt Hill
#
# Bulk Modulus (GPa) = 39.19737 69.62571 54.41154
# Shear Modulus (GPa) = 27.79618 37.11784 32.45701
#
# Velocity S-wave (km/s) = 3.48625 4.02863 3.76722
# Velocity P-wave (km/s) = 5.77446 7.21692 6.53561
#
# Compressibility (1/GPa) = 0.02551192
#
# Stress axis : x y z
#
# Youngs Moduli (GPa) = 35.42589 81.90180 175.30196
#
# Poissons Ratio (x) = 0.48574 0.45183
# Poissons Ratio (y) = 0.21010 0.31674
# Poissons Ratio (z) = 0.09131 0.14798
#
# Static dielectric constant tensor:
#      x y z
#    x 3.888400 0.000000 -0.334720 
#    y 0.000000 3.951180 0.000000 
#    z -0.334720 0.000000 5.616640 
# 
# 
# High freq. dielectric constant tensor:
#      x y z
#    x 1.870340 0.000000 -0.001980 
#    y 0.000000 1.893560 0.000000 
#    z -0.001980 0.000000 1.942950 
# 
# From -- ./inp_files/76929.got.cif
#   From: 2010.06.25/outbox.cif.g09.slc.cpg/sg15_39_cif.got.tgz:76929.got - 2010.06.28 07:06:18.
