data_PCOD8142774
_publ_section_title
;
Structure prediction by ZEFSAII (Michael W. Deem and Ramdas Pophale) SiO2 
 PCOD8142774
Probable space group: C 2/C
;
_chemical_formula_sum "Si O2"
_cell_formula_units_Z 60
_cell_length_a 24.912345
_cell_length_b 21.063779
_cell_length_c 9.402096
_cell_angle_alpha 90.000000
_cell_angle_beta 143.106735
_cell_angle_gamma 90.000000
_cell_volume 2961.848855
_symmetry_space_group_name_H-M "C 2/C"
_symmetry_group_IT_number 15
_symmetry_cell_setting 'monoclinic'
loop_
_space_group_symop_operation_xyz
x,y,z
-x,y,1/2-z
-x,-y,-z
x,-y,1/2+z
1/2+x,1/2+y,z
1/2-x,1/2+y,1/2-z
1/2-x,1/2-y,-z
1/2+x,1/2-y,1/2+z
loop_
_atom_site_type_symbol
_atom_site_label
_atom_site_fract_x
_atom_site_fract_y
_atom_site_fract_z
Si Si1 0.994263 0.318416 0.513516
Si Si2 0.234168 0.016000 0.382181
Si Si3 0.064981 0.060770 0.168103
Si Si4 0.178524 0.109507 0.666877
Si Si5 0.353584 0.994576 0.886278
Si Si6 0.532722 0.683761 0.478035
Si Si7 0.000000 0.394856 0.250000
Si Si8 0.371476 0.130307 0.994225
O O1 0.012215 0.244046 0.530764
O O2 0.965300 0.350911 0.304221
O O3 0.913433 0.330160 0.452377
O O4 0.087958 0.344566 0.772066
O O5 0.148750 0.059187 0.237577
O O6 0.318752 0.024532 0.665031
O O7 0.210341 0.941809 0.348896
O O8 0.267890 0.030786 0.294279
O O9 0.106776 0.069987 0.416056
O O10 0.010286 0.125016 0.026600
O O11 0.000000 0.000000 0.000000
O O12 0.136784 0.166765 0.670708
O O13 0.263433 0.137303 0.759502
O O14 0.399651 0.055996 0.055724
O O15 0.422932 0.937914 0.018260
O O16 0.500000 0.696020 0.250000
#
# Coordination Sequence:
#
# PCOD8142774 Si02
#       8
#     8   8   8   8   8   8   4   8
#     4  11  23  41  61  88 126 170 218 249 305 373
#     4  11  20  38  61  97 125 154 200 261 319 379
#     4  11  21  38  68  94 121 160 197 256 324 373
#     4  10  21  39  65  91 130 164 200 255 328 374
#     4  11  23  37  62  94 127 160 208 263 317 361
#     4  10  22  41  61  89 123 168 208 254 313 374
#     4  12  22  36  62  90 120 168 220 256 294 378
#     4  10  22  41  62  88 127 167 198 267 323 355
#
# _framework density 20.257615999999999
#
# number of rings (size 3 to 8) (size 9 to 14) (size 15 to 20)
#    0.000    1.333    4.667    3.200    0.000    2.133 
#    0.000    9.333    0.000    0.000    0.000    0.000 
#    0.000    0.000    0.000    0.000    0.000    0.000 
#
# Total GULP energy -371697.914336 kJ/mol
# GULP energy per Si atom -12389.930478 kJ/mol
# Density = 2.021151 g / cm^3
# Si number density = 20.257616 Si / 1000 Ang^3
#
#
#
# Elastic Constant Matrix: (Units=GPa)
#
#
# Indices 1 2 3 4 5 6 
#
# 1 102.8654 51.2419 25.3153 0.0000 14.1858 0.0000
# 2 51.2419 131.2219 32.2999 0.0000 11.1355 0.0000
# 3 25.3153 32.2999 74.9960 0.0000 13.6958 0.0000
# 4 0.0000 0.0000 0.0000 20.7292 0.0000 -2.8187
# 5 14.1858 11.1355 13.6958 0.0000 34.9441 0.0000
# 6 0.0000 0.0000 0.0000 -2.8187 0.0000 41.0961
#
#
#
# Elastic Compliance Matrix: (Units=1/GPa)
#
#
# Indices 1 2 3 4 5 6 
#
# 1 0.012726 -0.004239 -0.001910 0.000000 -0.003067 0.000000
# 2 -0.004239 0.009998 -0.002809 0.000000 -0.000364 0.000000
# 3 -0.001910 -0.002809 0.016031 0.000000 -0.004613 0.000000
# 4 0.000000 0.000000 0.000000 0.048695 0.000000 0.003340
# 5 -0.003067 -0.000364 -0.004613 0.000000 0.031786 0.000000
# 6 0.000000 0.000000 0.000000 0.003340 0.000000 0.024562
#
#
# Mechanical properties :
#
#
# Convention : Reuss Voigt Hill
#
# Bulk Modulus (GPa) = 47.98535 58.53305 53.25920
# Shear Modulus (GPa) = 29.64527 32.70230 31.17379
#
# Velocity S-wave (km/s) = 3.82961 4.02222 3.92710
# Velocity P-wave (km/s) = 6.57978 7.10831 6.84915
#
# Compressibility (1/GPa) = 0.02083969
#
# Stress axis : x y z
#
# Youngs Moduli (GPa) = 78.57855 100.01674 62.37996
#
# Poissons Ratio (x) = 0.42399 0.11914
# Poissons Ratio (y) = 0.33311 0.17520
# Poissons Ratio (z) = 0.15008 0.28091
#
# Static dielectric constant tensor:
#      x y z
#    x 3.779370 0.000000 0.159970 
#    y 0.000000 3.596980 0.000000 
#    z 0.159970 0.000000 3.801830 
# 
# 
# High freq. dielectric constant tensor:
#      x y z
#    x 1.797960 0.000000 0.008280 
#    y 0.000000 1.774190 0.000000 
#    z 0.008280 0.000000 1.785210 
# 
# From -- ./inp_files/63544.got.cif
#   From: 2010.06.25/outbox.cif.g09.slc.cpg/sg15_32_cif.got.tgz:63544.got - 2010.06.28 07:06:18.
