data_PCOD8142780
_publ_section_title
;
Structure prediction by ZEFSAII (Michael W. Deem and Ramdas Pophale) SiO2 
 PCOD8142780
Probable space group: C 2/C
;
_chemical_formula_sum "Si O2"
_cell_formula_units_Z 48
_cell_length_a 14.001219
_cell_length_b 28.702969
_cell_length_c 8.364414
_cell_angle_alpha 90.000000
_cell_angle_beta 137.370629
_cell_angle_gamma 90.000000
_cell_volume 2276.560881
_symmetry_space_group_name_H-M "C 2/C"
_symmetry_group_IT_number 15
_symmetry_cell_setting 'monoclinic'
loop_
_space_group_symop_operation_xyz
x,y,z
-x,y,1/2-z
-x,-y,-z
x,-y,1/2+z
1/2+x,1/2+y,z
1/2-x,1/2+y,1/2-z
1/2-x,1/2-y,-z
1/2+x,1/2-y,1/2+z
loop_
_atom_site_type_symbol
_atom_site_label
_atom_site_fract_x
_atom_site_fract_y
_atom_site_fract_z
Si Si1 0.314737 0.464488 0.394281
Si Si2 0.170848 0.280241 0.625129
Si Si3 0.143761 0.391645 0.022750
Si Si4 0.141201 0.698628 0.729284
Si Si5 0.155863 0.856641 0.495038
Si Si6 0.879511 0.058047 0.331310
O O1 0.313804 0.520380 0.374262
O O2 0.452010 0.445516 0.470719
O O3 0.312368 0.450656 0.576245
O O4 0.176432 0.441065 0.146696
O O5 0.179208 0.305071 0.462824
O O6 0.237058 0.228615 0.706568
O O7 0.258006 0.310449 0.857860
O O8 0.008838 0.275561 0.480873
O O9 0.271971 0.381162 0.064730
O O10 0.000000 0.396012 0.750000
O O11 0.133131 0.352598 0.146582
O O12 0.157803 0.891038 0.649745
O O13 0.000000 0.842177 0.250000
#
# Coordination Sequence:
#
# PCOD8142780 Si02
#       6
#     8   8   8   8   8   8
#     4  10  21  39  65  92 125 164 210 260 311 366
#     4  10  23  43  65  92 126 166 212 258 312 375
#     4  12  24  42  62  93 133 166 207 258 318 373
#     4  10  23  43  66  91 126 167 210 259 313 373
#     4  12  24  40  62  94 128 168 213 255 312 376
#     4  10  21  39  65  93 123 163 213 261 305 367
#
# _framework density 21.084436
#
# number of rings (size 3 to 8) (size 9 to 14) (size 15 to 20)
#    0.000    1.333    3.333    2.000    4.667    1.333 
#    0.000    3.333    0.000    0.000    0.000    0.000 
#    0.000    0.000    0.000    0.000    0.000    0.000 
#
# Total GULP energy -297687.187155 kJ/mol
# GULP energy per Si atom -12403.632798 kJ/mol
# Density = 2.103645 g / cm^3
# Si number density = 21.084436 Si / 1000 Ang^3
#
#
#
# Elastic Constant Matrix: (Units=GPa)
#
#
# Indices 1 2 3 4 5 6 
#
# 1 53.6441 -0.4461 14.0402 0.0000 6.9996 0.0000
# 2 -0.4461 52.6471 27.6295 0.0000 -3.6203 0.0000
# 3 14.0402 27.6295 127.0458 0.0000 4.2042 0.0000
# 4 0.0000 0.0000 0.0000 39.8892 0.0000 0.8447
# 5 6.9996 -3.6203 4.2042 0.0000 29.0751 0.0000
# 6 0.0000 0.0000 0.0000 0.8447 0.0000 30.0173
#
#
#
# Elastic Compliance Matrix: (Units=1/GPa)
#
#
# Indices 1 2 3 4 5 6 
#
# 1 0.019809 0.001068 -0.002279 0.000000 -0.004306 0.000000
# 2 0.001068 0.021831 -0.004971 0.000000 0.003180 0.000000
# 3 -0.002279 -0.004971 0.009251 0.000000 -0.001408 0.000000
# 4 0.000000 0.000000 0.000000 0.025084 0.000000 -0.000706
# 5 -0.004306 0.003180 -0.001408 0.000000 0.036030 0.000000
# 6 0.000000 0.000000 0.000000 -0.000706 0.000000 0.033334
#
#
# Mechanical properties :
#
#
# Convention : Reuss Voigt Hill
#
# Bulk Modulus (GPa) = 25.95650 35.08713 30.52181
# Shear Modulus (GPa) = 29.31782 32.60387 30.96085
#
# Velocity S-wave (km/s) = 3.73298 3.93663 3.83616
# Velocity P-wave (km/s) = 5.56036 6.11066 5.84199
#
# Compressibility (1/GPa) = 0.03852600
#
# Stress axis : x y z
#
# Youngs Moduli (GPa) = 50.48316 45.80659 108.10027
#
# Poissons Ratio (x) = -0.04891 0.24634
# Poissons Ratio (y) = -0.05390 0.53736
# Poissons Ratio (z) = 0.11504 0.22770
#
# Static dielectric constant tensor:
#      x y z
#    x 3.758940 0.000000 0.010700 
#    y 0.000000 3.661810 0.000000 
#    z 0.010700 0.000000 3.812940 
# 
# 
# High freq. dielectric constant tensor:
#      x y z
#    x 1.822190 0.000000 -0.007360 
#    y 0.000000 1.819670 0.000000 
#    z -0.007360 0.000000 1.835950 
# 
# From -- ./inp_files/33420.got.cif
#   From: 2010.06.25/outbox.cif.g09.slc.cpg/sg15_17_cif.got.tgz:33420.got - 2010.06.28 07:06:18.
