data_PCOD8142883
_publ_section_title
;
Structure prediction by ZEFSAII (Michael W. Deem and Ramdas Pophale) SiO2 
 PCOD8142883
Probable space group: C 2/C
;
_chemical_formula_sum "Si O2"
_cell_formula_units_Z 56
_cell_length_a 16.299204
_cell_length_b 9.099372
_cell_length_c 23.697042
_cell_angle_alpha 90.000000
_cell_angle_beta 130.191811
_cell_angle_gamma 90.000000
_cell_volume 2684.737300
_symmetry_space_group_name_H-M "C 2/C"
_symmetry_group_IT_number 15
_symmetry_cell_setting 'monoclinic'
loop_
_space_group_symop_operation_xyz
x,y,z
-x,y,1/2-z
-x,-y,-z
x,-y,1/2+z
1/2+x,1/2+y,z
1/2-x,1/2+y,1/2-z
1/2-x,1/2-y,-z
1/2+x,1/2-y,1/2+z
loop_
_atom_site_type_symbol
_atom_site_label
_atom_site_fract_x
_atom_site_fract_y
_atom_site_fract_z
Si Si1 0.971649 0.405549 0.078248
Si Si2 0.397982 0.181152 0.237006
Si Si3 0.690117 0.849979 0.122571
Si Si4 0.177462 0.157497 0.009170
Si Si5 0.314389 0.820460 0.915656
Si Si6 0.333792 0.928933 0.122949
Si Si7 0.471212 0.216867 0.393093
O O1 0.936131 0.404036 0.127994
O O2 0.093346 0.344218 0.125346
O O3 0.969857 0.573312 0.053208
O O4 0.888377 0.311310 0.004214
O O5 0.500000 0.252699 0.250000
O O6 0.301142 0.295799 0.198949
O O7 0.431426 0.153326 0.315966
O O8 0.366445 0.030425 0.190550
O O9 0.659883 0.738028 0.060195
O O10 0.714559 0.013005 0.111586
O O11 0.234096 0.000986 0.043735
O O12 0.250000 0.250000 0.000000
O O13 0.057895 0.149226 0.927823
O O14 0.204275 0.731381 0.874592
O O15 0.373793 0.737649 0.890161
#
# Coordination Sequence:
#
# PCOD8142883 Si02
#       7
#     8   8   8   8   8   8   8
#     4  11  19  40  65  94 122 169 201 266 321 384
#     4  11  23  43  65  88 121 176 219 257 309 387
#     4  10  21  39  67  87 122 164 222 248 319 383
#     4  11  18  37  65  95 114 169 218 262 297 374
#     4  11  22  38  64  98 127 161 204 271 332 368
#     4  11  24  38  68  95 134 160 213 265 324 375
#     4  11  20  38  66  87 127 166 219 261 311 374
#
# _framework density 20.858651999999999
#
# number of rings (size 3 to 8) (size 9 to 14) (size 15 to 20)
#    0.000    1.143    5.714    2.143    0.000    2.857 
#    0.000    0.714    6.286    0.000    0.000    0.000 
#    0.000    0.000    0.000    0.000    0.000    0.000 
#
# Total GULP energy -347079.810762 kJ/mol
# GULP energy per Si atom -12395.707527 kJ/mol
# Density = 2.081118 g / cm^3
# Si number density = 20.858652 Si / 1000 Ang^3
#
#
#
# Elastic Constant Matrix: (Units=GPa)
#
#
# Indices 1 2 3 4 5 6 
#
# 1 142.7016 50.7637 34.3150 0.0000 9.6161 0.0000
# 2 50.7637 71.4189 28.9012 0.0000 9.6683 0.0000
# 3 34.3150 28.9012 93.8799 0.0000 3.9298 0.0000
# 4 0.0000 0.0000 0.0000 13.6202 0.0000 9.4216
# 5 9.6161 9.6683 3.9298 0.0000 34.6737 0.0000
# 6 0.0000 0.0000 0.0000 9.4216 0.0000 34.2733
#
#
#
# Elastic Compliance Matrix: (Units=1/GPa)
#
#
# Indices 1 2 3 4 5 6 
#
# 1 0.009607 -0.006071 -0.001610 0.000000 -0.000789 0.000000
# 2 -0.006071 0.020379 -0.003906 0.000000 -0.003556 0.000000
# 3 -0.001610 -0.003906 0.012438 0.000000 0.000126 0.000000
# 4 0.000000 0.000000 0.000000 0.090660 0.000000 -0.024922
# 5 -0.000789 -0.003556 0.000126 0.000000 0.030037 0.000000
# 6 0.000000 0.000000 0.000000 -0.024922 0.000000 0.036028
#
#
# Mechanical properties :
#
#
# Convention : Reuss Voigt Hill
#
# Bulk Modulus (GPa) = 51.94494 59.55115 55.74804
# Shear Modulus (GPa) = 21.85902 29.44812 25.65357
#
# Velocity S-wave (km/s) = 3.24073 3.76146 3.51076
# Velocity P-wave (km/s) = 6.24183 6.89033 6.57408
#
# Compressibility (1/GPa) = 0.01925115
#
# Stress axis : x y z
#
# Youngs Moduli (GPa) = 104.08625 49.07063 80.40191
#
# Poissons Ratio (x) = 0.29789 0.12943
# Poissons Ratio (y) = 0.63186 0.31404
# Poissons Ratio (z) = 0.16756 0.19167
#
# Static dielectric constant tensor:
#      x y z
#    x 4.225230 0.000000 -0.110090 
#    y 0.000000 3.032990 0.000000 
#    z -0.110090 0.000000 4.107990 
# 
# 
# High freq. dielectric constant tensor:
#      x y z
#    x 1.835940 0.000000 0.001020 
#    y 0.000000 1.784700 0.000000 
#    z 0.001020 0.000000 1.806510 
# 
# From -- ./inp_files/295237.got.cif
#   From: 2010.06.25/outbox.cif.g09.slc.cpg/sg15_148_cif.got.tgz:295237.got - 2010.06.28 07:06:18.
