data_PCOD8142167
_publ_section_title
;
Structure prediction by ZEFSAII (Michael W. Deem and Ramdas Pophale) SiO2 
 PCOD8142167
Probable space group: C 2/C
;
_chemical_formula_sum "Si O2"
_cell_formula_units_Z 40
_cell_length_a 13.249001
_cell_length_b 11.273007
_cell_length_c 13.990466
_cell_angle_alpha 90.000000
_cell_angle_beta 108.858075
_cell_angle_gamma 90.000000
_cell_volume 1977.397971
_symmetry_space_group_name_H-M "C 2/C"
_symmetry_group_IT_number 15
_symmetry_cell_setting 'monoclinic'
loop_
_space_group_symop_operation_xyz
x,y,z
-x,y,1/2-z
-x,-y,-z
x,-y,1/2+z
1/2+x,1/2+y,z
1/2-x,1/2+y,1/2-z
1/2-x,1/2-y,-z
1/2+x,1/2-y,1/2+z
loop_
_atom_site_type_symbol
_atom_site_label
_atom_site_fract_x
_atom_site_fract_y
_atom_site_fract_z
Si Si1 0.856108 0.765269 0.473547
Si Si2 0.098621 0.585295 0.651139
Si Si3 0.459112 0.653332 0.339351
Si Si4 0.620256 0.988728 0.464653
Si Si5 0.720218 0.528139 0.655100
O O1 0.750000 0.750000 0.500000
O O2 0.892975 0.629636 0.471073
O O3 0.831775 0.839358 0.368989
O O4 0.942604 0.841863 0.558006
O O5 0.091552 0.716975 0.691973
O O6 0.124291 0.592943 0.544745
O O7 0.194770 0.519338 0.734050
O O8 0.986734 0.514293 0.633678
O O9 0.500000 0.604421 0.250000
O O10 0.370651 0.567050 0.354964
O O11 0.723440 0.998650 0.429659
#
# Coordination Sequence:
#
# PCOD8142167 Si02
#       5
#     8   8   8   8   8
#     4   9  19  37  61  85 117 153 195 244 302 354
#     4  10  21  38  63  88 115 160 203 242 295 365
#     4  11  23  38  60  88 121 160 203 244 297 364
#     4   9  20  39  62  87 119 155 201 247 295 362
#     4  11  22  34  64  89 122 152 200 249 306 349
#
# _framework density 20.228604000000001
#
# number of rings (size 3 to 8) (size 9 to 14) (size 15 to 20)
#    0.000    2.000    0.000    4.800    8.400    0.800 
#    0.000    0.000    0.000    0.000    0.000    0.000 
#    0.000    0.000    0.000    0.000    0.000    0.000 
#
# Total GULP energy -247859.005130 kJ/mol
# GULP energy per Si atom -12392.950256 kJ/mol
# Density = 2.018256 g / cm^3
# Si number density = 20.228604 Si / 1000 Ang^3
#
#
#
# Elastic Constant Matrix: (Units=GPa)
#
#
# Indices 1 2 3 4 5 6 
#
# 1 135.5493 49.6312 46.7555 0.0000 4.4445 0.0000
# 2 49.6312 56.5913 29.9971 0.0000 -0.7107 0.0000
# 3 46.7555 29.9971 74.0124 0.0000 7.7425 0.0000
# 4 0.0000 0.0000 0.0000 24.8046 0.0000 2.6513
# 5 4.4445 -0.7107 7.7425 0.0000 41.3022 0.0000
# 6 0.0000 0.0000 0.0000 2.6513 0.0000 38.8298
#
#
#
# Elastic Compliance Matrix: (Units=1/GPa)
#
#
# Indices 1 2 3 4 5 6 
#
# 1 0.011806 -0.008208 -0.004063 0.000000 -0.000650 0.000000
# 2 -0.008208 0.028399 -0.006598 0.000000 0.002609 0.000000
# 3 -0.004063 -0.006598 0.019093 0.000000 -0.003255 0.000000
# 4 0.000000 0.000000 0.000000 0.040612 0.000000 -0.002773
# 5 -0.000650 0.002609 -0.003255 0.000000 0.024937 0.000000
# 6 0.000000 0.000000 0.000000 -0.002773 0.000000 0.025943
#
#
# Mechanical properties :
#
#
# Convention : Reuss Voigt Hill
#
# Bulk Modulus (GPa) = 46.38359 57.65784 52.02072
# Shear Modulus (GPa) = 25.54760 30.30527 27.92643
#
# Velocity S-wave (km/s) = 3.55765 3.87478 3.71960
# Velocity P-wave (km/s) = 6.31311 6.97019 6.64977
#
# Compressibility (1/GPa) = 0.02155935
#
# Stress axis : x y z
#
# Youngs Moduli (GPa) = 84.70562 35.21231 52.37609
#
# Poissons Ratio (x) = 0.28902 0.21281
# Poissons Ratio (y) = 0.69527 0.34557
# Poissons Ratio (z) = 0.34417 0.23232
#
# Static dielectric constant tensor:
#      x y z
#    x 3.783630 0.000000 0.276430 
#    y 0.000000 4.049690 0.000000 
#    z 0.276430 0.000000 3.506620 
# 
# 
# High freq. dielectric constant tensor:
#      x y z
#    x 1.798770 0.000000 0.021580 
#    y 0.000000 1.767870 0.000000 
#    z 0.021580 0.000000 1.786500 
# 
# From -- ./inp_files/151284.got.cif
#   From: 2010.06.25/outbox.cif.g09.slc.cpg/sg15_76_cif.got.tgz:151284.got - 2010.06.28 07:06:18.
