data_PCOD8142638
_publ_section_title
;
Structure prediction by ZEFSAII (Michael W. Deem and Ramdas Pophale) SiO2 
 PCOD8142638
Probable space group: C 2/C
;
_chemical_formula_sum "Si O2"
_cell_formula_units_Z 36
_cell_length_a 10.177314
_cell_length_b 36.585131
_cell_length_c 5.240552
_cell_angle_alpha 90.000000
_cell_angle_beta 118.649567
_cell_angle_gamma 90.000000
_cell_volume 1712.363108
_symmetry_space_group_name_H-M "C 2/C"
_symmetry_group_IT_number 15
_symmetry_cell_setting 'monoclinic'
loop_
_space_group_symop_operation_xyz
x,y,z
-x,y,1/2-z
-x,-y,-z
x,-y,1/2+z
1/2+x,1/2+y,z
1/2-x,1/2+y,1/2-z
1/2-x,1/2-y,-z
1/2+x,1/2-y,1/2+z
loop_
_atom_site_type_symbol
_atom_site_label
_atom_site_fract_x
_atom_site_fract_y
_atom_site_fract_z
Si Si1 0.500000 0.748040 0.250000
Si Si2 0.733255 0.782739 0.796955
Si Si3 0.174921 0.901531 0.911703
Si Si4 0.324801 0.642510 0.587150
Si Si5 0.177559 0.479140 0.417349
O O1 0.573141 0.776626 0.515433
O O2 0.626000 0.719938 0.265099
O O3 0.750000 0.750000 0.000000
O O4 0.733254 0.820465 0.952067
O O5 0.220153 0.885405 0.679468
O O6 0.000000 0.910459 0.750000
O O7 0.221141 0.873624 0.180746
O O8 0.263749 0.938323 0.041463
O O9 0.500000 0.651658 0.750000
O O10 0.238373 0.498926 0.728148
O O11 0.000000 0.477812 0.250000
#
# Coordination Sequence:
#
# PCOD8142638 Si02
#       5
#     4   8   8   8   8
#     4  10  24  38  64  88 120 158 224 262 318 370
#     4  11  23  41  62  89 122 166 215 266 315 376
#     4  10  22  39  60  93 118 157 204 247 305 363
#     4  10  22  38  63  85 126 162 200 258 314 364
#     4  10  21  39  63  87 122 160 195 240 301 366
#
# _framework density 21.023579000000002
#
# number of rings (size 3 to 8) (size 9 to 14) (size 15 to 20)
#    0.000    1.778    0.000    3.333   10.889    0.889 
#    2.000    0.000    0.000    0.000    0.000    0.000 
#    0.000    0.000    0.000    0.000    0.000    0.000 
#
# Total GULP energy -223228.047900 kJ/mol
# GULP energy per Si atom -12401.558217 kJ/mol
# Density = 2.097573 g / cm^3
# Si number density = 21.023579 Si / 1000 Ang^3
#
#
#
# Elastic Constant Matrix: (Units=GPa)
#
#
# Indices 1 2 3 4 5 6 
#
# 1 14.2744 1.5719 22.4225 0.0000 -4.2735 0.0000
# 2 1.5719 115.0417 50.3804 0.0000 4.6785 0.0000
# 3 22.4225 50.3804 147.8210 0.0000 -9.4288 0.0000
# 4 0.0000 0.0000 0.0000 49.6808 0.0000 1.9751
# 5 -4.2735 4.6785 -9.4288 0.0000 29.2373 0.0000
# 6 0.0000 0.0000 0.0000 1.9751 0.0000 27.8498
#
#
#
# Elastic Compliance Matrix: (Units=1/GPa)
#
#
# Indices 1 2 3 4 5 6 
#
# 1 0.097098 0.005364 -0.016036 0.000000 0.008162 0.000000
# 2 0.005364 0.010746 -0.004631 0.000000 -0.002429 0.000000
# 3 -0.016036 -0.004631 0.010898 0.000000 0.001912 0.000000
# 4 0.000000 0.000000 0.000000 0.020185 0.000000 -0.001432
# 5 0.008162 -0.002429 0.001912 0.000000 0.036401 0.000000
# 6 0.000000 0.000000 0.000000 -0.001432 0.000000 0.036008
#
#
# Mechanical properties :
#
#
# Convention : Reuss Voigt Hill
#
# Bulk Modulus (GPa) = 11.34611 47.32072 29.33341
# Shear Modulus (GPa) = 18.42830 34.87108 26.64969
#
# Velocity S-wave (km/s) = 2.96388 4.07709 3.56421
# Velocity P-wave (km/s) = 4.13779 6.68736 5.56067
#
# Compressibility (1/GPa) = 0.08813596
#
# Stress axis : x y z
#
# Youngs Moduli (GPa) = 10.29884 93.05707 91.76253
#
# Poissons Ratio (x) = -0.49916 1.47151
# Poissons Ratio (y) = -0.05524 0.42496
# Poissons Ratio (z) = 0.16515 0.43095
#
# Static dielectric constant tensor:
#      x y z
#    x 3.527970 0.000000 -0.213080 
#    y 0.000000 3.490910 0.000000 
#    z -0.213080 0.000000 4.228310 
# 
# 
# High freq. dielectric constant tensor:
#      x y z
#    x 1.806350 0.000000 -0.009480 
#    y 0.000000 1.823760 0.000000 
#    z -0.009480 0.000000 1.847300 
# 
# From -- ./inp_files/5643.got.cif
#   From: 2010.06.25/outbox.cif.g09.slc.cpg/sg15_3_cif.got.tgz:5643.got - 2010.06.28 07:06:18.
