data_PCOD8142197
_publ_section_title
;
Structure prediction by ZEFSAII (Michael W. Deem and Ramdas Pophale) SiO2 
 PCOD8142197
Probable space group: C 2/C
;
_chemical_formula_sum "Si O2"
_cell_formula_units_Z 48
_cell_length_a 10.020984
_cell_length_b 15.202588
_cell_length_c 28.455757
_cell_angle_alpha 90.000000
_cell_angle_beta 36.696488
_cell_angle_gamma 90.000000
_cell_volume 2590.545266
_symmetry_space_group_name_H-M "C 2/C"
_symmetry_group_IT_number 15
_symmetry_cell_setting 'monoclinic'
loop_
_space_group_symop_operation_xyz
x,y,z
-x,y,1/2-z
-x,-y,-z
x,-y,1/2+z
1/2+x,1/2+y,z
1/2-x,1/2+y,1/2-z
1/2-x,1/2-y,-z
1/2+x,1/2-y,1/2+z
loop_
_atom_site_type_symbol
_atom_site_label
_atom_site_fract_x
_atom_site_fract_y
_atom_site_fract_z
Si Si1 0.093168 0.283402 0.585651
Si Si2 0.752205 0.638472 0.802218
Si Si3 0.749883 0.116771 0.806323
Si Si4 0.776021 0.292142 0.843479
Si Si5 0.363310 0.981835 0.920541
Si Si6 0.092787 0.024678 0.402881
O O1 0.250000 0.250000 0.500000
O O2 0.195007 0.276761 0.609073
O O3 0.049166 0.386093 0.589141
O O4 0.871944 0.224836 0.643303
O O5 0.746447 0.640842 0.748623
O O6 0.638268 0.547575 0.850469
O O7 0.000000 0.644852 0.750000
O O8 0.659995 0.203177 0.858535
O O9 0.000000 0.088650 0.750000
O O10 0.579248 0.040684 0.867332
O O11 0.620148 0.376028 0.876068
O O12 0.000000 0.305988 0.750000
O O13 0.277370 0.988070 0.891421
O O14 0.161567 0.013917 0.009888
#
# Coordination Sequence:
#
# PCOD8142197 Si02
#       6
#     8   8   8   8   8   8
#     4  11  22  41  63  89 128 170 204 255 322 371
#     4  12  22  38  66  94 123 161 218 260 304 381
#     4  11  23  41  62  92 129 165 206 262 322 372
#     4  10  21  39  63  88 129 170 204 256 323 374
#     4  10  22  39  63  91 127 164 209 261 312 377
#     4  10  21  38  63  93 121 166 213 254 310 383
#
# _framework density 18.528918000000001
#
# number of rings (size 3 to 8) (size 9 to 14) (size 15 to 20)
#    0.000    1.333    6.667    0.500    2.333    1.333 
#    0.000    3.333    0.000    0.000    0.000    0.000 
#    0.000    0.000    0.000    0.000    0.000    0.000 
#
# Total GULP energy -297535.524725 kJ/mol
# GULP energy per Si atom -12397.313530 kJ/mol
# Density = 1.848675 g / cm^3
# Si number density = 18.528918 Si / 1000 Ang^3
#
#
#
# Elastic Constant Matrix: (Units=GPa)
#
#
# Indices 1 2 3 4 5 6 
#
# 1 75.5491 42.0373 55.5081 -0.0007 -4.3793 -0.0016
# 2 42.0373 186.5173 80.5629 0.0024 -11.5240 -0.0157
# 3 55.5081 80.5629 113.0968 0.0082 2.9965 -0.0215
# 4 -0.0007 0.0024 0.0082 46.6721 0.0074 -3.3008
# 5 -4.3793 -11.5240 2.9965 0.0074 36.4222 -0.0046
# 6 -0.0016 -0.0157 -0.0215 -3.3008 -0.0046 26.2437
#
#
#
# Elastic Compliance Matrix: (Units=1/GPa)
#
#
# Indices 1 2 3 4 5 6 
#
# 1 0.021113 -0.000051 -0.010416 0.000001 0.003379 -0.000007
# 2 -0.000051 0.008065 -0.005800 0.000000 0.003023 0.000001
# 3 -0.010416 -0.005800 0.018207 -0.000002 -0.004585 0.000010
# 4 0.000001 0.000000 -0.000002 0.021618 -0.000004 0.002719
# 5 0.003379 0.003023 -0.004585 -0.000004 0.029196 0.000003
# 6 -0.000007 0.000001 0.000010 0.002719 0.000003 0.038446
#
#
# Mechanical properties :
#
#
# Convention : Reuss Voigt Hill
#
# Bulk Modulus (GPa) = 67.33074 81.26442 74.29758
# Shear Modulus (GPa) = 28.71412 35.00458 31.85935
#
# Velocity S-wave (km/s) = 3.94088 4.35119 4.15111
# Velocity P-wave (km/s) = 7.55808 8.31849 7.94738
#
# Compressibility (1/GPa) = 0.01485206
#
# Stress axis : x y z
#
# Youngs Moduli (GPa) = 47.36317 123.99443 54.92327
#
# Poissons Ratio (x) = 0.00630 0.57207
# Poissons Ratio (y) = 0.00241 0.31856
# Poissons Ratio (z) = 0.49333 0.71918
#
# Static dielectric constant tensor:
#      x y z
#    x 3.188210 0.000000 0.144230 
#    y 0.000000 3.929120 -0.000120 
#    z 0.144230 -0.000120 3.534840 
# 
# 
# High freq. dielectric constant tensor:
#      x y z
#    x 1.699230 0.000000 0.012590 
#    y 0.000000 1.738810 0.000000 
#    z 0.012590 0.000000 1.730290 
# 
# From -- ./inp_files/182406.got.cif
#   From: 2010.06.25/outbox.cif.g09.slc.cpg/sg15_92_cif.got.tgz:182406.got - 2010.06.28 07:06:18.
