data_PCOD8142887
_publ_section_title
;
Structure prediction by ZEFSAII (Michael W. Deem and Ramdas Pophale) SiO2 
 PCOD8142887
Probable space group: C 2/C
;
_chemical_formula_sum "Si O2"
_cell_formula_units_Z 52
_cell_length_a 8.061241
_cell_length_b 24.289970
_cell_length_c 12.314313
_cell_angle_alpha 90.000000
_cell_angle_beta 97.114016
_cell_angle_gamma 90.000000
_cell_volume 2392.669948
_symmetry_space_group_name_H-M "C 2/C"
_symmetry_group_IT_number 15
_symmetry_cell_setting 'monoclinic'
loop_
_space_group_symop_operation_xyz
x,y,z
-x,y,1/2-z
-x,-y,-z
x,-y,1/2+z
1/2+x,1/2+y,z
1/2-x,1/2+y,1/2-z
1/2-x,1/2-y,-z
1/2+x,1/2-y,1/2+z
loop_
_atom_site_type_symbol
_atom_site_label
_atom_site_fract_x
_atom_site_fract_y
_atom_site_fract_z
Si Si1 0.073029 0.578755 0.412916
Si Si2 0.637319 0.176924 0.026333
Si Si3 0.095425 0.115258 0.145964
Si Si4 0.347237 0.413788 0.446641
Si Si5 0.959193 0.230207 0.131123
Si Si6 0.500000 0.457878 0.250000
Si Si7 0.294223 0.999668 0.413239
O O1 0.217591 0.590229 0.335491
O O2 0.147620 0.560032 0.537043
O O3 0.980972 0.637161 0.415651
O O4 0.943277 0.531673 0.361271
O O5 0.741855 0.142520 0.944938
O O6 0.524712 0.223478 0.959749
O O7 0.771231 0.204867 0.118219
O O8 0.000000 0.101257 0.250000
O O9 0.092684 0.180984 0.123450
O O10 0.007961 0.085976 0.037378
O O11 0.401082 0.419817 0.326466
O O12 0.238852 0.465448 0.479047
O O13 0.000000 0.258110 0.250000
O O14 0.633299 0.496269 0.322757
#
# Coordination Sequence:
#
# PCOD8142887 Si02
#       7
#     8   8   8   8   8   4   8
#     4  10  21  42  62  96 126 167 223 267 318 383
#     4   9  20  40  65  87 133 164 212 276 315 385
#     4  10  21  39  67  89 126 173 216 261 325 390
#     4  10  22  40  61  91 124 175 211 254 324 392
#     4   9  19  39  63  91 124 173 209 263 331 382
#     4  12  22  38  66  92 132 176 214 266 322 396
#     4  10  23  40  62  90 134 166 216 268 320 384
#
# _framework density 21.733044
#
# number of rings (size 3 to 8) (size 9 to 14) (size 15 to 20)
#    0.000    2.154    1.538    0.462    1.077    1.846 
#    4.154   27.692    6.769    0.000    0.000    0.000 
#    0.000    0.000    0.000    0.000    0.000    0.000 
#
# Total GULP energy -322299.110635 kJ/mol
# GULP energy per Si atom -12396.119640 kJ/mol
# Density = 2.168358 g / cm^3
# Si number density = 21.733044 Si / 1000 Ang^3
#
#
#
# Elastic Constant Matrix: (Units=GPa)
#
#
# Indices 1 2 3 4 5 6 
#
# 1 123.7975 37.9659 43.0010 0.0000 -12.7009 0.0000
# 2 37.9659 79.6923 33.0916 0.0000 0.9863 0.0000
# 3 43.0010 33.0916 103.5508 0.0000 -2.0408 0.0000
# 4 0.0000 0.0000 0.0000 17.7493 0.0000 5.0939
# 5 -12.7009 0.9863 -2.0408 0.0000 42.8257 0.0000
# 6 0.0000 0.0000 0.0000 5.0939 0.0000 40.3043
#
#
#
# Elastic Compliance Matrix: (Units=1/GPa)
#
#
# Indices 1 2 3 4 5 6 
#
# 1 0.010657 -0.003808 -0.003147 0.000000 0.003098 0.000000
# 2 -0.003808 0.015842 -0.003514 0.000000 -0.001662 0.000000
# 3 -0.003147 -0.003514 0.012082 0.000000 -0.000277 0.000000
# 4 0.000000 0.000000 0.000000 0.058461 0.000000 -0.007389
# 5 0.003098 -0.001662 -0.000277 0.000000 0.024294 0.000000
# 6 0.000000 0.000000 0.000000 -0.007389 0.000000 0.025745
#
#
# Mechanical properties :
#
#
# Convention : Reuss Voigt Hill
#
# Bulk Modulus (GPa) = 56.68504 59.46195 58.07349
# Shear Modulus (GPa) = 28.75210 33.04135 30.89673
#
# Velocity S-wave (km/s) = 3.64121 3.90337 3.77456
# Velocity P-wave (km/s) = 6.61943 6.90902 6.76578
#
# Compressibility (1/GPa) = 0.01764134
#
# Stress axis : x y z
#
# Youngs Moduli (GPa) = 93.83759 63.12212 82.77097
#
# Poissons Ratio (x) = 0.24039 0.26050
# Poissons Ratio (y) = 0.35737 0.29085
# Poissons Ratio (z) = 0.29533 0.22181
#
# Static dielectric constant tensor:
#      x y z
#    x 4.045830 0.000000 0.183160 
#    y 0.000000 3.914390 0.000000 
#    z 0.183160 0.000000 3.637530 
# 
# 
# High freq. dielectric constant tensor:
#      x y z
#    x 1.857320 0.000000 0.015910 
#    y 0.000000 1.851350 0.000000 
#    z 0.015910 0.000000 1.832200 
# 
# From -- ./inp_files/80745.got.cif
#   From: 2010.06.25/outbox.cif.g09.slc.cpg/sg15_41_cif.got.tgz:80745.got - 2010.06.28 07:06:18.
