data_PCOD8142967
_publ_section_title
;
Structure prediction by ZEFSAII (Michael W. Deem and Ramdas Pophale) SiO2 
 PCOD8142967
Probable space group: C 2/C
;
_chemical_formula_sum "Si O2"
_cell_formula_units_Z 48
_cell_length_a 16.765228
_cell_length_b 26.465574
_cell_length_c 9.267033
_cell_angle_alpha 90.000000
_cell_angle_beta 145.549441
_cell_angle_gamma 90.000000
_cell_volume 2326.021582
_symmetry_space_group_name_H-M "C 2/C"
_symmetry_group_IT_number 15
_symmetry_cell_setting 'monoclinic'
loop_
_space_group_symop_operation_xyz
x,y,z
-x,y,1/2-z
-x,-y,-z
x,-y,1/2+z
1/2+x,1/2+y,z
1/2-x,1/2+y,1/2-z
1/2-x,1/2-y,-z
1/2+x,1/2-y,1/2+z
loop_
_atom_site_type_symbol
_atom_site_label
_atom_site_fract_x
_atom_site_fract_y
_atom_site_fract_z
Si Si1 0.323998 0.844126 0.640019
Si Si2 0.617396 0.358210 0.818160
Si Si3 0.374664 0.293141 0.949551
Si Si4 0.865376 0.031188 0.247644
Si Si5 0.357829 0.179729 0.870495
Si Si6 0.169312 0.944200 0.500299
O O1 0.267196 0.803500 0.671081
O O2 0.286754 0.827811 0.421221
O O3 0.249426 0.897367 0.552067
O O4 0.491238 0.847513 0.910656
O O5 0.500000 0.335023 0.750000
O O6 0.601236 0.336058 0.633950
O O7 0.594136 0.418282 0.777607
O O8 0.769543 0.344977 0.110219
O O9 0.368603 0.239658 0.859605
O O10 0.500000 0.294459 0.250000
O O11 0.774998 0.046662 0.253590
O O12 0.782817 0.993673 0.017810
O O13 0.000000 0.000000 0.500000
O O14 0.000000 0.934624 0.250000
#
# Coordination Sequence:
#
# PCOD8142967 Si02
#       6
#     8   8   8   8   8   8
#     4  11  23  44  69  92 139 177 226 272 339 412
#     4  12  26  42  69 102 137 172 226 285 335 394
#     4  12  24  45  69  99 129 184 229 271 337 398
#     4  10  22  40  63 104 129 168 223 279 333 388
#     4  11  27  43  66 100 136 180 218 282 335 400
#     4  10  21  39  69  96 128 175 220 277 334 398
#
# _framework density 20.636095000000001
#
# number of rings (size 3 to 8) (size 9 to 14) (size 15 to 20)
#    0.000    1.000    3.333    4.000   11.667    0.667 
#    0.000    0.833    0.000    0.000    0.000    0.000 
#    0.000    0.000    0.000    0.000    0.000    0.000 
#
# Total GULP energy -297630.479076 kJ/mol
# GULP energy per Si atom -12401.269961 kJ/mol
# Density = 2.058913 g / cm^3
# Si number density = 20.636095 Si / 1000 Ang^3
#
#
#
# Elastic Constant Matrix: (Units=GPa)
#
#
# Indices 1 2 3 4 5 6 
#
# 1 103.5467 37.5189 27.3180 0.0000 0.3801 0.0000
# 2 37.5189 147.0664 42.7460 0.0000 3.4395 0.0000
# 3 27.3180 42.7460 85.4637 0.0000 -6.3363 0.0000
# 4 0.0000 0.0000 0.0000 29.6050 0.0000 -11.1621
# 5 0.3801 3.4395 -6.3363 0.0000 24.7918 0.0000
# 6 0.0000 0.0000 0.0000 -11.1621 0.0000 33.5927
#
#
#
# Elastic Compliance Matrix: (Units=1/GPa)
#
#
# Indices 1 2 3 4 5 6 
#
# 1 0.011083 -0.002076 -0.002544 0.000000 -0.000532 0.000000
# 2 -0.002076 0.008460 -0.003723 0.000000 -0.002094 0.000000
# 3 -0.002544 -0.003723 0.014696 0.000000 0.004312 0.000000
# 4 0.000000 0.000000 0.000000 0.038616 0.000000 0.012831
# 5 -0.000532 -0.002094 0.004312 0.000000 0.041736 0.000000
# 6 0.000000 0.000000 0.000000 0.012831 0.000000 0.034032
#
#
# Mechanical properties :
#
#
# Convention : Reuss Voigt Hill
#
# Bulk Modulus (GPa) = 56.96885 61.24919 59.10902
# Shear Modulus (GPa) = 29.21246 32.83081 31.02164
#
# Velocity S-wave (km/s) = 3.76653 3.99299 3.88141
# Velocity P-wave (km/s) = 6.82510 7.14168 6.98519
#
# Compressibility (1/GPa) = 0.01755345
#
# Stress axis : x y z
#
# Youngs Moduli (GPa) = 90.23160 118.19878 68.04598
#
# Poissons Ratio (x) = 0.24532 0.17310
# Poissons Ratio (y) = 0.18728 0.25336
# Poissons Ratio (z) = 0.22954 0.44010
#
# Static dielectric constant tensor:
#      x y z
#    x 4.109810 0.000000 -0.328840 
#    y 0.000000 4.039230 0.000000 
#    z -0.328840 0.000000 3.624530 
# 
# 
# High freq. dielectric constant tensor:
#      x y z
#    x 1.818510 0.000000 -0.022830 
#    y 0.000000 1.819750 0.000000 
#    z -0.022830 0.000000 1.784350 
# 
# From -- ./inp_files/33798.got.cif
#   From: 2010.06.25/outbox.cif.g09.slc.cpg/sg15_17_cif.got.tgz:33798.got - 2010.06.28 07:06:18.
