data_PCOD8142528
_publ_section_title
;
Structure prediction by ZEFSAII (Michael W. Deem and Ramdas Pophale) SiO2 
 PCOD8142528
Probable space group: C 2/C
;
_chemical_formula_sum "Si O2"
_cell_formula_units_Z 56
_cell_length_a 25.268212
_cell_length_b 18.562880
_cell_length_c 18.339811
_cell_angle_alpha 90.000000
_cell_angle_beta 161.267509
_cell_angle_gamma 90.000000
_cell_volume 2762.630213
_symmetry_space_group_name_H-M "C 2/C"
_symmetry_group_IT_number 15
_symmetry_cell_setting 'monoclinic'
loop_
_space_group_symop_operation_xyz
x,y,z
-x,y,1/2-z
-x,-y,-z
x,-y,1/2+z
1/2+x,1/2+y,z
1/2-x,1/2+y,1/2-z
1/2-x,1/2-y,-z
1/2+x,1/2-y,1/2+z
loop_
_atom_site_type_symbol
_atom_site_label
_atom_site_fract_x
_atom_site_fract_y
_atom_site_fract_z
Si Si1 0.973736 0.937728 0.630973
Si Si2 0.572208 0.716029 0.263846
Si Si3 0.409433 0.928149 0.404542
Si Si4 0.073024 0.711017 0.059861
Si Si5 0.904854 0.086500 0.700437
Si Si6 0.543603 0.276190 0.449729
Si Si7 0.041289 0.625774 0.220912
O O1 0.000000 0.948168 0.750000
O O2 0.071963 0.866294 0.732761
O O3 0.781887 0.929741 0.363912
O O4 0.049424 0.011896 0.697117
O O5 0.500000 0.716156 0.250000
O O6 0.750000 0.750000 0.500000
O O7 0.459209 0.764187 0.064441
O O8 0.503999 0.868778 0.480224
O O9 0.417375 0.911709 0.501610
O O10 0.500000 0.000000 0.500000
O O11 0.267667 0.714127 0.328223
O O12 0.975519 0.761956 0.989148
O O13 0.715262 0.089721 0.430721
O O14 0.000000 0.098215 0.750000
O O15 0.944047 0.151083 0.806340
O O16 0.461563 0.211708 0.295946
O O17 0.000000 0.606941 0.250000
#
# Coordination Sequence:
#
# PCOD8142528 Si02
#       7
#     8   8   8   8   8   8   8
#     4  10  21  39  61  88 120 159 204 251 299 354
#     4  11  22  40  62  85 116 159 204 258 307 349
#     4  11  22  41  65  90 123 164 202 249 305 362
#     4  11  22  38  61  90 118 157 207 249 299 368
#     4  11  21  38  62  89 119 161 204 243 298 368
#     4  11  21  37  60  89 122 158 198 248 301 364
#     4  11  23  39  60  91 127 160 197 250 306 363
#
# _framework density 20.270538999999999
#
# number of rings (size 3 to 8) (size 9 to 14) (size 15 to 20)
#    0.000    1.143    0.000   10.286    0.000    0.000 
#    0.000    7.143    0.000    0.000    0.000    0.000 
#    0.000    0.000    0.000    0.000    0.000    0.000 
#
# Total GULP energy -347200.056199 kJ/mol
# GULP energy per Si atom -12400.002007 kJ/mol
# Density = 2.022440 g / cm^3
# Si number density = 20.270539 Si / 1000 Ang^3
#
#
#
# Elastic Constant Matrix: (Units=GPa)
#
#
# Indices 1 2 3 4 5 6 
#
# 1 90.9884 40.8425 30.3355 -0.0001 -16.6580 -0.0001
# 2 40.8425 171.3409 57.2212 0.0000 -3.7913 0.0000
# 3 30.3355 57.2212 143.4902 0.0002 8.3541 0.0000
# 4 -0.0001 0.0000 0.0002 42.6618 0.0001 1.9803
# 5 -16.6580 -3.7913 8.3541 0.0001 31.9763 0.0000
# 6 -0.0001 0.0000 0.0000 1.9803 0.0000 25.6667
#
#
#
# Elastic Compliance Matrix: (Units=1/GPa)
#
#
# Indices 1 2 3 4 5 6 
#
# 1 0.014351 -0.002401 -0.002534 0.000000 0.007853 0.000000
# 2 -0.002401 0.007208 -0.002380 0.000000 0.000226 0.000000
# 3 -0.002534 -0.002380 0.008679 0.000000 -0.003870 0.000000
# 4 0.000000 0.000000 0.000000 0.023524 0.000000 -0.001815
# 5 0.007853 0.000226 -0.003870 0.000000 0.036402 0.000000
# 6 0.000000 0.000000 0.000000 -0.001815 0.000000 0.039101
#
#
# Mechanical properties :
#
#
# Convention : Reuss Voigt Hill
#
# Bulk Modulus (GPa) = 64.06612 73.62421 68.84517
# Shear Modulus (GPa) = 33.53496 38.55564 36.04530
#
# Velocity S-wave (km/s) = 4.07181 4.36598 4.22146
# Velocity P-wave (km/s) = 7.33350 7.86228 7.60249
#
# Compressibility (1/GPa) = 0.01560887
#
# Stress axis : x y z
#
# Youngs Moduli (GPa) = 69.68373 138.72524 115.21740
#
# Poissons Ratio (x) = 0.33305 0.29193
# Poissons Ratio (y) = 0.16730 0.27424
# Poissons Ratio (z) = 0.17656 0.33019
#
# Static dielectric constant tensor:
#      x y z
#    x 3.459530 0.000000 -0.203040 
#    y 0.000000 4.159870 0.000000 
#    z -0.203040 0.000000 3.554830 
# 
# 
# High freq. dielectric constant tensor:
#      x y z
#    x 1.776920 0.000000 -0.007860 
#    y 0.000000 1.805590 0.000000 
#    z -0.007860 0.000000 1.807640 
# 
# From -- ./inp_files/220209.got.cif
#   From: 2010.06.25/outbox.cif.g09.slc.cpg/sg15_111_cif.got.tgz:220209.got - 2010.06.28 07:06:18.
