data_PCOD8142979
_publ_section_title
;
Structure prediction by ZEFSAII (Michael W. Deem and Ramdas Pophale) SiO2 
 PCOD8142979
Probable space group: C 2/C
;
_chemical_formula_sum "Si O2"
_cell_formula_units_Z 64
_cell_length_a 27.443273
_cell_length_b 11.666974
_cell_length_c 14.182361
_cell_angle_alpha 90.000000
_cell_angle_beta 140.050399
_cell_angle_gamma 90.000000
_cell_volume 2915.778239
_symmetry_space_group_name_H-M "C 2/C"
_symmetry_group_IT_number 15
_symmetry_cell_setting 'monoclinic'
loop_
_space_group_symop_operation_xyz
x,y,z
-x,y,1/2-z
-x,-y,-z
x,-y,1/2+z
1/2+x,1/2+y,z
1/2-x,1/2+y,1/2-z
1/2-x,1/2-y,-z
1/2+x,1/2-y,1/2+z
loop_
_atom_site_type_symbol
_atom_site_label
_atom_site_fract_x
_atom_site_fract_y
_atom_site_fract_z
Si Si1 0.210715 0.421752 0.372533
Si Si2 0.916727 0.775941 0.236695
Si Si3 0.576551 0.928506 0.609268
Si Si4 0.464548 0.239373 0.597832
Si Si5 0.115955 0.212001 0.217552
Si Si6 0.914471 0.176092 0.531430
Si Si7 0.314200 0.470507 0.168182
Si Si8 0.658489 0.435444 0.079222
O O1 0.147629 0.487961 0.219478
O O2 0.175158 0.300028 0.354324
O O3 0.234819 0.498294 0.498993
O O4 0.281673 0.397172 0.410238
O O5 0.919949 0.659073 0.298749
O O6 0.900845 0.744180 0.103074
O O7 0.996752 0.842814 0.360370
O O8 0.851203 0.858282 0.178067
O O9 0.582448 0.865655 0.516712
O O10 0.500000 0.000000 0.500000
O O11 0.500000 0.203211 0.750000
O O12 0.530321 0.265228 0.620635
O O13 0.410134 0.346796 0.525734
O O14 0.132610 0.081111 0.269063
O O15 0.124967 0.231906 0.118337
O O16 0.877331 0.055498 0.503185
O O17 0.301359 0.443758 0.259209
#
# Coordination Sequence:
#
# PCOD8142979 Si02
#       8
#     8   8   8   8   8   8   8   8
#     4  12  26  44  69  99 150 184 236 288 358 430
#     4  11  21  42  72 103 136 185 240 294 357 423
#     4  12  26  51  67  99 144 189 242 291 348 438
#     4  12  25  44  74 103 136 189 239 284 355 420
#     4  11  23  45  69 100 144 182 232 296 351 425
#     4  10  21  39  71 105 135 180 238 297 354 414
#     4  11  23  43  69 103 139 183 234 291 369 411
#     4  11  24  42  69 110 142 177 231 305 356 421
#
# _framework density 21.949541
#
# number of rings (size 3 to 8) (size 9 to 14) (size 15 to 20)
#    0.000    0.750    5.000    1.875    1.750    6.500 
#    4.500    0.000    0.000    0.000    0.000    0.000 
#    0.000    0.000    0.000    0.000    0.000    0.000 
#
# Total GULP energy -396852.259544 kJ/mol
# GULP energy per Si atom -12401.633111 kJ/mol
# Density = 2.189958 g / cm^3
# Si number density = 21.949541 Si / 1000 Ang^3
#
#
#
# Elastic Constant Matrix: (Units=GPa)
#
#
# Indices 1 2 3 4 5 6 
#
# 1 88.7512 30.0005 31.0835 0.0000 -4.1316 0.0000
# 2 30.0005 81.6717 25.9597 0.0000 -2.5534 0.0000
# 3 31.0835 25.9597 106.6568 0.0000 -15.0034 0.0000
# 4 0.0000 0.0000 0.0000 34.3073 0.0000 -3.1354
# 5 -4.1316 -2.5534 -15.0034 0.0000 45.3304 0.0000
# 6 0.0000 0.0000 0.0000 -3.1354 0.0000 16.8889
#
#
#
# Elastic Compliance Matrix: (Units=1/GPa)
#
#
# Indices 1 2 3 4 5 6 
#
# 1 0.013696 -0.004078 -0.002995 0.000000 0.000027 0.000000
# 2 -0.004078 0.014490 -0.002387 0.000000 -0.000346 0.000000
# 3 -0.002995 -0.002387 0.011298 0.000000 0.003332 0.000000
# 4 0.000000 0.000000 0.000000 0.029651 0.000000 0.005505
# 5 0.000027 -0.000346 0.003332 0.000000 0.023146 0.000000
# 6 0.000000 0.000000 0.000000 0.005505 0.000000 0.060233
#
#
# Mechanical properties :
#
#
# Convention : Reuss Voigt Hill
#
# Bulk Modulus (GPa) = 48.62778 50.12968 49.37873
# Shear Modulus (GPa) = 28.04420 31.97438 30.00929
#
# Velocity S-wave (km/s) = 3.57832 3.82084 3.70157
# Velocity P-wave (km/s) = 6.26698 6.50794 6.38859
#
# Compressibility (1/GPa) = 0.02056438
#
# Stress axis : x y z
#
# Youngs Moduli (GPa) = 73.01269 69.01286 88.50786
#
# Poissons Ratio (x) = 0.28145 0.26509
# Poissons Ratio (y) = 0.29776 0.21126
# Poissons Ratio (z) = 0.21868 0.16473
#
# Static dielectric constant tensor:
#      x y z
#    x 3.919530 0.000000 -0.229070 
#    y 0.000000 3.930280 0.000000 
#    z -0.229070 0.000000 4.491300 
# 
# 
# High freq. dielectric constant tensor:
#      x y z
#    x 1.857490 0.000000 -0.012680 
#    y 0.000000 1.859160 0.000000 
#    z -0.012680 0.000000 1.880550 
# 
# From -- ./inp_files/177836.got.cif
#   From: 2010.06.25/outbox.cif.g09.slc.cpg/sg15_89_cif.got.tgz:177836.got - 2010.06.28 07:06:18.
