data_PCOD8142015
_publ_section_title
;
Structure prediction by ZEFSAII (Michael W. Deem and Ramdas Pophale) SiO2 
 PCOD8142015
Probable space group: C 2/C
;
_chemical_formula_sum "Si O2"
_cell_formula_units_Z 56
_cell_length_a 15.314606
_cell_length_b 26.932878
_cell_length_c 11.817462
_cell_angle_alpha 90.000000
_cell_angle_beta 36.306904
_cell_angle_gamma 90.000000
_cell_volume 2886.126834
_symmetry_space_group_name_H-M "C 2/C"
_symmetry_group_IT_number 15
_symmetry_cell_setting 'monoclinic'
loop_
_space_group_symop_operation_xyz
x,y,z
-x,y,1/2-z
-x,-y,-z
x,-y,1/2+z
1/2+x,1/2+y,z
1/2-x,1/2+y,1/2-z
1/2-x,1/2-y,-z
1/2+x,1/2-y,1/2+z
loop_
_atom_site_type_symbol
_atom_site_label
_atom_site_fract_x
_atom_site_fract_y
_atom_site_fract_z
Si Si1 0.183018 0.621076 0.168431
Si Si2 0.116999 0.713085 0.815207
Si Si3 0.221519 0.313784 0.837736
Si Si4 0.908080 0.960588 0.462009
Si Si5 0.870405 0.069741 0.581986
Si Si6 0.342049 0.344749 0.930616
Si Si7 0.650882 0.130784 0.953414
O O1 0.241081 0.661740 0.195314
O O2 0.012796 0.609983 0.366243
O O3 0.258135 0.568243 0.100872
O O4 0.219140 0.641226 0.005280
O O5 0.156900 0.770395 0.787439
O O6 0.221825 0.691411 0.609270
O O7 0.156906 0.684178 0.888084
O O8 0.944118 0.706325 0.966698
O O9 0.269458 0.354755 0.882448
O O10 0.000000 0.962508 0.250000
O O11 0.991337 0.931735 0.476769
O O12 0.851629 0.014874 0.553929
O O13 0.882514 0.106155 0.460867
O O14 0.731945 0.087636 0.799534
O O15 0.500000 0.316914 0.750000
#
# Coordination Sequence:
#
# PCOD8142015 Si02
#       7
#     8   8   8   8   8   8   8
#     4  10  21  38  61  83 118 156 196 242 287 345
#     4  10  22  38  60  85 120 155 197 243 292 347
#     4  11  22  38  58  88 116 156 198 241 293 346
#     4  11  21  37  61  89 118 150 192 242 294 344
#     4  10  22  38  60  89 117 151 194 241 291 346
#     4  11  21  37  59  83 119 155 192 239 291 346
#     4   9  20  41  60  83 118 157 193 241 290 342
#
# _framework density 19.403167
#
# number of rings (size 3 to 8) (size 9 to 14) (size 15 to 20)
#    0.000    1.714    1.429    3.000    0.000    3.429 
#    0.000    0.000    6.286    0.000    0.000    0.000 
#    0.000    0.000    0.000    0.000    0.000    0.000 
#
# Total GULP energy -347027.560757 kJ/mol
# GULP energy per Si atom -12393.841456 kJ/mol
# Density = 1.935900 g / cm^3
# Si number density = 19.403167 Si / 1000 Ang^3
#
#
#
# Elastic Constant Matrix: (Units=GPa)
#
#
# Indices 1 2 3 4 5 6 
#
# 1 153.3661 63.6914 54.7307 -0.0001 22.7581 0.0000
# 2 63.6914 89.4489 44.3243 0.0000 13.8306 0.0000
# 3 54.7307 44.3243 107.2792 -0.0003 10.0148 0.0002
# 4 -0.0001 0.0000 -0.0003 24.0325 0.0001 -6.4516
# 5 22.7581 13.8306 10.0148 0.0001 23.9994 -0.0001
# 6 0.0000 0.0000 0.0002 -6.4516 -0.0001 30.4233
#
#
#
# Elastic Compliance Matrix: (Units=1/GPa)
#
#
# Indices 1 2 3 4 5 6 
#
# 1 0.010522 -0.005281 -0.002641 0.000000 -0.005832 0.000000
# 2 -0.005281 0.017562 -0.004250 0.000000 -0.003339 0.000000
# 3 -0.002641 -0.004250 0.012447 0.000000 -0.000240 0.000000
# 4 0.000000 0.000000 0.000000 0.044122 0.000000 0.009357
# 5 -0.005832 -0.003339 -0.000240 0.000000 0.049222 0.000000
# 6 0.000000 0.000000 0.000000 0.009357 0.000000 0.034854
#
#
# Mechanical properties :
#
#
# Convention : Reuss Voigt Hill
#
# Bulk Modulus (GPa) = 61.78198 75.06523 68.42361
# Shear Modulus (GPa) = 25.19265 28.18088 26.68676
#
# Velocity S-wave (km/s) = 3.60721 3.81515 3.71264
# Velocity P-wave (km/s) = 7.01852 7.62747 7.32932
#
# Compressibility (1/GPa) = 0.01618595
#
# Stress axis : x y z
#
# Youngs Moduli (GPa) = 95.04301 56.93964 80.33767
#
# Poissons Ratio (x) = 0.30071 0.21220
# Poissons Ratio (y) = 0.50195 0.34145
# Poissons Ratio (z) = 0.25104 0.24200
#
# Static dielectric constant tensor:
#      x y z
#    x 3.986110 0.000000 0.207890 
#    y 0.000000 3.315060 0.000000 
#    z 0.207890 0.000000 3.732980 
# 
# 
# High freq. dielectric constant tensor:
#      x y z
#    x 1.774080 0.000000 0.007740 
#    y 0.000000 1.739720 0.000000 
#    z 0.007740 0.000000 1.768310 
# 
# From -- ./inp_files/101110.got.cif
#   From: 2010.06.25/outbox.cif.g09.slc.cpg/sg15_51_cif.got.tgz:101110.got - 2010.06.28 07:06:18.
