data_PCOD8142093
_publ_section_title
;
Structure prediction by ZEFSAII (Michael W. Deem and Ramdas Pophale) SiO2 
 PCOD8142093
Probable space group: C 2/C
;
_chemical_formula_sum "Si O2"
_cell_formula_units_Z 40
_cell_length_a 30.018034
_cell_length_b 9.365183
_cell_length_c 19.999067
_cell_angle_alpha 90.000000
_cell_angle_beta 159.542027
_cell_angle_gamma 90.000000
_cell_volume 1965.081491
_symmetry_space_group_name_H-M "C 2/C"
_symmetry_group_IT_number 15
_symmetry_cell_setting 'monoclinic'
loop_
_space_group_symop_operation_xyz
x,y,z
-x,y,1/2-z
-x,-y,-z
x,-y,1/2+z
1/2+x,1/2+y,z
1/2-x,1/2+y,1/2-z
1/2-x,1/2-y,-z
1/2+x,1/2-y,1/2+z
loop_
_atom_site_type_symbol
_atom_site_label
_atom_site_fract_x
_atom_site_fract_y
_atom_site_fract_z
Si Si1 0.126524 0.169406 0.761888
Si Si2 0.735689 0.849857 0.177050
Si Si3 0.251173 0.117023 0.451867
Si Si4 0.460539 0.103014 0.264027
Si Si5 0.159745 0.858759 0.676961
O O1 0.234999 0.200342 0.858222
O O2 0.135037 0.290988 0.830882
O O3 0.987994 0.183607 0.532896
O O4 0.149643 0.010466 0.825441
O O5 0.746926 0.720603 0.244544
O O6 0.836505 0.973502 0.335519
O O7 0.595501 0.919949 0.990470
O O8 0.250000 0.250000 0.500000
O O9 0.221089 0.175158 0.335356
O O10 0.392261 0.048452 0.654875
O O11 0.500000 0.178147 0.250000
#
# Coordination Sequence:
#
# PCOD8142093 Si02
#       5
#     8   8   8   8   8
#     4  10  22  41  64  84 118 164 204 235 296 364
#     4  10  21  38  62  86 121 155 202 244 292 354
#     4  11  23  40  61  90 126 151 194 256 305 339
#     4  11  21  39  64  88 120 160 201 243 296 356
#     4  10  22  40  60  87 117 161 196 246 293 357
#
# _framework density 20.355388999999999
#
# number of rings (size 3 to 8) (size 9 to 14) (size 15 to 20)
#    0.000    1.600    4.000    3.000    0.000    4.800 
#    3.600    4.000    0.000    0.000    0.000    0.000 
#    0.000    0.000    0.000    0.000    0.000    0.000 
#
# Total GULP energy -247827.772218 kJ/mol
# GULP energy per Si atom -12391.388611 kJ/mol
# Density = 2.030906 g / cm^3
# Si number density = 20.355389 Si / 1000 Ang^3
#
#
#
# Elastic Constant Matrix: (Units=GPa)
#
#
# Indices 1 2 3 4 5 6 
#
# 1 133.6777 90.0730 35.3293 0.0000 4.2476 0.0000
# 2 90.0730 99.7554 22.9044 0.0000 -7.0438 0.0000
# 3 35.3293 22.9044 76.2062 0.0000 10.8290 0.0000
# 4 0.0000 0.0000 0.0000 16.2906 0.0000 5.0994
# 5 4.2476 -7.0438 10.8290 0.0000 30.3594 0.0000
# 6 0.0000 0.0000 0.0000 5.0994 0.0000 41.6826
#
#
#
# Elastic Compliance Matrix: (Units=1/GPa)
#
#
# Indices 1 2 3 4 5 6 
#
# 1 0.021282 -0.018893 -0.003310 0.000000 -0.006180 0.000000
# 2 -0.018893 0.027983 -0.001001 0.000000 0.009493 0.000000
# 3 -0.003310 -0.001001 0.015722 0.000000 -0.005377 0.000000
# 4 0.000000 0.000000 0.000000 0.063829 0.000000 -0.007809
# 5 -0.006180 0.009493 -0.005377 0.000000 0.037924 0.000000
# 6 0.000000 0.000000 0.000000 -0.007809 0.000000 0.024946
#
#
# Mechanical properties :
#
#
# Convention : Reuss Voigt Hill
#
# Bulk Modulus (GPa) = 53.82047 67.36142 60.59095
# Shear Modulus (GPa) = 20.46783 28.42204 24.44493
#
# Velocity S-wave (km/s) = 3.17444 3.74075 3.46917
# Velocity P-wave (km/s) = 6.31933 7.19876 6.77333
#
# Compressibility (1/GPa) = 0.01858029
#
# Stress axis : x y z
#
# Youngs Moduli (GPa) = 46.98871 35.73539 63.60682
#
# Poissons Ratio (x) = 0.67513 0.21052
# Poissons Ratio (y) = 0.88774 0.06367
# Poissons Ratio (z) = 0.15552 0.03577
#
# Static dielectric constant tensor:
#      x y z
#    x 3.774430 0.000000 0.064870 
#    y 0.000000 3.537600 0.000000 
#    z 0.064870 0.000000 3.882840 
# 
# 
# High freq. dielectric constant tensor:
#      x y z
#    x 1.789290 0.000000 0.001610 
#    y 0.000000 1.772060 0.000000 
#    z 0.001610 0.000000 1.817730 
# 
# From -- ./inp_files/258917.got.cif
#   From: 2010.06.25/outbox.cif.g09.slc.cpg/sg15_130_cif.got.tgz:258917.got - 2010.06.28 07:06:18.
