data_PCOD8142457
_publ_section_title
;
Structure prediction by ZEFSAII (Michael W. Deem and Ramdas Pophale) SiO2 
 PCOD8142457
Probable space group: C 2/C
;
_chemical_formula_sum "Si O2"
_cell_formula_units_Z 60
_cell_length_a 19.161317
_cell_length_b 17.954573
_cell_length_c 17.716181
_cell_angle_alpha 90.000000
_cell_angle_beta 152.398887
_cell_angle_gamma 90.000000
_cell_volume 2823.873683
_symmetry_space_group_name_H-M "C 2/C"
_symmetry_group_IT_number 15
_symmetry_cell_setting 'monoclinic'
loop_
_space_group_symop_operation_xyz
x,y,z
-x,y,1/2-z
-x,-y,-z
x,-y,1/2+z
1/2+x,1/2+y,z
1/2-x,1/2+y,1/2-z
1/2-x,1/2-y,-z
1/2+x,1/2-y,1/2+z
loop_
_atom_site_type_symbol
_atom_site_label
_atom_site_fract_x
_atom_site_fract_y
_atom_site_fract_z
Si Si1 0.548810 0.349770 0.492783
Si Si2 0.030381 0.172943 0.418523
Si Si3 0.481722 0.972227 0.318570
Si Si4 0.139181 0.612079 0.438538
Si Si5 0.627714 0.828538 0.215718
Si Si6 0.234833 0.287543 0.159907
Si Si7 0.821390 0.043091 0.496853
Si Si8 0.500000 0.419538 0.750000
O O1 0.518681 0.369806 0.551498
O O2 0.413610 0.298851 0.331451
O O3 0.701143 0.300683 0.632082
O O4 0.564598 0.424342 0.457187
O O5 0.973124 0.257198 0.362329
O O6 0.213347 0.171546 0.586095
O O7 0.947094 0.132871 0.268598
O O8 0.500000 0.944692 0.250000
O O9 0.479237 0.899329 0.368532
O O10 0.614399 0.033297 0.460537
O O11 0.329162 0.017645 0.189454
O O12 0.160649 0.680921 0.513517
O O13 0.288097 0.605227 0.528890
O O14 0.000000 0.627802 0.250000
O O15 0.661496 0.831146 0.159530
O O16 0.874167 0.970551 0.592218
#
# Coordination Sequence:
#
# PCOD8142457 Si02
#       8
#     8   8   8   8   8   8   8   4
#     4  10  23  42  63  91 127 166 205 259 304 369
#     4  10  24  40  63  92 126 162 208 258 306 371
#     4   9  20  38  62  85 126 162 200 258 309 357
#     4   9  21  39  60  89 122 163 205 261 304 368
#     4  10  21  43  61  92 124 167 206 257 308 371
#     4  10  22  40  63  91 125 163 216 248 311 371
#     4  10  21  39  59  87 128 156 205 257 310 359
#     4  12  22  38  62  92 120 160 212 252 310 364
#
# _framework density 21.247409000000001
#
# number of rings (size 3 to 8) (size 9 to 14) (size 15 to 20)
#    0.000    2.400    1.333    0.800    4.667    4.267 
#    3.600    0.000    0.000    0.000    0.000    0.000 
#    0.000    0.000    0.000    0.000    0.000    0.000 
#
# Total GULP energy -371778.815501 kJ/mol
# GULP energy per Si atom -12392.627183 kJ/mol
# Density = 2.119905 g / cm^3
# Si number density = 21.247409 Si / 1000 Ang^3
#
#
#
# Elastic Constant Matrix: (Units=GPa)
#
#
# Indices 1 2 3 4 5 6 
#
# 1 90.8482 40.5308 37.3070 0.0002 -10.1220 -0.0003
# 2 40.5308 55.6934 22.2339 -0.0041 -12.6810 -0.0051
# 3 37.3070 22.2339 50.5576 -0.0082 -3.2659 -0.0098
# 4 0.0002 -0.0041 -0.0082 28.3190 -0.0017 -3.1418
# 5 -10.1220 -12.6810 -3.2659 -0.0017 31.0557 -0.0017
# 6 -0.0003 -0.0051 -0.0098 -3.1418 -0.0017 39.2039
#
#
#
# Elastic Compliance Matrix: (Units=1/GPa)
#
#
# Indices 1 2 3 4 5 6 
#
# 1 0.019791 -0.010087 -0.010086 -0.000005 0.001271 -0.000004
# 2 -0.010087 0.029055 -0.004813 0.000004 0.008070 0.000003
# 3 -0.010086 -0.004813 0.029198 0.000008 -0.002182 0.000007
# 4 -0.000005 0.000004 0.000008 0.035629 0.000003 0.002855
# 5 0.001271 0.008070 -0.002182 0.000003 0.035680 0.000002
# 6 -0.000004 0.000003 0.000007 0.002855 0.000002 0.025736
#
#
# Mechanical properties :
#
#
# Convention : Reuss Voigt Hill
#
# Bulk Modulus (GPa) = 35.62277 44.13807 39.88042
# Shear Modulus (GPa) = 21.32935 26.18422 23.75679
#
# Velocity S-wave (km/s) = 3.17181 3.51429 3.34743
# Velocity P-wave (km/s) = 5.49690 6.10618 5.80953
#
# Compressibility (1/GPa) = 0.02807193
#
# Stress axis : x y z
#
# Youngs Moduli (GPa) = 50.52818 34.41714 34.24938
#
# Poissons Ratio (x) = 0.34716 0.34543
# Poissons Ratio (y) = 0.50968 0.16485
# Poissons Ratio (z) = 0.50962 0.16565
#
# Static dielectric constant tensor:
#      x y z
#    x 4.030660 0.000000 0.022150 
#    y 0.000000 3.738890 0.000000 
#    z 0.022150 0.000000 3.737660 
# 
# 
# High freq. dielectric constant tensor:
#      x y z
#    x 1.835150 0.000000 0.006510 
#    y 0.000000 1.826040 0.000000 
#    z 0.006510 0.000000 1.817870 
# 
# From -- ./inp_files/211766.got.cif
#   From: 2010.06.25/outbox.cif.g09.slc.cpg/sg15_106_cif.got.tgz:211766.got - 2010.06.28 07:06:18.
