data_PCOD8142903
_publ_section_title
;
Structure prediction by ZEFSAII (Michael W. Deem and Ramdas Pophale) SiO2 
 PCOD8142903
Probable space group: C 2/C
;
_chemical_formula_sum "Si O2"
_cell_formula_units_Z 56
_cell_length_a 14.101976
_cell_length_b 9.799770
_cell_length_c 21.514477
_cell_angle_alpha 90.000000
_cell_angle_beta 114.829812
_cell_angle_gamma 90.000000
_cell_volume 2698.370415
_symmetry_space_group_name_H-M "C 2/C"
_symmetry_group_IT_number 15
_symmetry_cell_setting 'monoclinic'
loop_
_space_group_symop_operation_xyz
x,y,z
-x,y,1/2-z
-x,-y,-z
x,-y,1/2+z
1/2+x,1/2+y,z
1/2-x,1/2+y,1/2-z
1/2-x,1/2-y,-z
1/2+x,1/2-y,1/2+z
loop_
_atom_site_type_symbol
_atom_site_label
_atom_site_fract_x
_atom_site_fract_y
_atom_site_fract_z
Si Si1 0.503576 0.937837 0.407329
Si Si2 0.412188 0.203810 0.771594
Si Si3 0.792541 0.579807 0.080809
Si Si4 0.703716 0.616587 0.651536
Si Si5 0.631350 0.641650 0.937172
Si Si6 0.953414 0.292683 0.960678
Si Si7 0.970646 0.986986 0.309368
O O1 0.416643 0.884488 0.335395
O O2 0.535945 0.815069 0.462620
O O3 0.606195 0.986435 0.399470
O O4 0.446264 0.059891 0.426834
O O5 0.500000 0.144983 0.750000
O O6 0.301021 0.194486 0.707939
O O7 0.436952 0.358220 0.795496
O O8 0.734829 0.527194 0.127469
O O9 0.822006 0.740057 0.095222
O O10 0.721428 0.563526 0.999626
O O11 0.652392 0.711236 0.584167
O O12 0.622953 0.597782 0.685669
O O13 0.554600 0.710281 0.966125
O O14 0.573440 0.528092 0.880327
O O15 0.000000 0.925790 0.250000
#
# Coordination Sequence:
#
# PCOD8142903 Si02
#       7
#     8   8   8   8   8   8   8
#     4  10  21  41  61  89 128 170 198 272 312 371
#     4  11  24  42  60  91 130 166 214 259 318 387
#     4  10  21  39  67  93 123 161 208 266 311 382
#     4  11  24  41  65  96 121 172 218 259 320 382
#     4   9  21  43  63  95 121 159 218 256 317 381
#     4   9  22  40  62  92 124 161 219 256 315 377
#     4  10  25  44  61  89 130 166 206 268 318 377
#
# _framework density 20.753267000000001
#
# number of rings (size 3 to 8) (size 9 to 14) (size 15 to 20)
#    0.000    2.000    1.429    0.000    6.000    5.143 
#   10.286    0.000    0.000    0.000    0.000    0.000 
#    0.000    0.000    0.000    0.000    0.000    0.000 
#
# Total GULP energy -347244.239613 kJ/mol
# GULP energy per Si atom -12401.579986 kJ/mol
# Density = 2.070603 g / cm^3
# Si number density = 20.753267 Si / 1000 Ang^3
#
#
#
# Elastic Constant Matrix: (Units=GPa)
#
#
# Indices 1 2 3 4 5 6 
#
# 1 76.5280 22.6999 31.2629 0.0000 8.1838 0.0000
# 2 22.6999 74.7618 45.1035 0.0000 7.2680 0.0000
# 3 31.2629 45.1035 91.0652 0.0000 11.9452 0.0000
# 4 0.0000 0.0000 0.0000 36.9173 0.0000 3.4814
# 5 8.1838 7.2680 11.9452 0.0000 41.3031 0.0000
# 6 0.0000 0.0000 0.0000 3.4814 0.0000 20.7229
#
#
#
# Elastic Compliance Matrix: (Units=1/GPa)
#
#
# Indices 1 2 3 4 5 6 
#
# 1 0.015523 -0.002097 -0.004090 0.000000 -0.001524 0.000000
# 2 -0.002097 0.019376 -0.008818 0.000000 -0.000444 0.000000
# 3 -0.004090 -0.008818 0.017092 0.000000 -0.002581 0.000000
# 4 0.000000 0.000000 0.000000 0.027524 0.000000 -0.004624
# 5 -0.001524 -0.000444 -0.002581 0.000000 0.025338 0.000000
# 6 0.000000 0.000000 0.000000 -0.004624 0.000000 0.049033
#
#
# Mechanical properties :
#
#
# Convention : Reuss Voigt Hill
#
# Bulk Modulus (GPa) = 45.49982 48.94307 47.22144
# Shear Modulus (GPa) = 26.14748 29.34124 27.74436
#
# Velocity S-wave (km/s) = 3.55339 3.76415 3.66029
# Velocity P-wave (km/s) = 6.22954 6.52122 6.37705
#
# Compressibility (1/GPa) = 0.02197811
#
# Stress axis : x y z
#
# Youngs Moduli (GPa) = 64.41966 51.61061 58.50834
#
# Poissons Ratio (x) = 0.10825 0.23933
# Poissons Ratio (y) = 0.13511 0.51595
# Poissons Ratio (z) = 0.26351 0.45512
#
# Static dielectric constant tensor:
#      x y z
#    x 3.802050 0.000000 -0.036420 
#    y 0.000000 3.626720 0.000000 
#    z -0.036420 0.000000 3.861530 
# 
# 
# High freq. dielectric constant tensor:
#      x y z
#    x 1.812710 0.000000 0.005210 
#    y 0.000000 1.804420 0.000000 
#    z 0.005210 0.000000 1.817650 
# 
# From -- ./inp_files/204535.got.cif
#   From: 2010.06.25/outbox.cif.g09.slc.cpg/sg15_103_cif.got.tgz:204535.got - 2010.06.28 07:06:18.
