data_PCOD8142368
_publ_section_title
;
Structure prediction by ZEFSAII (Michael W. Deem and Ramdas Pophale) SiO2 
 PCOD8142368
Probable space group: C 2/C
;
_chemical_formula_sum "Si O2"
_cell_formula_units_Z 40
_cell_length_a 16.060029
_cell_length_b 8.560973
_cell_length_c 14.747238
_cell_angle_alpha 90.000000
_cell_angle_beta 71.649854
_cell_angle_gamma 90.000000
_cell_volume 1924.487669
_symmetry_space_group_name_H-M "C 2/C"
_symmetry_group_IT_number 15
_symmetry_cell_setting 'monoclinic'
loop_
_space_group_symop_operation_xyz
x,y,z
-x,y,1/2-z
-x,-y,-z
x,-y,1/2+z
1/2+x,1/2+y,z
1/2-x,1/2+y,1/2-z
1/2-x,1/2-y,-z
1/2+x,1/2-y,1/2+z
loop_
_atom_site_type_symbol
_atom_site_label
_atom_site_fract_x
_atom_site_fract_y
_atom_site_fract_z
Si Si1 0.284191 0.317402 0.847903
Si Si2 0.157454 0.706955 0.076351
Si Si3 0.010006 0.163097 0.949519
Si Si4 0.124672 0.363240 0.032687
Si Si5 0.168135 0.136692 0.759313
O O1 0.358418 0.254737 0.890111
O O2 0.252197 0.178569 0.792651
O O3 0.323322 0.460136 0.777802
O O4 0.203196 0.376116 0.934700
O O5 0.117641 0.534779 0.076519
O O6 0.164927 0.737628 0.180256
O O7 0.086652 0.817758 0.055666
O O8 0.250000 0.750000 0.000000
O O9 0.078851 0.153001 0.844915
O O10 0.037710 0.300719 0.010936
O O11 0.000000 0.000000 0.000000
#
# Coordination Sequence:
#
# PCOD8142368 Si02
#       5
#     8   8   8   8   8
#     4  10  21  38  67  97 126 172 215 275 322 400
#     4  12  24  42  68  96 132 177 221 273 339 392
#     4  11  26  43  67  96 137 175 221 277 331 397
#     4  10  22  42  65  94 133 168 220 270 336 391
#     4  11  23  40  66  98 134 170 227 267 335 397
#
# _framework density 20.784752999999998
#
# number of rings (size 3 to 8) (size 9 to 14) (size 15 to 20)
#    0.000    1.200    2.000    3.600    8.400    0.000 
#    0.000    4.000    0.000    0.000    0.000    0.000 
#    0.000    0.000    0.000    0.000    0.000    0.000 
#
# Total GULP energy -248004.729746 kJ/mol
# GULP energy per Si atom -12400.236487 kJ/mol
# Density = 2.073745 g / cm^3
# Si number density = 20.784753 Si / 1000 Ang^3
#
#
#
# Elastic Constant Matrix: (Units=GPa)
#
#
# Indices 1 2 3 4 5 6 
#
# 1 106.2625 9.2964 52.6429 0.0000 1.8137 0.0000
# 2 9.2964 91.2376 42.2560 0.0000 -15.0276 0.0000
# 3 52.6429 42.2560 125.0715 0.0000 2.7118 0.0000
# 4 0.0000 0.0000 0.0000 44.9390 0.0000 9.3591
# 5 1.8137 -15.0276 2.7118 0.0000 21.0675 0.0000
# 6 0.0000 0.0000 0.0000 9.3591 0.0000 30.0243
#
#
#
# Elastic Compliance Matrix: (Units=1/GPa)
#
#
# Indices 1 2 3 4 5 6 
#
# 1 0.012033 0.001480 -0.005581 0.000000 0.000738 0.000000
# 2 0.001480 0.015600 -0.006149 0.000000 0.011791 0.000000
# 3 -0.005581 -0.006149 0.012542 0.000000 -0.005520 0.000000
# 4 0.000000 0.000000 0.000000 0.023797 0.000000 -0.007418
# 5 0.000738 0.011791 -0.005520 0.000000 0.056524 0.000000
# 6 0.000000 0.000000 0.000000 -0.007418 0.000000 0.035619
#
#
# Mechanical properties :
#
#
# Convention : Reuss Voigt Hill
#
# Bulk Modulus (GPa) = 50.82580 58.99580 54.91080
# Shear Modulus (GPa) = 27.29655 33.76457 30.53056
#
# Velocity S-wave (km/s) = 3.62788 4.03487 3.83677
# Velocity P-wave (km/s) = 6.48499 7.08185 6.78998
#
# Compressibility (1/GPa) = 0.01967505
#
# Stress axis : x y z
#
# Youngs Moduli (GPa) = 83.10192 64.10402 79.73399
#
# Poissons Ratio (x) = -0.09489 0.44500
# Poissons Ratio (y) = -0.12302 0.49030
# Poissons Ratio (z) = 0.46380 0.39419
#
# Static dielectric constant tensor:
#      x y z
#    x 3.942980 0.000000 0.309860 
#    y 0.000000 3.760530 0.000000 
#    z 0.309860 0.000000 3.863310 
# 
# 
# High freq. dielectric constant tensor:
#      x y z
#    x 1.817770 0.000000 0.019570 
#    y 0.000000 1.824620 0.000000 
#    z 0.019570 0.000000 1.820110 
# 
# From -- ./inp_files/150581.got.cif
#   From: 2010.06.25/outbox.cif.g09.slc.cpg/sg15_76_cif.got.tgz:150581.got - 2010.06.28 07:06:18.
