data_PCOD8142016
_publ_section_title
;
Structure prediction by ZEFSAII (Michael W. Deem and Ramdas Pophale) SiO2 
 PCOD8142016
Probable space group: C 2/C
;
_chemical_formula_sum "Si O2"
_cell_formula_units_Z 36
_cell_length_a 23.777006
_cell_length_b 15.703752
_cell_length_c 5.088504
_cell_angle_alpha 90.000000
_cell_angle_beta 98.695100
_cell_angle_gamma 90.000000
_cell_volume 1878.150479
_symmetry_space_group_name_H-M "C 2/C"
_symmetry_group_IT_number 15
_symmetry_cell_setting 'monoclinic'
loop_
_space_group_symop_operation_xyz
x,y,z
-x,y,1/2-z
-x,-y,-z
x,-y,1/2+z
1/2+x,1/2+y,z
1/2-x,1/2+y,1/2-z
1/2-x,1/2-y,-z
1/2+x,1/2-y,1/2+z
loop_
_atom_site_type_symbol
_atom_site_label
_atom_site_fract_x
_atom_site_fract_y
_atom_site_fract_z
Si Si1 0.000000 0.940950 0.250000
Si Si2 0.279833 0.307890 0.243389
Si Si3 0.601485 0.688655 0.857927
Si Si4 0.813074 0.441008 0.187223
Si Si5 0.871107 0.279210 0.109929
O O1 0.055820 0.883795 0.282963
O O2 0.000000 0.000000 0.500000
O O3 0.335478 0.349935 0.142626
O O4 0.244137 0.386612 0.325902
O O5 0.304634 0.251307 0.508385
O O6 0.250000 0.250000 0.000000
O O7 0.593328 0.765204 0.635055
O O8 0.596430 0.725531 0.146191
O O9 0.816278 0.502906 0.432574
O O10 0.866991 0.376639 0.204905
#
# Coordination Sequence:
#
# PCOD8142016 Si02
#       5
#     4   8   8   8   8
#     4  12  26  46  64  98 132 154 214 274 302 354
#     4  10  21  38  61  83 128 165 212 244 300 387
#     4  10  23  38  67  79 119 173 203 244 310 362
#     4  12  23  32  54  89 123 152 192 255 306 351
#     4  10  21  40  58  82 116 169 206 243 301 389
#
# _framework density 19.167791999999999
#
# number of rings (size 3 to 8) (size 9 to 14) (size 15 to 20)
#    1.333    0.000    2.222    4.667    3.111    1.778 
#    0.000    0.000    0.000    0.000    0.000   15.556 
#    0.000    0.000    0.000    0.000    0.000    0.000 
#
# Total GULP energy -223023.855484 kJ/mol
# GULP energy per Si atom -12390.214194 kJ/mol
# Density = 1.912417 g / cm^3
# Si number density = 19.167792 Si / 1000 Ang^3
#
#
#
# Elastic Constant Matrix: (Units=GPa)
#
#
# Indices 1 2 3 4 5 6 
#
# 1 86.0286 58.0912 39.3643 0.0000 6.2088 0.0000
# 2 58.0912 131.9132 74.7886 0.0000 1.4201 0.0000
# 3 39.3643 74.7886 168.7518 0.0000 -10.5872 0.0000
# 4 0.0000 0.0000 0.0000 47.3603 0.0000 -8.3880
# 5 6.2088 1.4201 -10.5872 0.0000 25.7655 0.0000
# 6 0.0000 0.0000 0.0000 -8.3880 0.0000 42.9837
#
#
#
# Elastic Compliance Matrix: (Units=1/GPa)
#
#
# Indices 1 2 3 4 5 6 
#
# 1 0.017070 -0.006761 -0.001252 0.000000 -0.004255 0.000000
# 2 -0.006761 0.012958 -0.004217 0.000000 -0.000818 0.000000
# 3 -0.001252 -0.004217 0.008335 0.000000 0.003959 0.000000
# 4 0.000000 0.000000 0.000000 0.021871 0.000000 0.004268
# 5 -0.004255 -0.000818 0.003959 0.000000 0.041509 0.000000
# 6 0.000000 0.000000 0.000000 0.004268 0.000000 0.024097
#
#
# Mechanical properties :
#
#
# Convention : Reuss Voigt Hill
#
# Bulk Modulus (GPa) = 71.93226 81.24242 76.58734
# Shear Modulus (GPa) = 32.27169 37.51853 34.89511
#
# Velocity S-wave (km/s) = 4.10767 4.42902 4.27137
# Velocity P-wave (km/s) = 7.75283 8.28443 8.02304
#
# Compressibility (1/GPa) = 0.01390197
#
# Stress axis : x y z
#
# Youngs Moduli (GPa) = 58.58318 77.17368 119.97302
#
# Poissons Ratio (x) = 0.52179 0.15024
# Poissons Ratio (y) = 0.39610 0.50591
# Poissons Ratio (z) = 0.07336 0.32543
#
# Static dielectric constant tensor:
#      x y z
#    x 3.369220 0.000000 -0.175600 
#    y 0.000000 3.509280 0.000000 
#    z -0.175600 0.000000 3.666510 
# 
# 
# High freq. dielectric constant tensor:
#      x y z
#    x 1.722680 0.000000 -0.019500 
#    y 0.000000 1.734370 0.000000 
#    z -0.019500 0.000000 1.767770 
# 
# From -- ./inp_files/16811.got.cif
#   From: 2010.06.25/outbox.cif.g09.slc.cpg/sg15_9_cif.got.tgz:16811.got - 2010.06.28 07:06:18.
