data_PCOD8142674
_publ_section_title
;
Structure prediction by ZEFSAII (Michael W. Deem and Ramdas Pophale) SiO2 
 PCOD8142674
Probable space group: C 2/C
;
_chemical_formula_sum "Si O2"
_cell_formula_units_Z 48
_cell_length_a 24.865478
_cell_length_b 12.445507
_cell_length_c 14.439520
_cell_angle_alpha 90.000000
_cell_angle_beta 150.532230
_cell_angle_gamma 90.000000
_cell_volume 2198.208613
_symmetry_space_group_name_H-M "C 2/C"
_symmetry_group_IT_number 15
_symmetry_cell_setting 'monoclinic'
loop_
_space_group_symop_operation_xyz
x,y,z
-x,y,1/2-z
-x,-y,-z
x,-y,1/2+z
1/2+x,1/2+y,z
1/2-x,1/2+y,1/2-z
1/2-x,1/2-y,-z
1/2+x,1/2-y,1/2+z
loop_
_atom_site_type_symbol
_atom_site_label
_atom_site_fract_x
_atom_site_fract_y
_atom_site_fract_z
Si Si1 0.761782 0.052914 0.613090
Si Si2 0.415188 0.252344 0.395151
Si Si3 0.463429 0.127867 0.294821
Si Si4 0.156066 0.526444 0.134183
Si Si5 0.419447 0.225533 0.710100
Si Si6 0.256531 0.593103 0.954066
O O1 0.830385 0.151480 0.755366
O O2 0.661525 0.093620 0.399871
O O3 0.722646 0.977412 0.638348
O O4 0.824480 0.979862 0.630651
O O5 0.469862 0.223943 0.378538
O O6 0.510663 0.289091 0.607564
O O7 0.357324 0.148858 0.354463
O O8 0.500000 0.173204 0.250000
O O9 0.538254 0.029419 0.442705
O O10 0.228006 0.466370 0.317575
O O11 0.500000 0.180638 0.750000
O O12 0.331728 0.307630 0.535754
O O13 0.355764 0.127533 0.662407
#
# Coordination Sequence:
#
# PCOD8142674 Si02
#       6
#     8   8   8   8   8   8
#     4  11  24  39  65  96 126 164 210 267 319 377
#     4  12  22  41  66  93 126 162 211 262 320 374
#     4  10  21  39  63  93 121 160 213 262 307 371
#     4  11  22  41  66  90 122 167 215 263 313 375
#     4  11  24  42  67  94 126 174 216 257 311 384
#     4  11  23  43  64  94 132 164 213 265 316 375
#
# _framework density 21.835961999999999
#
# number of rings (size 3 to 8) (size 9 to 14) (size 15 to 20)
#    0.000    1.000    3.333    4.000    0.000    3.333 
#    0.000    0.833    0.000    0.000    0.000    0.000 
#    0.000    0.000    0.000    0.000    0.000    0.000 
#
# Total GULP energy -297575.628754 kJ/mol
# GULP energy per Si atom -12398.984531 kJ/mol
# Density = 2.178626 g / cm^3
# Si number density = 21.835962 Si / 1000 Ang^3
#
#
#
# Elastic Constant Matrix: (Units=GPa)
#
#
# Indices 1 2 3 4 5 6 
#
# 1 70.4176 -11.0897 2.6795 0.0000 -15.5961 0.0000
# 2 -11.0897 38.4375 20.9368 0.0000 7.3075 0.0000
# 3 2.6795 20.9368 93.5099 0.0000 -18.2611 0.0000
# 4 0.0000 0.0000 0.0000 35.8861 0.0000 -8.0620
# 5 -15.5961 7.3075 -18.2611 0.0000 32.2075 0.0000
# 6 0.0000 0.0000 0.0000 -8.0620 0.0000 18.7459
#
#
#
# Elastic Compliance Matrix: (Units=1/GPa)
#
#
# Indices 1 2 3 4 5 6 
#
# 1 0.016313 0.003178 0.000250 0.000000 0.007320 0.000000
# 2 0.003178 0.034848 -0.010275 0.000000 -0.012193 0.000000
# 3 0.000250 -0.010275 0.015143 0.000000 0.011038 0.000000
# 4 0.000000 0.000000 0.000000 0.030846 0.000000 0.013266
# 5 0.007320 -0.012193 0.011038 0.000000 0.043619 0.000000
# 6 0.000000 0.000000 0.000000 0.013266 0.000000 0.059050
#
#
# Mechanical properties :
#
#
# Convention : Reuss Voigt Hill
#
# Bulk Modulus (GPa) = 19.00675 25.26869 22.13772
# Shear Modulus (GPa) = 21.64052 30.02379 25.83215
#
# Velocity S-wave (km/s) = 3.15151 3.71208 3.44322
# Velocity P-wave (km/s) = 4.68678 5.47448 5.09587
#
# Compressibility (1/GPa) = 0.05261287
#
# Stress axis : x y z
#
# Youngs Moduli (GPa) = 61.29941 28.69614 66.03716
#
# Poissons Ratio (x) = -0.09121 -0.01654
# Poissons Ratio (y) = -0.19484 0.67851
# Poissons Ratio (z) = -0.01535 0.29484
#
# Static dielectric constant tensor:
#      x y z
#    x 4.063620 0.000000 -0.260590 
#    y 0.000000 3.677080 0.000000 
#    z -0.260590 0.000000 4.095680 
# 
# 
# High freq. dielectric constant tensor:
#      x y z
#    x 1.863400 0.000000 -0.027190 
#    y 0.000000 1.842130 0.000000 
#    z -0.027190 0.000000 1.865880 
# 
# From -- ./inp_files/152461.got.cif
#   From: 2010.06.25/outbox.cif.g09.slc.cpg/sg15_77_cif.got.tgz:152461.got - 2010.06.28 07:06:18.
