data_PCOD8142153
_publ_section_title
;
Structure prediction by ZEFSAII (Michael W. Deem and Ramdas Pophale) SiO2 
 PCOD8142153
Probable space group: C 2/C
;
_chemical_formula_sum "Si O2"
_cell_formula_units_Z 44
_cell_length_a 18.490537
_cell_length_b 12.265135
_cell_length_c 11.462441
_cell_angle_alpha 90.000000
_cell_angle_beta 56.475653
_cell_angle_gamma 90.000000
_cell_volume 2167.121968
_symmetry_space_group_name_H-M "C 2/C"
_symmetry_group_IT_number 15
_symmetry_cell_setting 'monoclinic'
loop_
_space_group_symop_operation_xyz
x,y,z
-x,y,1/2-z
-x,-y,-z
x,-y,1/2+z
1/2+x,1/2+y,z
1/2-x,1/2+y,1/2-z
1/2-x,1/2-y,-z
1/2+x,1/2-y,1/2+z
loop_
_atom_site_type_symbol
_atom_site_label
_atom_site_fract_x
_atom_site_fract_y
_atom_site_fract_z
Si Si1 0.500000 0.713113 0.250000
Si Si2 0.744509 0.919931 0.488755
Si Si3 0.979338 0.667792 0.545229
Si Si4 0.317562 0.271433 0.607220
Si Si5 0.426638 0.034438 0.220428
Si Si6 0.803546 0.161279 0.376464
O O1 0.471338 0.781505 0.388551
O O2 0.408534 0.652936 0.302868
O O3 0.732340 0.838366 0.390278
O O4 0.813726 0.867924 0.515724
O O5 0.656928 0.926680 0.639232
O O6 0.770470 0.039467 0.425718
O O7 0.920001 0.752057 0.528445
O O8 0.914701 0.574346 0.653805
O O9 0.051099 0.628386 0.391381
O O10 0.279721 0.307813 0.765331
O O11 0.500000 0.012984 0.250000
O O12 0.750000 0.250000 0.500000
#
# Coordination Sequence:
#
# PCOD8142153 Si02
#       6
#     4   8   8   8   8   8
#     4  10  22  44  60  98 128 172 216 260 328 394
#     4  11  24  43  65  98 131 173 222 266 335 390
#     4  10  21  38  62  95 128 169 217 268 331 376
#     4  10  24  43  65  95 132 172 219 274 326 395
#     4  11  21  35  66  93 131 167 218 280 317 378
#     4  11  26  42  71  95 134 176 222 273 327 395
#
# _framework density 20.303424
#
# number of rings (size 3 to 8) (size 9 to 14) (size 15 to 20)
#    0.000    1.455    2.727    2.182    7.636    0.000 
#    0.000    7.273    0.000    0.000    0.000    0.000 
#    0.000    0.000    0.000    0.000    0.000    0.000 
#
# Total GULP energy -272635.179230 kJ/mol
# GULP energy per Si atom -12392.508147 kJ/mol
# Density = 2.025721 g / cm^3
# Si number density = 20.303424 Si / 1000 Ang^3
#
#
#
# Elastic Constant Matrix: (Units=GPa)
#
#
# Indices 1 2 3 4 5 6 
#
# 1 110.4411 49.8686 56.4660 0.0000 16.9666 0.0000
# 2 49.8686 143.1675 67.5257 0.0000 15.2612 0.0000
# 3 56.4660 67.5257 117.0111 0.0000 25.9286 0.0000
# 4 0.0000 0.0000 0.0000 20.9722 0.0000 5.7218
# 5 16.9666 15.2612 25.9286 0.0000 27.9334 0.0000
# 6 0.0000 0.0000 0.0000 5.7218 0.0000 28.8084
#
#
#
# Elastic Compliance Matrix: (Units=1/GPa)
#
#
# Indices 1 2 3 4 5 6 
#
# 1 0.012586 -0.002080 -0.004319 0.000000 -0.002499 0.000000
# 2 -0.002080 0.009941 -0.004796 0.000000 0.000284 0.000000
# 3 -0.004319 -0.004796 0.015405 0.000000 -0.009055 0.000000
# 4 0.000000 0.000000 0.000000 0.050414 0.000000 -0.010013
# 5 -0.002499 0.000284 -0.009055 0.000000 0.045567 0.000000
# 6 0.000000 0.000000 0.000000 -0.010013 0.000000 0.036701
#
#
# Mechanical properties :
#
#
# Convention : Reuss Voigt Hill
#
# Bulk Modulus (GPa) = 64.34698 79.81557 72.08128
# Shear Modulus (GPa) = 25.22871 28.66010 26.94440
#
# Velocity S-wave (km/s) = 3.52885 3.76119 3.64687
# Velocity P-wave (km/s) = 6.95451 7.63274 7.30151
#
# Compressibility (1/GPa) = 0.01554074
#
# Stress axis : x y z
#
# Youngs Moduli (GPa) = 79.45126 100.59089 64.91413
#
# Poissons Ratio (x) = 0.20927 0.28040
# Poissons Ratio (y) = 0.16529 0.31133
# Poissons Ratio (z) = 0.34319 0.48243
#
# Static dielectric constant tensor:
#      x y z
#    x 3.540310 0.000000 0.367290 
#    y 0.000000 3.705910 0.000000 
#    z 0.367290 0.000000 3.765470 
# 
# 
# High freq. dielectric constant tensor:
#      x y z
#    x 1.803180 0.000000 0.022610 
#    y 0.000000 1.784410 0.000000 
#    z 0.022610 0.000000 1.798450 
# 
# From -- ./inp_files/104115.got.cif
#   From: 2010.06.25/outbox.cif.g09.slc.cpg/sg15_53_cif.got.tgz:104115.got - 2010.06.28 07:06:18.
