data_PCOD8142522
_publ_section_title
;
Structure prediction by ZEFSAII (Michael W. Deem and Ramdas Pophale) SiO2 
 PCOD8142522
Probable space group: C 2/C
;
_chemical_formula_sum "Si O2"
_cell_formula_units_Z 48
_cell_length_a 8.845186
_cell_length_b 14.827630
_cell_length_c 20.381374
_cell_angle_alpha 90.000000
_cell_angle_beta 64.300321
_cell_angle_gamma 90.000000
_cell_volume 2408.658635
_symmetry_space_group_name_H-M "C 2/C"
_symmetry_group_IT_number 15
_symmetry_cell_setting 'monoclinic'
loop_
_space_group_symop_operation_xyz
x,y,z
-x,y,1/2-z
-x,-y,-z
x,-y,1/2+z
1/2+x,1/2+y,z
1/2-x,1/2+y,1/2-z
1/2-x,1/2-y,-z
1/2+x,1/2-y,1/2+z
loop_
_atom_site_type_symbol
_atom_site_label
_atom_site_fract_x
_atom_site_fract_y
_atom_site_fract_z
Si Si1 0.555275 0.574628 0.040432
Si Si2 0.690764 0.242265 0.205001
Si Si3 0.118018 0.418063 0.290965
Si Si4 0.731731 0.319718 0.946935
Si Si5 0.119451 0.069236 0.287978
Si Si6 0.400894 0.991200 0.451910
O O1 0.465546 0.665865 0.032695
O O2 0.493449 0.552885 0.126018
O O3 0.500000 0.500000 0.000000
O O4 0.755770 0.581649 0.997001
O O5 0.500000 0.270884 0.250000
O O6 0.817922 0.318254 0.205808
O O7 0.687481 0.230849 0.128404
O O8 0.744997 0.148986 0.229327
O O9 0.279409 0.478759 0.246229
O O10 0.000000 0.415566 0.250000
O O11 0.016634 0.454611 0.372327
O O12 0.824837 0.413287 0.944556
O O13 0.750000 0.250000 0.000000
O O14 0.000000 0.093768 0.250000
O O15 0.500000 0.000000 0.500000
#
# Coordination Sequence:
#
# PCOD8142522 Si02
#       6
#     8   8   8   8   8   8
#     4   9  20  38  60  84 117 156 195 243 301 359
#     4  11  24  41  61  88 122 162 207 257 311 367
#     4  12  24  40  62  91 125 164 207 257 310 371
#     4  10  21  39  61  87 120 158 204 256 306 366
#     4  11  22  41  64  91 121 159 205 258 311 368
#     4  11  22  39  62  91 123 161 205 255 312 373
#
# _framework density 19.928103
#
# number of rings (size 3 to 8) (size 9 to 14) (size 15 to 20)
#    0.000    1.333    0.000    7.500    0.000    5.333 
#    0.000    9.167    0.000    0.000    0.000    0.000 
#    0.000    0.000    0.000    0.000    0.000    0.000 
#
# Total GULP energy -297508.295869 kJ/mol
# GULP energy per Si atom -12396.178995 kJ/mol
# Density = 1.988275 g / cm^3
# Si number density = 19.928103 Si / 1000 Ang^3
#
#
#
# Elastic Constant Matrix: (Units=GPa)
#
#
# Indices 1 2 3 4 5 6 
#
# 1 119.8987 20.2301 70.3858 0.0000 13.0737 -0.0001
# 2 20.2301 78.2518 41.6266 0.0000 0.8605 0.0000
# 3 70.3858 41.6266 158.6901 0.0000 15.2256 0.0000
# 4 0.0000 0.0000 0.0000 28.1859 0.0000 8.0242
# 5 13.0737 0.8605 15.2256 0.0000 38.0291 0.0000
# 6 -0.0001 0.0000 0.0000 8.0242 0.0000 34.6030
#
#
#
# Elastic Compliance Matrix: (Units=1/GPa)
#
#
# Indices 1 2 3 4 5 6 
#
# 1 0.011428 -0.000393 -0.004773 0.000000 -0.002009 0.000000
# 2 -0.000393 0.014925 -0.003870 0.000000 0.001347 0.000000
# 3 -0.004773 -0.003870 0.009638 0.000000 -0.002130 0.000000
# 4 0.000000 0.000000 0.000000 0.037987 0.000000 -0.008809
# 5 -0.002009 0.001347 -0.002130 0.000000 0.027809 0.000000
# 6 0.000000 0.000000 0.000000 -0.008809 0.000000 0.030942
#
#
# Mechanical properties :
#
#
# Convention : Reuss Voigt Hill
#
# Bulk Modulus (GPa) = 55.80762 69.03617 62.42189
# Shear Modulus (GPa) = 31.89348 35.13679 33.51514
#
# Velocity S-wave (km/s) = 4.00487 4.20358 4.10543
# Velocity P-wave (km/s) = 7.03211 7.63400 7.33923
#
# Compressibility (1/GPa) = 0.01791870
#
# Stress axis : x y z
#
# Youngs Moduli (GPa) = 87.50765 67.00321 103.75640
#
# Poissons Ratio (x) = 0.02636 0.49520
# Poissons Ratio (y) = 0.03442 0.40151
# Poissons Ratio (z) = 0.41765 0.25928
#
# Static dielectric constant tensor:
#      x y z
#    x 4.142290 0.000000 -0.098820 
#    y 0.000000 3.593240 0.000000 
#    z -0.098820 0.000000 3.851710 
# 
# 
# High freq. dielectric constant tensor:
#      x y z
#    x 1.796360 0.000000 0.007060 
#    y 0.000000 1.772320 0.000000 
#    z 0.007060 0.000000 1.796130 
# 
# From -- ./inp_files/231052.got.cif
#   From: 2010.06.25/outbox.cif.g09.slc.cpg/sg15_116_cif.got.tgz:231052.got - 2010.06.28 07:06:18.
