data_PCOD8142861
_publ_section_title
;
Structure prediction by ZEFSAII (Michael W. Deem and Ramdas Pophale) SiO2 
 PCOD8142861
Probable space group: C 2/C
;
_chemical_formula_sum "Si O2"
_cell_formula_units_Z 56
_cell_length_a 14.602621
_cell_length_b 21.208236
_cell_length_c 13.906442
_cell_angle_alpha 90.000000
_cell_angle_beta 139.856776
_cell_angle_gamma 90.000000
_cell_volume 2776.574940
_symmetry_space_group_name_H-M "C 2/C"
_symmetry_group_IT_number 15
_symmetry_cell_setting 'monoclinic'
loop_
_space_group_symop_operation_xyz
x,y,z
-x,y,1/2-z
-x,-y,-z
x,-y,1/2+z
1/2+x,1/2+y,z
1/2-x,1/2+y,1/2-z
1/2-x,1/2-y,-z
1/2+x,1/2-y,1/2+z
loop_
_atom_site_type_symbol
_atom_site_label
_atom_site_fract_x
_atom_site_fract_y
_atom_site_fract_z
Si Si1 0.969751 0.700399 0.011588
Si Si2 0.523566 0.113646 0.657782
Si Si3 0.356531 0.887745 0.578799
Si Si4 0.867492 0.065535 0.349532
Si Si5 0.232449 0.523946 0.052541
Si Si6 0.254288 0.687138 0.336676
Si Si7 0.185522 0.053097 0.583092
O O1 0.885827 0.647555 0.002942
O O2 0.111075 0.719628 0.183620
O O3 0.005512 0.673793 0.933822
O O4 0.880637 0.763736 0.933926
O O5 0.500000 0.133961 0.750000
O O6 0.684347 0.091073 0.765114
O O7 0.420836 0.055110 0.547910
O O8 0.500000 0.905704 0.750000
O O9 0.278621 0.951294 0.485702
O O10 0.260064 0.841907 0.567679
O O11 0.786388 0.131325 0.287309
O O12 0.034809 0.079179 0.499373
O O13 0.839133 0.029987 0.226882
O O14 0.805194 0.021149 0.383564
O O15 0.304199 0.561696 0.022907
#
# Coordination Sequence:
#
# PCOD8142861 Si02
#       7
#     8   8   8   8   8   8   8
#     4  11  24  42  64  89 126 172 220 254 309 372
#     4  10  22  39  65  93 122 163 215 264 313 376
#     4  10  21  39  66  96 126 163 207 266 321 379
#     4  11  22  38  60  90 129 165 198 260 326 377
#     4  11  20  38  65  96 125 158 206 265 325 380
#     4  11  24  43  63  91 127 171 214 260 307 379
#     4  10  22  37  59  92 129 155 199 262 328 379
#
# _framework density 20.168734000000001
#
# number of rings (size 3 to 8) (size 9 to 14) (size 15 to 20)
#    0.000    1.429    2.857    3.000    4.000    1.143 
#    0.000    2.143    0.000    0.000    0.000    0.000 
#    0.000    0.000    0.000    0.000    0.000    0.000 
#
# Total GULP energy -347266.580421 kJ/mol
# GULP energy per Si atom -12402.377872 kJ/mol
# Density = 2.012283 g / cm^3
# Si number density = 20.168734 Si / 1000 Ang^3
#
#
#
# Elastic Constant Matrix: (Units=GPa)
#
#
# Indices 1 2 3 4 5 6 
#
# 1 79.4154 36.6244 36.8729 0.0000 -1.4437 0.0000
# 2 36.6244 83.2051 41.4043 0.0000 1.0165 0.0000
# 3 36.8729 41.4043 92.5067 0.0000 0.5024 0.0000
# 4 0.0000 0.0000 0.0000 27.3373 0.0000 4.2117
# 5 -1.4437 1.0165 0.5024 0.0000 27.4573 0.0000
# 6 0.0000 0.0000 0.0000 4.2117 0.0000 32.4577
#
#
#
# Elastic Compliance Matrix: (Units=1/GPa)
#
#
# Indices 1 2 3 4 5 6 
#
# 1 0.017144 -0.005348 -0.004446 0.000000 0.001181 0.000000
# 2 -0.005348 0.017136 -0.005534 0.000000 -0.000814 0.000000
# 3 -0.004446 -0.005534 0.015061 0.000000 -0.000304 0.000000
# 4 0.000000 0.000000 0.000000 0.037326 0.000000 -0.004843
# 5 0.001181 -0.000814 -0.000304 0.000000 0.036518 0.000000
# 6 0.000000 0.000000 0.000000 -0.004843 0.000000 0.031438
#
#
# Mechanical properties :
#
#
# Convention : Reuss Voigt Hill
#
# Bulk Modulus (GPa) = 53.51923 53.88114 53.70019
# Shear Modulus (GPa) = 26.10852 26.79882 26.45367
#
# Velocity S-wave (km/s) = 3.60183 3.64913 3.62556
# Velocity P-wave (km/s) = 6.62502 6.67293 6.64902
#
# Compressibility (1/GPa) = 0.01868487
#
# Stress axis : x y z
#
# Youngs Moduli (GPa) = 58.32791 58.35584 66.39784
#
# Poissons Ratio (x) = 0.31211 0.29523
# Poissons Ratio (y) = 0.31196 0.36742
# Poissons Ratio (z) = 0.25935 0.32292
#
# Static dielectric constant tensor:
#      x y z
#    x 3.741840 0.000000 -0.036950 
#    y 0.000000 3.360030 0.000000 
#    z -0.036950 0.000000 3.648820 
# 
# 
# High freq. dielectric constant tensor:
#      x y z
#    x 1.796480 0.000000 -0.001940 
#    y 0.000000 1.766770 0.000000 
#    z -0.001940 0.000000 1.791280 
# 
# From -- ./inp_files/156237.got.cif
#   From: 2010.06.25/outbox.cif.g09.slc.cpg/sg15_79_cif.got.tgz:156237.got - 2010.06.28 07:06:18.
