data_PCOD8142533
_publ_section_title
;
Structure prediction by ZEFSAII (Michael W. Deem and Ramdas Pophale) SiO2 
 PCOD8142533
Probable space group: C 2/C
;
_chemical_formula_sum "Si O2"
_cell_formula_units_Z 48
_cell_length_a 22.261829
_cell_length_b 8.832478
_cell_length_c 11.374482
_cell_angle_alpha 90.000000
_cell_angle_beta 94.783139
_cell_angle_gamma 90.000000
_cell_volume 2228.742725
_symmetry_space_group_name_H-M "C 2/C"
_symmetry_group_IT_number 15
_symmetry_cell_setting 'monoclinic'
loop_
_space_group_symop_operation_xyz
x,y,z
-x,y,1/2-z
-x,-y,-z
x,-y,1/2+z
1/2+x,1/2+y,z
1/2-x,1/2+y,1/2-z
1/2-x,1/2-y,-z
1/2+x,1/2-y,1/2+z
loop_
_atom_site_type_symbol
_atom_site_label
_atom_site_fract_x
_atom_site_fract_y
_atom_site_fract_z
Si Si1 0.016341 0.925966 0.380116
Si Si2 0.212418 0.305616 0.384752
Si Si3 0.448517 0.122622 0.319981
Si Si4 0.856388 0.495469 0.470552
Si Si5 0.864562 0.781541 0.127708
Si Si6 0.236866 0.994901 0.301444
O O1 0.984276 0.763691 0.379604
O O2 0.000000 0.005996 0.250000
O O3 0.088256 0.912275 0.396718
O O4 0.000000 0.000000 0.500000
O O5 0.250000 0.250000 0.500000
O O6 0.150524 0.380819 0.424193
O O7 0.249807 0.441597 0.329164
O O8 0.202148 0.158701 0.298202
O O9 0.500000 0.034670 0.250000
O O10 0.390340 0.180592 0.238635
O O11 0.421268 0.018536 0.418391
O O12 0.854448 0.324654 0.514512
O O13 0.800937 0.514297 0.373618
O O14 0.802058 0.862179 0.146797
#
# Coordination Sequence:
#
# PCOD8142533 Si02
#       6
#     8   8   8   8   8   8
#     4   9  21  42  64  90 122 167 211 267 325 384
#     4  10  22  37  59  84 125 167 205 253 308 378
#     4   9  21  40  64  86 125 169 207 269 328 373
#     4  11  21  38  61  95 124 163 215 253 319 388
#     4  10  21  39  61  88 126 167 203 269 318 374
#     4  11  22  39  58  92 130 168 206 257 319 381
#
# _framework density 21.536805000000001
#
# number of rings (size 3 to 8) (size 9 to 14) (size 15 to 20)
#    0.000    2.333    0.000    4.500    2.333    4.000 
#    9.000    2.500    0.000    0.000    0.000    0.000 
#    0.000    0.000    0.000    0.000    0.000    0.000 
#
# Total GULP energy -297320.971305 kJ/mol
# GULP energy per Si atom -12388.373804 kJ/mol
# Density = 2.148779 g / cm^3
# Si number density = 21.536805 Si / 1000 Ang^3
#
#
#
# Elastic Constant Matrix: (Units=GPa)
#
#
# Indices 1 2 3 4 5 6 
#
# 1 111.8981 34.3859 45.2535 0.0000 -38.0876 0.0000
# 2 34.3859 69.7625 50.4819 0.0000 -25.1491 0.0000
# 3 45.2535 50.4819 123.7840 0.0000 -40.2492 0.0000
# 4 0.0000 0.0000 0.0000 38.3477 0.0000 -14.2169
# 5 -38.0876 -25.1491 -40.2492 0.0000 44.9071 0.0000
# 6 0.0000 0.0000 0.0000 -14.2169 0.0000 26.7983
#
#
#
# Elastic Compliance Matrix: (Units=1/GPa)
#
#
# Indices 1 2 3 4 5 6 
#
# 1 0.013115 -0.002668 -0.000812 0.000000 0.008901 0.000000
# 2 -0.002668 0.021921 -0.006645 0.000000 0.004058 0.000000
# 3 -0.000812 -0.006645 0.013621 0.000000 0.007798 0.000000
# 4 0.000000 0.000000 0.000000 0.032462 0.000000 0.017221
# 5 0.008901 0.004058 0.007798 0.000000 0.039079 0.000000
# 6 0.000000 0.000000 0.000000 0.017221 0.000000 0.046452
#
#
# Mechanical properties :
#
#
# Convention : Reuss Voigt Hill
#
# Bulk Modulus (GPa) = 35.20339 62.85414 49.02876
# Shear Modulus (GPa) = 25.46239 33.69885 29.58062
#
# Velocity S-wave (km/s) = 3.44215 3.95993 3.71009
# Velocity P-wave (km/s) = 5.67266 7.08209 6.41619
#
# Compressibility (1/GPa) = 0.02840636
#
# Stress axis : x y z
#
# Youngs Moduli (GPa) = 76.25020 45.61937 73.41550
#
# Poissons Ratio (x) = 0.12169 0.05964
# Poissons Ratio (y) = 0.20340 0.48785
# Poissons Ratio (z) = 0.06195 0.30314
#
# Static dielectric constant tensor:
#      x y z
#    x 4.145630 0.000000 -0.402850 
#    y 0.000000 3.620890 0.000000 
#    z -0.402850 0.000000 4.146840 
# 
# 
# High freq. dielectric constant tensor:
#      x y z
#    x 1.844600 0.000000 -0.021480 
#    y 0.000000 1.827580 0.000000 
#    z -0.021480 0.000000 1.847750 
# 
# From -- ./inp_files/116365.got.cif
#   From: 2010.06.25/outbox.cif.g09.slc.cpg/sg15_59_cif.got.tgz:116365.got - 2010.06.28 07:06:18.
