data_PCOD8142694
_publ_section_title
;
Structure prediction by ZEFSAII (Michael W. Deem and Ramdas Pophale) SiO2 
 PCOD8142694
Probable space group: C 2/C
;
_chemical_formula_sum "Si O2"
_cell_formula_units_Z 64
_cell_length_a 9.037753
_cell_length_b 20.726733
_cell_length_c 14.757463
_cell_angle_alpha 90.000000
_cell_angle_beta 77.841198
_cell_angle_gamma 90.000000
_cell_volume 2702.401167
_symmetry_space_group_name_H-M "C 2/C"
_symmetry_group_IT_number 15
_symmetry_cell_setting 'monoclinic'
loop_
_space_group_symop_operation_xyz
x,y,z
-x,y,1/2-z
-x,-y,-z
x,-y,1/2+z
1/2+x,1/2+y,z
1/2-x,1/2+y,1/2-z
1/2-x,1/2-y,-z
1/2+x,1/2-y,1/2+z
loop_
_atom_site_type_symbol
_atom_site_label
_atom_site_fract_x
_atom_site_fract_y
_atom_site_fract_z
Si Si1 0.167599 0.329804 0.687618
Si Si2 0.518308 0.168893 0.595541
Si Si3 0.180059 0.858563 0.150833
Si Si4 0.545281 0.747822 0.554611
Si Si5 0.260270 0.277067 0.197017
Si Si6 0.140617 0.998472 0.176961
Si Si7 0.166125 0.526212 0.191207
Si Si8 0.853160 0.458311 0.492937
O O1 0.148054 0.303163 0.588323
O O2 0.280523 0.284562 0.733183
O O3 0.235704 0.401720 0.673293
O O4 0.000000 0.327203 0.750000
O O5 0.362002 0.133412 0.639587
O O6 0.468550 0.234233 0.549126
O O7 0.611060 0.190001 0.673225
O O8 0.612049 0.117781 0.522022
O O9 0.129016 0.819073 0.067806
O O10 0.137579 0.824756 0.252287
O O11 0.098491 0.927285 0.146686
O O12 0.369605 0.746245 0.604159
O O13 0.216984 0.961078 0.584813
O O14 0.000000 0.031972 0.250000
O O15 0.260386 0.984862 0.239603
O O16 0.199526 0.487514 0.095490
O O17 0.000000 0.534578 0.250000
O O18 0.000000 0.500000 0.500000
#
# Coordination Sequence:
#
# PCOD8142694 Si02
#       8
#     8   8   8   8   8   8   8   8
#     4   8  18  35  65  91 133 176 230 271 348 427
#     4  12  23  38  68 101 137 169 234 298 354 416
#     4  11  22  42  66  92 132 180 239 277 349 436
#     4  10  21  39  63  95 130 180 220 284 352 419
#     4  10  21  39  63  98 130 179 220 292 352 410
#     4  12  27  46  70 102 143 187 238 302 366 421
#     4  11  21  41  72 102 135 189 236 290 357 425
#     4  12  24  43  72 108 138 181 244 294 351 432
#
# _framework density 23.682642999999999
#
# number of rings (size 3 to 8) (size 9 to 14) (size 15 to 20)
#    0.000    1.250    2.500    4.500    3.500    0.500 
#    0.000    2.500    0.000    0.000    0.000    0.000 
#    0.000    0.000    0.000    0.000    0.000    0.000 
#
# Total GULP energy -396427.407562 kJ/mol
# GULP energy per Si atom -12388.356486 kJ/mol
# Density = 2.362874 g / cm^3
# Si number density = 23.682643 Si / 1000 Ang^3
#
#
#
# Elastic Constant Matrix: (Units=GPa)
#
#
# Indices 1 2 3 4 5 6 
#
# 1 70.5823 23.9369 39.3312 0.0000 -4.0716 0.0000
# 2 23.9369 85.8732 27.5525 0.0000 11.1313 0.0000
# 3 39.3312 27.5525 115.0535 0.0000 0.2496 0.0000
# 4 0.0000 0.0000 0.0000 32.5707 0.0000 1.2291
# 5 -4.0716 11.1313 0.2496 0.0000 43.3442 0.0000
# 6 0.0000 0.0000 0.0000 1.2291 0.0000 23.0585
#
#
#
# Elastic Compliance Matrix: (Units=1/GPa)
#
#
# Indices 1 2 3 4 5 6 
#
# 1 0.018670 -0.003805 -0.005477 0.000000 0.002762 0.000000
# 2 -0.003805 0.013856 -0.002009 0.000000 -0.003904 0.000000
# 3 -0.005477 -0.002009 0.011045 0.000000 -0.000062 0.000000
# 4 0.000000 0.000000 0.000000 0.030764 0.000000 -0.001640
# 5 0.002762 -0.003904 -0.000062 0.000000 0.024334 0.000000
# 6 0.000000 0.000000 0.000000 -0.001640 0.000000 0.043455
#
#
# Mechanical properties :
#
#
# Convention : Reuss Voigt Hill
#
# Bulk Modulus (GPa) = 47.64359 50.35003 48.99681
# Shear Modulus (GPa) = 29.12007 31.84058 30.48033
#
# Velocity S-wave (km/s) = 3.51036 3.67068 3.59142
# Velocity P-wave (km/s) = 6.04908 6.26671 6.15886
#
# Compressibility (1/GPa) = 0.02098918
#
# Stress axis : x y z
#
# Youngs Moduli (GPa) = 53.56302 72.16883 90.53699
#
# Poissons Ratio (x) = 0.27459 0.49588
# Poissons Ratio (y) = 0.20380 0.18190
# Poissons Ratio (z) = 0.29337 0.14499
#
# Static dielectric constant tensor:
#      x y z
#    x 4.075490 0.000000 -0.053450 
#    y 0.000000 4.334450 0.000000 
#    z -0.053450 0.000000 4.291290 
# 
# 
# High freq. dielectric constant tensor:
#      x y z
#    x 1.926240 0.000000 -0.006090 
#    y 0.000000 1.930070 0.000000 
#    z -0.006090 0.000000 1.941630 
# 
# From -- ./inp_files/192999.got.cif
#   From: 2010.06.25/outbox.cif.g09.slc.cpg/sg15_97_cif.got.tgz:192999.got - 2010.06.28 07:06:18.
