data_PCOD8142809
_publ_section_title
;
Structure prediction by ZEFSAII (Michael W. Deem and Ramdas Pophale) SiO2 
 PCOD8142809
Probable space group: C 2/C
;
_chemical_formula_sum "Si O2"
_cell_formula_units_Z 56
_cell_length_a 16.846230
_cell_length_b 27.694836
_cell_length_c 9.139890
_cell_angle_alpha 90.000000
_cell_angle_beta 141.762155
_cell_angle_gamma 90.000000
_cell_volume 2639.259879
_symmetry_space_group_name_H-M "C 2/C"
_symmetry_group_IT_number 15
_symmetry_cell_setting 'monoclinic'
loop_
_space_group_symop_operation_xyz
x,y,z
-x,y,1/2-z
-x,-y,-z
x,-y,1/2+z
1/2+x,1/2+y,z
1/2-x,1/2+y,1/2-z
1/2-x,1/2-y,-z
1/2+x,1/2-y,1/2+z
loop_
_atom_site_type_symbol
_atom_site_label
_atom_site_fract_x
_atom_site_fract_y
_atom_site_fract_z
Si Si1 0.258082 0.301827 0.081464
Si Si2 0.942025 0.317202 0.476914
Si Si3 0.364252 0.458837 0.977976
Si Si4 0.758036 0.845954 0.541327
Si Si5 0.871541 0.054429 0.146636
Si Si6 0.499916 0.721175 0.414199
Si Si7 0.814299 0.629862 0.251746
O O1 0.119184 0.316557 0.949208
O O2 0.368507 0.307769 0.363105
O O3 0.250000 0.250000 0.000000
O O4 0.284419 0.338963 0.988369
O O5 0.004903 0.265041 0.536729
O O6 0.039877 0.362385 0.597261
O O7 0.825224 0.317115 0.193970
O O8 0.500000 0.443961 0.250000
O O9 0.314358 0.509731 0.970799
O O10 0.392392 0.461623 0.845337
O O11 0.244234 0.423771 0.838332
O O12 0.781472 0.899062 0.508822
O O13 0.678153 0.850457 0.573741
O O14 0.885948 0.816872 0.768871
O O15 0.000000 0.070209 0.250000
O O16 0.500000 0.741701 0.250000
#
# Coordination Sequence:
#
# PCOD8142809 Si02
#       7
#     8   8   8   8   8   8   8
#     4  12  26  42  63  93 131 169 219 272 319 379
#     4  12  25  43  64  90 134 175 215 262 319 395
#     4  10  22  40  65  95 128 168 211 274 330 384
#     4  11  24  41  67  94 125 175 216 268 316 392
#     4  10  21  39  65  97 128 161 217 273 328 378
#     4  12  24  41  65  93 126 172 225 261 321 380
#     4  11  25  41  63  94 132 170 210 263 330 388
#
# _framework density 21.218069
#
# number of rings (size 3 to 8) (size 9 to 14) (size 15 to 20)
#    0.000    0.857    2.857    5.143    4.000    2.286 
#    0.000    0.714    0.000    1.714    0.000    0.000 
#    0.000    0.000    0.000    0.000    0.000    0.000 
#
# Total GULP energy -347082.625630 kJ/mol
# GULP energy per Si atom -12395.808058 kJ/mol
# Density = 2.116978 g / cm^3
# Si number density = 21.218069 Si / 1000 Ang^3
#
#
#
# Elastic Constant Matrix: (Units=GPa)
#
#
# Indices 1 2 3 4 5 6 
#
# 1 128.6579 46.0568 28.2116 0.0000 -4.4408 0.0000
# 2 46.0568 77.8041 15.3075 0.0000 4.9680 0.0000
# 3 28.2116 15.3075 69.4653 0.0000 10.8269 0.0000
# 4 0.0000 0.0000 0.0000 14.2487 0.0000 -7.0819
# 5 -4.4408 4.9680 10.8269 0.0000 43.0229 0.0000
# 6 0.0000 0.0000 0.0000 -7.0819 0.0000 32.5559
#
#
#
# Elastic Compliance Matrix: (Units=1/GPa)
#
#
# Indices 1 2 3 4 5 6 
#
# 1 0.010713 -0.005826 -0.003481 0.000000 0.002655 0.000000
# 2 -0.005826 0.016633 -0.000943 0.000000 -0.002285 0.000000
# 3 -0.003481 -0.000943 0.016712 0.000000 -0.004456 0.000000
# 4 0.000000 0.000000 0.000000 0.078690 0.000000 0.017117
# 5 0.002655 -0.002285 -0.004456 0.000000 0.024903 0.000000
# 6 0.000000 0.000000 0.000000 0.017117 0.000000 0.034440
#
#
# Mechanical properties :
#
#
# Convention : Reuss Voigt Hill
#
# Bulk Modulus (GPa) = 42.44883 50.56433 46.50658
# Shear Modulus (GPa) = 23.75943 30.38893 27.07418
#
# Velocity S-wave (km/s) = 3.34993 3.78857 3.57598
# Velocity P-wave (km/s) = 5.91711 6.55898 6.24629
#
# Compressibility (1/GPa) = 0.02355778
#
# Stress axis : x y z
#
# Youngs Moduli (GPa) = 93.34331 60.12069 59.83876
#
# Poissons Ratio (x) = 0.35029 0.20828
# Poissons Ratio (y) = 0.54386 0.05643
# Poissons Ratio (z) = 0.32490 0.05669
#
# Static dielectric constant tensor:
#      x y z
#    x 2.546940 0.000000 1.957140 
#    y 0.000000 3.801790 0.000000 
#    z 1.957140 0.000000 1.074430 
# 
# 
# High freq. dielectric constant tensor:
#      x y z
#    x 1.844880 0.000000 -0.015060 
#    y 0.000000 1.817470 0.000000 
#    z -0.015060 0.000000 1.844520 
# 
# From -- ./inp_files/52349.got.cif
#   From: 2010.06.25/outbox.cif.g09.slc.cpg/sg15_27_cif.got.tgz:52349.got - 2010.06.28 07:06:18.
