data_PCOD8142464
_publ_section_title
;
Structure prediction by ZEFSAII (Michael W. Deem and Ramdas Pophale) SiO2 
 PCOD8142464
Probable space group: C 2/C
;
_chemical_formula_sum "Si O2"
_cell_formula_units_Z 60
_cell_length_a 29.067931
_cell_length_b 8.282811
_cell_length_c 23.386477
_cell_angle_alpha 90.000000
_cell_angle_beta 148.958340
_cell_angle_gamma 90.000000
_cell_volume 2903.495258
_symmetry_space_group_name_H-M "C 2/C"
_symmetry_group_IT_number 15
_symmetry_cell_setting 'monoclinic'
loop_
_space_group_symop_operation_xyz
x,y,z
-x,y,1/2-z
-x,-y,-z
x,-y,1/2+z
1/2+x,1/2+y,z
1/2-x,1/2+y,1/2-z
1/2-x,1/2-y,-z
1/2+x,1/2-y,1/2+z
loop_
_atom_site_type_symbol
_atom_site_label
_atom_site_fract_x
_atom_site_fract_y
_atom_site_fract_z
Si Si1 0.357834 0.892907 0.707749
Si Si2 0.913780 0.553187 0.878169
Si Si3 0.500000 0.600073 0.250000
Si Si4 0.689946 0.358931 0.606370
Si Si5 0.254642 0.557444 0.740445
Si Si6 0.161114 0.288665 0.372038
Si Si7 0.625616 0.377154 0.715779
Si Si8 0.997493 0.885592 0.355783
O O1 0.257392 0.855885 0.623781
O O2 0.418394 0.739660 0.753969
O O3 0.415611 0.976665 0.817890
O O4 0.349432 0.017220 0.645734
O O5 0.837682 0.476847 0.837159
O O6 0.907579 0.746410 0.865499
O O7 0.000000 0.500000 0.000000
O O8 0.581702 0.718049 0.324935
O O9 0.524701 0.487004 0.329344
O O10 0.685278 0.530983 0.636952
O O11 0.730115 0.240293 0.697833
O O12 0.590186 0.309951 0.478908
O O13 0.293416 0.476615 0.725185
O O14 0.250000 0.250000 0.500000
O O15 0.165103 0.204899 0.314437
O O16 0.543093 0.495662 0.639796
#
# Coordination Sequence:
#
# PCOD8142464 Si02
#       8
#     8   8   4   8   8   8   8   8
#     4  10  22  39  62  95 128 156 219 265 304 400
#     4  10  21  39  59  92 130 171 212 255 313 379
#     4  10  24  46  64  94 124 162 224 268 326 404
#     4  11  23  39  63  94 130 173 206 257 321 377
#     4  11  21  39  59  92 132 164 213 250 306 392
#     4  10  22  46  66  88 125 166 212 272 330 377
#     4  10  22  41  62  91 126 169 213 265 318 389
#     4  11  23  43  66  93 128 166 216 275 331 368
#
# _framework density 20.664747999999999
#
# number of rings (size 3 to 8) (size 9 to 14) (size 15 to 20)
#    0.000    1.600    2.667    1.600    0.000    3.200 
#   12.000    2.000    0.000    0.000    0.000    0.000 
#    0.000    0.000    0.000    0.000    0.000    0.000 
#
# Total GULP energy -371727.223563 kJ/mol
# GULP energy per Si atom -12390.907452 kJ/mol
# Density = 2.061771 g / cm^3
# Si number density = 20.664748 Si / 1000 Ang^3
#
#
#
# Elastic Constant Matrix: (Units=GPa)
#
#
# Indices 1 2 3 4 5 6 
#
# 1 129.9091 51.1844 48.7107 0.0000 12.4627 0.0000
# 2 51.1844 90.5221 55.4954 0.0000 5.8916 0.0000
# 3 48.7107 55.4954 135.8811 0.0000 16.3053 0.0000
# 4 0.0000 0.0000 0.0000 28.8117 0.0000 -2.2303
# 5 12.4627 5.8916 16.3053 0.0000 18.5596 0.0000
# 6 0.0000 0.0000 0.0000 -2.2303 0.0000 40.9858
#
#
#
# Elastic Compliance Matrix: (Units=1/GPa)
#
#
# Indices 1 2 3 4 5 6 
#
# 1 0.010516 -0.004899 -0.001239 0.000000 -0.004418 0.000000
# 2 -0.004899 0.017027 -0.005527 0.000000 0.002740 0.000000
# 3 -0.001239 -0.005527 0.010899 0.000000 -0.006989 0.000000
# 4 0.000000 0.000000 0.000000 0.034855 0.000000 0.001897
# 5 -0.004418 0.002740 -0.006989 0.000000 0.062118 0.000000
# 6 0.000000 0.000000 0.000000 0.001897 0.000000 0.024502
#
#
# Mechanical properties :
#
#
# Convention : Reuss Voigt Hill
#
# Bulk Modulus (GPa) = 66.16673 74.12147 70.14410
# Shear Modulus (GPa) = 26.55560 31.06621 28.81091
#
# Velocity S-wave (km/s) = 3.58867 3.88150 3.73796
# Velocity P-wave (km/s) = 7.01855 7.48562 7.25585
#
# Compressibility (1/GPa) = 0.01511334
#
# Stress axis : x y z
#
# Youngs Moduli (GPa) = 95.08974 58.73026 91.74957
#
# Poissons Ratio (x) = 0.28774 0.11366
# Poissons Ratio (y) = 0.46587 0.50705
# Poissons Ratio (z) = 0.11780 0.32457
#
# Static dielectric constant tensor:
#      x y z
#    x 3.774100 0.000000 0.011000 
#    y 0.000000 3.302290 0.000000 
#    z 0.011000 0.000000 3.386610 
# 
# 
# High freq. dielectric constant tensor:
#      x y z
#    x 1.821320 0.000000 0.011090 
#    y 0.000000 1.809920 0.000000 
#    z 0.011090 0.000000 1.794230 
# 
# From -- ./inp_files/284334.got.cif
#   From: 2010.06.25/outbox.cif.g09.slc.cpg/sg15_143_cif.got.tgz:284334.got - 2010.06.28 07:06:18.
