data_PCOD8142127
_publ_section_title
;
Structure prediction by ZEFSAII (Michael W. Deem and Ramdas Pophale) SiO2 
 PCOD8142127
Probable space group: C 2/C
;
_chemical_formula_sum "Si O2"
_cell_formula_units_Z 64
_cell_length_a 25.954497
_cell_length_b 11.869912
_cell_length_c 19.793955
_cell_angle_alpha 90.000000
_cell_angle_beta 29.406180
_cell_angle_gamma 90.000000
_cell_volume 2994.140466
_symmetry_space_group_name_H-M "C 2/C"
_symmetry_group_IT_number 15
_symmetry_cell_setting 'monoclinic'
loop_
_space_group_symop_operation_xyz
x,y,z
-x,y,1/2-z
-x,-y,-z
x,-y,1/2+z
1/2+x,1/2+y,z
1/2-x,1/2+y,1/2-z
1/2-x,1/2-y,-z
1/2+x,1/2-y,1/2+z
loop_
_atom_site_type_symbol
_atom_site_label
_atom_site_fract_x
_atom_site_fract_y
_atom_site_fract_z
Si Si1 0.681026 0.446268 0.150156
Si Si2 0.362619 0.335352 0.648313
Si Si3 0.336752 0.935861 0.553376
Si Si4 0.867035 0.270765 0.722392
Si Si5 0.593952 0.819019 0.513799
Si Si6 0.453107 0.497815 0.942181
Si Si7 0.950247 0.756216 0.983942
Si Si8 0.678151 0.642140 0.504556
O O1 0.780441 0.532171 0.046002
O O2 0.686314 0.351604 0.203013
O O3 0.574835 0.516418 0.282607
O O4 0.687595 0.379601 0.072734
O O5 0.258736 0.398698 0.789620
O O6 0.331544 0.242646 0.627318
O O7 0.440853 0.425803 0.523421
O O8 0.426985 0.273854 0.635788
O O9 0.425402 0.836822 0.453146
O O10 0.397372 0.048055 0.507326
O O11 0.886461 0.289732 0.621227
O O12 0.791492 0.367493 0.838742
O O13 0.975674 0.277405 0.638651
O O14 0.629030 0.767850 0.546824
O O15 0.404889 0.374573 0.009920
O O16 0.394785 0.547209 0.944136
#
# Coordination Sequence:
#
# PCOD8142127 Si02
#       8
#     8   8   8   8   8   8   8   8
#     4  12  22  40  65  95 128 171 229 273 326 404
#     4  10  21  38  62  90 134 170 218 276 327 399
#     4  12  25  38  63  97 133 175 216 273 347 397
#     4  11  22  39  61  99 135 162 214 281 347 395
#     4  10  23  40  62 101 130 168 218 276 344 395
#     4  11  21  39  65  94 123 179 225 270 330 394
#     4  11  22  40  61  93 134 169 218 271 332 404
#     4  11  23  40  64  96 127 174 221 278 330 394
#
# _framework density 21.375081999999999
#
# number of rings (size 3 to 8) (size 9 to 14) (size 15 to 20)
#    0.000    1.000    6.250    3.375    1.750    2.000 
#    2.250    0.625    0.000    1.500    0.000    0.000 
#    0.000    0.000    0.000    0.000    0.000    0.000 
#
# Total GULP energy -396544.467815 kJ/mol
# GULP energy per Si atom -12392.014619 kJ/mol
# Density = 2.132643 g / cm^3
# Si number density = 21.375082 Si / 1000 Ang^3
#
#
#
# Elastic Constant Matrix: (Units=GPa)
#
#
# Indices 1 2 3 4 5 6 
#
# 1 89.4034 52.3536 9.4348 0.0000 -8.0871 0.0000
# 2 52.3536 143.6473 22.0646 0.0000 -5.9473 0.0000
# 3 9.4348 22.0646 41.2249 0.0000 1.0659 0.0000
# 4 0.0000 0.0000 0.0000 29.2155 0.0000 -11.9838
# 5 -8.0871 -5.9473 1.0659 0.0000 11.1696 0.0000
# 6 0.0000 0.0000 0.0000 -11.9838 0.0000 29.8605
#
#
#
# Elastic Compliance Matrix: (Units=1/GPa)
#
#
# Indices 1 2 3 4 5 6 
#
# 1 0.014936 -0.004950 -0.000983 0.000000 0.008272 0.000000
# 2 -0.004950 0.009452 -0.003973 0.000000 0.001828 0.000000
# 3 -0.000983 -0.003973 0.026748 0.000000 -0.005380 0.000000
# 4 0.000000 0.000000 0.000000 0.040973 0.000000 0.016444
# 5 0.008272 0.001828 -0.005380 0.000000 0.097005 0.000000
# 6 0.000000 0.000000 0.000000 0.016444 0.000000 0.040088
#
#
# Mechanical properties :
#
#
# Convention : Reuss Voigt Hill
#
# Bulk Modulus (GPa) = 31.92507 49.10908 40.51708
# Shear Modulus (GPa) = 19.27119 26.74395 23.00757
#
# Velocity S-wave (km/s) = 3.00588 3.54103 3.28437
# Velocity P-wave (km/s) = 5.19761 6.30423 5.77748
#
# Compressibility (1/GPa) = 0.03132334
#
# Stress axis : x y z
#
# Youngs Moduli (GPa) = 66.95248 105.80262 37.38645
#
# Poissons Ratio (x) = 0.52374 0.03674
# Poissons Ratio (y) = 0.33142 0.14854
# Poissons Ratio (z) = 0.06580 0.42036
#
# Static dielectric constant tensor:
#      x y z
#    x 3.983490 0.000000 -0.329870 
#    y 0.000000 3.880420 0.000000 
#    z -0.329870 0.000000 3.766440 
# 
# 
# High freq. dielectric constant tensor:
#      x y z
#    x 1.842670 0.000000 -0.034540 
#    y 0.000000 1.824680 0.000000 
#    z -0.034540 0.000000 1.817300 
# 
# From -- ./inp_files/257488.got.cif
#   From: 2010.06.25/outbox.cif.g09.slc.cpg/sg15_129_cif.got.tgz:257488.got - 2010.06.28 07:06:18.
