data_PCOD8142965
_publ_section_title
;
Structure prediction by ZEFSAII (Michael W. Deem and Ramdas Pophale) SiO2 
 PCOD8142965
Probable space group: C 2/C
;
_chemical_formula_sum "Si O2"
_cell_formula_units_Z 56
_cell_length_a 16.447155
_cell_length_b 8.791221
_cell_length_c 22.589562
_cell_angle_alpha 90.000000
_cell_angle_beta 56.636335
_cell_angle_gamma 90.000000
_cell_volume 2727.951284
_symmetry_space_group_name_H-M "C 2/C"
_symmetry_group_IT_number 15
_symmetry_cell_setting 'monoclinic'
loop_
_space_group_symop_operation_xyz
x,y,z
-x,y,1/2-z
-x,-y,-z
x,-y,1/2+z
1/2+x,1/2+y,z
1/2-x,1/2+y,1/2-z
1/2-x,1/2-y,-z
1/2+x,1/2-y,1/2+z
loop_
_atom_site_type_symbol
_atom_site_label
_atom_site_fract_x
_atom_site_fract_y
_atom_site_fract_z
Si Si1 0.238974 0.911173 0.805989
Si Si2 0.909394 0.554987 0.325247
Si Si3 0.682540 0.067085 0.837814
Si Si4 0.524722 0.526652 0.421784
Si Si5 0.964135 0.356571 0.406691
Si Si6 0.121254 0.191626 0.564728
Si Si7 0.193170 0.452074 0.466412
O O1 0.318580 0.976485 0.819272
O O2 0.228502 0.731322 0.809198
O O3 0.138886 0.986381 0.866542
O O4 0.268190 0.953937 0.727913
O O5 0.936279 0.399537 0.349946
O O6 0.880929 0.690641 0.380574
O O7 0.000000 0.609409 0.250000
O O8 0.565467 0.059291 0.880784
O O9 0.713374 0.011993 0.890272
O O10 0.500000 0.500000 0.500000
O O11 0.477762 0.678985 0.413216
O O12 0.481653 0.389018 0.400676
O O13 0.875140 0.413728 0.482535
O O14 0.141537 0.286864 0.496111
O O15 0.203911 0.061693 0.540216
#
# Coordination Sequence:
#
# PCOD8142965 Si02
#       7
#     8   8   8   8   8   8   8
#     4  11  25  42  65  92 133 168 216 264 326 381
#     4  11  22  44  69  93 129 175 221 263 316 392
#     4  11  22  42  61  97 125 172 212 269 316 384
#     4  11  26  44  63  98 136 165 208 278 330 381
#     4  10  23  40  67  94 129 168 219 259 328 381
#     4  10  22  40  68  96 126 169 217 266 322 380
#     4  10  21  39  69  94 127 167 221 263 312 390
#
# _framework density 20.528226
#
# number of rings (size 3 to 8) (size 9 to 14) (size 15 to 20)
#    0.000    1.429    2.857    2.143    6.000    2.857 
#    2.571    0.714    0.000    0.000    0.000    0.000 
#    0.000    0.000    0.000    0.000    0.000    0.000 
#
# Total GULP energy -347192.446907 kJ/mol
# GULP energy per Si atom -12399.730247 kJ/mol
# Density = 2.048150 g / cm^3
# Si number density = 20.528226 Si / 1000 Ang^3
#
#
#
# Elastic Constant Matrix: (Units=GPa)
#
#
# Indices 1 2 3 4 5 6 
#
# 1 117.1208 41.1648 44.3530 0.0000 -6.5322 0.0001
# 2 41.1648 41.8738 26.9052 -0.0001 -1.5028 0.0002
# 3 44.3530 26.9052 132.3865 0.0000 5.1749 0.0000
# 4 0.0000 -0.0001 0.0000 30.7000 0.0000 -3.9243
# 5 -6.5322 -1.5028 5.1749 0.0000 36.4990 0.0000
# 6 0.0001 0.0002 0.0000 -3.9243 0.0000 34.2554
#
#
#
# Elastic Compliance Matrix: (Units=1/GPa)
#
#
# Indices 1 2 3 4 5 6 
#
# 1 0.013723 -0.011959 -0.002256 0.000000 0.002284 0.000000
# 2 -0.011959 0.038026 -0.003720 0.000000 -0.000047 0.000000
# 3 -0.002256 -0.003720 0.009138 0.000000 -0.001853 0.000000
# 4 0.000000 0.000000 0.000000 0.033057 0.000000 0.003787
# 5 0.002284 -0.000047 -0.001853 0.000000 0.028067 0.000000
# 6 0.000000 0.000000 0.000000 0.003787 0.000000 0.029626
#
#
# Mechanical properties :
#
#
# Convention : Reuss Voigt Hill
#
# Bulk Modulus (GPa) = 39.97285 57.35857 48.66571
# Shear Modulus (GPa) = 25.52991 32.22141 28.87566
#
# Velocity S-wave (km/s) = 3.53037 3.96613 3.75458
# Velocity P-wave (km/s) = 6.01102 6.99826 6.52334
#
# Compressibility (1/GPa) = 0.02501698
#
# Stress axis : x y z
#
# Youngs Moduli (GPa) = 72.86805 26.29755 109.43331
#
# Poissons Ratio (x) = 0.31450 0.24693
# Poissons Ratio (y) = 0.87145 0.40705
# Poissons Ratio (z) = 0.16442 0.09782
#
# Static dielectric constant tensor:
#      x y z
#    x 3.901770 0.000000 -0.039360 
#    y 0.000000 3.561540 0.000000 
#    z -0.039360 0.000000 3.898680 
# 
# 
# High freq. dielectric constant tensor:
#      x y z
#    x 1.814030 0.000000 -0.004690 
#    y 0.000000 1.785410 0.000000 
#    z -0.004690 0.000000 1.815750 
# 
# From -- ./inp_files/276515.got.cif
#   From: 2010.06.25/outbox.cif.g09.slc.cpg/sg15_139_cif.got.tgz:276515.got - 2010.06.28 07:06:18.
