data_PCOD8142973
_publ_section_title
;
Structure prediction by ZEFSAII (Michael W. Deem and Ramdas Pophale) SiO2 
 PCOD8142973
Probable space group: C 2/C
;
_chemical_formula_sum "Si O2"
_cell_formula_units_Z 48
_cell_length_a 8.462263
_cell_length_b 17.413067
_cell_length_c 19.591902
_cell_angle_alpha 90.000000
_cell_angle_beta 45.718853
_cell_angle_gamma 90.000000
_cell_volume 2066.828326
_symmetry_space_group_name_H-M "C 2/C"
_symmetry_group_IT_number 15
_symmetry_cell_setting 'monoclinic'
loop_
_space_group_symop_operation_xyz
x,y,z
-x,y,1/2-z
-x,-y,-z
x,-y,1/2+z
1/2+x,1/2+y,z
1/2-x,1/2+y,1/2-z
1/2-x,1/2-y,-z
1/2+x,1/2-y,1/2+z
loop_
_atom_site_type_symbol
_atom_site_label
_atom_site_fract_x
_atom_site_fract_y
_atom_site_fract_z
Si Si1 0.341311 0.064203 0.636350
Si Si2 0.889901 0.692320 0.003381
Si Si3 0.763302 0.918991 0.680419
Si Si4 0.850622 0.171948 0.027108
Si Si5 0.373600 0.886918 0.639730
Si Si6 0.963247 0.076756 0.647076
O O1 0.537708 0.124329 0.568611
O O2 0.208250 0.097555 0.741303
O O3 0.200759 0.063340 0.609299
O O4 0.432538 0.977934 0.617400
O O5 0.763540 0.649583 0.104692
O O6 0.750000 0.750000 0.000000
O O7 0.096815 0.738460 0.975003
O O8 0.500000 0.926191 0.750000
O O9 0.894276 0.868525 0.586452
O O10 0.798125 0.880945 0.745258
O O11 0.877238 0.000607 0.636998
O O12 0.595978 0.160486 0.086146
O O13 0.014769 0.141204 0.918262
#
# Coordination Sequence:
#
# PCOD8142973 Si02
#       6
#     8   8   8   8   8   8
#     4  10  23  43  67  95 127 178 220 267 328 392
#     4  12  27  42  64 101 134 170 217 272 336 391
#     4   9  21  39  64 101 126 170 222 276 319 389
#     4  11  23  40  66  96 132 170 213 269 336 385
#     4  10  22  45  69  88 131 174 223 265 321 394
#     4  10  21  39  70  94 130 169 225 268 327 392
#
# _framework density 23.223990000000001
#
# number of rings (size 3 to 8) (size 9 to 14) (size 15 to 20)
#    0.000    1.667    1.667    1.500    2.333    5.333 
#    6.000    1.667    0.000    0.000    0.000    0.000 
#    0.000    0.000    0.000    0.000    0.000    0.000 
#
# Total GULP energy -297422.197197 kJ/mol
# GULP energy per Si atom -12392.591550 kJ/mol
# Density = 2.317113 g / cm^3
# Si number density = 23.223990 Si / 1000 Ang^3
#
#
#
# Elastic Constant Matrix: (Units=GPa)
#
#
# Indices 1 2 3 4 5 6 
#
# 1 44.5330 43.5111 41.3470 -0.0033 17.7342 0.0022
# 2 43.5111 99.5334 41.7671 -0.0041 17.1268 0.0024
# 3 41.3470 41.7671 100.8165 0.0009 38.4082 0.0061
# 4 -0.0033 -0.0041 0.0009 16.5871 0.0051 6.3975
# 5 17.7342 17.1268 38.4082 0.0051 41.8601 -0.0027
# 6 0.0022 0.0024 0.0061 6.3975 -0.0027 49.3144
#
#
#
# Elastic Compliance Matrix: (Units=1/GPa)
#
#
# Indices 1 2 3 4 5 6 
#
# 1 0.052580 -0.016824 -0.013422 0.000009 -0.003077 -0.000001
# 2 -0.016824 0.017552 -0.000540 0.000001 0.000442 0.000000
# 3 -0.013422 -0.000540 0.020597 0.000001 -0.012991 -0.000003
# 4 0.000009 0.000001 0.000001 0.063463 -0.000013 -0.008233
# 5 -0.003077 0.000442 -0.012991 -0.000013 0.036932 0.000005
# 6 -0.000001 0.000000 -0.000003 -0.008233 0.000005 0.021346
#
#
# Mechanical properties :
#
#
# Convention : Reuss Voigt Hill
#
# Bulk Modulus (GPa) = 34.29699 55.34814 44.82257
# Shear Modulus (GPa) = 17.62052 29.43618 23.52835
#
# Velocity S-wave (km/s) = 2.75748 3.56405 3.18638
# Velocity P-wave (km/s) = 4.99382 6.38910 5.73406
#
# Compressibility (1/GPa) = 0.02915708
#
# Stress axis : x y z
#
# Youngs Moduli (GPa) = 19.01858 56.97355 48.55186
#
# Poissons Ratio (x) = 0.95850 0.65166
# Poissons Ratio (y) = 0.31996 0.02622
# Poissons Ratio (z) = 0.25527 0.03077
#
# Static dielectric constant tensor:
#      x y z
#    x 4.219650 0.000000 0.515610 
#    y 0.000000 4.141590 0.000020 
#    z 0.515610 0.000020 4.515570 
# 
# 
# High freq. dielectric constant tensor:
#      x y z
#    x 1.915430 0.000000 0.027310 
#    y 0.000000 1.914430 0.000000 
#    z 0.027310 0.000000 1.927240 
# 
# From -- ./inp_files/232519.got.cif
#   From: 2010.06.25/outbox.cif.g09.slc.cpg/sg15_117_cif.got.tgz:232519.got - 2010.06.28 07:06:18.
