data_PCOD8142415
_publ_section_title
;
Structure prediction by ZEFSAII (Michael W. Deem and Ramdas Pophale) SiO2 
 PCOD8142415
Probable space group: C 2/C
;
_chemical_formula_sum "Si O2"
_cell_formula_units_Z 60
_cell_length_a 25.839698
_cell_length_b 18.935530
_cell_length_c 15.472990
_cell_angle_alpha 90.000000
_cell_angle_beta 154.286946
_cell_angle_gamma 90.000000
_cell_volume 3284.680487
_symmetry_space_group_name_H-M "C 2/C"
_symmetry_group_IT_number 15
_symmetry_cell_setting 'monoclinic'
loop_
_space_group_symop_operation_xyz
x,y,z
-x,y,1/2-z
-x,-y,-z
x,-y,1/2+z
1/2+x,1/2+y,z
1/2-x,1/2+y,1/2-z
1/2-x,1/2-y,-z
1/2+x,1/2-y,1/2+z
loop_
_atom_site_type_symbol
_atom_site_label
_atom_site_fract_x
_atom_site_fract_y
_atom_site_fract_z
Si Si1 0.000000 0.991822 0.250000
Si Si2 0.235962 0.936544 0.133539
Si Si3 0.677055 0.830820 0.505574
Si Si4 0.435399 0.640075 0.570729
Si Si5 0.563864 0.287964 0.608345
Si Si6 0.592439 0.309129 0.963584
Si Si7 0.311993 0.919672 0.822476
Si Si8 0.060788 0.636097 0.655920
O O1 0.983452 0.941253 0.140528
O O2 0.116654 0.037772 0.405262
O O3 0.336782 0.919637 0.214394
O O4 0.283905 0.997462 0.269501
O O5 0.200777 0.865435 0.132077
O O6 0.808359 0.815806 0.665000
O O7 0.644139 0.768202 0.522237
O O8 0.674454 0.904229 0.554690
O O9 0.581695 0.835020 0.284953
O O10 0.500000 0.679026 0.750000
O O11 0.469457 0.679791 0.534559
O O12 0.292330 0.632738 0.369829
O O13 0.466765 0.311458 0.531688
O O14 0.565354 0.203367 0.599575
O O15 0.500000 0.331640 0.750000
O O16 0.433678 0.901689 0.955360
#
# Coordination Sequence:
#
# PCOD8142415 Si02
#       8
#     4   8   8   8   8   8   8   8
#     4   8  18  40  58  76 118 164 186 248 292 328
#     4  11  22  35  57  85 120 154 201 244 285 351
#     4  11  21  38  59  90 126 155 187 241 307 363
#     4   8  19  41  62  76 115 154 208 239 282 343
#     4  11  21  34  62  93 114 154 197 244 299 349
#     4  12  20  34  58  90 124 145 195 252 297 347
#     4  10  21  39  57  83 118 164 191 235 301 356
#     4  12  21  35  61  90 123 154 192 239 306 364
#
# _framework density 18.266615999999999
#
# number of rings (size 3 to 8) (size 9 to 14) (size 15 to 20)
#    0.400    1.067    4.667    2.000    0.000    0.000 
#    2.400    2.667    0.000    3.200    0.000    0.000 
#    0.000    0.000    0.000    0.000    0.000    0.000 
#
# Total GULP energy -371854.218356 kJ/mol
# GULP energy per Si atom -12395.140612 kJ/mol
# Density = 1.822504 g / cm^3
# Si number density = 18.266616 Si / 1000 Ang^3
#
#
#
# Elastic Constant Matrix: (Units=GPa)
#
#
# Indices 1 2 3 4 5 6 
#
# 1 112.6059 52.4593 58.3986 0.0000 9.3730 0.0000
# 2 52.4593 107.2488 42.4383 0.0000 2.8202 0.0000
# 3 58.3986 42.4383 99.6538 0.0000 9.6496 0.0000
# 4 0.0000 0.0000 0.0000 30.2863 0.0000 3.6148
# 5 9.3730 2.8202 9.6496 0.0000 34.1610 0.0000
# 6 0.0000 0.0000 0.0000 3.6148 0.0000 26.7423
#
#
#
# Elastic Compliance Matrix: (Units=1/GPa)
#
#
# Indices 1 2 3 4 5 6 
#
# 1 0.014422 -0.004488 -0.006367 0.000000 -0.001788 0.000000
# 2 -0.004488 0.012617 -0.002839 0.000000 0.000992 0.000000
# 3 -0.006367 -0.002839 0.015199 0.000000 -0.002312 0.000000
# 4 0.000000 0.000000 0.000000 0.033560 0.000000 -0.004536
# 5 -0.001788 0.000992 -0.002312 0.000000 0.030335 0.000000
# 6 0.000000 0.000000 0.000000 -0.004536 0.000000 0.038007
#
#
# Mechanical properties :
#
#
# Convention : Reuss Voigt Hill
#
# Bulk Modulus (GPa) = 67.34234 69.56677 68.45456
# Shear Modulus (GPa) = 28.33220 29.31875 28.82548
#
# Velocity S-wave (km/s) = 3.94259 4.01065 3.97677
# Velocity P-wave (km/s) = 7.59419 7.72100 7.65786
#
# Compressibility (1/GPa) = 0.01484950
#
# Stress axis : x y z
#
# Youngs Moduli (GPa) = 69.33714 79.26079 65.79406
#
# Poissons Ratio (x) = 0.35571 0.41893
# Poissons Ratio (y) = 0.31118 0.18678
# Poissons Ratio (z) = 0.44149 0.22502
#
# Static dielectric constant tensor:
#      x y z
#    x 3.146700 0.000000 0.218770 
#    y 0.000000 3.420940 0.000000 
#    z 0.218770 0.000000 3.476990 
# 
# 
# High freq. dielectric constant tensor:
#      x y z
#    x 1.689420 0.000000 0.026470 
#    y 0.000000 1.707210 0.000000 
#    z 0.026470 0.000000 1.707330 
# 
# From -- ./inp_files/174092.got.cif
#   From: 2010.06.25/outbox.cif.g09.slc.cpg/sg15_88_cif.got.tgz:174092.got - 2010.06.28 07:06:18.
