data_PCOD8142557
_publ_section_title
;
Structure prediction by ZEFSAII (Michael W. Deem and Ramdas Pophale) SiO2 
 PCOD8142557
Probable space group: C 2/C
;
_chemical_formula_sum "Si O2"
_cell_formula_units_Z 32
_cell_length_a 6.666852
_cell_length_b 19.129986
_cell_length_c 20.018928
_cell_angle_alpha 90.000000
_cell_angle_beta 28.738435
_cell_angle_gamma 90.000000
_cell_volume 1227.584500
_symmetry_space_group_name_H-M "C 2/C"
_symmetry_group_IT_number 15
_symmetry_cell_setting 'monoclinic'
loop_
_space_group_symop_operation_xyz
x,y,z
-x,y,1/2-z
-x,-y,-z
x,-y,1/2+z
1/2+x,1/2+y,z
1/2-x,1/2+y,1/2-z
1/2-x,1/2-y,-z
1/2+x,1/2-y,1/2+z
loop_
_atom_site_type_symbol
_atom_site_label
_atom_site_fract_x
_atom_site_fract_y
_atom_site_fract_z
Si Si1 0.463438 0.521896 0.840102
Si Si2 0.980102 0.849315 0.423653
Si Si3 0.668047 0.112346 0.289150
Si Si4 0.796064 0.768738 0.910616
O O1 0.500000 0.538491 0.750000
O O2 0.771725 0.457995 0.771850
O O3 0.639255 0.589888 0.827946
O O4 0.000000 0.500000 0.000000
O O5 0.793298 0.882680 0.546447
O O6 0.622721 0.807408 0.489458
O O7 0.348431 0.798496 0.345398
O O8 0.000000 0.101797 0.250000
O O9 0.791011 0.183114 0.214089
O O10 0.750000 0.750000 0.000000
#
# Coordination Sequence:
#
# PCOD8142557 Si02
#       4
#     8   8   8   8
#     4  11  18  37  67  99 130 183 227 276 339 403
#     4  10  21  41  64  93 131 179 216 279 340 400
#     4   9  18  37  64  90 134 168 221 275 338 394
#     4  10  21  39  61  95 129 172 225 273 338 401
#
# _framework density 26.067453
#
# number of rings (size 3 to 8) (size 9 to 14) (size 15 to 20)
#    0.000    2.000    7.500    0.000    0.000    1.000 
#   18.000    1.250    0.000    0.000    0.000    0.000 
#    0.000    0.000    0.000    0.000    0.000    0.000 
#
# Total GULP energy -198232.769868 kJ/mol
# GULP energy per Si atom -12389.548117 kJ/mol
# Density = 2.600812 g / cm^3
# Si number density = 26.067453 Si / 1000 Ang^3
#
#
#
# Elastic Constant Matrix: (Units=GPa)
#
#
# Indices 1 2 3 4 5 6 
#
# 1 68.9555 43.7109 44.2553 0.0488 27.3675 -0.2107
# 2 43.7109 233.2000 81.0190 0.0159 33.9095 -0.0554
# 3 44.2553 81.0190 163.9572 0.0361 40.2291 -0.0535
# 4 0.0488 0.0159 0.0361 52.6802 -0.0018 34.1533
# 5 27.3675 33.9095 40.2291 -0.0018 35.6708 0.0331
# 6 -0.2107 -0.0554 -0.0535 34.1533 0.0331 -14.9609
#
#
#
# Elastic Compliance Matrix: (Units=1/GPa)
#
#
# Indices 1 2 3 4 5 6 
#
# 1 0.021951 -0.001522 -0.001930 0.000078 -0.013218 -0.000149
# 2 -0.001522 0.005495 -0.001810 0.000000 -0.002015 0.000002
# 3 -0.001930 -0.001810 0.009304 0.000002 -0.007291 -0.000010
# 4 0.000078 0.000000 0.000002 0.007655 -0.000077 0.017473
# 5 -0.013218 -0.002015 -0.007291 -0.000077 0.048313 0.000150
# 6 -0.000149 0.000002 -0.000010 0.017473 0.000150 -0.026951
#
#
# Mechanical properties :
#
#
# Convention : Reuss Voigt Hill
#
# Bulk Modulus (GPa) = 38.13099 89.34255 63.73677
# Shear Modulus (GPa) = 58.80125 34.48655 46.64390
#
# Velocity S-wave (km/s) = 4.75461 3.64122 4.23466
# Velocity P-wave (km/s) = 6.69338 7.21290 6.95799
#
# Compressibility (1/GPa) = 0.02622539
#
# Stress axis : x y z
#
# Youngs Moduli (GPa) = 45.55622 181.97164 107.48595
#
# Poissons Ratio (x) = 0.27697 0.20742
# Poissons Ratio (y) = 0.06934 0.19459
# Poissons Ratio (z) = 0.08791 0.32944
#
# Static dielectric constant tensor:
#      x y z
#    x 4.454140 0.000180 0.110190 
#    y 0.000180 6.214910 0.000140 
#    z 0.110190 0.000140 5.169860 
# 
# 
# High freq. dielectric constant tensor:
#      x y z
#    x 2.025580 -0.000010 0.016440 
#    y -0.000010 2.062870 0.000010 
#    z 0.016440 0.000010 2.056430 
# 
# From -- ./inp_files/232418.got.cif
#   From: 2010.06.25/outbox.cif.g09.slc.cpg/sg15_117_cif.got.tgz:232418.got - 2010.06.28 07:06:18.
