data_PCOD8142118
_publ_section_title
;
Structure prediction by ZEFSAII (Michael W. Deem and Ramdas Pophale) SiO2 
 PCOD8142118
Probable space group: C 2/C
;
_chemical_formula_sum "Si O2"
_cell_formula_units_Z 48
_cell_length_a 19.658343
_cell_length_b 10.470648
_cell_length_c 13.541496
_cell_angle_alpha 90.000000
_cell_angle_beta 128.657502
_cell_angle_gamma 90.000000
_cell_volume 2176.602754
_symmetry_space_group_name_H-M "C 2/C"
_symmetry_group_IT_number 15
_symmetry_cell_setting 'monoclinic'
loop_
_space_group_symop_operation_xyz
x,y,z
-x,y,1/2-z
-x,-y,-z
x,-y,1/2+z
1/2+x,1/2+y,z
1/2-x,1/2+y,1/2-z
1/2-x,1/2-y,-z
1/2+x,1/2-y,1/2+z
loop_
_atom_site_type_symbol
_atom_site_label
_atom_site_fract_x
_atom_site_fract_y
_atom_site_fract_z
Si Si1 0.500000 0.571147 0.250000
Si Si2 0.411659 0.149551 0.000276
Si Si3 0.752210 0.302662 0.634279
Si Si4 0.185338 0.052661 0.906049
Si Si5 0.500000 0.006844 0.250000
Si Si6 0.812797 0.593485 0.392984
Si Si7 0.511973 0.202937 0.903019
O O1 0.414747 0.482611 0.161956
O O2 0.510468 0.658741 0.161647
O O3 0.436791 0.101427 0.132957
O O4 0.349959 0.269068 0.959107
O O5 0.490325 0.192473 0.000013
O O6 0.358205 0.037047 0.898058
O O7 0.813238 0.187272 0.651754
O O8 0.748767 0.426360 0.559187
O O9 0.781687 0.331774 0.769944
O O10 0.229608 0.936585 0.886148
O O11 0.540643 0.909078 0.204548
O O12 0.884100 0.679319 0.515663
#
# Coordination Sequence:
#
# PCOD8142118 Si02
#       7
#     4   8   8   8   4   8   8
#     4  11  24  41  60  90 124 157 198 247 304 360
#     4  10  21  38  62  90 119 155 199 247 295 349
#     4  10  23  41  62  88 119 159 199 243 299 357
#     4  10  24  42  60  88 123 161 202 243 298 359
#     4   9  18  35  58  88 120 153 196 243 288 344
#     4  10  21  39  62  89 120 157 200 247 295 351
#     4  10  22  37  62  92 119 156 198 248 302 350
#
# _framework density 22.052714999999999
#
# number of rings (size 3 to 8) (size 9 to 14) (size 15 to 20)
#    0.000    2.000    0.000    3.000    0.000   17.333 
#    0.000    4.167    0.000    0.000    0.000    0.000 
#    0.000    0.000    0.000    0.000    0.000    0.000 
#
# Total GULP energy -297379.898582 kJ/mol
# GULP energy per Si atom -12390.829108 kJ/mol
# Density = 2.200252 g / cm^3
# Si number density = 22.052715 Si / 1000 Ang^3
#
#
#
# Elastic Constant Matrix: (Units=GPa)
#
#
# Indices 1 2 3 4 5 6 
#
# 1 102.0823 31.2028 45.2303 0.0000 7.3626 0.0000
# 2 31.2028 72.3207 51.7255 0.0000 0.3474 0.0000
# 3 45.2303 51.7255 130.8211 0.0000 -12.5303 0.0000
# 4 0.0000 0.0000 0.0000 30.6957 0.0000 9.1349
# 5 7.3626 0.3474 -12.5303 0.0000 32.9020 0.0000
# 6 0.0000 0.0000 0.0000 9.1349 0.0000 25.4666
#
#
#
# Elastic Compliance Matrix: (Units=1/GPa)
#
#
# Indices 1 2 3 4 5 6 
#
# 1 0.012563 -0.002800 -0.003636 0.000000 -0.004166 0.000000
# 2 -0.002800 0.020239 -0.007259 0.000000 -0.002352 0.000000
# 3 -0.003636 -0.007259 0.012305 0.000000 0.005577 0.000000
# 4 0.000000 0.000000 0.000000 0.036471 0.000000 -0.013082
# 5 -0.004166 -0.002352 0.005577 0.000000 0.033474 0.000000
# 6 0.000000 0.000000 0.000000 -0.013082 0.000000 0.043960
#
#
# Mechanical properties :
#
#
# Convention : Reuss Voigt Hill
#
# Bulk Modulus (GPa) = 56.44196 62.39345 59.41771
# Shear Modulus (GPa) = 25.99991 29.61723 27.80857
#
# Velocity S-wave (km/s) = 3.43737 3.66870 3.55491
# Velocity P-wave (km/s) = 6.43457 6.80442 6.62207
#
# Compressibility (1/GPa) = 0.01771732
#
# Stress axis : x y z
#
# Youngs Moduli (GPa) = 79.59730 49.41001 81.26515
#
# Poissons Ratio (x) = 0.13836 0.29544
# Poissons Ratio (y) = 0.22289 0.58993
# Poissons Ratio (z) = 0.28938 0.35868
#
# Static dielectric constant tensor:
#      x y z
#    x 4.091150 0.000000 -0.041240 
#    y 0.000000 3.879390 0.000000 
#    z -0.041240 0.000000 4.101470 
# 
# 
# High freq. dielectric constant tensor:
#      x y z
#    x 1.860300 0.000000 -0.007270 
#    y 0.000000 1.858770 0.000000 
#    z -0.007270 0.000000 1.867730 
# 
# From -- ./inp_files/167391.got.cif
#   From: 2010.06.25/outbox.cif.g09.slc.cpg/sg15_84_cif.got.tgz:167391.got - 2010.06.28 07:06:18.
