data_PCOD8142755
_publ_section_title
;
Structure prediction by ZEFSAII (Michael W. Deem and Ramdas Pophale) SiO2 
 PCOD8142755
Probable space group: C 2/C
;
_chemical_formula_sum "Si O2"
_cell_formula_units_Z 56
_cell_length_a 14.016070
_cell_length_b 18.360615
_cell_length_c 11.925702
_cell_angle_alpha 90.000000
_cell_angle_beta 63.861283
_cell_angle_gamma 90.000000
_cell_volume 2755.137102
_symmetry_space_group_name_H-M "C 2/C"
_symmetry_group_IT_number 15
_symmetry_cell_setting 'monoclinic'
loop_
_space_group_symop_operation_xyz
x,y,z
-x,y,1/2-z
-x,-y,-z
x,-y,1/2+z
1/2+x,1/2+y,z
1/2-x,1/2+y,1/2-z
1/2-x,1/2-y,-z
1/2+x,1/2-y,1/2+z
loop_
_atom_site_type_symbol
_atom_site_label
_atom_site_fract_x
_atom_site_fract_y
_atom_site_fract_z
Si Si1 0.263869 0.219581 0.723191
Si Si2 0.164672 0.795646 0.609386
Si Si3 0.459603 0.281822 0.037448
Si Si4 0.240985 0.574729 0.316933
Si Si5 0.490393 0.869015 0.623732
Si Si6 0.700106 0.082388 0.926957
Si Si7 0.673272 0.354444 0.936978
O O1 0.350422 0.254357 0.764310
O O2 0.146601 0.209250 0.834656
O O3 0.306920 0.140857 0.668986
O O4 0.261311 0.279460 0.624269
O O5 0.250000 0.750000 0.500000
O O6 0.060162 0.795681 0.585854
O O7 0.211449 0.876488 0.606772
O O8 0.507759 0.202404 0.038243
O O9 0.548654 0.340428 0.024118
O O10 0.243912 0.492106 0.354457
O O11 0.312735 0.586288 0.169428
O O12 0.121434 0.596000 0.347759
O O13 0.500000 0.849550 0.750000
O O14 0.583739 0.926141 0.543330
O O15 0.784511 0.111925 0.971208
#
# Coordination Sequence:
#
# PCOD8142755 Si02
#       7
#     8   8   8   8   8   8   8
#     4  10  21  39  64  99 128 167 220 263 316 382
#     4   9  19  41  64  90 132 169 213 264 309 380
#     4  11  22  39  70 100 125 167 228 263 316 378
#     4  11  24  44  63  95 135 170 207 269 332 381
#     4  12  22  42  70  97 132 163 210 282 329 385
#     4  12  25  41  66  97 131 169 217 263 335 392
#     4  11  23  42  66  92 132 175 209 272 319 379
#
# _framework density 20.325669000000001
#
# number of rings (size 3 to 8) (size 9 to 14) (size 15 to 20)
#    0.000    1.143    7.143    0.857    2.000    4.571 
#    0.000    4.286    0.000    0.000    0.000    0.000 
#    0.000    0.000    0.000    0.000    0.000    0.000 
#
# Total GULP energy -347114.048853 kJ/mol
# GULP energy per Si atom -12396.930316 kJ/mol
# Density = 2.027941 g / cm^3
# Si number density = 20.325669 Si / 1000 Ang^3
#
#
#
# Elastic Constant Matrix: (Units=GPa)
#
#
# Indices 1 2 3 4 5 6 
#
# 1 126.9402 42.3285 47.5120 0.0000 3.7412 0.0000
# 2 42.3285 148.3384 54.6912 0.0000 19.2657 0.0000
# 3 47.5120 54.6912 70.9046 0.0000 -0.0405 0.0000
# 4 0.0000 0.0000 0.0000 29.0365 0.0000 5.4170
# 5 3.7412 19.2657 -0.0405 0.0000 35.7749 0.0000
# 6 0.0000 0.0000 0.0000 5.4170 0.0000 18.0606
#
#
#
# Elastic Compliance Matrix: (Units=1/GPa)
#
#
# Indices 1 2 3 4 5 6 
#
# 1 0.010574 -0.000403 -0.006776 0.000000 -0.000897 0.000000
# 2 -0.000403 0.010460 -0.007801 0.000000 -0.005600 0.000000
# 3 -0.006776 -0.007801 0.024664 0.000000 0.004938 0.000000
# 4 0.000000 0.000000 0.000000 0.036481 0.000000 -0.010942
# 5 -0.000897 -0.005600 0.004938 0.000000 0.031067 0.000000
# 6 0.000000 0.000000 0.000000 -0.010942 0.000000 0.058651
#
#
# Mechanical properties :
#
#
# Convention : Reuss Voigt Hill
#
# Bulk Modulus (GPa) = 63.53735 70.58295 67.06015
# Shear Modulus (GPa) = 24.14259 30.01784 27.08022
#
# Velocity S-wave (km/s) = 3.45017 3.84714 3.65405
# Velocity P-wave (km/s) = 6.87016 7.38481 7.13213
#
# Compressibility (1/GPa) = 0.01573877
#
# Stress axis : x y z
#
# Youngs Moduli (GPa) = 94.56730 95.60383 40.54525
#
# Poissons Ratio (x) = 0.03852 0.27471
# Poissons Ratio (y) = 0.03810 0.31630
# Poissons Ratio (z) = 0.64074 0.74583
#
# Static dielectric constant tensor:
#      x y z
#    x 4.238680 0.000000 0.489980 
#    y 0.000000 3.452300 0.000000 
#    z 0.489980 0.000000 4.112980 
# 
# 
# High freq. dielectric constant tensor:
#      x y z
#    x 1.802570 0.000000 0.001670 
#    y 0.000000 1.770840 0.000000 
#    z 0.001670 0.000000 1.802900 
# 
# From -- ./inp_files/98652.got.cif
#   From: 2010.06.25/outbox.cif.g09.slc.cpg/sg15_50_cif.got.tgz:98652.got - 2010.06.28 07:06:18.
