data_PCOD8142285
_publ_section_title
;
Structure prediction by ZEFSAII (Michael W. Deem and Ramdas Pophale) SiO2 
 PCOD8142285
Probable space group: C 2/C
;
_chemical_formula_sum "Si O2"
_cell_formula_units_Z 40
_cell_length_a 9.207588
_cell_length_b 17.298180
_cell_length_c 11.741314
_cell_angle_alpha 90.000000
_cell_angle_beta 99.341687
_cell_angle_gamma 90.000000
_cell_volume 1845.290695
_symmetry_space_group_name_H-M "C 2/C"
_symmetry_group_IT_number 15
_symmetry_cell_setting 'monoclinic'
loop_
_space_group_symop_operation_xyz
x,y,z
-x,y,1/2-z
-x,-y,-z
x,-y,1/2+z
1/2+x,1/2+y,z
1/2-x,1/2+y,1/2-z
1/2-x,1/2-y,-z
1/2+x,1/2-y,1/2+z
loop_
_atom_site_type_symbol
_atom_site_label
_atom_site_fract_x
_atom_site_fract_y
_atom_site_fract_z
Si Si1 0.586152 0.806135 0.861385
Si Si2 0.028179 0.257390 0.417599
Si Si3 0.914986 0.949311 0.344004
Si Si4 0.876486 0.109441 0.448481
Si Si5 0.226005 0.689804 0.758840
O O1 0.500000 0.854362 0.750000
O O2 0.713496 0.854799 0.940187
O O3 0.649259 0.734752 0.795700
O O4 0.476897 0.775634 0.947203
O O5 0.187205 0.269864 0.377732
O O6 0.973325 0.169169 0.385068
O O7 0.917670 0.315529 0.338644
O O8 0.777420 0.896869 0.291959
O O9 0.000000 0.986684 0.250000
O O10 0.035872 0.896188 0.422476
O O11 0.854261 0.022677 0.403127
#
# Coordination Sequence:
#
# PCOD8142285 Si02
#       5
#     8   8   8   8   8
#     4  11  22  39  63  90 122 161 206 259 304 363
#     4  10  21  40  66  91 123 159 216 254 298 369
#     4  11  22  39  62  87 126 161 201 256 314 361
#     4  10  23  39  59  92 119 163 205 254 305 370
#     4  10  21  38  65  91 119 164 207 251 311 356
#
# _framework density 21.676803
#
# number of rings (size 3 to 8) (size 9 to 14) (size 15 to 20)
#    0.000    1.600    0.000    6.600    5.600    3.200 
#    7.200    1.000    0.000    0.000    0.000    0.000 
#    0.000    0.000    0.000    0.000    0.000    0.000 
#
# Total GULP energy -247781.808515 kJ/mol
# GULP energy per Si atom -12389.090426 kJ/mol
# Density = 2.162747 g / cm^3
# Si number density = 21.676803 Si / 1000 Ang^3
#
#
#
# Elastic Constant Matrix: (Units=GPa)
#
#
# Indices 1 2 3 4 5 6 
#
# 1 77.9311 30.1808 32.3963 0.0000 -20.1458 0.0000
# 2 30.1808 100.3827 31.9024 0.0000 8.0259 0.0000
# 3 32.3963 31.9024 117.8760 0.0000 -21.5363 0.0000
# 4 0.0000 0.0000 0.0000 26.8733 0.0000 2.0729
# 5 -20.1458 8.0259 -21.5363 0.0000 44.1744 0.0000
# 6 0.0000 0.0000 0.0000 2.0729 0.0000 10.9847
#
#
#
# Elastic Compliance Matrix: (Units=1/GPa)
#
#
# Indices 1 2 3 4 5 6 
#
# 1 0.017845 -0.005398 -0.001951 0.000000 0.008168 0.000000
# 2 -0.005398 0.013130 -0.003245 0.000000 -0.006429 0.000000
# 3 -0.001951 -0.003245 0.010805 0.000000 0.004968 0.000000
# 4 0.000000 0.000000 0.000000 0.037761 0.000000 -0.007126
# 5 0.008168 -0.006429 0.004968 0.000000 0.029952 0.000000
# 6 0.000000 0.000000 0.000000 -0.007126 0.000000 0.092380
#
#
# Mechanical properties :
#
#
# Convention : Reuss Voigt Hill
#
# Bulk Modulus (GPa) = 48.56102 53.90542 51.23322
# Shear Modulus (GPa) = 21.74609 29.85384 25.79997
#
# Velocity S-wave (km/s) = 3.17076 3.71512 3.45369
# Velocity P-wave (km/s) = 5.98798 6.58215 6.29208
#
# Compressibility (1/GPa) = 0.02059265
#
# Stress axis : x y z
#
# Youngs Moduli (GPa) = 56.03831 76.16098 92.54573
#
# Poissons Ratio (x) = 0.41113 0.18057
# Poissons Ratio (y) = 0.30250 0.30028
# Poissons Ratio (z) = 0.10934 0.24711
#
# Static dielectric constant tensor:
#      x y z
#    x 4.025770 0.000000 0.097250 
#    y 0.000000 3.543100 0.000000 
#    z 0.097250 0.000000 4.245440 
# 
# 
# High freq. dielectric constant tensor:
#      x y z
#    x 1.848870 0.000000 0.003850 
#    y 0.000000 1.822120 0.000000 
#    z 0.003850 0.000000 1.873710 
# 
# From -- ./inp_files/76907.got.cif
#   From: 2010.06.25/outbox.cif.g09.slc.cpg/sg15_39_cif.got.tgz:76907.got - 2010.06.28 07:06:18.
