data_PCOD8142184
_publ_section_title
;
Structure prediction by ZEFSAII (Michael W. Deem and Ramdas Pophale) SiO2 
 PCOD8142184
Probable space group: C 2/C
;
_chemical_formula_sum "Si O2"
_cell_formula_units_Z 52
_cell_length_a 16.222469
_cell_length_b 6.302011
_cell_length_c 23.507362
_cell_angle_alpha 90.000000
_cell_angle_beta 95.165234
_cell_angle_gamma 90.000000
_cell_volume 2393.496714
_symmetry_space_group_name_H-M "C 2/C"
_symmetry_group_IT_number 15
_symmetry_cell_setting 'monoclinic'
loop_
_space_group_symop_operation_xyz
x,y,z
-x,y,1/2-z
-x,-y,-z
x,-y,1/2+z
1/2+x,1/2+y,z
1/2-x,1/2+y,1/2-z
1/2-x,1/2-y,-z
1/2+x,1/2-y,1/2+z
loop_
_atom_site_type_symbol
_atom_site_label
_atom_site_fract_x
_atom_site_fract_y
_atom_site_fract_z
Si Si1 0.421087 0.050386 0.032519
Si Si2 0.682178 0.428120 0.488704
Si Si3 0.140490 0.185149 0.772160
Si Si4 0.305188 0.807174 0.941649
Si Si5 0.747548 0.841764 0.676849
Si Si6 0.500000 0.371024 0.750000
Si Si7 0.594193 0.074152 0.838693
O O1 0.402807 0.306180 0.034521
O O2 0.427582 0.953229 0.096095
O O3 0.500000 0.000000 0.000000
O O4 0.349609 0.946379 0.991371
O O5 0.750000 0.250000 0.500000
O O6 0.674934 0.557614 0.547828
O O7 0.708659 0.613808 0.445022
O O8 0.196239 0.307165 0.730411
O O9 0.087646 0.347196 0.807032
O O10 0.203543 0.061849 0.817104
O O11 0.078322 0.018125 0.737913
O O12 0.322701 0.856921 0.876891
O O13 0.811830 0.653443 0.665655
O O14 0.525532 0.228430 0.806090
#
# Coordination Sequence:
#
# PCOD8142184 Si02
#       7
#     8   8   8   8   8   4   8
#     4  11  25  41  61  95 131 176 214 263 328 390
#     4   9  18  37  59  89 117 161 209 260 316 368
#     4  11  23  43  66  99 131 172 223 275 335 388
#     4  10  21  38  63  91 126 165 218 265 322 385
#     4  11  22  40  68  97 126 168 221 277 331 388
#     4  10  26  42  66  96 132 182 214 266 340 388
#     4  11  23  44  65  92 135 167 218 276 323 397
#
# _framework density 21.725536999999999
#
# number of rings (size 3 to 8) (size 9 to 14) (size 15 to 20)
#    0.000    1.538    1.538    4.154    0.000    6.769 
#    0.000    0.000    0.000    0.000    0.000    0.000 
#    0.000    0.000    0.000    0.000    0.000    0.000 
#
# Total GULP energy -322102.096494 kJ/mol
# GULP energy per Si atom -12388.542173 kJ/mol
# Density = 2.167609 g / cm^3
# Si number density = 21.725537 Si / 1000 Ang^3
#
#
#
# Elastic Constant Matrix: (Units=GPa)
#
#
# Indices 1 2 3 4 5 6 
#
# 1 71.7793 35.2510 36.0274 0.0000 -10.7072 0.0000
# 2 35.2510 117.5424 35.0710 0.0000 4.4451 0.0000
# 3 36.0274 35.0710 139.3435 0.0000 1.2339 0.0000
# 4 0.0000 0.0000 0.0000 30.2569 0.0000 7.4060
# 5 -10.7072 4.4451 1.2339 0.0000 31.5462 0.0000
# 6 0.0000 0.0000 0.0000 7.4060 0.0000 38.7160
#
#
#
# Elastic Compliance Matrix: (Units=1/GPa)
#
#
# Indices 1 2 3 4 5 6 
#
# 1 0.019398 -0.004954 -0.003834 0.000000 0.007432 0.000000
# 2 -0.004954 0.010510 -0.001337 0.000000 -0.003110 0.000000
# 3 -0.003834 -0.001337 0.008517 0.000000 -0.001446 0.000000
# 4 0.000000 0.000000 0.000000 0.034674 0.000000 -0.006633
# 5 0.007432 -0.003110 -0.001446 0.000000 0.034717 0.000000
# 6 0.000000 0.000000 0.000000 -0.006633 0.000000 0.027098
#
#
# Mechanical properties :
#
#
# Convention : Reuss Voigt Hill
#
# Bulk Modulus (GPa) = 55.02327 60.15156 57.58741
# Shear Modulus (GPa) = 31.01315 34.92488 32.96902
#
# Velocity S-wave (km/s) = 3.78232 4.01378 3.89977
# Velocity P-wave (km/s) = 6.66754 7.01624 6.84411
#
# Compressibility (1/GPa) = 0.01817413
#
# Stress axis : x y z
#
# Youngs Moduli (GPa) = 51.55225 95.14885 117.41139
#
# Poissons Ratio (x) = 0.47141 0.45017
# Poissons Ratio (y) = 0.25541 0.15694
# Poissons Ratio (z) = 0.19766 0.12718
#
# Static dielectric constant tensor:
#      x y z
#    x 4.051730 0.000000 0.352120 
#    y 0.000000 4.907880 0.000000 
#    z 0.352120 0.000000 4.049630 
# 
# 
# High freq. dielectric constant tensor:
#      x y z
#    x 1.831010 0.000000 0.007160 
#    y 0.000000 1.870990 0.000000 
#    z 0.007160 0.000000 1.851390 
# 
# From -- ./inp_files/297518.got.cif
#   From: 2010.06.25/outbox.cif.g09.slc.cpg/sg15_149_cif.got.tgz:297518.got - 2010.06.28 07:06:18.
