data_PCOD8142269
_publ_section_title
;
Structure prediction by ZEFSAII (Michael W. Deem and Ramdas Pophale) SiO2 
 PCOD8142269
Probable space group: C 2/C
;
_chemical_formula_sum "Si O2"
_cell_formula_units_Z 60
_cell_length_a 17.219392
_cell_length_b 15.090313
_cell_length_c 14.250125
_cell_angle_alpha 90.000000
_cell_angle_beta 52.668029
_cell_angle_gamma 90.000000
_cell_volume 2944.257047
_symmetry_space_group_name_H-M "C 2/C"
_symmetry_group_IT_number 15
_symmetry_cell_setting 'monoclinic'
loop_
_space_group_symop_operation_xyz
x,y,z
-x,y,1/2-z
-x,-y,-z
x,-y,1/2+z
1/2+x,1/2+y,z
1/2-x,1/2+y,1/2-z
1/2-x,1/2-y,-z
1/2+x,1/2-y,1/2+z
loop_
_atom_site_type_symbol
_atom_site_label
_atom_site_fract_x
_atom_site_fract_y
_atom_site_fract_z
Si Si1 0.060719 0.654764 0.859205
Si Si2 0.937813 0.272795 0.616028
Si Si3 0.274932 0.953431 0.320212
Si Si4 0.500000 0.131610 0.250000
Si Si5 0.943890 0.092615 0.534078
Si Si6 0.106542 0.473843 0.082157
Si Si7 0.220068 0.598334 0.329510
Si Si8 0.568207 0.662267 0.281694
O O1 0.165828 0.607882 0.796844
O O2 0.081538 0.732358 0.768152
O O3 0.989376 0.585833 0.859653
O O4 0.024625 0.686656 0.987920
O O5 0.939775 0.164443 0.622899
O O6 0.836897 0.308566 0.642002
O O7 0.942313 0.306535 0.719415
O O8 0.165172 0.923975 0.418355
O O9 0.325300 0.942060 0.383612
O O10 0.275039 0.052076 0.276143
O O11 0.572356 0.073036 0.132514
O O12 0.003144 0.150983 0.419709
O O13 0.000000 0.000000 0.500000
O O14 0.166823 0.467870 0.941268
O O15 0.328532 0.612910 0.290297
O O16 0.500000 0.623361 0.250000
#
# Coordination Sequence:
#
# PCOD8142269 Si02
#       8
#     8   8   8   4   8   8   8   8
#     4  10  21  38  64  96 127 161 206 278 330 376
#     4  10  23  40  64  96 128 169 213 266 327 376
#     4  12  20  38  64  90 129 167 212 260 323 383
#     4  12  20  40  64  96 134 158 206 266 320 390
#     4  11  24  43  61  85 126 178 216 254 312 378
#     4  11  21  36  65 100 126 161 211 266 338 380
#     4  11  22  38  62  96 130 167 212 265 322 385
#     4  11  22  40  62  89 127 164 220 270 313 371
#
# _framework density 20.378655999999999
#
# number of rings (size 3 to 8) (size 9 to 14) (size 15 to 20)
#    0.000    1.067    4.000    3.200    0.000    2.133 
#    1.200    5.333    0.000    5.600    0.000    0.000 
#    0.000    0.000    0.000    0.000    0.000    0.000 
#
# Total GULP energy -371702.916046 kJ/mol
# GULP energy per Si atom -12390.097202 kJ/mol
# Density = 2.033227 g / cm^3
# Si number density = 20.378656 Si / 1000 Ang^3
#
#
#
# Elastic Constant Matrix: (Units=GPa)
#
#
# Indices 1 2 3 4 5 6 
#
# 1 115.2538 46.1567 44.7719 0.0000 -14.7574 0.0000
# 2 46.1567 123.9061 29.6993 0.0000 -1.5701 0.0000
# 3 44.7719 29.6993 64.7924 0.0000 -10.2961 0.0000
# 4 0.0000 0.0000 0.0000 -10.3738 0.0000 0.7707
# 5 -14.7574 -1.5701 -10.2961 0.0000 43.1842 0.0000
# 6 0.0000 0.0000 0.0000 0.7707 0.0000 26.7448
#
#
#
# Elastic Compliance Matrix: (Units=1/GPa)
#
#
# Indices 1 2 3 4 5 6 
#
# 1 0.013044 -0.003107 -0.007170 0.000000 0.002635 0.000000
# 2 -0.003107 0.009826 -0.002567 0.000000 -0.001316 0.000000
# 3 -0.007170 -0.002567 0.021994 0.000000 0.002700 0.000000
# 4 0.000000 0.000000 0.000000 -0.096191 0.000000 0.002772
# 5 0.002635 -0.001316 0.002700 0.000000 0.024653 0.000000
# 6 0.000000 0.000000 0.000000 0.002772 0.000000 0.037311
#
#
# Mechanical properties :
#
#
# Convention : Reuss Voigt Hill
#
# Bulk Modulus (GPa) = 52.14658 60.57867 56.36263
# Shear Modulus (GPa) = 117.05119 24.13268 70.59193
#
# Velocity S-wave (km/s) = 7.58702 3.44497 5.89197
# Velocity P-wave (km/s) = 10.11903 6.75388 8.60261
#
# Compressibility (1/GPa) = 0.01917671
#
# Stress axis : x y z
#
# Youngs Moduli (GPa) = 76.66654 101.76604 45.46657
#
# Poissons Ratio (x) = 0.31617 0.32601
# Poissons Ratio (y) = 0.23819 0.11669
# Poissons Ratio (z) = 0.54973 0.26119
#
# Static dielectric constant tensor:
#      x y z
#    x 3.599800 0.000000 -0.152160 
#    y 0.000000 3.523570 0.000000 
#    z -0.152160 0.000000 3.809730 
# 
# 
# High freq. dielectric constant tensor:
#      x y z
#    x 1.788940 0.000000 -0.010460 
#    y 0.000000 1.795280 0.000000 
#    z -0.010460 0.000000 1.797480 
# 
# From -- ./inp_files/154229.got.cif
#   From: 2010.06.25/outbox.cif.g09.slc.cpg/sg15_78_cif.got.tgz:154229.got - 2010.06.28 07:06:18.
