data_PCOD8142179
_publ_section_title
;
Structure prediction by ZEFSAII (Michael W. Deem and Ramdas Pophale) SiO2 
 PCOD8142179
Probable space group: C 2/C
;
_chemical_formula_sum "Si O2"
_cell_formula_units_Z 48
_cell_length_a 11.675642
_cell_length_b 20.721369
_cell_length_c 13.580235
_cell_angle_alpha 90.000000
_cell_angle_beta 134.963622
_cell_angle_gamma 90.000000
_cell_volume 2324.700814
_symmetry_space_group_name_H-M "C 2/C"
_symmetry_group_IT_number 15
_symmetry_cell_setting 'monoclinic'
loop_
_space_group_symop_operation_xyz
x,y,z
-x,y,1/2-z
-x,-y,-z
x,-y,1/2+z
1/2+x,1/2+y,z
1/2-x,1/2+y,1/2-z
1/2-x,1/2-y,-z
1/2+x,1/2-y,1/2+z
loop_
_atom_site_type_symbol
_atom_site_label
_atom_site_fract_x
_atom_site_fract_y
_atom_site_fract_z
Si Si1 0.989090 0.318347 0.471107
Si Si2 0.150628 0.313418 0.910643
Si Si3 0.788686 0.799702 0.347173
Si Si4 0.565257 0.601541 0.992088
Si Si5 0.860157 0.396140 0.097945
Si Si6 0.542349 0.467628 0.886067
O O1 0.916882 0.344163 0.529588
O O2 0.846766 0.286754 0.318312
O O3 0.130717 0.267211 0.575170
O O4 0.068915 0.379738 0.466199
O O5 0.261662 0.366271 0.924004
O O6 0.000000 0.293892 0.750000
O O7 0.250000 0.250000 0.000000
O O8 0.707244 0.830046 0.394715
O O9 0.924973 0.846961 0.386752
O O10 0.566796 0.574747 0.105244
O O11 0.522032 0.543489 0.891773
O O12 0.000000 0.426298 0.250000
O O13 0.729750 0.452028 0.015004
O O14 0.500000 0.447831 0.750000
#
# Coordination Sequence:
#
# PCOD8142179 Si02
#       6
#     8   8   8   8   8   8
#     4  11  22  36  62  92 124 164 196 245 315 361
#     4  12  26  40  62  91 129 163 202 256 305 374
#     4  10  21  38  63  90 128 160 198 254 297 378
#     4  10  24  43  62  94 124 159 213 250 307 362
#     4   9  21  40  61  92 126 159 202 252 307 359
#     4  10  23  42  71  86 119 166 210 259 296 363
#
# _framework density 20.647818999999998
#
# number of rings (size 3 to 8) (size 9 to 14) (size 15 to 20)
#    0.000    1.667    1.667    1.500    4.667    2.000 
#    0.000    1.667    0.000    0.000    0.000    0.000 
#    0.000    0.000    0.000    0.000    0.000    0.000 
#
# Total GULP energy -297666.370573 kJ/mol
# GULP energy per Si atom -12402.765441 kJ/mol
# Density = 2.060082 g / cm^3
# Si number density = 20.647819 Si / 1000 Ang^3
#
#
#
# Elastic Constant Matrix: (Units=GPa)
#
#
# Indices 1 2 3 4 5 6 
#
# 1 136.7576 18.0703 43.6351 0.0000 -11.0076 0.0000
# 2 18.0703 38.5003 11.4808 0.0000 -3.9843 0.0000
# 3 43.6351 11.4808 102.7946 0.0000 -3.3466 0.0000
# 4 0.0000 0.0000 0.0000 16.3285 0.0000 5.8495
# 5 -11.0076 -3.9843 -3.3466 0.0000 34.9773 0.0000
# 6 0.0000 0.0000 0.0000 5.8495 0.0000 23.2423
#
#
#
# Elastic Compliance Matrix: (Units=1/GPa)
#
#
# Indices 1 2 3 4 5 6 
#
# 1 0.008964 -0.002969 -0.003403 0.000000 0.002157 0.000000
# 2 -0.002969 0.028125 -0.001813 0.000000 0.002096 0.000000
# 3 -0.003403 -0.001813 0.011369 0.000000 -0.000190 0.000000
# 4 0.000000 0.000000 0.000000 0.067311 0.000000 -0.016941
# 5 0.002157 0.002096 -0.000190 0.000000 0.029489 0.000000
# 6 0.000000 0.000000 0.000000 -0.016941 0.000000 0.047289
#
#
# Mechanical properties :
#
#
# Convention : Reuss Voigt Hill
#
# Bulk Modulus (GPa) = 31.16445 47.15832 39.16138
# Shear Modulus (GPa) = 22.76731 28.56738 25.66734
#
# Velocity S-wave (km/s) = 3.32422 3.72365 3.52959
# Velocity P-wave (km/s) = 5.46443 6.43245 5.96810
#
# Compressibility (1/GPa) = 0.03208785
#
# Stress axis : x y z
#
# Youngs Moduli (GPa) = 111.55662 35.55580 87.95812
#
# Poissons Ratio (x) = 0.10557 0.29935
# Poissons Ratio (y) = 0.33124 0.15943
# Poissons Ratio (z) = 0.37966 0.06445
#
# Static dielectric constant tensor:
#      x y z
#    x 4.146670 0.000000 0.068110 
#    y 0.000000 3.420680 0.000000 
#    z 0.068110 0.000000 3.868030 
# 
# 
# High freq. dielectric constant tensor:
#      x y z
#    x 1.829890 0.000000 0.004060 
#    y 0.000000 1.785240 0.000000 
#    z 0.004060 0.000000 1.810090 
# 
# From -- ./inp_files/31921.got.cif
#   From: 2010.06.25/outbox.cif.g09.slc.cpg/sg15_16_cif.got.tgz:31921.got - 2010.06.28 07:06:18.
