data_PCOD8142644
_publ_section_title
;
Structure prediction by ZEFSAII (Michael W. Deem and Ramdas Pophale) SiO2 
 PCOD8142644
Probable space group: C 2/C
;
_chemical_formula_sum "Si O2"
_cell_formula_units_Z 60
_cell_length_a 11.836964
_cell_length_b 19.122687
_cell_length_c 15.552898
_cell_angle_alpha 90.000000
_cell_angle_beta 59.244285
_cell_angle_gamma 90.000000
_cell_volume 3025.334371
_symmetry_space_group_name_H-M "C 2/C"
_symmetry_group_IT_number 15
_symmetry_cell_setting 'monoclinic'
loop_
_space_group_symop_operation_xyz
x,y,z
-x,y,1/2-z
-x,-y,-z
x,-y,1/2+z
1/2+x,1/2+y,z
1/2-x,1/2+y,1/2-z
1/2-x,1/2-y,-z
1/2+x,1/2-y,1/2+z
loop_
_atom_site_type_symbol
_atom_site_label
_atom_site_fract_x
_atom_site_fract_y
_atom_site_fract_z
Si Si1 0.183208 0.992429 0.973043
Si Si2 0.539089 0.401539 0.911083
Si Si3 0.615838 0.619051 0.641510
Si Si4 0.000000 0.837960 0.750000
Si Si5 0.299755 0.776861 0.320886
Si Si6 0.882250 0.334051 0.110960
Si Si7 0.007558 0.777901 0.048011
Si Si8 0.085363 0.589956 0.635937
O O1 0.089327 0.058962 0.005536
O O2 0.142412 0.945105 0.068755
O O3 0.329761 0.022394 0.923819
O O4 0.166617 0.946237 0.892384
O O5 0.545069 0.390532 0.807267
O O6 0.533210 0.326546 0.957023
O O7 0.500000 0.596352 0.750000
O O8 0.744174 0.629129 0.648655
O O9 0.575510 0.690093 0.606622
O O10 0.124219 0.790731 0.670411
O O11 0.364026 0.785291 0.201661
O O12 0.145255 0.763021 0.374348
O O13 0.325557 0.843480 0.371641
O O14 0.994307 0.390952 0.089886
O O15 0.924040 0.294424 0.007147
O O16 0.000000 0.565851 0.750000
#
# Coordination Sequence:
#
# PCOD8142644 Si02
#       8
#     8   8   8   4   8   8   8   8
#     4  10  23  41  59  89 122 171 206 249 310 373
#     4  10  22  38  62  86 126 153 208 260 309 361
#     4  11  24  41  63  87 124 173 217 255 306 381
#     4  12  22  38  60 104 122 156 214 276 304 378
#     4  11  20  36  64  93 123 159 202 264 330 360
#     4  11  22  39  62  94 123 163 213 260 316 378
#     4  11  21  39  65  89 124 163 204 266 323 371
#     4  10  21  39  63  88 125 164 202 256 319 377
#
# _framework density 19.832519999999999
#
# number of rings (size 3 to 8) (size 9 to 14) (size 15 to 20)
#    0.000    1.333    6.000    0.400    2.800    1.600 
#    0.000    1.333    0.000    0.000    0.000    0.000 
#    0.000    0.000    0.000    0.000    0.000    0.000 
#
# Total GULP energy -372012.257360 kJ/mol
# GULP energy per Si atom -12400.408579 kJ/mol
# Density = 1.978738 g / cm^3
# Si number density = 19.832520 Si / 1000 Ang^3
#
#
#
# Elastic Constant Matrix: (Units=GPa)
#
#
# Indices 1 2 3 4 5 6 
#
# 1 121.7712 50.0518 44.5289 0.0000 -4.2425 0.0000
# 2 50.0518 81.0955 47.8943 0.0000 -3.2514 0.0000
# 3 44.5289 47.8943 87.2574 0.0000 4.9699 0.0000
# 4 0.0000 0.0000 0.0000 3.6473 0.0000 3.0383
# 5 -4.2425 -3.2514 4.9699 0.0000 36.1271 0.0000
# 6 0.0000 0.0000 0.0000 3.0383 0.0000 22.1656
#
#
#
# Elastic Compliance Matrix: (Units=1/GPa)
#
#
# Indices 1 2 3 4 5 6 
#
# 1 0.011544 -0.005252 -0.003083 0.000000 0.001307 0.000000
# 2 -0.005252 0.020973 -0.008975 0.000000 0.002505 0.000000
# 3 -0.003083 -0.008975 0.018169 0.000000 -0.003669 0.000000
# 4 0.000000 0.000000 0.000000 0.309517 0.000000 -0.042426
# 5 0.001307 0.002505 -0.003669 0.000000 0.028564 0.000000
# 6 0.000000 0.000000 0.000000 -0.042426 0.000000 0.050930
#
#
# Mechanical properties :
#
#
# Convention : Reuss Voigt Hill
#
# Bulk Modulus (GPa) = 62.23805 63.89711 63.06758
# Shear Modulus (GPa) = 10.42384 22.23129 16.32756
#
# Velocity S-wave (km/s) = 2.29507 3.35169 2.87239
# Velocity P-wave (km/s) = 6.20267 6.87508 6.54751
#
# Compressibility (1/GPa) = 0.01606734
#
# Stress axis : x y z
#
# Youngs Moduli (GPa) = 86.62876 47.68006 55.04020
#
# Poissons Ratio (x) = 0.25039 0.16968
# Poissons Ratio (y) = 0.45493 0.49396
# Poissons Ratio (z) = 0.26706 0.42791
#
# Static dielectric constant tensor:
#      x y z
#    x 3.834000 0.000000 0.122910 
#    y 0.000000 3.479180 0.000000 
#    z 0.122910 0.000000 3.422410 
# 
# 
# High freq. dielectric constant tensor:
#      x y z
#    x 1.781280 0.000000 0.004260 
#    y 0.000000 1.760490 0.000000 
#    z 0.004260 0.000000 1.763650 
# 
# From -- ./inp_files/146028.got.cif
#   From: 2010.06.25/outbox.cif.g09.slc.cpg/sg15_74_cif.got.tgz:146028.got - 2010.06.28 07:06:18.
