data_PCOD8142356
_publ_section_title
;
Structure prediction by ZEFSAII (Michael W. Deem and Ramdas Pophale) SiO2 
 PCOD8142356
Probable space group: C 2/C
;
_chemical_formula_sum "Si O2"
_cell_formula_units_Z 40
_cell_length_a 8.338814
_cell_length_b 18.682028
_cell_length_c 14.700975
_cell_angle_alpha 90.000000
_cell_angle_beta 121.794426
_cell_angle_gamma 90.000000
_cell_volume 1946.546278
_symmetry_space_group_name_H-M "C 2/C"
_symmetry_group_IT_number 15
_symmetry_cell_setting 'monoclinic'
loop_
_space_group_symop_operation_xyz
x,y,z
-x,y,1/2-z
-x,-y,-z
x,-y,1/2+z
1/2+x,1/2+y,z
1/2-x,1/2+y,1/2-z
1/2-x,1/2-y,-z
1/2+x,1/2-y,1/2+z
loop_
_atom_site_type_symbol
_atom_site_label
_atom_site_fract_x
_atom_site_fract_y
_atom_site_fract_z
Si Si1 0.482883 0.584065 0.401529
Si Si2 0.301578 0.296860 0.741308
Si Si3 0.489169 0.420358 0.379356
Si Si4 0.769855 0.347218 0.321814
Si Si5 0.167261 0.678024 0.018655
O O1 0.321658 0.629485 0.302965
O O2 0.477801 0.504827 0.359043
O O3 0.451746 0.591938 0.499635
O O4 0.687040 0.613658 0.440041
O O5 0.500000 0.276330 0.750000
O O6 0.236596 0.236936 0.793869
O O7 0.135608 0.304814 0.616356
O O8 0.642053 0.379171 0.363757
O O9 0.283381 0.388644 0.288500
O O10 0.986723 0.354620 0.414734
O O11 0.250000 0.750000 0.000000
#
# Coordination Sequence:
#
# PCOD8142356 Si02
#       5
#     8   8   8   8   8
#     4  10  22  44  65  88 134 171 216 265 330 393
#     4  10  21  38  67  93 122 170 218 266 311 388
#     4  10  25  42  61  95 136 172 203 277 341 382
#     4  11  23  40  66  96 129 167 218 272 324 389
#     4  11  21  39  70  95 121 170 230 266 314 391
#
# _framework density 20.549216000000001
#
# number of rings (size 3 to 8) (size 9 to 14) (size 15 to 20)
#    0.000    1.600    4.000    1.200    8.400    1.600 
#    3.600    0.000    0.000    0.000    0.000    0.000 
#    0.000    0.000    0.000    0.000    0.000    0.000 
#
# Total GULP energy -247838.179117 kJ/mol
# GULP energy per Si atom -12391.908956 kJ/mol
# Density = 2.050244 g / cm^3
# Si number density = 20.549216 Si / 1000 Ang^3
#
#
#
# Elastic Constant Matrix: (Units=GPa)
#
#
# Indices 1 2 3 4 5 6 
#
# 1 44.1692 43.4053 37.8221 0.0000 -2.2598 0.0000
# 2 43.4053 156.5465 81.4895 0.0000 -2.3686 0.0000
# 3 37.8221 81.4895 139.0769 0.0000 7.8985 0.0000
# 4 0.0000 0.0000 0.0000 45.8136 0.0000 -2.4781
# 5 -2.2598 -2.3686 7.8985 0.0000 41.9133 0.0000
# 6 0.0000 0.0000 0.0000 -2.4781 0.0000 33.0199
#
#
#
# Elastic Compliance Matrix: (Units=1/GPa)
#
#
# Indices 1 2 3 4 5 6 
#
# 1 0.033887 -0.006455 -0.005576 0.000000 0.002513 0.000000
# 2 -0.006455 0.010522 -0.004471 0.000000 0.001089 0.000000
# 3 -0.005576 -0.004471 0.011481 0.000000 -0.002717 0.000000
# 4 0.000000 0.000000 0.000000 0.021917 0.000000 0.001645
# 5 0.002513 0.001089 -0.002717 0.000000 0.024568 0.000000
# 6 0.000000 0.000000 0.000000 0.001645 0.000000 0.030408
#
#
# Mechanical properties :
#
#
# Convention : Reuss Voigt Hill
#
# Bulk Modulus (GPa) = 43.69767 73.91405 58.80586
# Shear Modulus (GPa) = 28.83242 35.95439 32.39341
#
# Velocity S-wave (km/s) = 3.74985 4.18745 3.97467
# Velocity P-wave (km/s) = 6.32926 7.70889 7.05289
#
# Compressibility (1/GPa) = 0.02288451
#
# Stress axis : x y z
#
# Youngs Moduli (GPa) = 29.50967 95.04142 87.10119
#
# Poissons Ratio (x) = 0.61351 0.48568
# Poissons Ratio (y) = 0.19049 0.38946
# Poissons Ratio (z) = 0.16455 0.42496
#
# Static dielectric constant tensor:
#      x y z
#    x 3.435530 0.000000 0.091180 
#    y 0.000000 3.898160 0.000000 
#    z 0.091180 0.000000 4.635020 
# 
# 
# High freq. dielectric constant tensor:
#      x y z
#    x 1.760190 0.000000 -0.008150 
#    y 0.000000 1.811780 0.000000 
#    z -0.008150 0.000000 1.837950 
# 
# From -- ./inp_files/134212.got.cif
#   From: 2010.06.25/outbox.cif.g09.slc.cpg/sg15_68_cif.got.tgz:134212.got - 2010.06.28 07:06:18.
