data_PCOD8142082
_publ_section_title
;
Structure prediction by ZEFSAII (Michael W. Deem and Ramdas Pophale) SiO2 
 PCOD8142082
Probable space group: C 2/C
;
_chemical_formula_sum "Si O2"
_cell_formula_units_Z 56
_cell_length_a 16.117610
_cell_length_b 8.352755
_cell_length_c 21.914083
_cell_angle_alpha 90.000000
_cell_angle_beta 63.618428
_cell_angle_gamma 90.000000
_cell_volume 2642.964167
_symmetry_space_group_name_H-M "C 2/C"
_symmetry_group_IT_number 15
_symmetry_cell_setting 'monoclinic'
loop_
_space_group_symop_operation_xyz
x,y,z
-x,y,1/2-z
-x,-y,-z
x,-y,1/2+z
1/2+x,1/2+y,z
1/2-x,1/2+y,1/2-z
1/2-x,1/2-y,-z
1/2+x,1/2-y,1/2+z
loop_
_atom_site_type_symbol
_atom_site_label
_atom_site_fract_x
_atom_site_fract_y
_atom_site_fract_z
Si Si1 0.559229 0.861128 0.447721
Si Si2 0.883933 0.794437 0.965428
Si Si3 0.481901 0.252530 0.158828
Si Si4 0.858075 0.244364 0.339481
Si Si5 0.500000 0.496154 0.250000
Si Si6 0.000000 0.509267 0.750000
Si Si7 0.159899 0.654652 0.390986
Si Si8 0.850801 0.828603 0.474862
O O1 0.494787 0.747787 0.425927
O O2 0.606740 0.740204 0.477795
O O3 0.500000 0.000000 0.500000
O O4 0.638766 0.964430 0.386690
O O5 0.840474 0.723149 0.917347
O O6 0.854766 0.979706 0.980369
O O7 0.845403 0.698082 0.035749
O O8 0.448187 0.388534 0.216576
O O9 0.413811 0.257786 0.123233
O O10 0.587544 0.278703 0.103201
O O11 0.478607 0.085945 0.195457
O O12 0.905915 0.392028 0.290410
O O13 0.762804 0.201171 0.335886
O O14 0.925383 0.093874 0.312330
O O15 0.750000 0.750000 0.500000
#
# Coordination Sequence:
#
# PCOD8142082 Si02
#       8
#     8   8   8   8   4   4   8   8
#     4  10  21  38  61  97 128 161 197 260 343 380
#     4  11  22  40  67  97 133 164 210 270 339 384
#     4  11  23  46  62  89 133 168 216 265 321 391
#     4  11  23  42  66  96 123 168 224 260 318 394
#     4  10  24  44  64  82 126 180 208 262 308 380
#     4  10  26  42  68  86 126 186 216 262 320 386
#     4  11  24  40  69  97 130 160 214 278 332 385
#     4  12  24  38  66  96 131 169 213 270 334 388
#
# _framework density 21.188331999999999
#
# number of rings (size 3 to 8) (size 9 to 14) (size 15 to 20)
#    0.000    1.143    4.286    2.571    4.000    1.143 
#    0.000    0.000    0.000    0.000    0.000    0.000 
#    0.000    0.000    0.000    0.000    0.000    0.000 
#
# Total GULP energy -347038.766978 kJ/mol
# GULP energy per Si atom -12394.241678 kJ/mol
# Density = 2.114011 g / cm^3
# Si number density = 21.188332 Si / 1000 Ang^3
#
#
#
# Elastic Constant Matrix: (Units=GPa)
#
#
# Indices 1 2 3 4 5 6 
#
# 1 131.0388 40.2841 28.7740 0.0000 -11.5135 0.0001
# 2 40.2841 111.4875 21.1133 0.0000 -9.9988 0.0004
# 3 28.7740 21.1133 65.1918 0.0000 3.3712 0.0000
# 4 0.0000 0.0000 0.0000 23.7162 0.0000 5.4023
# 5 -11.5135 -9.9988 3.3712 0.0000 25.2167 0.0000
# 6 0.0001 0.0004 0.0000 5.4023 0.0000 26.7266
#
#
#
# Elastic Compliance Matrix: (Units=1/GPa)
#
#
# Indices 1 2 3 4 5 6 
#
# 1 0.009504 -0.002402 -0.003617 0.000000 0.003871 0.000000
# 2 -0.002402 0.010633 -0.002563 0.000000 0.003462 0.000000
# 3 -0.003617 -0.002563 0.018028 0.000000 -0.005078 0.000000
# 4 0.000000 0.000000 0.000000 0.044200 0.000000 -0.008934
# 5 0.003871 0.003462 -0.005078 0.000000 0.043475 0.000000
# 6 0.000000 0.000000 0.000000 -0.008934 0.000000 0.039222
#
#
# Mechanical properties :
#
#
# Convention : Reuss Voigt Hill
#
# Bulk Modulus (GPa) = 47.61363 54.22897 50.92130
# Shear Modulus (GPa) = 26.42324 29.63501 28.02913
#
# Velocity S-wave (km/s) = 3.53521 3.74391 3.64106
# Velocity P-wave (km/s) = 6.25972 6.65871 6.46230
#
# Compressibility (1/GPa) = 0.02100239
#
# Stress axis : x y z
#
# Youngs Moduli (GPa) = 105.21794 94.04377 55.46811
#
# Poissons Ratio (x) = 0.22589 0.20063
# Poissons Ratio (y) = 0.25273 0.14214
# Poissons Ratio (z) = 0.38058 0.24100
#
# Static dielectric constant tensor:
#      x y z
#    x 4.019320 0.000000 -0.101360 
#    y 0.000000 4.988710 0.000000 
#    z -0.101360 0.000000 3.846900 
# 
# 
# High freq. dielectric constant tensor:
#      x y z
#    x 1.833180 0.000000 0.003060 
#    y 0.000000 1.838320 0.000000 
#    z 0.003060 0.000000 1.820310 
# 
# From -- ./inp_files/272701.got.cif
#   From: 2010.06.25/outbox.cif.g09.slc.cpg/sg15_137_cif.got.tgz:272701.got - 2010.06.28 07:06:18.
