data_PCOD8142156
_publ_section_title
;
Structure prediction by ZEFSAII (Michael W. Deem and Ramdas Pophale) SiO2 
 PCOD8142156
Probable space group: C 2/C
;
_chemical_formula_sum "Si O2"
_cell_formula_units_Z 60
_cell_length_a 27.233264
_cell_length_b 8.917245
_cell_length_c 22.638376
_cell_angle_alpha 90.000000
_cell_angle_beta 29.435702
_cell_angle_gamma 90.000000
_cell_volume 2701.792141
_symmetry_space_group_name_H-M "C 2/C"
_symmetry_group_IT_number 15
_symmetry_cell_setting 'monoclinic'
loop_
_space_group_symop_operation_xyz
x,y,z
-x,y,1/2-z
-x,-y,-z
x,-y,1/2+z
1/2+x,1/2+y,z
1/2-x,1/2+y,1/2-z
1/2-x,1/2-y,-z
1/2+x,1/2-y,1/2+z
loop_
_atom_site_type_symbol
_atom_site_label
_atom_site_fract_x
_atom_site_fract_y
_atom_site_fract_z
Si Si1 0.000000 0.862885 0.750000
Si Si2 0.635210 0.173585 0.433220
Si Si3 0.132890 0.860277 0.815234
Si Si4 0.497268 0.914543 0.892933
Si Si5 0.155404 0.196075 0.422579
Si Si6 0.370119 0.309459 0.179469
Si Si7 0.884703 0.661222 0.780798
Si Si8 0.163151 0.085892 0.994128
O O1 0.077198 0.766184 0.707426
O O2 0.075757 0.964264 0.631405
O O3 0.748202 0.123192 0.304351
O O4 0.602659 0.294466 0.418120
O O5 0.623541 0.256932 0.508335
O O6 0.564829 0.029439 0.501030
O O7 0.097929 0.818462 0.918855
O O8 0.100688 0.739089 0.799562
O O9 0.092220 0.025828 0.838988
O O10 0.586045 0.832779 0.833282
O O11 0.548780 0.009438 0.786599
O O12 0.418800 0.786019 0.955018
O O13 0.252143 0.297472 0.313493
O O14 0.179861 0.035817 0.425459
O O15 0.769542 0.617982 0.913753
#
# Coordination Sequence:
#
# PCOD8142156 Si02
#       8
#     4   8   8   8   8   8   8   8
#     4  12  26  46  76  92 128 184 248 282 328 384
#     4  10  21  38  62  96 136 177 218 261 335 411
#     4  10  23  40  65 101 143 181 213 274 345 417
#     4  12  24  37  64  95 134 179 218 273 336 403
#     4  11  24  40  66 104 146 174 217 280 347 415
#     4  11  22  37  63  99 143 178 211 267 343 415
#     4  11  26  45  71  99 133 177 235 283 336 402
#     4  11  23  47  69  98 133 177 229 284 330 405
#
# _framework density 22.207481000000001
#
# number of rings (size 3 to 8) (size 9 to 14) (size 15 to 20)
#    0.000    1.067    5.333    0.800    5.600    0.533 
#    0.000    0.667    0.000    2.400    0.000    0.000 
#    0.000    0.000    0.000    0.000    0.000    0.000 
#
# Total GULP energy -371851.955067 kJ/mol
# GULP energy per Si atom -12395.065169 kJ/mol
# Density = 2.215694 g / cm^3
# Si number density = 22.207481 Si / 1000 Ang^3
#
#
#
# Elastic Constant Matrix: (Units=GPa)
#
#
# Indices 1 2 3 4 5 6 
#
# 1 52.1566 4.3801 0.9741 -0.0102 -8.9680 0.0014
# 2 4.3801 91.4613 8.7521 -0.0549 -5.1815 0.0270
# 3 0.9741 8.7521 51.6992 -0.0136 6.1928 0.0084
# 4 -0.0102 -0.0549 -0.0136 39.3264 0.0135 -10.5136
# 5 -8.9680 -5.1815 6.1928 0.0135 28.1567 -0.0034
# 6 0.0014 0.0270 0.0084 -10.5136 -0.0034 16.1770
#
#
#
# Elastic Compliance Matrix: (Units=1/GPa)
#
#
# Indices 1 2 3 4 5 6 
#
# 1 0.020377 -0.000495 -0.001096 0.000003 0.006640 0.000003
# 2 -0.000495 0.011303 -0.002192 0.000011 0.002405 -0.000010
# 3 -0.001096 -0.002192 0.020361 0.000004 -0.005231 -0.000005
# 4 0.000003 0.000011 0.000004 0.030775 -0.000010 0.020001
# 5 0.006640 0.002405 -0.005231 -0.000010 0.039223 0.000000
# 6 0.000003 -0.000010 -0.000005 0.020001 0.000000 0.074815
#
#
# Mechanical properties :
#
#
# Convention : Reuss Voigt Hill
#
# Bulk Modulus (GPa) = 22.48416 24.83665 23.66040
# Shear Modulus (GPa) = 22.80549 28.81273 25.80911
#
# Velocity S-wave (km/s) = 3.20805 3.60590 3.41278
# Velocity P-wave (km/s) = 4.88556 5.34274 5.11925
#
# Compressibility (1/GPa) = 0.04447577
#
# Stress axis : x y z
#
# Youngs Moduli (GPa) = 49.07560 88.46977 49.11354
#
# Poissons Ratio (x) = 0.04378 0.05381
# Poissons Ratio (y) = 0.02429 0.10767
# Poissons Ratio (z) = 0.05376 0.19395
#
# Static dielectric constant tensor:
#      x y z
#    x 3.704820 -0.000010 -0.191790 
#    y -0.000010 3.896400 0.000020 
#    z -0.191790 0.000020 4.184470 
# 
# 
# High freq. dielectric constant tensor:
#      x y z
#    x 1.835360 0.000000 -0.029340 
#    y 0.000000 1.875700 0.000000 
#    z -0.029340 0.000000 1.895860 
# 
# From -- ./inp_files/283371.got.cif
#   From: 2010.06.25/outbox.cif.g09.slc.cpg/sg15_142_cif.got.tgz:283371.got - 2010.06.28 07:06:18.
