data_PCOD8142919
_publ_section_title
;
Structure prediction by ZEFSAII (Michael W. Deem and Ramdas Pophale) SiO2 
 PCOD8142919
Probable space group: C 2/C
;
_chemical_formula_sum "Si O2"
_cell_formula_units_Z 40
_cell_length_a 13.092699
_cell_length_b 7.602323
_cell_length_c 29.606349
_cell_angle_alpha 90.000000
_cell_angle_beta 143.559470
_cell_angle_gamma 90.000000
_cell_volume 1750.403221
_symmetry_space_group_name_H-M "C 2/C"
_symmetry_group_IT_number 15
_symmetry_cell_setting 'monoclinic'
loop_
_space_group_symop_operation_xyz
x,y,z
-x,y,1/2-z
-x,-y,-z
x,-y,1/2+z
1/2+x,1/2+y,z
1/2-x,1/2+y,1/2-z
1/2-x,1/2-y,-z
1/2+x,1/2-y,1/2+z
loop_
_atom_site_type_symbol
_atom_site_label
_atom_site_fract_x
_atom_site_fract_y
_atom_site_fract_z
Si Si1 0.457438 0.007898 0.784293
Si Si2 0.658089 0.747201 0.180891
Si Si3 0.509385 0.845760 0.467283
Si Si4 0.717342 0.641235 0.055122
Si Si5 0.152864 0.002405 0.435542
O O1 0.500000 0.086280 0.750000
O O2 0.350317 0.826302 0.741639
O O3 0.640375 0.983097 0.872950
O O4 0.345583 0.143069 0.774117
O O5 0.606033 0.869996 0.119328
O O6 0.531706 0.580686 0.141905
O O7 0.445853 0.666650 0.469053
O O8 0.500000 0.000000 0.500000
O O9 0.707566 0.840772 0.522237
O O10 0.804289 0.832701 0.079135
O O11 0.646100 0.554619 0.984959
#
# Coordination Sequence:
#
# PCOD8142919 Si02
#       5
#     8   8   8   8   8
#     4  12  26  46  64  96 138 184 221 269 336 406
#     4  12  25  45  64  97 137 176 224 277 331 405
#     4  10  21  39  67  99 127 164 217 282 336 381
#     4  10  21  42  68  95 128 173 220 274 339 388
#     4  10  22  41  68  97 128 166 223 285 326 392
#
# _framework density 22.851877999999999
#
# number of rings (size 3 to 8) (size 9 to 14) (size 15 to 20)
#    0.000    1.200    4.000    1.800    0.000    2.400 
#    7.200    0.000    0.000    0.000    0.000    0.000 
#    0.000    0.000    0.000    0.000    0.000    0.000 
#
# Total GULP energy -247949.872865 kJ/mol
# GULP energy per Si atom -12397.493643 kJ/mol
# Density = 2.279987 g / cm^3
# Si number density = 22.851878 Si / 1000 Ang^3
#
#
#
# Elastic Constant Matrix: (Units=GPa)
#
#
# Indices 1 2 3 4 5 6 
#
# 1 127.9854 34.6930 9.0629 0.0000 -22.1679 0.0000
# 2 34.6930 58.6190 18.5258 0.0000 -8.8632 0.0000
# 3 9.0629 18.5258 52.9335 0.0000 -12.7848 0.0000
# 4 0.0000 0.0000 0.0000 38.8844 0.0000 -4.7142
# 5 -22.1679 -8.8632 -12.7848 0.0000 42.1091 0.0000
# 6 0.0000 0.0000 0.0000 -4.7142 0.0000 44.2116
#
#
#
# Elastic Compliance Matrix: (Units=1/GPa)
#
#
# Indices 1 2 3 4 5 6 
#
# 1 0.010039 -0.005691 0.001360 0.000000 0.004500 0.000000
# 2 -0.005691 0.022590 -0.007022 0.000000 -0.000373 0.000000
# 3 0.001360 -0.007022 0.022589 0.000000 0.006096 0.000000
# 4 0.000000 0.000000 0.000000 0.026054 0.000000 0.002778
# 5 0.004500 -0.000373 0.006096 0.000000 0.027889 0.000000
# 6 0.000000 0.000000 0.000000 0.002778 0.000000 0.022915
#
#
# Mechanical properties :
#
#
# Convention : Reuss Voigt Hill
#
# Bulk Modulus (GPa) = 30.75792 40.45570 35.60681
# Shear Modulus (GPa) = 30.18968 36.85809 33.52389
#
# Velocity S-wave (km/s) = 3.63864 4.02047 3.83431
# Velocity P-wave (km/s) = 5.58049 6.26850 5.93447
#
# Compressibility (1/GPa) = 0.03251195
#
# Stress axis : x y z
#
# Youngs Moduli (GPa) = 99.60992 44.26701 44.26985
#
# Poissons Ratio (x) = 0.25192 -0.06020
# Poissons Ratio (y) = 0.56687 0.31086
# Poissons Ratio (z) = -0.13545 0.31084
#
# Static dielectric constant tensor:
#      x y z
#    x 4.715840 0.000000 0.062760 
#    y 0.000000 3.972740 0.000000 
#    z 0.062760 0.000000 3.945130 
# 
# 
# High freq. dielectric constant tensor:
#      x y z
#    x 1.930500 0.000000 0.000440 
#    y 0.000000 1.889320 0.000000 
#    z 0.000440 0.000000 1.893670 
# 
# From -- ./inp_files/309823.got.cif
#   From: 2010.06.25/outbox.cif.g09.slc.cpg/sg15_155_cif.got.tgz:309823.got - 2010.06.28 07:06:18.
