data_PCOD8142370
_publ_section_title
;
Structure prediction by ZEFSAII (Michael W. Deem and Ramdas Pophale) SiO2 
 PCOD8142370
Probable space group: C 2/C
;
_chemical_formula_sum "Si O2"
_cell_formula_units_Z 60
_cell_length_a 16.984419
_cell_length_b 13.871878
_cell_length_c 11.989351
_cell_angle_alpha 90.000000
_cell_angle_beta 117.123425
_cell_angle_gamma 90.000000
_cell_volume 2514.111649
_symmetry_space_group_name_H-M "C 2/C"
_symmetry_group_IT_number 15
_symmetry_cell_setting 'monoclinic'
loop_
_space_group_symop_operation_xyz
x,y,z
-x,y,1/2-z
-x,-y,-z
x,-y,1/2+z
1/2+x,1/2+y,z
1/2-x,1/2+y,1/2-z
1/2-x,1/2-y,-z
1/2+x,1/2-y,1/2+z
loop_
_atom_site_type_symbol
_atom_site_label
_atom_site_fract_x
_atom_site_fract_y
_atom_site_fract_z
Si Si1 0.373202 0.550561 0.484340
Si Si2 0.370367 0.155017 0.689518
Si Si3 0.871559 0.856280 0.754550
Si Si4 0.904289 0.535305 0.906946
Si Si5 0.500000 0.510916 0.750000
Si Si6 0.824940 0.854247 0.343783
Si Si7 0.755366 0.644270 0.943291
Si Si8 0.170676 0.651822 0.082030
O O1 0.372441 0.632345 0.388595
O O2 0.461620 0.569893 0.618388
O O3 0.378515 0.444213 0.431350
O O4 0.281731 0.565444 0.493182
O O5 0.417925 0.256594 0.750192
O O6 0.421811 0.078107 0.796551
O O7 0.269271 0.151374 0.660467
O O8 0.378076 0.129457 0.565462
O O9 0.916115 0.946958 0.726600
O O10 0.775572 0.843527 0.637521
O O11 0.852725 0.610182 0.959810
O O12 0.845801 0.439631 0.849403
O O13 0.000000 0.500000 0.000000
O O14 0.814845 0.861534 0.203984
O O15 0.871817 0.751507 0.399182
O O16 0.750000 0.750000 0.000000
#
# Coordination Sequence:
#
# PCOD8142370 Si02
#       8
#     8   8   8   8   4   8   8   8
#     4  12  23  42  66  95 133 175 221 273 340 412
#     4  10  21  40  63  92 126 167 218 273 335 400
#     4  11  23  40  65  94 128 171 221 277 333 408
#     4  11  25  42  64  98 135 176 226 283 344 417
#     4  12  24  38  62  96 132 170 212 272 336 394
#     4  10  21  38  67  98 124 167 226 277 331 409
#     4  11  24  45  71  98 134 181 226 281 349 419
#     4  11  22  41  67  94 128 172 223 280 343 415
#
# _framework density 23.865288
#
# number of rings (size 3 to 8) (size 9 to 14) (size 15 to 20)
#    0.000    1.067    0.000   10.000    0.000    3.733 
#    0.000    2.667    0.000    0.000    0.000    0.000 
#    0.000    0.000    0.000    0.000    0.000    0.000 
#
# Total GULP energy -371719.386774 kJ/mol
# GULP energy per Si atom -12390.646226 kJ/mol
# Density = 2.381097 g / cm^3
# Si number density = 23.865288 Si / 1000 Ang^3
#
#
#
# Elastic Constant Matrix: (Units=GPa)
#
#
# Indices 1 2 3 4 5 6 
#
# 1 49.2147 21.3214 34.4112 0.0000 1.3058 0.0000
# 2 21.3214 126.1354 56.9021 0.0000 1.6786 0.0000
# 3 34.4112 56.9021 173.9147 0.0000 -4.7635 0.0000
# 4 0.0000 0.0000 0.0000 42.7569 0.0000 -6.0874
# 5 1.3058 1.6786 -4.7635 0.0000 29.3391 0.0000
# 6 0.0000 0.0000 0.0000 -6.0874 0.0000 5.0319
#
#
#
# Elastic Compliance Matrix: (Units=1/GPa)
#
#
# Indices 1 2 3 4 5 6 
#
# 1 0.024193 -0.002216 -0.004106 0.000000 -0.001617 0.000000
# 2 -0.002216 0.009535 -0.002706 0.000000 -0.000886 0.000000
# 3 -0.004106 -0.002706 0.007490 0.000000 0.001554 0.000000
# 4 0.000000 0.000000 0.000000 0.028255 0.000000 0.034182
# 5 -0.001617 -0.000886 0.001554 0.000000 0.034459 0.000000
# 6 0.000000 0.000000 0.000000 0.034182 0.000000 0.240085
#
#
# Mechanical properties :
#
#
# Convention : Reuss Voigt Hill
#
# Bulk Modulus (GPa) = 43.17176 63.83712 53.50444
# Shear Modulus (GPa) = 13.52108 31.20091 22.36100
#
# Velocity S-wave (km/s) = 2.38283 3.61969 3.06431
# Velocity P-wave (km/s) = 5.06947 6.65406 5.91507
#
# Compressibility (1/GPa) = 0.02316329
#
# Stress axis : x y z
#
# Youngs Moduli (GPa) = 41.33423 104.87888 133.50800
#
# Poissons Ratio (x) = 0.23236 0.54822
# Poissons Ratio (y) = 0.09158 0.36121
# Poissons Ratio (z) = 0.16973 0.28375
#
# Static dielectric constant tensor:
#      x y z
#    x 4.385220 0.000000 -0.469250 
#    y 0.000000 -2.177300 0.000000 
#    z -0.469250 0.000000 4.805050 
# 
# 
# High freq. dielectric constant tensor:
#      x y z
#    x 1.928920 0.000000 -0.010000 
#    y 0.000000 1.954340 0.000000 
#    z -0.010000 0.000000 1.952890 
# 
# From -- ./inp_files/112779.got.cif
#   From: 2010.06.25/outbox.cif.g09.slc.cpg/sg15_57_cif.got.tgz:112779.got - 2010.06.28 07:06:18.
