data_PCOD8142681
_publ_section_title
;
Structure prediction by ZEFSAII (Michael W. Deem and Ramdas Pophale) SiO2 
 PCOD8142681
Probable space group: C 2/C
;
_chemical_formula_sum "Si O2"
_cell_formula_units_Z 56
_cell_length_a 21.623862
_cell_length_b 8.855800
_cell_length_c 14.723648
_cell_angle_alpha 90.000000
_cell_angle_beta 83.215901
_cell_angle_gamma 90.000000
_cell_volume 2799.787081
_symmetry_space_group_name_H-M "C 2/C"
_symmetry_group_IT_number 15
_symmetry_cell_setting 'monoclinic'
loop_
_space_group_symop_operation_xyz
x,y,z
-x,y,1/2-z
-x,-y,-z
x,-y,1/2+z
1/2+x,1/2+y,z
1/2-x,1/2+y,1/2-z
1/2-x,1/2-y,-z
1/2+x,1/2-y,1/2+z
loop_
_atom_site_type_symbol
_atom_site_label
_atom_site_fract_x
_atom_site_fract_y
_atom_site_fract_z
Si Si1 0.704606 0.158705 0.709484
Si Si2 0.500000 0.607072 0.250000
Si Si3 0.747525 0.958690 0.542626
Si Si4 0.082262 0.865325 0.150414
Si Si5 0.080017 0.365573 0.314416
Si Si6 0.500000 0.887034 0.750000
Si Si7 0.710554 0.499237 0.165844
Si Si8 0.146865 0.740394 0.976722
O O1 0.632461 0.108342 0.728009
O O2 0.708123 0.338235 0.711889
O O3 0.737578 0.100168 0.794446
O O4 0.736135 0.096242 0.612795
O O5 0.534470 0.503460 0.169499
O O6 0.546525 0.707481 0.300910
O O7 0.771938 0.020785 0.442455
O O8 0.801194 0.851332 0.576474
O O9 0.682994 0.867923 0.541594
O O10 0.054129 0.713151 0.197356
O O11 0.145722 0.911045 0.190782
O O12 0.095752 0.836283 0.041785
O O13 0.031573 0.504772 0.320591
O O14 0.111750 0.357307 0.407395
#
# Coordination Sequence:
#
# PCOD8142681 Si02
#       8
#     8   4   8   8   8   4   8   8
#     4  12  23  39  67  95 126 167 204 266 320 382
#     4  10  22  42  62  86 122 168 216 252 302 376
#     4  10  22  38  60  98 134 157 207 255 327 382
#     4  10  22  42  62  87 126 163 212 259 311 370
#     4  11  22  40  64  92 123 165 211 257 315 364
#     4  10  24  40  64  90 120 170 218 256 302 374
#     4  11  24  39  65  95 125 166 205 264 324 376
#     4  10  21  39  63  93 130 164 201 267 311 374
#
# _framework density 20.001521
#
# number of rings (size 3 to 8) (size 9 to 14) (size 15 to 20)
#    0.000    1.429    2.857    2.143    6.000    1.143 
#    0.000    0.000    3.143    0.000    0.000    0.000 
#    0.000    0.000    0.000    0.000    0.000    0.000 
#
# Total GULP energy -347245.127963 kJ/mol
# GULP energy per Si atom -12401.611713 kJ/mol
# Density = 1.995600 g / cm^3
# Si number density = 20.001521 Si / 1000 Ang^3
#
#
#
# Elastic Constant Matrix: (Units=GPa)
#
#
# Indices 1 2 3 4 5 6 
#
# 1 124.3980 62.8909 48.6556 0.0000 -0.7623 0.0000
# 2 62.8909 131.6524 44.4801 0.0000 2.3015 0.0000
# 3 48.6556 44.4801 88.6751 0.0000 1.5104 0.0000
# 4 0.0000 0.0000 0.0000 25.7356 0.0000 -1.5930
# 5 -0.7623 2.3015 1.5104 0.0000 28.7380 0.0000
# 6 0.0000 0.0000 0.0000 -1.5930 0.0000 36.2194
#
#
#
# Elastic Compliance Matrix: (Units=1/GPa)
#
#
# Indices 1 2 3 4 5 6 
#
# 1 0.011905 -0.004203 -0.004439 0.000000 0.000886 0.000000
# 2 -0.004203 0.010636 -0.003015 0.000000 -0.000805 0.000000
# 3 -0.004439 -0.003015 0.015237 0.000000 -0.000677 0.000000
# 4 0.000000 0.000000 0.000000 0.038963 0.000000 0.001714
# 5 0.000886 -0.000805 -0.000677 0.000000 0.034921 0.000000
# 6 0.000000 0.000000 0.000000 0.001714 0.000000 0.027685
#
#
# Mechanical properties :
#
#
# Convention : Reuss Voigt Hill
#
# Bulk Modulus (GPa) = 69.13964 72.97539 71.05751
# Shear Modulus (GPa) = 29.85372 30.71853 30.28612
#
# Velocity S-wave (km/s) = 3.86757 3.92319 3.89548
# Velocity P-wave (km/s) = 7.38826 7.55553 7.47236
#
# Compressibility (1/GPa) = 0.01446348
#
# Stress axis : x y z
#
# Youngs Moduli (GPa) = 83.99655 94.01729 65.62951
#
# Poissons Ratio (x) = 0.39514 0.29135
# Poissons Ratio (y) = 0.35302 0.19791
# Poissons Ratio (z) = 0.37288 0.28351
#
# Static dielectric constant tensor:
#      x y z
#    x 3.829450 0.000000 -0.133350 
#    y 0.000000 3.634160 0.000000 
#    z -0.133350 0.000000 3.360120 
# 
# 
# High freq. dielectric constant tensor:
#      x y z
#    x 1.792110 0.000000 -0.009650 
#    y 0.000000 1.786870 0.000000 
#    z -0.009650 0.000000 1.766780 
# 
# From -- ./inp_files/166708.got.cif
#   From: 2010.06.25/outbox.cif.g09.slc.cpg/sg15_84_cif.got.tgz:166708.got - 2010.06.28 07:06:18.
