data_PCOD8142157
_publ_section_title
;
Structure prediction by ZEFSAII (Michael W. Deem and Ramdas Pophale) SiO2 
 PCOD8142157
Probable space group: C 2/C
;
_chemical_formula_sum "Si O2"
_cell_formula_units_Z 56
_cell_length_a 11.078922
_cell_length_b 25.714483
_cell_length_c 14.138096
_cell_angle_alpha 90.000000
_cell_angle_beta 44.001896
_cell_angle_gamma 90.000000
_cell_volume 2798.030105
_symmetry_space_group_name_H-M "C 2/C"
_symmetry_group_IT_number 15
_symmetry_cell_setting 'monoclinic'
loop_
_space_group_symop_operation_xyz
x,y,z
-x,y,1/2-z
-x,-y,-z
x,-y,1/2+z
1/2+x,1/2+y,z
1/2-x,1/2+y,1/2-z
1/2-x,1/2-y,-z
1/2+x,1/2-y,1/2+z
loop_
_atom_site_type_symbol
_atom_site_label
_atom_site_fract_x
_atom_site_fract_y
_atom_site_fract_z
Si Si1 0.759388 0.971108 0.299696
Si Si2 0.537946 0.584274 0.971799
Si Si3 0.654673 0.442736 0.605674
Si Si4 0.470406 0.890319 0.510451
Si Si5 0.790824 0.195846 0.590287
Si Si6 0.502747 0.211971 0.601483
Si Si7 0.346607 0.933526 0.762919
O O1 0.909434 0.942535 0.155844
O O2 0.630810 0.928727 0.412768
O O3 0.830262 0.001198 0.351696
O O4 0.664437 0.011060 0.283006
O O5 0.625436 0.640860 0.929906
O O6 0.601438 0.549634 0.026037
O O7 0.329723 0.585843 0.088109
O O8 0.500000 0.412641 0.750000
O O9 0.828240 0.408945 0.513676
O O10 0.533156 0.832093 0.455860
O O11 0.392003 0.890170 0.659499
O O12 0.663705 0.190745 0.572641
O O13 0.674905 0.219770 0.740161
O O14 0.949535 0.234315 0.476801
O O15 0.500000 0.938515 0.750000
#
# Coordination Sequence:
#
# PCOD8142157 Si02
#       7
#     8   8   8   8   8   8   8
#     4  11  25  37  61  91 128 171 217 249 310 378
#     4  12  23  41  65  91 130 172 208 266 319 372
#     4  11  22  37  60  91 128 168 212 252 312 374
#     4  11  22  40  60  91 128 168 204 261 312 376
#     4  10  22  37  63  97 127 161 202 259 321 381
#     4  10  21  38  62  97 128 158 202 262 320 378
#     4  11  26  40  60  89 126 173 211 255 310 382
#
# _framework density 20.01408
#
# number of rings (size 3 to 8) (size 9 to 14) (size 15 to 20)
#    0.000    1.143    5.714    2.143    6.000    0.000 
#    0.000    0.000    0.000    0.857    0.000    0.000 
#    0.000    0.000    0.000    0.000    0.000    0.000 
#
# Total GULP energy -347168.267380 kJ/mol
# GULP energy per Si atom -12398.866692 kJ/mol
# Density = 1.996853 g / cm^3
# Si number density = 20.014080 Si / 1000 Ang^3
#
#
#
# Elastic Constant Matrix: (Units=GPa)
#
#
# Indices 1 2 3 4 5 6 
#
# 1 71.9872 30.7863 31.9596 0.0000 -18.0737 0.0000
# 2 30.7863 117.6693 54.9989 0.0000 4.8721 0.0000
# 3 31.9596 54.9989 141.9767 0.0000 -7.7069 0.0000
# 4 0.0000 0.0000 0.0000 33.8596 0.0000 4.9874
# 5 -18.0737 4.8721 -7.7069 0.0000 17.5577 0.0000
# 6 0.0000 0.0000 0.0000 4.9874 0.0000 19.6088
#
#
#
# Elastic Compliance Matrix: (Units=1/GPa)
#
#
# Indices 1 2 3 4 5 6 
#
# 1 0.023817 -0.006649 -0.001388 0.000000 0.025753 0.000000
# 2 -0.006649 0.012637 -0.004057 0.000000 -0.012132 0.000000
# 3 -0.001388 -0.004057 0.009128 0.000000 0.003704 0.000000
# 4 0.000000 0.000000 0.000000 0.030683 0.000000 -0.007804
# 5 0.025753 -0.012132 0.003704 0.000000 0.088457 0.000000
# 6 0.000000 0.000000 0.000000 -0.007804 0.000000 0.052982
#
#
# Mechanical properties :
#
#
# Convention : Reuss Voigt Hill
#
# Bulk Modulus (GPa) = 46.74108 63.01365 54.87737
# Shear Modulus (GPa) = 20.07849 28.46445 24.27147
#
# Velocity S-wave (km/s) = 3.17080 3.77533 3.48619
# Velocity P-wave (km/s) = 6.06713 7.11035 6.60936
#
# Compressibility (1/GPa) = 0.02139446
#
# Stress axis : x y z
#
# Youngs Moduli (GPa) = 41.98757 79.13558 109.54772
#
# Poissons Ratio (x) = 0.52617 0.15201
# Poissons Ratio (y) = 0.27917 0.44443
# Poissons Ratio (z) = 0.05826 0.32105
#
# Static dielectric constant tensor:
#      x y z
#    x 3.513910 0.000000 -0.067380 
#    y 0.000000 3.470650 0.000000 
#    z -0.067380 0.000000 4.041230 
# 
# 
# High freq. dielectric constant tensor:
#      x y z
#    x 1.755350 0.000000 -0.005510 
#    y 0.000000 1.764560 0.000000 
#    z -0.005510 0.000000 1.806740 
# 
# From -- ./inp_files/148539.got.cif
#   From: 2010.06.25/outbox.cif.g09.slc.cpg/sg15_75_cif.got.tgz:148539.got - 2010.06.28 07:06:18.
