data_PCOD8142604
_publ_section_title
;
Structure prediction by ZEFSAII (Michael W. Deem and Ramdas Pophale) SiO2 
 PCOD8142604
Probable space group: C 2/C
;
_chemical_formula_sum "Si O2"
_cell_formula_units_Z 52
_cell_length_a 20.703848
_cell_length_b 15.143440
_cell_length_c 8.932158
_cell_angle_alpha 90.000000
_cell_angle_beta 64.387807
_cell_angle_gamma 90.000000
_cell_volume 2525.303673
_symmetry_space_group_name_H-M "C 2/C"
_symmetry_group_IT_number 15
_symmetry_cell_setting 'monoclinic'
loop_
_space_group_symop_operation_xyz
x,y,z
-x,y,1/2-z
-x,-y,-z
x,-y,1/2+z
1/2+x,1/2+y,z
1/2-x,1/2+y,1/2-z
1/2-x,1/2-y,-z
1/2+x,1/2-y,1/2+z
loop_
_atom_site_type_symbol
_atom_site_label
_atom_site_fract_x
_atom_site_fract_y
_atom_site_fract_z
Si Si1 0.000000 0.309387 0.750000
Si Si2 0.725777 0.386062 0.948482
Si Si3 0.137479 0.596297 0.645406
Si Si4 0.149718 0.740005 0.197097
Si Si5 0.068453 0.458186 0.502238
Si Si6 0.328004 0.275012 0.983069
Si Si7 0.208090 0.060506 0.129229
O O1 0.062574 0.257034 0.776452
O O2 0.047762 0.365130 0.590301
O O3 0.679344 0.299753 0.032113
O O4 0.700611 0.457292 0.097809
O O5 0.810924 0.357136 0.862992
O O6 0.704467 0.425985 0.809974
O O7 0.089290 0.530128 0.601374
O O8 0.131367 0.566188 0.823621
O O9 0.116535 0.699194 0.633435
O O10 0.217723 0.587601 0.516207
O O11 0.172153 0.777643 0.336494
O O12 0.000000 0.500000 0.500000
O O13 0.348689 0.372061 0.894592
O O14 0.250000 0.250000 0.000000
#
# Coordination Sequence:
#
# PCOD8142604 Si02
#       7
#     4   8   8   8   8   8   8
#     4  12  26  40  64  90 138 170 222 256 330 394
#     4  11  23  40  70  95 132 168 221 269 334 375
#     4  11  22  36  58  88 132 167 209 259 315 376
#     4  11  24  43  64  99 129 176 212 272 321 394
#     4  12  23  37  56  88 128 182 210 247 306 399
#     4  10  21  39  62  92 130 162 219 268 318 374
#     4  11  22  39  65  99 123 171 213 282 320 384
#
# _framework density 20.591584000000001
#
# number of rings (size 3 to 8) (size 9 to 14) (size 15 to 20)
#    0.000    0.923    4.615    3.692    2.154    2.462 
#    0.000    0.000    0.000    3.692    0.000    0.000 
#    0.000    0.000    0.000    0.000    0.000    0.000 
#
# Total GULP energy -322116.556958 kJ/mol
# GULP energy per Si atom -12389.098345 kJ/mol
# Density = 2.054472 g / cm^3
# Si number density = 20.591584 Si / 1000 Ang^3
#
#
#
# Elastic Constant Matrix: (Units=GPa)
#
#
# Indices 1 2 3 4 5 6 
#
# 1 90.1676 28.9317 38.0683 0.0000 7.5050 0.0000
# 2 28.9317 110.5910 38.1155 0.0000 6.6942 0.0000
# 3 38.0683 38.1155 107.6564 0.0000 26.2327 0.0000
# 4 0.0000 0.0000 0.0000 39.0435 0.0000 1.8531
# 5 7.5050 6.6942 26.2327 0.0000 22.8199 0.0000
# 6 0.0000 0.0000 0.0000 1.8531 0.0000 3.9295
#
#
#
# Elastic Compliance Matrix: (Units=1/GPa)
#
#
# Indices 1 2 3 4 5 6 
#
# 1 0.013489 -0.002117 -0.004293 0.000000 0.001120 0.000000
# 2 -0.002117 0.010675 -0.003386 0.000000 0.001457 0.000000
# 3 -0.004293 -0.003386 0.015863 0.000000 -0.015830 0.000000
# 4 0.000000 0.000000 0.000000 0.026199 0.000000 -0.012355
# 5 0.001120 0.001457 -0.015830 0.000000 0.061223 0.000000
# 6 0.000000 0.000000 0.000000 -0.012355 0.000000 0.260315
#
#
# Mechanical properties :
#
#
# Convention : Reuss Voigt Hill
#
# Bulk Modulus (GPa) = 48.93610 57.62734 53.28172
# Shear Modulus (GPa) = 12.07238 26.71186 19.39212
#
# Velocity S-wave (km/s) = 2.42394 3.60560 3.07212
# Velocity P-wave (km/s) = 5.62589 6.73650 6.20609
#
# Compressibility (1/GPa) = 0.02043481
#
# Stress axis : x y z
#
# Youngs Moduli (GPa) = 74.13386 93.67760 63.03928
#
# Poissons Ratio (x) = 0.19831 0.27065
# Poissons Ratio (y) = 0.15694 0.21344
# Poissons Ratio (z) = 0.31828 0.31718
#
# Static dielectric constant tensor:
#      x y z
#    x 5.282840 0.000000 0.159440 
#    y 0.000000 0.435620 0.000000 
#    z 0.159440 0.000000 4.089320 
# 
# 
# High freq. dielectric constant tensor:
#      x y z
#    x 1.772870 0.000000 0.026130 
#    y 0.000000 1.814980 0.000000 
#    z 0.026130 0.000000 1.809360 
# 
# From -- ./inp_files/61435.got.cif
#   From: 2010.06.25/outbox.cif.g09.slc.cpg/sg15_31_cif.got.tgz:61435.got - 2010.06.28 07:06:18.
