data_PCOD8142150
_publ_section_title
;
Structure prediction by ZEFSAII (Michael W. Deem and Ramdas Pophale) SiO2 
 PCOD8142150
Probable space group: C 2/C
;
_chemical_formula_sum "Si O2"
_cell_formula_units_Z 48
_cell_length_a 12.302514
_cell_length_b 20.441544
_cell_length_c 15.205909
_cell_angle_alpha 90.000000
_cell_angle_beta 36.187164
_cell_angle_gamma 90.000000
_cell_volume 2257.795448
_symmetry_space_group_name_H-M "C 2/C"
_symmetry_group_IT_number 15
_symmetry_cell_setting 'monoclinic'
loop_
_space_group_symop_operation_xyz
x,y,z
-x,y,1/2-z
-x,-y,-z
x,-y,1/2+z
1/2+x,1/2+y,z
1/2-x,1/2+y,1/2-z
1/2-x,1/2-y,-z
1/2+x,1/2-y,1/2+z
loop_
_atom_site_type_symbol
_atom_site_label
_atom_site_fract_x
_atom_site_fract_y
_atom_site_fract_z
Si Si1 0.430078 0.689697 0.129772
Si Si2 0.669991 0.182043 0.699879
Si Si3 0.825683 0.563684 0.188755
Si Si4 0.314789 0.920938 0.151654
Si Si5 0.816324 0.808351 0.512794
Si Si6 0.500000 0.624367 0.750000
Si Si7 0.500000 0.094986 0.250000
O O1 0.369181 0.743921 0.240272
O O2 0.332169 0.619642 0.212114
O O3 0.364928 0.716071 0.077734
O O4 0.650737 0.681794 0.980937
O O5 0.500000 0.159105 0.750000
O O6 0.703014 0.131736 0.758226
O O7 0.742084 0.491928 0.230056
O O8 0.920988 0.553594 0.221205
O O9 0.972970 0.580403 0.016830
O O10 0.189796 0.912918 0.145366
O O11 0.750000 0.750000 0.500000
O O12 0.660967 0.861517 0.607536
O O13 0.993166 0.835384 0.345885
#
# Coordination Sequence:
#
# PCOD8142150 Si02
#       7
#     8   8   8   8   8   4   4
#     4  11  25  44  67 101 135 175 227 278 334 403
#     4  12  26  46  70  99 137 182 227 278 334 406
#     4  10  24  45  67  97 138 178 225 277 337 404
#     4  11  24  46  68  99 135 180 224 279 339 396
#     4  11  22  35  64  97 131 168 208 274 336 396
#     4  12  21  42  64 100 131 164 226 270 338 398
#     4  10  21  38  62  94 131 172 212 270 332 400
#
# _framework density 21.259675999999999
#
# number of rings (size 3 to 8) (size 9 to 14) (size 15 to 20)
#    0.000    1.000    3.333    3.000    5.833    0.667 
#    7.500    0.000    0.000    0.000    0.000    0.000 
#    0.000    0.000    0.000    0.000    0.000    0.000 
#
# Total GULP energy -297386.806244 kJ/mol
# GULP energy per Si atom -12391.116927 kJ/mol
# Density = 2.121129 g / cm^3
# Si number density = 21.259676 Si / 1000 Ang^3
#
#
#
# Elastic Constant Matrix: (Units=GPa)
#
#
# Indices 1 2 3 4 5 6 
#
# 1 114.9615 33.8962 22.2800 0.0135 -11.0027 -0.0071
# 2 33.8962 55.8235 15.2566 -0.0292 -1.0932 0.0208
# 3 22.2800 15.2566 97.9497 0.0204 -10.8256 -0.0088
# 4 0.0135 -0.0292 0.0204 32.6104 -0.0204 3.8941
# 5 -11.0027 -1.0932 -10.8256 -0.0204 35.5770 0.0142
# 6 -0.0071 0.0208 -0.0088 3.8941 0.0142 26.7633
#
#
#
# Elastic Compliance Matrix: (Units=1/GPa)
#
#
# Indices 1 2 3 4 5 6 
#
# 1 0.011077 -0.006337 -0.001216 -0.000009 0.002861 0.000007
# 2 -0.006337 0.022340 -0.002255 0.000026 -0.001960 -0.000022
# 3 -0.001216 -0.002255 0.011163 -0.000007 0.002951 0.000005
# 4 -0.000009 0.000026 -0.000007 0.031207 0.000016 -0.004541
# 5 0.002861 -0.001960 0.002951 0.000016 0.029831 -0.000015
# 6 0.000007 -0.000022 0.000005 -0.004541 -0.000015 0.038025
#
#
# Mechanical properties :
#
#
# Convention : Reuss Voigt Hill
#
# Bulk Modulus (GPa) = 40.05928 45.73337 42.89632
# Shear Modulus (GPa) = 29.14086 32.14359 30.64222
#
# Velocity S-wave (km/s) = 3.70633 3.89260 3.80060
# Velocity P-wave (km/s) = 6.09914 6.46232 6.28336
#
# Compressibility (1/GPa) = 0.02496301
#
# Stress axis : x y z
#
# Youngs Moduli (GPa) = 90.28012 44.76371 89.57878
#
# Poissons Ratio (x) = 0.28368 0.10895
# Poissons Ratio (y) = 0.57214 0.20197
# Poissons Ratio (z) = 0.10980 0.10093
#
# Static dielectric constant tensor:
#      x y z
#    x 3.867880 -0.000010 -0.046090 
#    y -0.000010 3.649640 0.000030 
#    z -0.046090 0.000030 4.007050 
# 
# 
# High freq. dielectric constant tensor:
#      x y z
#    x 1.838550 0.000000 0.000990 
#    y 0.000000 1.825880 0.000000 
#    z 0.000990 0.000000 1.850170 
# 
# From -- ./inp_files/39684.got.cif
#   From: 2010.06.25/outbox.cif.g09.slc.cpg/sg15_20_cif.got.tgz:39684.got - 2010.06.28 07:06:18.
