data_PCOD8142109
_publ_section_title
;
Structure prediction by ZEFSAII (Michael W. Deem and Ramdas Pophale) SiO2 
 PCOD8142109
Probable space group: C 2/C
;
_chemical_formula_sum "Si O2"
_cell_formula_units_Z 56
_cell_length_a 14.511651
_cell_length_b 18.441330
_cell_length_c 11.694943
_cell_angle_alpha 90.000000
_cell_angle_beta 119.741757
_cell_angle_gamma 90.000000
_cell_volume 2717.453162
_symmetry_space_group_name_H-M "C 2/C"
_symmetry_group_IT_number 15
_symmetry_cell_setting 'monoclinic'
loop_
_space_group_symop_operation_xyz
x,y,z
-x,y,1/2-z
-x,-y,-z
x,-y,1/2+z
1/2+x,1/2+y,z
1/2-x,1/2+y,1/2-z
1/2-x,1/2-y,-z
1/2+x,1/2-y,1/2+z
loop_
_atom_site_type_symbol
_atom_site_label
_atom_site_fract_x
_atom_site_fract_y
_atom_site_fract_z
Si Si1 0.701470 0.700784 0.631925
Si Si2 0.052504 0.068274 0.895481
Si Si3 0.160330 0.044945 0.611235
Si Si4 0.831317 0.452968 0.402021
Si Si5 0.459090 0.936049 0.109944
Si Si6 0.791683 0.817928 0.098428
Si Si7 0.402305 0.773316 0.123754
O O1 0.717985 0.617253 0.601950
O O2 0.683934 0.708862 0.757259
O O3 0.603020 0.735310 0.503433
O O4 0.804137 0.743221 0.648257
O O5 0.103127 0.146845 0.895165
O O6 0.000000 0.032467 0.750000
O O7 0.955769 0.075317 0.923795
O O8 0.144951 0.016516 0.005079
O O9 0.236030 0.017537 0.761458
O O10 0.858804 0.519197 0.501948
O O11 0.795059 0.381983 0.449783
O O12 0.940694 0.429372 0.411140
O O13 0.500000 0.975696 0.250000
O O14 0.415872 0.857829 0.112725
O O15 0.750000 0.750000 0.000000
O O16 0.500000 0.737657 0.250000
#
# Coordination Sequence:
#
# PCOD8142109 Si02
#       7
#     8   8   8   8   8   8   8
#     4  10  22  40  60  91 120 161 205 252 307 367
#     4  11  22  39  62  92 119 166 205 251 318 367
#     4  10  22  38  63  87 124 159 208 258 300 376
#     4  10  22  39  59  91 123 159 206 249 312 366
#     4  10  21  38  62  89 119 161 203 256 300 365
#     4  11  24  42  62  90 131 170 202 259 321 377
#     4  10  21  38  64  86 119 160 205 254 303 359
#
# _framework density 20.607531000000002
#
# number of rings (size 3 to 8) (size 9 to 14) (size 15 to 20)
#    0.000    1.714    2.857    3.429    4.000    4.000 
#    2.571    5.714    0.000    0.000    0.000    0.000 
#    0.000    0.000    0.000    0.000    0.000    0.000 
#
# Total GULP energy -346970.309835 kJ/mol
# GULP energy per Si atom -12391.796780 kJ/mol
# Density = 2.056063 g / cm^3
# Si number density = 20.607531 Si / 1000 Ang^3
#
#
#
# Elastic Constant Matrix: (Units=GPa)
#
#
# Indices 1 2 3 4 5 6 
#
# 1 52.0105 13.2094 34.2408 0.0000 4.7131 0.0000
# 2 13.2094 76.3620 89.3439 0.0000 1.8112 0.0000
# 3 34.2408 89.3439 188.8106 0.0000 13.6347 0.0000
# 4 0.0000 0.0000 0.0000 23.6830 0.0000 -42.7992
# 5 4.7131 1.8112 13.6347 0.0000 32.4487 0.0000
# 6 0.0000 0.0000 0.0000 -42.7992 0.0000 -59.7059
#
#
#
# Elastic Compliance Matrix: (Units=1/GPa)
#
#
# Indices 1 2 3 4 5 6 
#
# 1 0.022012 0.001755 -0.004728 0.000000 -0.001309 0.000000
# 2 0.001755 0.030079 -0.014863 0.000000 0.004312 0.000000
# 3 -0.004728 -0.014863 0.013486 0.000000 -0.004151 0.000000
# 4 0.000000 0.000000 0.000000 0.018395 0.000000 -0.013186
# 5 -0.001309 0.004312 -0.004151 0.000000 0.032511 0.000000
# 6 0.000000 0.000000 0.000000 -0.013186 0.000000 -0.007297
#
#
# Mechanical properties :
#
#
# Convention : Reuss Voigt Hill
#
# Bulk Modulus (GPa) = 33.43779 65.64124 49.53951
# Shear Modulus (GPa) = 32.29376 11.31108 21.80242
#
# Velocity S-wave (km/s) = 3.96294 2.34536 3.25619
# Velocity P-wave (km/s) = 6.09927 6.26550 6.18294
#
# Compressibility (1/GPa) = 0.02990629
#
# Stress axis : x y z
#
# Youngs Moduli (GPa) = 45.42916 33.24527 74.14831
#
# Poissons Ratio (x) = -0.05834 0.35056
# Poissons Ratio (y) = -0.07972 1.10206
# Poissons Ratio (z) = 0.21478 0.49412
#
# Static dielectric constant tensor:
#      x y z
#    x 3.832540 0.000000 0.155920 
#    y 0.000000 3.560950 0.000000 
#    z 0.155920 0.000000 4.206420 
# 
# 
# High freq. dielectric constant tensor:
#      x y z
#    x 1.819140 0.000000 0.007630 
#    y 0.000000 1.781520 0.000000 
#    z 0.007630 0.000000 1.813160 
# 
# From -- ./inp_files/98834.got.cif
#   From: 2010.06.25/outbox.cif.g09.slc.cpg/sg15_50_cif.got.tgz:98834.got - 2010.06.28 07:06:18.
