data_PCOD8142848
_publ_section_title
;
Structure prediction by ZEFSAII (Michael W. Deem and Ramdas Pophale) SiO2 
 PCOD8142848
Probable space group: C 2/C
;
_chemical_formula_sum "Si O2"
_cell_formula_units_Z 48
_cell_length_a 21.619435
_cell_length_b 5.402852
_cell_length_c 19.995438
_cell_angle_alpha 90.000000
_cell_angle_beta 118.448480
_cell_angle_gamma 90.000000
_cell_volume 2053.565894
_symmetry_space_group_name_H-M "C 2/C"
_symmetry_group_IT_number 15
_symmetry_cell_setting 'monoclinic'
loop_
_space_group_symop_operation_xyz
x,y,z
-x,y,1/2-z
-x,-y,-z
x,-y,1/2+z
1/2+x,1/2+y,z
1/2-x,1/2+y,1/2-z
1/2-x,1/2-y,-z
1/2+x,1/2-y,1/2+z
loop_
_atom_site_type_symbol
_atom_site_label
_atom_site_fract_x
_atom_site_fract_y
_atom_site_fract_z
Si Si1 0.565002 0.984421 0.429739
Si Si2 0.092639 0.434796 0.172127
Si Si3 0.822413 0.945748 0.713374
Si Si4 0.812244 0.800385 0.338815
Si Si5 0.421932 0.229324 0.201654
Si Si6 0.921027 0.992993 0.988651
O O1 0.483304 0.930723 0.400481
O O2 0.582025 0.028984 0.359974
O O3 0.589710 0.235613 0.478263
O O4 0.599278 0.729800 0.474563
O O5 0.114750 0.167049 0.209216
O O6 0.142663 0.547126 0.140619
O O7 0.095536 0.606463 0.237803
O O8 0.760954 0.754994 0.658707
O O9 0.787761 0.131413 0.750320
O O10 0.859760 0.062966 0.666275
O O11 0.861063 0.007223 0.400188
O O12 0.500000 0.348925 0.250000
O O13 0.000000 0.000000 0.000000
#
# Coordination Sequence:
#
# PCOD8142848 Si02
#       6
#     8   8   8   8   8   8
#     4  11  25  43  67  97 135 177 225 276 336 404
#     4  10  21  39  66  93 129 169 222 287 326 394
#     4  11  22  40  68  96 136 167 229 288 339 399
#     4  11  23  38  63 101 128 174 221 279 345 394
#     4   9  23  41  63  98 125 177 225 280 339 393
#     4  12  25  42  66  98 138 179 223 276 336 410
#
# _framework density 23.373975000000002
#
# number of rings (size 3 to 8) (size 9 to 14) (size 15 to 20)
#    0.000    1.333    3.333    1.500    9.333    0.667 
#    0.000    1.667    0.000    0.000    0.000    0.000 
#    0.000    0.000    0.000    0.000    0.000    0.000 
#
# Total GULP energy -297332.041753 kJ/mol
# GULP energy per Si atom -12388.835073 kJ/mol
# Density = 2.332077 g / cm^3
# Si number density = 23.373975 Si / 1000 Ang^3
#
#
#
# Elastic Constant Matrix: (Units=GPa)
#
#
# Indices 1 2 3 4 5 6 
#
# 1 101.1257 25.3147 28.2532 -0.0003 11.7756 -0.0012
# 2 25.3147 97.1957 17.3476 0.0026 0.6279 -0.0010
# 3 28.2532 17.3476 78.9191 0.0000 15.1570 -0.0003
# 4 -0.0003 0.0026 0.0000 21.3441 -0.0003 7.8840
# 5 11.7756 0.6279 15.1570 -0.0003 20.0138 0.0007
# 6 -0.0012 -0.0010 -0.0003 7.8840 0.0007 26.2127
#
#
#
# Elastic Compliance Matrix: (Units=1/GPa)
#
#
# Indices 1 2 3 4 5 6 
#
# 1 0.011862 -0.002566 -0.002759 0.000000 -0.004809 0.000000
# 2 -0.002566 0.011313 -0.002095 -0.000002 0.002741 0.000001
# 3 -0.002759 -0.002095 0.016143 0.000000 -0.010536 0.000000
# 4 0.000000 -0.000002 0.000000 0.052707 0.000001 -0.015853
# 5 -0.004809 0.002741 -0.010536 0.000001 0.060689 -0.000002
# 6 0.000000 0.000001 0.000000 -0.015853 -0.000002 0.042918
#
#
# Mechanical properties :
#
#
# Convention : Reuss Voigt Hill
#
# Bulk Modulus (GPa) = 40.85150 46.56352 43.70751
# Shear Modulus (GPa) = 22.86973 27.26910 25.06942
#
# Velocity S-wave (km/s) = 3.13138 3.41932 3.27851
# Velocity P-wave (km/s) = 5.53076 5.96266 5.75077
#
# Compressibility (1/GPa) = 0.02447890
#
# Stress axis : x y z
#
# Youngs Moduli (GPa) = 84.30401 88.39417 61.94668
#
# Poissons Ratio (x) = 0.22682 0.17090
# Poissons Ratio (y) = 0.21632 0.12975
# Poissons Ratio (z) = 0.23258 0.18515
#
# Static dielectric constant tensor:
#      x y z
#    x 4.363290 0.000000 0.068040 
#    y 0.000000 4.585660 0.000000 
#    z 0.068040 0.000000 4.153870 
# 
# 
# High freq. dielectric constant tensor:
#      x y z
#    x 1.912340 0.000000 0.003810 
#    y 0.000000 1.930550 0.000000 
#    z 0.003810 0.000000 1.903840 
# 
# From -- ./inp_files/254468.got.cif
#   From: 2010.06.25/outbox.cif.g09.slc.cpg/sg15_128_cif.got.tgz:254468.got - 2010.06.28 07:06:18.
