data_PCOD8142602
_publ_section_title
;
Structure prediction by ZEFSAII (Michael W. Deem and Ramdas Pophale) SiO2 
 PCOD8142602
Probable space group: C 2/C
;
_chemical_formula_sum "Si O2"
_cell_formula_units_Z 48
_cell_length_a 8.667084
_cell_length_b 18.493386
_cell_length_c 30.322884
_cell_angle_alpha 90.000000
_cell_angle_beta 149.660806
_cell_angle_gamma 90.000000
_cell_volume 2455.007912
_symmetry_space_group_name_H-M "C 2/C"
_symmetry_group_IT_number 15
_symmetry_cell_setting 'monoclinic'
loop_
_space_group_symop_operation_xyz
x,y,z
-x,y,1/2-z
-x,-y,-z
x,-y,1/2+z
1/2+x,1/2+y,z
1/2-x,1/2+y,1/2-z
1/2-x,1/2-y,-z
1/2+x,1/2-y,1/2+z
loop_
_atom_site_type_symbol
_atom_site_label
_atom_site_fract_x
_atom_site_fract_y
_atom_site_fract_z
Si Si1 0.211136 0.576862 0.341864
Si Si2 0.311267 0.674171 0.992595
Si Si3 0.148487 0.574283 0.161557
Si Si4 0.758320 0.072814 0.651553
Si Si5 0.821965 0.042704 0.572593
Si Si6 0.799281 0.169860 0.495551
O O1 0.435202 0.639335 0.413380
O O2 0.414417 0.508827 0.379478
O O3 0.000000 0.605718 0.250000
O O4 0.978551 0.552284 0.322284
O O5 0.412723 0.673632 0.966436
O O6 0.250000 0.750000 0.000000
O O7 0.992120 0.633957 0.913255
O O8 0.500000 0.593735 0.250000
O O9 0.088208 0.504428 0.116007
O O10 0.992591 0.646099 0.104767
O O11 0.930268 0.071503 0.647080
O O12 0.000000 0.087720 0.750000
O O13 0.822547 0.112343 0.540833
O O14 0.500000 0.000000 0.500000
O O15 0.750000 0.250000 0.500000
#
# Coordination Sequence:
#
# PCOD8142602 Si02
#       6
#     8   8   8   8   8   8
#     4  11  23  38  65  96 124 167 221 267 327 398
#     4  11  24  42  62  90 133 173 216 272 336 402
#     4  10  21  39  62  92 125 161 214 273 326 388
#     4  11  22  39  66  92 126 168 215 271 329 388
#     4  12  22  40  67  95 132 169 219 276 328 395
#     4  11  24  40  63  90 125 173 216 265 337 401
#
# _framework density 19.551871999999999
#
# number of rings (size 3 to 8) (size 9 to 14) (size 15 to 20)
#    0.000    1.000    3.333    4.000    0.000    3.333 
#    0.000    4.167    0.000    0.000    0.000    0.000 
#    0.000    0.000    0.000    0.000    0.000    0.000 
#
# Total GULP energy -297506.647768 kJ/mol
# GULP energy per Si atom -12396.110324 kJ/mol
# Density = 1.950737 g / cm^3
# Si number density = 19.551872 Si / 1000 Ang^3
#
#
#
# Elastic Constant Matrix: (Units=GPa)
#
#
# Indices 1 2 3 4 5 6 
#
# 1 182.4218 72.1785 66.4992 -0.0082 -10.3839 0.0015
# 2 72.1785 141.1997 56.6034 -0.0038 -3.0378 0.0010
# 3 66.4992 56.6034 107.5592 0.0020 -5.0375 -0.0024
# 4 -0.0082 -0.0038 0.0020 19.6204 -0.0039 -9.2552
# 5 -10.3839 -3.0378 -5.0375 -0.0039 38.5537 0.0005
# 6 0.0015 0.0010 -0.0024 -9.2552 0.0005 27.7074
#
#
#
# Elastic Compliance Matrix: (Units=1/GPa)
#
#
# Indices 1 2 3 4 5 6 
#
# 1 0.007839 -0.002611 -0.003404 0.000004 0.001461 0.000001
# 2 -0.002611 0.009846 -0.003586 0.000001 -0.000396 0.000000
# 3 -0.003404 -0.003586 0.013314 -0.000003 0.000540 0.000000
# 4 0.000004 0.000001 -0.000003 0.060500 0.000007 0.020209
# 5 0.001461 -0.000396 0.000540 0.000007 0.026371 0.000002
# 6 0.000001 0.000000 0.000000 0.020209 0.000002 0.042842
#
#
# Mechanical properties :
#
#
# Convention : Reuss Voigt Hill
#
# Bulk Modulus (GPa) = 84.76470 91.30479 88.03475
# Shear Modulus (GPa) = 27.19672 32.90293 30.04983
#
# Velocity S-wave (km/s) = 3.73366 4.10671 3.92462
# Velocity P-wave (km/s) = 7.87622 8.32387 8.10314
#
# Compressibility (1/GPa) = 0.01179736
#
# Stress axis : x y z
#
# Youngs Moduli (GPa) = 127.56794 101.56640 75.10921
#
# Poissons Ratio (x) = 0.26520 0.25567
# Poissons Ratio (y) = 0.33310 0.26931
# Poissons Ratio (z) = 0.43424 0.36417
#
# Static dielectric constant tensor:
#      x y z
#    x 3.842140 -0.000050 -0.224570 
#    y -0.000050 3.520190 -0.000010 
#    z -0.224570 -0.000010 3.663530 
# 
# 
# High freq. dielectric constant tensor:
#      x y z
#    x 1.790550 0.000000 -0.007420 
#    y 0.000000 1.753880 0.000000 
#    z -0.007420 0.000000 1.763660 
# 
# From -- ./inp_files/134799.got.cif
#   From: 2010.06.25/outbox.cif.g09.slc.cpg/sg15_68_cif.got.tgz:134799.got - 2010.06.28 07:06:18.
