data_PCOD8142820
_publ_section_title
;
Structure prediction by ZEFSAII (Michael W. Deem and Ramdas Pophale) SiO2 
 PCOD8142820
Probable space group: C 2/C
;
_chemical_formula_sum "Si O2"
_cell_formula_units_Z 44
_cell_length_a 9.668825
_cell_length_b 20.727122
_cell_length_c 11.648704
_cell_angle_alpha 90.000000
_cell_angle_beta 82.992205
_cell_angle_gamma 90.000000
_cell_volume 2317.041243
_symmetry_space_group_name_H-M "C 2/C"
_symmetry_group_IT_number 15
_symmetry_cell_setting 'monoclinic'
loop_
_space_group_symop_operation_xyz
x,y,z
-x,y,1/2-z
-x,-y,-z
x,-y,1/2+z
1/2+x,1/2+y,z
1/2-x,1/2+y,1/2-z
1/2-x,1/2-y,-z
1/2+x,1/2-y,1/2+z
loop_
_atom_site_type_symbol
_atom_site_label
_atom_site_fract_x
_atom_site_fract_y
_atom_site_fract_z
Si Si1 0.402977 0.944211 0.961048
Si Si2 0.000000 0.085226 0.750000
Si Si3 0.500000 0.631084 0.250000
Si Si4 0.773630 0.207924 0.170107
Si Si5 0.772590 0.843451 0.415151
Si Si6 0.896200 0.980106 0.608212
Si Si7 0.000000 0.638601 0.250000
O O1 0.262620 0.969582 0.913722
O O2 0.501178 0.906689 0.861712
O O3 0.351327 0.896688 0.068275
O O4 0.500000 0.000000 0.000000
O O5 0.915295 0.128500 0.848717
O O6 0.888165 0.038256 0.700144
O O7 0.371637 0.681117 0.262144
O O8 0.529094 0.584941 0.354820
O O9 0.782033 0.285207 0.158654
O O10 0.625669 0.187763 0.232537
O O11 0.807943 0.178071 0.041557
O O12 0.000000 0.000000 0.500000
#
# Coordination Sequence:
#
# PCOD8142820 Si02
#       7
#     8   4   4   8   8   8   4
#     4  11  24  39  60  91 129 159 198 256 312 367
#     4  11  21  36  66  86 121 155 208 254 298 365
#     4  11  20  38  62  90 116 161 208 252 302 367
#     4  10  21  39  66  83 123 157 207 248 303 367
#     4  10  21  41  60  90 117 162 200 252 302 363
#     4  11  22  38  62  90 118 161 206 255 304 362
#     4  10  21  40  60  90 115 166 198 248 312 360
#
# _framework density 18.989735
#
# number of rings (size 3 to 8) (size 9 to 14) (size 15 to 20)
#    0.000    1.455    5.455    0.545    5.091    0.000 
#    3.273    0.000    0.000    5.455    0.000    0.000 
#    0.000    0.000    0.000    0.000    0.000    0.000 
#
# Total GULP energy -272552.074185 kJ/mol
# GULP energy per Si atom -12388.730645 kJ/mol
# Density = 1.894651 g / cm^3
# Si number density = 18.989735 Si / 1000 Ang^3
#
#
#
# Elastic Constant Matrix: (Units=GPa)
#
#
# Indices 1 2 3 4 5 6 
#
# 1 129.1336 87.9170 63.5865 0.0000 3.7909 0.0000
# 2 87.9170 156.7015 51.3362 0.0000 -0.0213 0.0000
# 3 63.5865 51.3362 74.2852 0.0000 -18.2357 0.0000
# 4 0.0000 0.0000 0.0000 19.1838 0.0000 -13.6787
# 5 3.7909 -0.0213 -18.2357 0.0000 36.1714 0.0000
# 6 0.0000 0.0000 0.0000 -13.6787 0.0000 21.2856
#
#
#
# Elastic Compliance Matrix: (Units=1/GPa)
#
#
# Indices 1 2 3 4 5 6 
#
# 1 0.019414 -0.006059 -0.014757 0.000000 -0.009478 0.000000
# 2 -0.006059 0.010494 -0.002178 0.000000 -0.000457 0.000000
# 3 -0.014757 -0.002178 0.031930 0.000000 0.017643 0.000000
# 4 0.000000 0.000000 0.000000 0.096215 0.000000 0.061830
# 5 -0.009478 -0.000457 0.017643 0.000000 0.037534 0.000000
# 6 0.000000 0.000000 0.000000 0.061830 0.000000 0.086714
#
#
# Mechanical properties :
#
#
# Convention : Reuss Voigt Hill
#
# Bulk Modulus (GPa) = 63.09523 85.08887 74.09205
# Shear Modulus (GPa) = 14.98922 25.81353 20.40137
#
# Velocity S-wave (km/s) = 2.81256 3.69092 3.28126
# Velocity P-wave (km/s) = 6.62158 7.94160 7.31144
#
# Compressibility (1/GPa) = 0.01584906
#
# Stress axis : x y z
#
# Youngs Moduli (GPa) = 51.50975 95.28900 31.31839
#
# Poissons Ratio (x) = 0.57733 0.46218
# Poissons Ratio (y) = 0.31208 0.06822
# Poissons Ratio (z) = 0.76015 0.20758
#
# Static dielectric constant tensor:
#      x y z
#    x 3.236710 0.000000 -0.234410 
#    y 0.000000 3.926880 0.000000 
#    z -0.234410 0.000000 3.257690 
# 
# 
# High freq. dielectric constant tensor:
#      x y z
#    x 1.727660 0.000000 -0.011220 
#    y 0.000000 1.759640 0.000000 
#    z -0.011220 0.000000 1.729010 
# 
# From -- ./inp_files/78167.got.cif
#   From: 2010.06.25/outbox.cif.g09.slc.cpg/sg15_40_cif.got.tgz:78167.got - 2010.06.28 07:06:18.
