data_PCOD8142465
_publ_section_title
;
Structure prediction by ZEFSAII (Michael W. Deem and Ramdas Pophale) SiO2 
 PCOD8142465
Probable space group: C 2/C
;
_chemical_formula_sum "Si O2"
_cell_formula_units_Z 48
_cell_length_a 24.324337
_cell_length_b 13.048136
_cell_length_c 12.588235
_cell_angle_alpha 90.000000
_cell_angle_beta 34.448439
_cell_angle_gamma 90.000000
_cell_volume 2260.024523
_symmetry_space_group_name_H-M "C 2/C"
_symmetry_group_IT_number 15
_symmetry_cell_setting 'monoclinic'
loop_
_space_group_symop_operation_xyz
x,y,z
-x,y,1/2-z
-x,-y,-z
x,-y,1/2+z
1/2+x,1/2+y,z
1/2-x,1/2+y,1/2-z
1/2-x,1/2-y,-z
1/2+x,1/2-y,1/2+z
loop_
_atom_site_type_symbol
_atom_site_label
_atom_site_fract_x
_atom_site_fract_y
_atom_site_fract_z
Si Si1 0.982744 0.712065 0.582292
Si Si2 0.166775 0.347847 0.359629
Si Si3 0.147237 0.144404 0.501602
Si Si4 0.509621 0.598139 0.911406
Si Si5 0.819269 0.252670 0.488237
Si Si6 0.342464 0.080663 0.113145
O O1 0.905877 0.664005 0.623619
O O2 0.929147 0.762431 0.771219
O O3 0.038410 0.805480 0.438595
O O4 0.057136 0.624019 0.499459
O O5 0.145558 0.269232 0.491480
O O6 0.150821 0.461605 0.428058
O O7 0.278530 0.329670 0.139598
O O8 0.093899 0.098044 0.688836
O O9 0.256205 0.100636 0.335135
O O10 0.095149 0.106600 0.476947
O O11 0.500000 0.500000 0.000000
O O12 0.750000 0.250000 0.500000
O O13 0.814158 0.364646 0.548836
#
# Coordination Sequence:
#
# PCOD8142465 Si02
#       6
#     8   8   8   8   8   8
#     4  10  21  39  59  98 127 159 219 261 321 402
#     4   9  20  40  64  87 132 167 203 272 328 383
#     4   9  22  43  59  95 127 162 220 263 320 393
#     4  10  22  42  66  88 125 174 212 270 325 380
#     4   9  20  40  60  87 124 165 214 261 310 394
#     4  11  21  38  65  95 125 169 212 264 337 385
#
# _framework density 21.238706000000001
#
# number of rings (size 3 to 8) (size 9 to 14) (size 15 to 20)
#    0.000    2.333    0.000    2.000    2.333    3.333 
#   21.000    0.000    0.000    0.000    0.000    0.000 
#    0.000    0.000    0.000    0.000    0.000    0.000 
#
# Total GULP energy -297381.417129 kJ/mol
# GULP energy per Si atom -12390.892380 kJ/mol
# Density = 2.119037 g / cm^3
# Si number density = 21.238706 Si / 1000 Ang^3
#
#
#
# Elastic Constant Matrix: (Units=GPa)
#
#
# Indices 1 2 3 4 5 6 
#
# 1 57.8255 46.8993 41.0253 0.0000 5.8948 0.0000
# 2 46.8993 144.1104 35.8957 0.0000 10.7096 0.0000
# 3 41.0253 35.8957 120.8754 0.0000 -1.1506 0.0000
# 4 0.0000 0.0000 0.0000 25.0464 0.0000 0.1929
# 5 5.8948 10.7096 -1.1506 0.0000 32.8444 0.0000
# 6 0.0000 0.0000 0.0000 0.1929 0.0000 31.4701
#
#
#
# Elastic Compliance Matrix: (Units=1/GPa)
#
#
# Indices 1 2 3 4 5 6 
#
# 1 0.028981 -0.007283 -0.007703 0.000000 -0.003097 0.000000
# 2 -0.007283 0.009538 -0.000378 0.000000 -0.001816 0.000000
# 3 -0.007703 -0.000378 0.011018 0.000000 0.001892 0.000000
# 4 0.000000 0.000000 0.000000 0.039928 0.000000 -0.000245
# 5 -0.003097 -0.001816 0.001892 0.000000 0.031661 0.000000
# 6 0.000000 0.000000 0.000000 -0.000245 0.000000 0.031778
#
#
# Mechanical properties :
#
#
# Convention : Reuss Voigt Hill
#
# Bulk Modulus (GPa) = 53.16500 63.38354 58.27427
# Shear Modulus (GPa) = 26.32968 31.13826 28.73397
#
# Velocity S-wave (km/s) = 3.52476 3.83313 3.68218
# Velocity P-wave (km/s) = 6.45381 7.03554 6.75094
#
# Compressibility (1/GPa) = 0.01880937
#
# Stress axis : x y z
#
# Youngs Moduli (GPa) = 34.50589 104.83987 90.76370
#
# Poissons Ratio (x) = 0.76351 0.69914
# Poissons Ratio (y) = 0.25129 0.03432
# Poissons Ratio (z) = 0.26579 0.03964
#
# Static dielectric constant tensor:
#      x y z
#    x 3.693650 0.000000 -0.057450 
#    y 0.000000 3.700850 0.000000 
#    z -0.057450 0.000000 4.349970 
# 
# 
# High freq. dielectric constant tensor:
#      x y z
#    x 1.821120 0.000000 -0.002510 
#    y 0.000000 1.821360 0.000000 
#    z -0.002510 0.000000 1.845040 
# 
# From -- ./inp_files/151857.got.cif
#   From: 2010.06.25/outbox.cif.g09.slc.cpg/sg15_76_cif.got.tgz:151857.got - 2010.06.28 07:06:18.
