data_PCOD8142545
_publ_section_title
;
Structure prediction by ZEFSAII (Michael W. Deem and Ramdas Pophale) SiO2 
 PCOD8142545
Probable space group: C 2/C
;
_chemical_formula_sum "Si O2"
_cell_formula_units_Z 36
_cell_length_a 8.349242
_cell_length_b 20.312647
_cell_length_c 13.506481
_cell_angle_alpha 90.000000
_cell_angle_beta 45.751888
_cell_angle_gamma 90.000000
_cell_volume 1640.838556
_symmetry_space_group_name_H-M "C 2/C"
_symmetry_group_IT_number 15
_symmetry_cell_setting 'monoclinic'
loop_
_space_group_symop_operation_xyz
x,y,z
-x,y,1/2-z
-x,-y,-z
x,-y,1/2+z
1/2+x,1/2+y,z
1/2-x,1/2+y,1/2-z
1/2-x,1/2-y,-z
1/2+x,1/2-y,1/2+z
loop_
_atom_site_type_symbol
_atom_site_label
_atom_site_fract_x
_atom_site_fract_y
_atom_site_fract_z
Si Si1 0.963601 0.066513 0.072396
Si Si2 0.855326 0.688367 0.586903
Si Si3 0.030633 0.812035 0.404378
Si Si4 0.616960 0.057175 0.509481
Si Si5 0.500000 0.017523 0.250000
O O1 0.694683 0.067207 0.208398
O O2 0.052032 0.125388 0.965526
O O3 0.110022 0.064856 0.111705
O O4 0.000000 0.000000 0.000000
O O5 0.675280 0.675195 0.579625
O O6 0.747678 0.700066 0.741806
O O7 0.001369 0.750758 0.491043
O O8 0.013320 0.625768 0.522725
O O9 0.500000 0.000000 0.500000
O O10 0.578733 0.035854 0.637735
#
# Coordination Sequence:
#
# PCOD8142545 Si02
#       5
#     8   8   8   8   4
#     4  10  21  39  62  89 120 160 205 258 313 369
#     4  10  21  39  61  90 125 167 212 259 313 374
#     4  10  22  39  62  89 126 169 211 258 313 373
#     4  11  23  39  62  92 126 165 210 258 317 380
#     4  10  22  40  64  90 124 160 210 268 314 372
#
# _framework density 21.940003000000001
#
# number of rings (size 3 to 8) (size 9 to 14) (size 15 to 20)
#    0.000    1.778    0.000    5.333    0.000    8.889 
#    0.000    0.000    0.000    0.000    0.000    0.000 
#    0.000    0.000    0.000    0.000    0.000    0.000 
#
# Total GULP energy -222986.104150 kJ/mol
# GULP energy per Si atom -12388.116897 kJ/mol
# Density = 2.189007 g / cm^3
# Si number density = 21.940003 Si / 1000 Ang^3
#
#
#
# Elastic Constant Matrix: (Units=GPa)
#
#
# Indices 1 2 3 4 5 6 
#
# 1 131.9904 85.2753 43.5366 0.0000 -27.0999 0.0000
# 2 85.2753 181.2919 55.6963 0.0000 -7.0199 0.0000
# 3 43.5366 55.6963 63.8362 0.0000 -19.3553 0.0000
# 4 0.0000 0.0000 0.0000 36.1059 0.0000 5.6533
# 5 -27.0999 -7.0199 -19.3553 0.0000 28.2274 0.0000
# 6 0.0000 0.0000 0.0000 5.6533 0.0000 45.9038
#
#
#
# Elastic Compliance Matrix: (Units=1/GPa)
#
#
# Indices 1 2 3 4 5 6 
#
# 1 0.014002 -0.005828 -0.001045 0.000000 0.011277 0.000000
# 2 -0.005828 0.010218 -0.007406 0.000000 -0.008133 0.000000
# 3 -0.001045 -0.007406 0.027745 0.000000 0.016179 0.000000
# 4 0.000000 0.000000 0.000000 0.028241 0.000000 -0.003478
# 5 0.011277 -0.008133 0.016179 0.000000 0.055324 0.000000
# 6 0.000000 0.000000 0.000000 -0.003478 0.000000 0.022213
#
#
# Mechanical properties :
#
#
# Convention : Reuss Voigt Hill
#
# Bulk Modulus (GPa) = 42.72378 82.90387 62.81383
# Shear Modulus (GPa) = 25.75952 34.88811 30.32382
#
# Velocity S-wave (km/s) = 3.43022 3.99201 3.72173
# Velocity P-wave (km/s) = 5.93328 7.68875 6.86734
#
# Compressibility (1/GPa) = 0.02340617
#
# Stress axis : x y z
#
# Youngs Moduli (GPa) = 71.41901 97.86863 36.04279
#
# Poissons Ratio (x) = 0.57042 0.03767
# Poissons Ratio (y) = 0.41626 0.26692
# Poissons Ratio (z) = 0.07463 0.72478
#
# Static dielectric constant tensor:
#      x y z
#    x 4.869120 0.000000 -0.867800 
#    y 0.000000 3.205150 0.000000 
#    z -0.867800 0.000000 4.559200 
# 
# 
# High freq. dielectric constant tensor:
#      x y z
#    x 1.879230 0.000000 -0.006800 
#    y 0.000000 1.864630 0.000000 
#    z -0.006800 0.000000 1.854960 
# 
# From -- ./inp_files/134147.got.cif
#   From: 2010.06.25/outbox.cif.g09.slc.cpg/sg15_68_cif.got.tgz:134147.got - 2010.06.28 07:06:18.
