data_PCOD8142456
_publ_section_title
;
Structure prediction by ZEFSAII (Michael W. Deem and Ramdas Pophale) SiO2 
 PCOD8142456
Probable space group: C 2/C
;
_chemical_formula_sum "Si O2"
_cell_formula_units_Z 52
_cell_length_a 20.668311
_cell_length_b 24.933573
_cell_length_c 15.037657
_cell_angle_alpha 90.000000
_cell_angle_beta 160.876511
_cell_angle_gamma 90.000000
_cell_volume 2538.753589
_symmetry_space_group_name_H-M "C 2/C"
_symmetry_group_IT_number 15
_symmetry_cell_setting 'monoclinic'
loop_
_space_group_symop_operation_xyz
x,y,z
-x,y,1/2-z
-x,-y,-z
x,-y,1/2+z
1/2+x,1/2+y,z
1/2-x,1/2+y,1/2-z
1/2-x,1/2-y,-z
1/2+x,1/2-y,1/2+z
loop_
_atom_site_type_symbol
_atom_site_label
_atom_site_fract_x
_atom_site_fract_y
_atom_site_fract_z
Si Si1 0.149659 0.388980 0.123565
Si Si2 0.373404 0.921310 0.921636
Si Si3 0.611165 0.512812 0.526436
Si Si4 0.319468 0.815723 0.951364
Si Si5 0.705345 0.991678 0.428313
Si Si6 0.068913 0.800645 0.939730
Si Si7 0.500000 0.088350 0.250000
O O1 0.305458 0.436553 0.312963
O O2 0.246056 0.338329 0.297755
O O3 0.972535 0.412918 0.953538
O O4 0.093436 0.373596 0.948233
O O5 0.301405 0.863212 0.857962
O O6 0.524226 0.949187 0.188776
O O7 0.178202 0.958425 0.662950
O O8 0.698492 0.507296 0.542479
O O9 0.376019 0.524015 0.220334
O O10 0.500000 0.828790 0.250000
O O11 0.360752 0.760151 0.954098
O O12 0.115377 0.812414 0.737925
O O13 0.640907 0.050651 0.374109
O O14 0.000000 0.811550 0.750000
#
# Coordination Sequence:
#
# PCOD8142456 Si02
#       7
#     8   8   8   8   8   8   4
#     4  11  23  38  62  88 132 170 209 260 312 368
#     4  11  21  41  60  95 129 169 210 259 317 376
#     4  10  21  39  59  87 125 176 209 251 320 369
#     4  11  24  40  67  94 125 159 202 264 325 378
#     4  10  22  36  58  86 129 165 213 258 305 378
#     4  11  24  44  65  97 124 160 206 262 320 375
#     4  12  22  38  56  88 132 168 210 256 302 370
#
# _framework density 20.482491
#
# number of rings (size 3 to 8) (size 9 to 14) (size 15 to 20)
#    0.000    1.231    3.077    4.615    9.692    0.615 
#    0.000    0.000    0.000    5.538    0.000    0.000 
#    0.000    0.000    0.000    0.000    0.000    0.000 
#
# Total GULP energy -322284.758770 kJ/mol
# GULP energy per Si atom -12395.567645 kJ/mol
# Density = 2.043587 g / cm^3
# Si number density = 20.482491 Si / 1000 Ang^3
#
#
#
# Elastic Constant Matrix: (Units=GPa)
#
#
# Indices 1 2 3 4 5 6 
#
# 1 58.0617 22.3616 37.4804 0.0001 -16.3983 -0.0005
# 2 22.3616 117.5096 43.0859 0.0001 -29.2793 -0.0001
# 3 37.4804 43.0859 104.7637 0.0011 -16.9406 -0.0022
# 4 0.0001 0.0001 0.0011 21.8980 0.0004 -0.4734
# 5 -16.3983 -29.2793 -16.9406 0.0004 30.3168 -0.0010
# 6 -0.0005 -0.0001 -0.0022 -0.4734 -0.0010 27.9690
#
#
#
# Elastic Compliance Matrix: (Units=1/GPa)
#
#
# Indices 1 2 3 4 5 6 
#
# 1 0.024538 0.000425 -0.007411 0.000000 0.009542 0.000000
# 2 0.000425 0.012242 -0.003559 0.000000 0.010064 0.000000
# 3 -0.007411 -0.003559 0.013694 -0.000001 0.000206 0.000001
# 4 0.000000 0.000000 -0.000001 0.045683 -0.000001 0.000773
# 5 0.009542 0.010064 0.000206 -0.000001 0.047981 0.000002
# 6 0.000000 0.000000 0.000001 0.000773 0.000002 0.035767
#
#
# Mechanical properties :
#
#
# Convention : Reuss Voigt Hill
#
# Bulk Modulus (GPa) = 34.03224 54.02119 44.02671
# Shear Modulus (GPa) = 23.72048 27.86391 25.79220
#
# Velocity S-wave (km/s) = 3.40676 3.69233 3.55241
# Velocity P-wave (km/s) = 5.66798 6.67902 6.19416
#
# Compressibility (1/GPa) = 0.02938390
#
# Stress axis : x y z
#
# Youngs Moduli (GPa) = 40.75306 81.68838 73.02636
#
# Poissons Ratio (x) = -0.03474 0.54117
# Poissons Ratio (y) = -0.01733 0.25993
# Poissons Ratio (z) = 0.30201 0.29076
#
# Static dielectric constant tensor:
#      x y z
#    x 3.657860 0.000000 0.007100 
#    y 0.000000 3.693680 0.000000 
#    z 0.007100 0.000000 4.178290 
# 
# 
# High freq. dielectric constant tensor:
#      x y z
#    x 1.813240 0.000000 0.007670 
#    y 0.000000 1.784360 0.000000 
#    z 0.007670 0.000000 1.797120 
# 
# From -- ./inp_files/169892.got.cif
#   From: 2010.06.25/outbox.cif.g09.slc.cpg/sg15_85_cif.got.tgz:169892.got - 2010.06.28 07:06:18.
