data_PCOD8142976
_publ_section_title
;
Structure prediction by ZEFSAII (Michael W. Deem and Ramdas Pophale) SiO2 
 PCOD8142976
Probable space group: C 2/C
;
_chemical_formula_sum "Si O2"
_cell_formula_units_Z 52
_cell_length_a 14.528693
_cell_length_b 15.792050
_cell_length_c 19.637491
_cell_angle_alpha 90.000000
_cell_angle_beta 31.073564
_cell_angle_gamma 90.000000
_cell_volume 2325.503814
_symmetry_space_group_name_H-M "C 2/C"
_symmetry_group_IT_number 15
_symmetry_cell_setting 'monoclinic'
loop_
_space_group_symop_operation_xyz
x,y,z
-x,y,1/2-z
-x,-y,-z
x,-y,1/2+z
1/2+x,1/2+y,z
1/2-x,1/2+y,1/2-z
1/2-x,1/2-y,-z
1/2+x,1/2-y,1/2+z
loop_
_atom_site_type_symbol
_atom_site_label
_atom_site_fract_x
_atom_site_fract_y
_atom_site_fract_z
Si Si1 0.000000 0.584497 0.750000
Si Si2 0.106479 0.688616 0.806421
Si Si3 0.306487 0.525686 0.360192
Si Si4 0.883118 0.319208 0.578202
Si Si5 0.280320 0.048665 0.445485
Si Si6 0.437073 0.792044 0.895816
Si Si7 0.901857 0.877522 0.203903
O O1 0.992076 0.643007 0.821124
O O2 0.170709 0.520434 0.643150
O O3 0.205293 0.768432 0.710346
O O4 0.252195 0.620918 0.740580
O O5 0.974777 0.717522 0.951250
O O6 0.500000 0.569622 0.250000
O O7 0.179389 0.584282 0.394910
O O8 0.211165 0.505599 0.490820
O O9 0.339006 0.434362 0.305642
O O10 0.028230 0.315216 0.546673
O O11 0.435126 0.121272 0.353387
O O12 0.086456 0.088815 0.554033
O O13 0.581504 0.721049 0.780934
O O14 0.250000 0.750000 0.000000
#
# Coordination Sequence:
#
# PCOD8142976 Si02
#       7
#     4   8   8   8   8   8   8
#     4  12  26  42  64  96 138 178 228 298 334 416
#     4  11  26  45  68  97 138 176 239 278 357 409
#     4  10  21  39  70  97 132 176 237 277 339 408
#     4  11  24  44  70 100 134 187 227 288 343 420
#     4  10  21  42  63  98 134 179 219 283 345 407
#     4   9  20  42  67 100 136 175 221 276 349 415
#     4   9  21  42  66  96 133 173 221 286 338 423
#
# _framework density 22.360745999999999
#
# number of rings (size 3 to 8) (size 9 to 14) (size 15 to 20)
#    0.000    1.846    1.538    0.923    3.231    6.154 
#   26.308    0.000    0.000    0.000    0.000    0.000 
#    0.000    0.000    0.000    0.000    0.000    0.000 
#
# Total GULP energy -322195.905340 kJ/mol
# GULP energy per Si atom -12392.150205 kJ/mol
# Density = 2.230985 g / cm^3
# Si number density = 22.360746 Si / 1000 Ang^3
#
#
#
# Elastic Constant Matrix: (Units=GPa)
#
#
# Indices 1 2 3 4 5 6 
#
# 1 95.0318 38.5846 16.7689 0.0027 -3.1925 0.0028
# 2 38.5846 94.5853 42.3794 0.0004 2.4824 -0.0029
# 3 16.7689 42.3794 88.6310 -0.0096 11.1561 -0.0012
# 4 0.0027 0.0004 -0.0096 29.2593 0.0064 -1.2782
# 5 -3.1925 2.4824 11.1561 0.0064 31.1322 -0.0014
# 6 0.0028 -0.0029 -0.0012 -1.2782 -0.0014 37.1498
#
#
#
# Elastic Compliance Matrix: (Units=1/GPa)
#
#
# Indices 1 2 3 4 5 6 
#
# 1 0.012705 -0.005157 -0.000161 -0.000002 0.001772 -0.000001
# 2 -0.005157 0.015598 -0.006555 -0.000002 0.000576 0.000001
# 3 -0.000161 -0.006555 0.015063 0.000006 -0.004892 0.000000
# 4 -0.000002 -0.000002 0.000006 0.034229 -0.000009 0.001178
# 5 0.001772 0.000576 -0.004892 -0.000009 0.034010 0.000001
# 6 -0.000001 0.000001 0.000000 0.001178 0.000001 0.026959
#
#
# Mechanical properties :
#
#
# Convention : Reuss Voigt Hill
#
# Bulk Modulus (GPa) = 50.96878 52.63490 51.80184
# Shear Modulus (GPa) = 29.61227 31.54262 30.57744
#
# Velocity S-wave (km/s) = 3.64304 3.75990 3.70193
# Velocity P-wave (km/s) = 6.36702 6.51454 6.44120
#
# Compressibility (1/GPa) = 0.01961986
#
# Stress axis : x y z
#
# Youngs Moduli (GPa) = 78.71198 64.11006 66.38656
#
# Poissons Ratio (x) = 0.33062 0.01067
# Poissons Ratio (y) = 0.40592 0.43518
# Poissons Ratio (z) = 0.01266 0.42025
#
# Static dielectric constant tensor:
#      x y z
#    x 4.089420 -0.000010 -0.182970 
#    y -0.000010 4.284300 0.000020 
#    z -0.182970 0.000020 4.062380 
# 
# 
# High freq. dielectric constant tensor:
#      x y z
#    x 1.871950 0.000000 -0.004260 
#    y 0.000000 1.883880 0.000000 
#    z -0.004260 0.000000 1.876140 
# 
# From -- ./inp_files/245002.got.cif
#   From: 2010.06.25/outbox.cif.g09.slc.cpg/sg15_123_cif.got.tgz:245002.got - 2010.06.28 07:06:18.
