data_PCOD8142379
_publ_section_title
;
Structure prediction by ZEFSAII (Michael W. Deem and Ramdas Pophale) SiO2 
 PCOD8142379
Probable space group: C 2/C
;
_chemical_formula_sum "Si O2"
_cell_formula_units_Z 56
_cell_length_a 17.449131
_cell_length_b 10.767921
_cell_length_c 17.839990
_cell_angle_alpha 90.000000
_cell_angle_beta 52.286347
_cell_angle_gamma 90.000000
_cell_volume 2651.669919
_symmetry_space_group_name_H-M "C 2/C"
_symmetry_group_IT_number 15
_symmetry_cell_setting 'monoclinic'
loop_
_space_group_symop_operation_xyz
x,y,z
-x,y,1/2-z
-x,-y,-z
x,-y,1/2+z
1/2+x,1/2+y,z
1/2-x,1/2+y,1/2-z
1/2-x,1/2-y,-z
1/2+x,1/2-y,1/2+z
loop_
_atom_site_type_symbol
_atom_site_label
_atom_site_fract_x
_atom_site_fract_y
_atom_site_fract_z
Si Si1 0.411522 0.844304 0.355620
Si Si2 0.012617 0.363527 0.023266
Si Si3 0.682082 0.709329 0.342068
Si Si4 0.371011 0.576954 0.388184
Si Si5 0.648592 0.316692 0.356023
Si Si6 0.422476 0.481019 0.695777
Si Si7 0.755732 0.003799 0.088968
O O1 0.500000 0.806956 0.250000
O O2 0.449471 0.876340 0.415065
O O3 0.341362 0.722191 0.396455
O O4 0.356219 0.960390 0.349910
O O5 0.910606 0.290574 0.078131
O O6 0.095451 0.302131 0.922081
O O7 0.000000 0.500000 0.000000
O O8 0.759807 0.791016 0.251837
O O9 0.653679 0.602736 0.301776
O O10 0.732560 0.641785 0.383701
O O11 0.472660 0.581565 0.372048
O O12 0.383626 0.503456 0.303282
O O13 0.292435 0.499150 0.481155
O O14 0.571289 0.386053 0.348722
O O15 0.680565 0.404531 0.404448
#
# Coordination Sequence:
#
# PCOD8142379 Si02
#       7
#     8   8   8   8   8   8   8
#     4  12  23  41  65 100 134 166 224 284 331 390
#     4  12  27  44  69  98 138 181 224 274 340 412
#     4  11  24  45  64  96 138 176 222 276 339 412
#     4  11  19  39  66  98 124 165 226 282 329 395
#     4  11  24  41  67  96 134 178 222 273 345 402
#     4  10  21  38  68  94 128 166 220 279 336 389
#     4  11  24  39  71  97 128 169 231 279 332 393
#
# _framework density 21.118766000000001
#
# number of rings (size 3 to 8) (size 9 to 14) (size 15 to 20)
#    0.000    0.857    4.286    3.000    8.000    2.286 
#    0.000    5.714    0.000    0.000    0.000    0.000 
#    0.000    0.000    0.000    0.000    0.000    0.000 
#
# Total GULP energy -347224.823240 kJ/mol
# GULP energy per Si atom -12400.886544 kJ/mol
# Density = 2.107070 g / cm^3
# Si number density = 21.118766 Si / 1000 Ang^3
#
#
#
# Elastic Constant Matrix: (Units=GPa)
#
#
# Indices 1 2 3 4 5 6 
#
# 1 80.1582 35.6612 18.0972 0.0000 10.2010 0.0000
# 2 35.6612 80.8075 24.2984 0.0000 12.3961 0.0000
# 3 18.0972 24.2984 102.9915 0.0000 0.4750 0.0000
# 4 0.0000 0.0000 0.0000 21.4829 0.0000 -2.3122
# 5 10.2010 12.3961 0.4750 0.0000 33.2226 0.0000
# 6 0.0000 0.0000 0.0000 -2.3122 0.0000 35.5195
#
#
#
# Elastic Compliance Matrix: (Units=1/GPa)
#
#
# Indices 1 2 3 4 5 6 
#
# 1 0.015859 -0.006217 -0.001308 0.000000 -0.002531 0.000000
# 2 -0.006217 0.016615 -0.002808 0.000000 -0.004250 0.000000
# 3 -0.001308 -0.002808 0.010596 0.000000 0.001298 0.000000
# 4 0.000000 0.000000 0.000000 0.046877 0.000000 0.003052
# 5 -0.002531 -0.004250 0.001298 0.000000 0.032444 0.000000
# 6 0.000000 0.000000 0.000000 0.003052 0.000000 0.028352
#
#
# Mechanical properties :
#
#
# Convention : Reuss Voigt Hill
#
# Bulk Modulus (GPa) = 44.63602 46.67454 45.65528
# Shear Modulus (GPa) = 27.95214 30.43835 29.19525
#
# Velocity S-wave (km/s) = 3.64204 3.80056 3.72214
# Velocity P-wave (km/s) = 6.23438 6.43490 6.33543
#
# Compressibility (1/GPa) = 0.02240343
#
# Stress axis : x y z
#
# Youngs Moduli (GPa) = 63.05722 60.18643 94.37629
#
# Poissons Ratio (x) = 0.37418 0.12346
# Poissons Ratio (y) = 0.39202 0.26500
# Poissons Ratio (z) = 0.08249 0.16900
#
# Static dielectric constant tensor:
#      x y z
#    x 3.972060 0.000000 0.120280 
#    y 0.000000 3.772350 0.000000 
#    z 0.120280 0.000000 3.923640 
# 
# 
# High freq. dielectric constant tensor:
#      x y z
#    x 1.826840 0.000000 0.006630 
#    y 0.000000 1.811580 0.000000 
#    z 0.006630 0.000000 1.841110 
# 
# From -- ./inp_files/210556.got.cif
#   From: 2010.06.25/outbox.cif.g09.slc.cpg/sg15_106_cif.got.tgz:210556.got - 2010.06.28 07:06:18.
