data_PCOD8142684
_publ_section_title
;
Structure prediction by ZEFSAII (Michael W. Deem and Ramdas Pophale) SiO2 
 PCOD8142684
Probable space group: C 2/C
;
_chemical_formula_sum "Si O2"
_cell_formula_units_Z 40
_cell_length_a 13.717382
_cell_length_b 9.645352
_cell_length_c 15.453591
_cell_angle_alpha 90.000000
_cell_angle_beta 57.307694
_cell_angle_gamma 90.000000
_cell_volume 1720.742353
_symmetry_space_group_name_H-M "C 2/C"
_symmetry_group_IT_number 15
_symmetry_cell_setting 'monoclinic'
loop_
_space_group_symop_operation_xyz
x,y,z
-x,y,1/2-z
-x,-y,-z
x,-y,1/2+z
1/2+x,1/2+y,z
1/2-x,1/2+y,1/2-z
1/2-x,1/2-y,-z
1/2+x,1/2-y,1/2+z
loop_
_atom_site_type_symbol
_atom_site_label
_atom_site_fract_x
_atom_site_fract_y
_atom_site_fract_z
Si Si1 0.899015 0.286603 0.860762
Si Si2 0.385036 0.025580 0.002191
Si Si3 0.751435 0.375308 0.193731
Si Si4 0.524779 0.536515 0.889594
Si Si5 0.988556 0.735863 0.659051
O O1 0.860885 0.409151 0.941539
O O2 0.792426 0.243138 0.851098
O O3 0.000000 0.341672 0.750000
O O4 0.939429 0.155512 0.898148
O O5 0.402578 0.174915 0.948814
O O6 0.281111 0.014394 0.122342
O O7 0.500000 0.000000 0.000000
O O8 0.657454 0.414634 0.311420
O O9 0.865484 0.314272 0.182467
O O10 0.499903 0.400792 0.845237
O O11 0.500000 0.500000 0.000000
O O12 0.000000 0.678281 0.750000
#
# Coordination Sequence:
#
# PCOD8142684 Si02
#       5
#     8   8   8   8   8
#     4  10  21  41  65  89 124 169 206 242 301 379
#     4  10  21  39  63  94 125 158 203 255 303 363
#     4  10  23  40  64  90 123 169 209 243 306 378
#     4  11  24  43  63  90 126 164 205 255 307 365
#     4  11  24  41  63  95 126 156 205 265 309 353
#
# _framework density 23.24578
#
# number of rings (size 3 to 8) (size 9 to 14) (size 15 to 20)
#    0.000    1.600    0.000    5.400    0.000   11.200 
#    0.000    3.000    0.000    0.000    0.000    0.000 
#    0.000    0.000    0.000    0.000    0.000    0.000 
#
# Total GULP energy -247925.554886 kJ/mol
# GULP energy per Si atom -12396.277744 kJ/mol
# Density = 2.319287 g / cm^3
# Si number density = 23.245780 Si / 1000 Ang^3
#
#
#
# Elastic Constant Matrix: (Units=GPa)
#
#
# Indices 1 2 3 4 5 6 
#
# 1 103.8669 16.7798 44.1327 0.0000 9.6639 0.0000
# 2 16.7798 85.6192 5.6774 0.0000 0.1199 0.0000
# 3 44.1327 5.6774 122.1847 0.0000 7.2124 0.0000
# 4 0.0000 0.0000 0.0000 27.6873 0.0000 9.1515
# 5 9.6639 0.1199 7.2124 0.0000 34.2922 0.0000
# 6 0.0000 0.0000 0.0000 9.1515 0.0000 11.8859
#
#
#
# Elastic Compliance Matrix: (Units=1/GPa)
#
#
# Indices 1 2 3 4 5 6 
#
# 1 0.011919 -0.002063 -0.004062 0.000000 -0.002497 0.000000
# 2 -0.002063 0.012073 0.000154 0.000000 0.000507 0.000000
# 3 -0.004062 0.000154 0.009697 0.000000 -0.000895 0.000000
# 4 0.000000 0.000000 0.000000 0.048447 0.000000 -0.037301
# 5 -0.002497 0.000507 -0.000895 0.000000 0.030051 0.000000
# 6 0.000000 0.000000 0.000000 -0.037301 0.000000 0.112853
#
#
# Mechanical properties :
#
#
# Convention : Reuss Voigt Hill
#
# Bulk Modulus (GPa) = 45.98130 49.42785 47.70457
# Shear Modulus (GPa) = 20.47240 31.11182 25.79211
#
# Velocity S-wave (km/s) = 2.97087 3.66236 3.33459
# Velocity P-wave (km/s) = 5.62063 6.26045 5.94915
#
# Compressibility (1/GPa) = 0.02174797
#
# Stress axis : x y z
#
# Youngs Moduli (GPa) = 83.89781 82.82936 103.12294
#
# Poissons Ratio (x) = 0.17089 0.41888
# Poissons Ratio (y) = 0.17309 -0.01591
# Poissons Ratio (z) = 0.34079 -0.01278
#
# Static dielectric constant tensor:
#      x y z
#    x 4.213150 0.000000 -0.055680 
#    y 0.000000 4.285070 0.000000 
#    z -0.055680 0.000000 4.770920 
# 
# 
# High freq. dielectric constant tensor:
#      x y z
#    x 1.914900 0.000000 0.005700 
#    y 0.000000 1.910830 0.000000 
#    z 0.005700 0.000000 1.940380 
# 
# From -- ./inp_files/150620.got.cif
#   From: 2010.06.25/outbox.cif.g09.slc.cpg/sg15_76_cif.got.tgz:150620.got - 2010.06.28 07:06:18.
