data_PCOD8142521
_publ_section_title
;
Structure prediction by ZEFSAII (Michael W. Deem and Ramdas Pophale) SiO2 
 PCOD8142521
Probable space group: C 2/C
;
_chemical_formula_sum "Si O2"
_cell_formula_units_Z 48
_cell_length_a 8.671604
_cell_length_b 8.933016
_cell_length_c 27.780956
_cell_angle_alpha 90.000000
_cell_angle_beta 90.320111
_cell_angle_gamma 90.000000
_cell_volume 2151.978645
_symmetry_space_group_name_H-M "C 2/C"
_symmetry_group_IT_number 15
_symmetry_cell_setting 'monoclinic'
loop_
_space_group_symop_operation_xyz
x,y,z
-x,y,1/2-z
-x,-y,-z
x,-y,1/2+z
1/2+x,1/2+y,z
1/2-x,1/2+y,1/2-z
1/2-x,1/2-y,-z
1/2+x,1/2-y,1/2+z
loop_
_atom_site_type_symbol
_atom_site_label
_atom_site_fract_x
_atom_site_fract_y
_atom_site_fract_z
Si Si1 0.911832 0.825939 0.901058
Si Si2 0.082941 0.515167 0.645439
Si Si3 0.247544 0.458590 0.816511
Si Si4 0.735969 0.832694 0.568871
Si Si5 0.675164 0.171114 0.736854
Si Si6 0.331970 0.525489 0.979405
O O1 0.873495 0.656619 0.887820
O O2 0.889148 0.931398 0.853494
O O3 0.085484 0.833084 0.918383
O O4 0.797711 0.883781 0.944036
O O5 0.146533 0.373061 0.617180
O O6 0.164859 0.538895 0.696979
O O7 0.902633 0.485945 0.651448
O O8 0.229922 0.312913 0.782285
O O9 0.269099 0.604284 0.782597
O O10 0.671487 0.672510 0.553834
O O11 0.712800 0.950093 0.523775
O O12 0.500000 0.219721 0.750000
O O13 0.500000 0.500000 0.000000
#
# Coordination Sequence:
#
# PCOD8142521 Si02
#       6
#     8   8   8   8   8   8
#     4  10  21  39  61  87 120 156 198 245 295 351
#     4  10  22  39  60  88 120 153 195 245 292 349
#     4  10  21  40  62  86 117 154 195 242 297 353
#     4  10  21  40  61  86 122 156 197 250 295 350
#     4   9  21  40  58  85 120 149 190 244 293 351
#     4   9  20  38  60  87 120 160 201 243 295 353
#
# _framework density 22.305054999999999
#
# number of rings (size 3 to 8) (size 9 to 14) (size 15 to 20)
#    0.000    2.333    0.000    1.000    0.000   11.333 
#    0.000   22.500    0.000    0.000    0.000    0.000 
#    0.000    0.000    0.000    0.000    0.000    0.000 
#
# Total GULP energy -297381.505961 kJ/mol
# GULP energy per Si atom -12390.896082 kJ/mol
# Density = 2.225429 g / cm^3
# Si number density = 22.305055 Si / 1000 Ang^3
#
#
#
# Elastic Constant Matrix: (Units=GPa)
#
#
# Indices 1 2 3 4 5 6 
#
# 1 35.1392 22.3751 14.8162 0.0000 5.9313 0.0000
# 2 22.3751 50.0418 10.4025 0.0000 2.4164 0.0000
# 3 14.8162 10.4025 65.9123 0.0000 -1.0466 0.0000
# 4 0.0000 0.0000 0.0000 61.0829 0.0000 -4.3855
# 5 5.9313 2.4164 -1.0466 0.0000 37.5053 0.0000
# 6 0.0000 0.0000 0.0000 -4.3855 0.0000 29.7016
#
#
#
# Elastic Compliance Matrix: (Units=1/GPa)
#
#
# Indices 1 2 3 4 5 6 
#
# 1 0.043825 -0.017824 -0.007133 0.000000 -0.005981 0.000000
# 2 -0.017824 0.027986 -0.000394 0.000000 0.001005 0.000000
# 3 -0.007133 -0.000394 0.016863 0.000000 0.001624 0.000000
# 4 0.000000 0.000000 0.000000 0.016547 0.000000 0.002443
# 5 -0.005981 0.001005 0.001624 0.000000 0.027589 0.000000
# 6 0.000000 0.000000 0.000000 0.002443 0.000000 0.034029
#
#
# Mechanical properties :
#
#
# Convention : Reuss Voigt Hill
#
# Bulk Modulus (GPa) = 26.33540 27.36452 26.84996
# Shear Modulus (GPa) = 21.72032 32.55792 27.13912
#
# Velocity S-wave (km/s) = 3.12394 3.82470 3.49194
# Velocity P-wave (km/s) = 4.98443 5.63910 5.32184
#
# Compressibility (1/GPa) = 0.03797170
#
# Stress axis : x y z
#
# Youngs Moduli (GPa) = 22.81809 35.73183 59.30090
#
# Poissons Ratio (x) = 0.63687 0.42301
# Poissons Ratio (y) = 0.40670 0.02339
# Poissons Ratio (z) = 0.16277 0.01409
#
# Static dielectric constant tensor:
#      x y z
#    x 3.583230 0.000000 -0.035880 
#    y 0.000000 4.098940 0.000000 
#    z -0.035880 0.000000 4.819510 
# 
# 
# High freq. dielectric constant tensor:
#      x y z
#    x 1.839700 0.000000 0.005130 
#    y 0.000000 1.871780 0.000000 
#    z 0.005130 0.000000 1.911510 
# 
# From -- ./inp_files/306686.got.cif
#   From: 2010.06.25/outbox.cif.g09.slc.cpg/sg15_154_cif.got.tgz:306686.got - 2010.06.28 07:06:18.
