data_PCOD8142050
_publ_section_title
;
Structure prediction by ZEFSAII (Michael W. Deem and Ramdas Pophale) SiO2 
 PCOD8142050
Probable space group: C 2/C
;
_chemical_formula_sum "Si O2"
_cell_formula_units_Z 56
_cell_length_a 17.312585
_cell_length_b 11.654855
_cell_length_c 17.566643
_cell_angle_alpha 90.000000
_cell_angle_beta 128.289579
_cell_angle_gamma 90.000000
_cell_volume 2782.055936
_symmetry_space_group_name_H-M "C 2/C"
_symmetry_group_IT_number 15
_symmetry_cell_setting 'monoclinic'
loop_
_space_group_symop_operation_xyz
x,y,z
-x,y,1/2-z
-x,-y,-z
x,-y,1/2+z
1/2+x,1/2+y,z
1/2-x,1/2+y,1/2-z
1/2-x,1/2-y,-z
1/2+x,1/2-y,1/2+z
loop_
_atom_site_type_symbol
_atom_site_label
_atom_site_fract_x
_atom_site_fract_y
_atom_site_fract_z
Si Si1 0.814908 0.494402 0.476837
Si Si2 0.854110 0.115533 0.202663
Si Si3 0.042844 0.095495 0.390227
Si Si4 0.563647 0.800256 0.502254
Si Si5 0.297206 0.526053 0.435728
Si Si6 0.232540 0.812956 0.185213
Si Si7 0.836371 0.276642 0.403307
O O1 0.735984 0.530004 0.364278
O O2 0.910979 0.573217 0.516333
O O3 0.778695 0.504663 0.541917
O O4 0.834401 0.360991 0.474443
O O5 0.925126 0.100538 0.176122
O O6 0.816095 0.245243 0.188714
O O7 0.922820 0.084824 0.318840
O O8 0.090186 0.211020 0.452514
O O9 0.090841 0.989566 0.465271
O O10 0.630607 0.760729 0.615424
O O11 0.449394 0.780474 0.447755
O O12 0.274139 0.441613 0.351504
O O13 0.292598 0.655224 0.403249
O O14 0.264723 0.820163 0.292577
#
# Coordination Sequence:
#
# PCOD8142050 Si02
#       7
#     8   8   8   8   8   8   8
#     4  10  22  40  60  84 125 162 196 244 304 369
#     4   9  17  34  61  88 114 152 201 247 296 352
#     4   9  17  34  62  88 113 150 202 251 295 352
#     4  10  21  38  61  89 118 153 202 251 296 351
#     4  10  23  40  60  87 120 162 201 248 304 361
#     4  10  22  37  61  89 120 150 200 254 297 353
#     4  12  24  38  62  87 125 159 200 244 309 360
#
# _framework density 20.129000000000001
#
# number of rings (size 3 to 8) (size 9 to 14) (size 15 to 20)
#    0.000    2.000    1.429    1.714    4.000    6.857 
#    0.000    0.000    0.000    1.714    0.000    0.000 
#    0.000    0.000    0.000    0.000    0.000    0.000 
#
# Total GULP energy -346876.190448 kJ/mol
# GULP energy per Si atom -12388.435373 kJ/mol
# Density = 2.008319 g / cm^3
# Si number density = 20.129000 Si / 1000 Ang^3
#
#
#
# Elastic Constant Matrix: (Units=GPa)
#
#
# Indices 1 2 3 4 5 6 
#
# 1 50.9743 22.5361 24.1179 0.0000 2.7163 0.0000
# 2 22.5361 103.9831 12.0180 0.0000 -17.8090 0.0000
# 3 24.1179 12.0180 96.7236 0.0000 -0.3466 0.0000
# 4 0.0000 0.0000 0.0000 24.8826 0.0000 -5.7900
# 5 2.7163 -17.8090 -0.3466 0.0000 20.9197 0.0000
# 6 0.0000 0.0000 0.0000 -5.7900 0.0000 25.2954
#
#
#
# Elastic Compliance Matrix: (Units=1/GPa)
#
#
# Indices 1 2 3 4 5 6 
#
# 1 0.025583 -0.006416 -0.005614 0.000000 -0.008877 0.000000
# 2 -0.006416 0.013051 0.000021 0.000000 0.011943 0.000000
# 3 -0.005614 0.000021 0.011739 0.000000 0.000941 0.000000
# 4 0.000000 0.000000 0.000000 0.042450 0.000000 0.009717
# 5 -0.008877 0.011943 0.000941 0.000000 0.059137 0.000000
# 6 0.000000 0.000000 0.000000 0.009717 0.000000 0.041757
#
#
# Mechanical properties :
#
#
# Convention : Reuss Voigt Hill
#
# Bulk Modulus (GPa) = 37.94254 41.00276 39.47265
# Shear Modulus (GPa) = 22.07306 27.08682 24.57994
#
# Velocity S-wave (km/s) = 3.31506 3.67231 3.49824
# Velocity P-wave (km/s) = 5.79167 6.19640 5.99745
#
# Compressibility (1/GPa) = 0.02635564
#
# Stress axis : x y z
#
# Youngs Moduli (GPa) = 39.08771 76.62477 85.18410
#
# Poissons Ratio (x) = 0.49164 0.47821
# Poissons Ratio (y) = 0.25079 -0.00180
# Poissons Ratio (z) = 0.21943 -0.00162
#
# Static dielectric constant tensor:
#      x y z
#    x 3.315850 0.000000 -0.028750 
#    y 0.000000 3.599270 0.000000 
#    z -0.028750 0.000000 3.561870 
# 
# 
# High freq. dielectric constant tensor:
#      x y z
#    x 1.771260 0.000000 0.007140 
#    y 0.000000 1.780360 0.000000 
#    z 0.007140 0.000000 1.795350 
# 
# From -- ./inp_files/210683.got.cif
#   From: 2010.06.25/outbox.cif.g09.slc.cpg/sg15_106_cif.got.tgz:210683.got - 2010.06.28 07:06:18.
