data_PCOD8142420
_publ_section_title
;
Structure prediction by ZEFSAII (Michael W. Deem and Ramdas Pophale) SiO2 
 PCOD8142420
Probable space group: C 2/C
;
_chemical_formula_sum "Si O2"
_cell_formula_units_Z 56
_cell_length_a 27.762179
_cell_length_b 11.444065
_cell_length_c 8.804821
_cell_angle_alpha 90.000000
_cell_angle_beta 61.613746
_cell_angle_gamma 90.000000
_cell_volume 2461.047071
_symmetry_space_group_name_H-M "C 2/C"
_symmetry_group_IT_number 15
_symmetry_cell_setting 'monoclinic'
loop_
_space_group_symop_operation_xyz
x,y,z
-x,y,1/2-z
-x,-y,-z
x,-y,1/2+z
1/2+x,1/2+y,z
1/2-x,1/2+y,1/2-z
1/2-x,1/2-y,-z
1/2+x,1/2-y,1/2+z
loop_
_atom_site_type_symbol
_atom_site_label
_atom_site_fract_x
_atom_site_fract_y
_atom_site_fract_z
Si Si1 0.231620 0.118192 0.063916
Si Si2 0.676994 0.548895 0.847079
Si Si3 0.000000 0.482684 0.250000
Si Si4 0.428852 0.116410 0.114115
Si Si5 0.191196 0.584843 0.111749
Si Si6 0.000000 0.016925 0.250000
Si Si7 0.757820 0.736960 0.685426
Si Si8 0.935682 0.885580 0.110447
O O1 0.239783 0.255455 0.128474
O O2 0.201852 0.077458 0.266920
O O3 0.184957 0.086628 0.010674
O O4 0.288083 0.046210 0.959105
O O5 0.710873 0.645780 0.701681
O O6 0.614889 0.547477 0.888013
O O7 0.032107 0.563694 0.317776
O O8 0.955043 0.405757 0.408372
O O9 0.367449 0.065175 0.220560
O O10 0.422449 0.251870 0.154504
O O11 0.236600 0.638691 0.157283
O O12 0.188148 0.675765 0.970413
O O13 0.983388 0.099417 0.414922
O O14 0.951698 0.936011 0.252331
#
# Coordination Sequence:
#
# PCOD8142420 Si02
#       8
#     8   8   4   8   8   4   8   8
#     4  11  22  38  59  92 132 164 213 255 309 396
#     4  11  22  36  60  87 123 164 205 259 314 381
#     4  10  26  44  66 100 122 166 228 276 328 384
#     4  11  23  44  68  92 130 166 219 278 326 381
#     4  10  22  38  65  89 129 174 204 262 330 373
#     4  10  24  40  62  90 118 160 220 256 342 384
#     4  10  21  39  57  93 126 166 209 254 311 394
#     4  11  22  41  63  88 122 164 205 274 320 387
#
# _framework density 22.754542000000001
#
# number of rings (size 3 to 8) (size 9 to 14) (size 15 to 20)
#    0.000    1.429    2.857    2.143    2.000    1.143 
#    0.000    4.286    0.000    0.000    0.000    0.000 
#    0.000    0.000    0.000    0.000    0.000    0.000 
#
# Total GULP energy -346908.806292 kJ/mol
# GULP energy per Si atom -12389.600225 kJ/mol
# Density = 2.270275 g / cm^3
# Si number density = 22.754542 Si / 1000 Ang^3
#
#
#
# Elastic Constant Matrix: (Units=GPa)
#
#
# Indices 1 2 3 4 5 6 
#
# 1 119.2179 24.4339 52.0737 0.0000 5.3728 0.0000
# 2 24.4339 56.8771 27.2321 0.0000 -7.2760 0.0000
# 3 52.0737 27.2321 132.4323 0.0000 3.7140 0.0000
# 4 0.0000 0.0000 0.0000 26.3644 0.0000 3.5248
# 5 5.3728 -7.2760 3.7140 0.0000 46.0672 0.0000
# 6 0.0000 0.0000 0.0000 3.5248 0.0000 28.2529
#
#
#
# Elastic Compliance Matrix: (Units=1/GPa)
#
#
# Indices 1 2 3 4 5 6 
#
# 1 0.010611 -0.003066 -0.003501 0.000000 -0.001439 0.000000
# 2 -0.003066 0.020938 -0.003210 0.000000 0.003923 0.000000
# 3 -0.003501 -0.003210 0.009612 0.000000 -0.000874 0.000000
# 4 0.000000 0.000000 0.000000 0.038573 0.000000 -0.004812
# 5 -0.001439 0.003923 -0.000874 0.000000 0.022565 0.000000
# 6 0.000000 0.000000 0.000000 -0.004812 0.000000 0.035995
#
#
# Mechanical properties :
#
#
# Convention : Reuss Voigt Hill
#
# Bulk Modulus (GPa) = 46.28305 57.33408 51.80856
# Shear Modulus (GPa) = 30.29368 33.78939 32.04154
#
# Velocity S-wave (km/s) = 3.65269 3.85769 3.75659
# Velocity P-wave (km/s) = 6.17850 6.71519 6.45243
#
# Compressibility (1/GPa) = 0.02160618
#
# Stress axis : x y z
#
# Youngs Moduli (GPa) = 94.24506 47.76087 104.03278
#
# Poissons Ratio (x) = 0.14643 0.36426
# Poissons Ratio (y) = 0.28895 0.33393
# Poissons Ratio (z) = 0.32999 0.15331
#
# Static dielectric constant tensor:
#      x y z
#    x 3.962560 0.000000 0.263950 
#    y 0.000000 4.328910 0.000000 
#    z 0.263950 0.000000 4.707670 
# 
# 
# High freq. dielectric constant tensor:
#      x y z
#    x 1.882530 0.000000 0.019430 
#    y 0.000000 1.910500 0.000000 
#    z 0.019430 0.000000 1.925450 
# 
# From -- ./inp_files/69331.got.cif
#   From: 2010.06.25/outbox.cif.g09.slc.cpg/sg15_35_cif.got.tgz:69331.got - 2010.06.28 07:06:18.
