data_PCOD8142246
_publ_section_title
;
Structure prediction by ZEFSAII (Michael W. Deem and Ramdas Pophale) SiO2 
 PCOD8142246
Probable space group: C 2/C
;
_chemical_formula_sum "Si O2"
_cell_formula_units_Z 56
_cell_length_a 8.139798
_cell_length_b 19.293675
_cell_length_c 17.525021
_cell_angle_alpha 90.000000
_cell_angle_beta 108.829639
_cell_angle_gamma 90.000000
_cell_volume 2604.951774
_symmetry_space_group_name_H-M "C 2/C"
_symmetry_group_IT_number 15
_symmetry_cell_setting 'monoclinic'
loop_
_space_group_symop_operation_xyz
x,y,z
-x,y,1/2-z
-x,-y,-z
x,-y,1/2+z
1/2+x,1/2+y,z
1/2-x,1/2+y,1/2-z
1/2-x,1/2-y,-z
1/2+x,1/2-y,1/2+z
loop_
_atom_site_type_symbol
_atom_site_label
_atom_site_fract_x
_atom_site_fract_y
_atom_site_fract_z
Si Si1 0.024477 0.679771 0.940520
Si Si2 0.567772 0.667166 0.493015
Si Si3 0.712290 0.103295 0.700477
Si Si4 0.646381 0.952104 0.718305
Si Si5 0.865095 0.951328 0.889587
Si Si6 0.034979 0.565720 0.451187
Si Si7 0.020586 0.901094 0.132792
O O1 0.996341 0.760689 0.950550
O O2 0.926457 0.661515 0.846285
O O3 0.226247 0.662238 0.966869
O O4 0.937755 0.634232 0.994587
O O5 0.508488 0.606232 0.427833
O O6 0.486315 0.657926 0.564898
O O7 0.819465 0.125918 0.791295
O O8 0.847169 0.086331 0.653584
O O9 0.606095 0.033839 0.701589
O O10 0.500000 0.918672 0.750000
O O11 0.823633 0.940925 0.792159
O O12 0.630669 0.920125 0.630668
O O13 0.702299 0.946150 0.922632
O O14 0.940746 0.028601 0.908764
O O15 0.000000 0.500000 0.500000
#
# Coordination Sequence:
#
# PCOD8142246 Si02
#       7
#     8   8   8   8   8   8   8
#     4  11  25  41  61  87 123 170 212 248 303 373
#     4  11  25  42  59  89 125 167 210 253 307 363
#     4  10  21  38  64  92 119 161 200 254 308 363
#     4   9  20  36  61  95 120 155 196 251 312 362
#     4  10  22  40  62  92 128 158 198 262 308 362
#     4  11  20  36  66  94 119 160 207 253 306 365
#     4  10  22  39  64  95 121 156 206 256 311 364
#
# _framework density 21.497517999999999
#
# number of rings (size 3 to 8) (size 9 to 14) (size 15 to 20)
#    0.000    1.714    1.429    2.143    6.000    2.286 
#    2.571    0.000    0.000    0.000    0.000    0.000 
#    0.000    0.000    0.000    0.000    0.000    0.000 
#
# Total GULP energy -347056.148663 kJ/mol
# GULP energy per Si atom -12394.862452 kJ/mol
# Density = 2.144859 g / cm^3
# Si number density = 21.497518 Si / 1000 Ang^3
#
#
#
# Elastic Constant Matrix: (Units=GPa)
#
#
# Indices 1 2 3 4 5 6 
#
# 1 58.4203 35.8480 21.4172 0.0000 1.2212 0.0000
# 2 35.8480 117.0131 66.4520 0.0000 15.1118 0.0000
# 3 21.4172 66.4520 128.5602 0.0000 10.4483 0.0000
# 4 0.0000 0.0000 0.0000 32.4497 0.0000 7.1316
# 5 1.2212 15.1118 10.4483 0.0000 32.7289 0.0000
# 6 0.0000 0.0000 0.0000 7.1316 0.0000 26.1354
#
#
#
# Elastic Compliance Matrix: (Units=1/GPa)
#
#
# Indices 1 2 3 4 5 6 
#
# 1 0.021257 -0.006650 -0.000297 0.000000 0.002372 0.000000
# 2 -0.006650 0.014627 -0.006082 0.000000 -0.004564 0.000000
# 3 -0.000297 -0.006082 0.011028 0.000000 -0.000702 0.000000
# 4 0.000000 0.000000 0.000000 0.032783 0.000000 -0.008946
# 5 0.002372 -0.004564 -0.000702 0.000000 0.032797 0.000000
# 6 0.000000 0.000000 0.000000 -0.008946 0.000000 0.040703
#
#
# Mechanical properties :
#
#
# Convention : Reuss Voigt Hill
#
# Bulk Modulus (GPa) = 47.94935 61.26975 54.60955
# Shear Modulus (GPa) = 26.85230 30.28124 28.56677
#
# Velocity S-wave (km/s) = 3.53808 3.75719 3.64928
# Velocity P-wave (km/s) = 6.24849 6.88366 6.57375
#
# Compressibility (1/GPa) = 0.02085534
#
# Stress axis : x y z
#
# Youngs Moduli (GPa) = 47.04285 68.36881 90.67479
#
# Poissons Ratio (x) = 0.45467 0.02690
# Poissons Ratio (y) = 0.31285 0.55145
# Poissons Ratio (z) = 0.01395 0.41579
#
# Static dielectric constant tensor:
#      x y z
#    x 3.807090 0.000000 0.181660 
#    y 0.000000 3.614450 0.000000 
#    z 0.181660 0.000000 4.487080 
# 
# 
# High freq. dielectric constant tensor:
#      x y z
#    x 1.842290 0.000000 0.007690 
#    y 0.000000 1.804920 0.000000 
#    z 0.007690 0.000000 1.872730 
# 
# From -- ./inp_files/191052.got.cif
#   From: 2010.06.25/outbox.cif.g09.slc.cpg/sg15_96_cif.got.tgz:191052.got - 2010.06.28 07:06:18.
