data_PCOD8142772
_publ_section_title
;
Structure prediction by ZEFSAII (Michael W. Deem and Ramdas Pophale) SiO2 
 PCOD8142772
Probable space group: C 2/C
;
_chemical_formula_sum "Si O2"
_cell_formula_units_Z 64
_cell_length_a 15.527280
_cell_length_b 9.125499
_cell_length_c 21.844723
_cell_angle_alpha 90.000000
_cell_angle_beta 98.350106
_cell_angle_gamma 90.000000
_cell_volume 3062.457637
_symmetry_space_group_name_H-M "C 2/C"
_symmetry_group_IT_number 15
_symmetry_cell_setting 'monoclinic'
loop_
_space_group_symop_operation_xyz
x,y,z
-x,y,1/2-z
-x,-y,-z
x,-y,1/2+z
1/2+x,1/2+y,z
1/2-x,1/2+y,1/2-z
1/2-x,1/2-y,-z
1/2+x,1/2-y,1/2+z
loop_
_atom_site_type_symbol
_atom_site_label
_atom_site_fract_x
_atom_site_fract_y
_atom_site_fract_z
Si Si1 0.161111 0.817972 0.010845
Si Si2 0.139679 0.975145 0.886339
Si Si3 0.192111 0.186891 0.202998
Si Si4 0.372496 0.772494 0.548606
Si Si5 0.301085 0.612998 0.434552
Si Si6 0.439908 0.199204 0.393781
Si Si7 0.298891 0.026226 0.311147
Si Si8 0.032533 0.028405 0.690308
O O1 0.101608 0.705591 0.042362
O O2 0.170857 0.945544 0.062210
O O3 0.250000 0.750000 0.000000
O O4 0.121754 0.875540 0.943727
O O5 0.225164 0.942627 0.854910
O O6 0.149298 0.143096 0.906441
O O7 0.052172 0.941352 0.840696
O O8 0.210970 0.171181 0.133979
O O9 0.273519 0.126148 0.250306
O O10 0.187395 0.361898 0.212935
O O11 0.106134 0.094028 0.211365
O O12 0.373478 0.708873 0.479174
O O13 0.293072 0.886343 0.541945
O O14 0.461374 0.848918 0.580195
O O15 0.391298 0.076885 0.348614
O O16 0.436497 0.351727 0.355714
O O17 0.000000 0.105701 0.750000
#
# Coordination Sequence:
#
# PCOD8142772 Si02
#       8
#     8   8   8   8   8   8   8   8
#     4  11  22  38  64  99 134 171 216 274 329 392
#     4  10  21  39  65  90 131 170 214 265 331 397
#     4  12  25  43  69  97 129 179 225 277 332 395
#     4   9  21  40  67  94 129 168 217 266 331 396
#     4  10  21  41  66  95 127 179 219 264 329 407
#     4  11  24  41  67 103 133 175 223 272 334 399
#     4  12  25  43  66  97 133 174 225 274 331 399
#     4  11  23  43  67  94 129 176 225 272 328 397
#
# _framework density 20.898247000000001
#
# number of rings (size 3 to 8) (size 9 to 14) (size 15 to 20)
#    0.000    1.250    5.000    0.750    1.750    1.500 
#    2.250    1.875    0.000    0.000    0.000    0.000 
#    0.000    0.000    0.000    0.000    0.000    0.000 
#
# Total GULP energy -396558.683404 kJ/mol
# GULP energy per Si atom -12392.458856 kJ/mol
# Density = 2.085068 g / cm^3
# Si number density = 20.898247 Si / 1000 Ang^3
#
#
#
# Elastic Constant Matrix: (Units=GPa)
#
#
# Indices 1 2 3 4 5 6 
#
# 1 76.4368 -1.1861 30.4764 0.0000 15.7131 0.0000
# 2 -1.1861 47.0015 21.9523 0.0000 3.1792 0.0000
# 3 30.4764 21.9523 110.0155 0.0000 8.5153 0.0000
# 4 0.0000 0.0000 0.0000 22.2498 0.0000 3.4142
# 5 15.7131 3.1792 8.5153 0.0000 41.2102 0.0000
# 6 0.0000 0.0000 0.0000 3.4142 0.0000 28.6399
#
#
#
# Elastic Compliance Matrix: (Units=1/GPa)
#
#
# Indices 1 2 3 4 5 6 
#
# 1 0.016081 0.002930 -0.004621 0.000000 -0.005403 0.000000
# 2 0.002930 0.024026 -0.005463 0.000000 -0.001842 0.000000
# 3 -0.004621 -0.005463 0.011474 0.000000 -0.000187 0.000000
# 4 0.000000 0.000000 0.000000 0.045782 0.000000 -0.005458
# 5 -0.005403 -0.001842 -0.000187 0.000000 0.026507 0.000000
# 6 0.000000 0.000000 0.000000 -0.005458 0.000000 0.035567
#
#
# Mechanical properties :
#
#
# Convention : Reuss Voigt Hill
#
# Bulk Modulus (GPa) = 26.82953 37.32654 32.07804
# Shear Modulus (GPa) = 26.85707 30.56739 28.71223
#
# Velocity S-wave (km/s) = 3.58877 3.82865 3.71065
# Velocity P-wave (km/s) = 5.48073 6.11920 5.80874
#
# Compressibility (1/GPa) = 0.03727236
#
# Stress axis : x y z
#
# Youngs Moduli (GPa) = 62.18377 41.62154 87.15043
#
# Poissons Ratio (x) = -0.12194 0.40274
# Poissons Ratio (y) = -0.18218 0.47611
# Poissons Ratio (z) = 0.28737 0.22738
#
# Static dielectric constant tensor:
#      x y z
#    x 4.048350 0.000000 -0.230200 
#    y 0.000000 4.252520 0.000000 
#    z -0.230200 0.000000 4.244370 
# 
# 
# High freq. dielectric constant tensor:
#      x y z
#    x 1.818180 0.000000 0.008170 
#    y 0.000000 1.793840 0.000000 
#    z 0.008170 0.000000 1.837930 
# 
# From -- ./inp_files/273183.got.cif
#   From: 2010.06.25/outbox.cif.g09.slc.cpg/sg15_137_cif.got.tgz:273183.got - 2010.06.28 07:06:18.
