data_PCOD8142044
_publ_section_title
;
Structure prediction by ZEFSAII (Michael W. Deem and Ramdas Pophale) SiO2 
 PCOD8142044
Probable space group: C 2/C
;
_chemical_formula_sum "Si O2"
_cell_formula_units_Z 40
_cell_length_a 14.514600
_cell_length_b 16.050597
_cell_length_c 17.953355
_cell_angle_alpha 90.000000
_cell_angle_beta 29.479539
_cell_angle_gamma 90.000000
_cell_volume 2058.289538
_symmetry_space_group_name_H-M "C 2/C"
_symmetry_group_IT_number 15
_symmetry_cell_setting 'monoclinic'
loop_
_space_group_symop_operation_xyz
x,y,z
-x,y,1/2-z
-x,-y,-z
x,-y,1/2+z
1/2+x,1/2+y,z
1/2-x,1/2+y,1/2-z
1/2-x,1/2-y,-z
1/2+x,1/2-y,1/2+z
loop_
_atom_site_type_symbol
_atom_site_label
_atom_site_fract_x
_atom_site_fract_y
_atom_site_fract_z
Si Si1 0.869641 0.580591 0.090927
Si Si2 0.203615 0.836378 0.571039
Si Si3 0.521626 0.187132 0.348284
Si Si4 0.188560 0.849666 0.980168
Si Si5 0.026610 0.014359 0.143614
O O1 0.860303 0.633324 0.020165
O O2 0.948601 0.646520 0.093320
O O3 0.665195 0.547753 0.256569
O O4 0.000000 0.500000 0.000000
O O5 0.250000 0.750000 0.500000
O O6 0.000000 0.825427 0.750000
O O7 0.182485 0.912115 0.526729
O O8 0.708768 0.174641 0.168403
O O9 0.339663 0.145275 0.439864
O O10 0.479058 0.285182 0.385684
O O11 0.092617 0.939490 0.044709
O O12 0.000000 0.988693 0.250000
#
# Coordination Sequence:
#
# PCOD8142044 Si02
#       5
#     8   8   8   8   8
#     4  10  21  38  61  88 118 157 205 246 303 361
#     4   9  20  41  62  86 118 158 198 243 305 362
#     4  10  22  36  58  89 118 153 203 244 299 366
#     4  10  22  38  58  86 122 157 195 247 306 360
#     4   9  20  38  61  81 122 159 190 246 309 356
#
# _framework density 19.433610999999999
#
# number of rings (size 3 to 8) (size 9 to 14) (size 15 to 20)
#    0.000    2.800    0.000    2.400    8.400    4.000 
#    7.200    0.000    0.000    0.000    0.000    0.000 
#    0.000    0.000    0.000    0.000    0.000    0.000 
#
# Total GULP energy -247875.221941 kJ/mol
# GULP energy per Si atom -12393.761097 kJ/mol
# Density = 1.938938 g / cm^3
# Si number density = 19.433611 Si / 1000 Ang^3
#
#
#
# Elastic Constant Matrix: (Units=GPa)
#
#
# Indices 1 2 3 4 5 6 
#
# 1 99.5209 53.3979 30.3704 -0.0156 -15.7198 0.0097
# 2 53.3979 163.9385 55.6905 0.0863 2.4235 -0.0364
# 3 30.3704 55.6905 60.5998 0.0561 0.6558 -0.0159
# 4 -0.0156 0.0863 0.0561 42.4994 -0.0015 4.8155
# 5 -15.7198 2.4235 0.6558 -0.0015 18.5222 0.0021
# 6 0.0097 -0.0364 -0.0159 4.8155 0.0021 24.3321
#
#
#
# Elastic Compliance Matrix: (Units=1/GPa)
#
#
# Indices 1 2 3 4 5 6 
#
# 1 0.015654 -0.003763 -0.004537 0.000022 0.013938 -0.000020
# 2 -0.003763 0.009787 -0.007063 -0.000014 -0.004225 0.000015
# 3 -0.004537 -0.007063 0.025308 -0.000022 -0.003823 0.000013
# 4 0.000022 -0.000014 -0.000022 0.024070 0.000024 -0.004764
# 5 0.013938 -0.004225 -0.003823 0.000024 0.066507 -0.000025
# 6 -0.000020 0.000015 0.000013 -0.004764 -0.000025 0.042041
#
#
# Mechanical properties :
#
#
# Convention : Reuss Voigt Hill
#
# Bulk Modulus (GPa) = 49.94580 66.99743 58.47162
# Shear Modulus (GPa) = 22.64835 29.37741 26.01288
#
# Velocity S-wave (km/s) = 3.41753 3.89225 3.66259
# Velocity P-wave (km/s) = 6.42878 7.39928 6.93104
#
# Compressibility (1/GPa) = 0.02002170
#
# Stress axis : x y z
#
# Youngs Moduli (GPa) = 63.88270 102.17308 39.51395
#
# Poissons Ratio (x) = 0.38452 0.17929
# Poissons Ratio (y) = 0.24042 0.27907
# Poissons Ratio (z) = 0.28986 0.72161
#
# Static dielectric constant tensor:
#      x y z
#    x 3.346860 -0.000180 -0.261590 
#    y -0.000180 3.942580 0.000060 
#    z -0.261590 0.000060 3.329540 
# 
# 
# High freq. dielectric constant tensor:
#      x y z
#    x 1.747130 0.000000 -0.019250 
#    y 0.000000 1.770670 0.000010 
#    z -0.019250 0.000010 1.739330 
# 
# From -- ./inp_files/244299.got.cif
#   From: 2010.06.25/outbox.cif.g09.slc.cpg/sg15_123_cif.got.tgz:244299.got - 2010.06.28 07:06:18.
