data_PCOD8142199
_publ_section_title
;
Structure prediction by ZEFSAII (Michael W. Deem and Ramdas Pophale) SiO2 
 PCOD8142199
Probable space group: C 2/C
;
_chemical_formula_sum "Si O2"
_cell_formula_units_Z 56
_cell_length_a 23.525636
_cell_length_b 14.108762
_cell_length_c 9.806914
_cell_angle_alpha 90.000000
_cell_angle_beta 55.746981
_cell_angle_gamma 90.000000
_cell_volume 2690.525303
_symmetry_space_group_name_H-M "C 2/C"
_symmetry_group_IT_number 15
_symmetry_cell_setting 'monoclinic'
loop_
_space_group_symop_operation_xyz
x,y,z
-x,y,1/2-z
-x,-y,-z
x,-y,1/2+z
1/2+x,1/2+y,z
1/2-x,1/2+y,1/2-z
1/2-x,1/2-y,-z
1/2+x,1/2-y,1/2+z
loop_
_atom_site_type_symbol
_atom_site_label
_atom_site_fract_x
_atom_site_fract_y
_atom_site_fract_z
Si Si1 0.541850 0.956389 0.821049
Si Si2 0.259293 0.523136 0.086064
Si Si3 0.073652 0.839148 0.481286
Si Si4 0.346063 0.834279 0.691197
Si Si5 0.080550 0.194891 0.288433
Si Si6 0.145578 0.612830 0.628241
Si Si7 0.149007 0.010886 0.284742
O O1 0.500000 0.911389 0.750000
O O2 0.587211 0.876945 0.828756
O O3 0.583845 0.040358 0.694019
O O4 0.500000 0.000000 0.000000
O O5 0.220117 0.625717 0.137008
O O6 0.208406 0.435301 0.123755
O O7 0.288432 0.501258 0.195337
O O8 0.322529 0.525842 0.897649
O O9 0.136201 0.777404 0.330242
O O10 0.080874 0.840504 0.633555
O O11 0.083909 0.945278 0.412145
O O12 0.997580 0.799162 0.547982
O O13 0.332093 0.862239 0.553981
O O14 0.118727 0.295996 0.249604
O O15 0.123264 0.119044 0.318197
#
# Coordination Sequence:
#
# PCOD8142199 Si02
#       7
#     8   8   8   8   8   8   8
#     4  11  20  33  58  91 128 164 201 252 316 373
#     4  11  24  40  64  93 131 164 211 253 323 375
#     4  10  22  41  66  94 124 164 216 262 318 368
#     4  10  21  39  61  93 128 164 206 263 310 378
#     4  10  22  40  68  93 122 166 218 260 310 380
#     4  10  21  38  63  93 124 166 213 257 306 386
#     4  12  23  43  63  92 126 171 209 266 307 373
#
# _framework density 20.813780000000001
#
# number of rings (size 3 to 8) (size 9 to 14) (size 15 to 20)
#    0.000    1.429    4.286    1.286    2.000    2.286 
#    0.000    2.857    0.000    0.000    0.000    0.000 
#    0.000    0.000    0.000    0.000    0.000    0.000 
#
# Total GULP energy -347083.056375 kJ/mol
# GULP energy per Si atom -12395.823442 kJ/mol
# Density = 2.076641 g / cm^3
# Si number density = 20.813780 Si / 1000 Ang^3
#
#
#
# Elastic Constant Matrix: (Units=GPa)
#
#
# Indices 1 2 3 4 5 6 
#
# 1 96.5961 37.7324 21.3641 0.0000 6.7812 0.0000
# 2 37.7324 107.2124 18.2409 0.0000 -5.0768 0.0000
# 3 21.3641 18.2409 39.5019 0.0000 -10.3082 0.0000
# 4 0.0000 0.0000 0.0000 32.1002 0.0000 -3.1188
# 5 6.7812 -5.0768 -10.3082 0.0000 32.3765 0.0000
# 6 0.0000 0.0000 0.0000 -3.1188 0.0000 25.3820
#
#
#
# Elastic Compliance Matrix: (Units=1/GPa)
#
#
# Indices 1 2 3 4 5 6 
#
# 1 0.013896 -0.003939 -0.007217 0.000000 -0.005826 0.000000
# 2 -0.003939 0.011239 -0.002601 0.000000 0.001759 0.000000
# 3 -0.007217 -0.002601 0.033490 0.000000 0.011766 0.000000
# 4 0.000000 0.000000 0.000000 0.031529 0.000000 0.003874
# 5 -0.005826 0.001759 0.011766 0.000000 0.036129 0.000000
# 6 0.000000 0.000000 0.000000 0.003874 0.000000 0.039874
#
#
# Mechanical properties :
#
#
# Convention : Reuss Voigt Hill
#
# Bulk Modulus (GPa) = 32.14147 44.22056 38.18102
# Shear Modulus (GPa) = 24.50494 29.03662 26.77078
#
# Velocity S-wave (km/s) = 3.43496 3.73911 3.59026
# Velocity P-wave (km/s) = 5.58640 6.31927 5.96411
#
# Compressibility (1/GPa) = 0.03111246
#
# Stress axis : x y z
#
# Youngs Moduli (GPa) = 71.96297 88.97417 29.85970
#
# Poissons Ratio (x) = 0.35043 0.21550
# Poissons Ratio (y) = 0.28343 0.07766
# Poissons Ratio (z) = 0.51936 0.23140
#
# Static dielectric constant tensor:
#      x y z
#    x 3.518810 0.000000 -0.032070 
#    y 0.000000 3.716180 0.000000 
#    z -0.032070 0.000000 3.728390 
# 
# 
# High freq. dielectric constant tensor:
#      x y z
#    x 1.817340 0.000000 -0.004890 
#    y 0.000000 1.809120 0.000000 
#    z -0.004890 0.000000 1.808680 
# 
# From -- ./inp_files/61808.got.cif
#   From: 2010.06.25/outbox.cif.g09.slc.cpg/sg15_31_cif.got.tgz:61808.got - 2010.06.28 07:06:18.
