data_PCOD8142066
_publ_section_title
;
Structure prediction by ZEFSAII (Michael W. Deem and Ramdas Pophale) SiO2 
 PCOD8142066
Probable space group: C 2/C
;
_chemical_formula_sum "Si O2"
_cell_formula_units_Z 56
_cell_length_a 29.619161
_cell_length_b 8.965883
_cell_length_c 19.329729
_cell_angle_alpha 90.000000
_cell_angle_beta 35.374914
_cell_angle_gamma 90.000000
_cell_volume 2971.757102
_symmetry_space_group_name_H-M "C 2/C"
_symmetry_group_IT_number 15
_symmetry_cell_setting 'monoclinic'
loop_
_space_group_symop_operation_xyz
x,y,z
-x,y,1/2-z
-x,-y,-z
x,-y,1/2+z
1/2+x,1/2+y,z
1/2-x,1/2+y,1/2-z
1/2-x,1/2-y,-z
1/2+x,1/2-y,1/2+z
loop_
_atom_site_type_symbol
_atom_site_label
_atom_site_fract_x
_atom_site_fract_y
_atom_site_fract_z
Si Si1 0.554566 0.910703 0.983430
Si Si2 0.277871 0.959431 0.776384
Si Si3 0.326889 0.284081 0.691351
Si Si4 0.543091 0.408641 0.259915
Si Si5 0.921826 0.664801 0.447880
Si Si6 0.464648 0.608892 0.099811
Si Si7 0.194448 0.197050 0.508251
O O1 0.636203 0.892680 0.841304
O O2 0.519904 0.750031 0.041132
O O3 0.500000 0.000000 0.000000
O O4 0.562127 0.994130 0.048843
O O5 0.229275 0.909397 0.769768
O O6 0.278112 0.139204 0.776330
O O7 0.242443 0.900333 0.892629
O O8 0.392142 0.245583 0.553679
O O9 0.374920 0.348609 0.696010
O O10 0.500000 0.486233 0.250000
O O11 0.501851 0.247017 0.325668
O O12 0.534386 0.522383 0.331179
O O13 0.633093 0.399404 0.127470
O O14 0.854635 0.674320 0.472041
O O15 0.500000 0.500000 0.000000
O O16 0.250000 0.250000 0.500000
#
# Coordination Sequence:
#
# PCOD8142066 Si02
#       7
#     8   8   8   8   8   8   8
#     4  11  21  38  65  92 120 153 209 273 308 356
#     4  10  23  39  60  91 127 154 206 259 314 360
#     4  10  21  38  61  92 120 156 204 266 306 359
#     4  10  22  40  59  88 127 163 201 248 308 378
#     4   9  19  41  60  87 119 157 213 257 303 354
#     4  12  23  37  67  94 121 160 216 257 310 366
#     4  10  23  37  63  87 126 172 207 238 310 388
#
# _framework density 18.844069000000001
#
# number of rings (size 3 to 8) (size 9 to 14) (size 15 to 20)
#    0.000    1.714    4.286    0.000    6.000    2.286 
#    0.000    4.286    0.000    1.714    0.000    0.000 
#    0.000    0.000    0.000    0.000    0.000    0.000 
#
# Total GULP energy -347035.632731 kJ/mol
# GULP energy per Si atom -12394.129740 kJ/mol
# Density = 1.880118 g / cm^3
# Si number density = 18.844069 Si / 1000 Ang^3
#
#
#
# Elastic Constant Matrix: (Units=GPa)
#
#
# Indices 1 2 3 4 5 6 
#
# 1 141.7949 81.0789 58.7406 0.0005 1.5001 -0.0031
# 2 81.0789 134.9523 61.3095 -0.0213 3.5942 -0.0191
# 3 58.7406 61.3095 132.0985 -0.0101 -0.9549 -0.0084
# 4 0.0005 -0.0213 -0.0101 13.4864 0.0026 21.6579
# 5 1.5001 3.5942 -0.9549 0.0026 36.2553 0.0094
# 6 -0.0031 -0.0191 -0.0084 21.6579 0.0094 14.3029
#
#
#
# Elastic Compliance Matrix: (Units=1/GPa)
#
#
# Indices 1 2 3 4 5 6 
#
# 1 0.011302 -0.005713 -0.002374 0.000000 0.000036 -0.000007
# 2 -0.005713 0.012317 -0.003184 0.000004 -0.001069 0.000009
# 3 -0.002374 -0.003184 0.010109 -0.000001 0.000680 0.000002
# 4 0.000000 0.000004 -0.000001 -0.051790 -0.000017 0.078423
# 5 0.000036 -0.001069 0.000680 -0.000017 0.027705 0.000007
# 6 -0.000007 0.000009 0.000002 0.078423 0.000007 -0.048834
#
#
# Mechanical properties :
#
#
# Convention : Reuss Voigt Hill
#
# Bulk Modulus (GPa) = 89.39701 90.12264 89.75983
# Shear Modulus (GPa) = -386.95135 26.65668 -180.14733
#
# Velocity S-wave (km/s) = -14.34537 3.76519 -9.78808
# Velocity P-wave (km/s) = 15.06130 8.17505 8.94459
#
# Compressibility (1/GPa) = 0.01118606
#
# Stress axis : x y z
#
# Youngs Moduli (GPa) = 88.47922 81.18732 98.92619
#
# Poissons Ratio (x) = 0.46379 0.23486
# Poissons Ratio (y) = 0.50545 0.31499
# Poissons Ratio (z) = 0.21006 0.25851
#
# Static dielectric constant tensor:
#      x y z
#    x 4.210300 0.000050 -0.196540 
#    y 0.000050 3.556110 0.000030 
#    z -0.196540 0.000030 3.583170 
# 
# 
# High freq. dielectric constant tensor:
#      x y z
#    x 1.748050 0.000000 -0.008700 
#    y 0.000000 1.715580 0.000000 
#    z -0.008700 0.000000 1.735550 
# 
# From -- ./inp_files/221993.got.cif
#   From: 2010.06.25/outbox.cif.g09.slc.cpg/sg15_111_cif.got.tgz:221993.got - 2010.06.28 07:06:18.
