data_PCOD8142756
_publ_section_title
;
Structure prediction by ZEFSAII (Michael W. Deem and Ramdas Pophale) SiO2 
 PCOD8142756
Probable space group: C 2/C
;
_chemical_formula_sum "Si O2"
_cell_formula_units_Z 40
_cell_length_a 14.580620
_cell_length_b 23.702864
_cell_length_c 5.138491
_cell_angle_alpha 90.000000
_cell_angle_beta 62.602660
_cell_angle_gamma 90.000000
_cell_volume 1576.687170
_symmetry_space_group_name_H-M "C 2/C"
_symmetry_group_IT_number 15
_symmetry_cell_setting 'monoclinic'
loop_
_space_group_symop_operation_xyz
x,y,z
-x,y,1/2-z
-x,-y,-z
x,-y,1/2+z
1/2+x,1/2+y,z
1/2-x,1/2+y,1/2-z
1/2-x,1/2-y,-z
1/2+x,1/2-y,1/2+z
loop_
_atom_site_type_symbol
_atom_site_label
_atom_site_fract_x
_atom_site_fract_y
_atom_site_fract_z
Si Si1 0.932027 0.806841 0.595562
Si Si2 0.103657 0.316715 0.454407
Si Si3 0.262450 0.375871 0.571354
Si Si4 0.614162 0.070166 0.644960
Si Si5 0.798591 0.969786 0.176260
O O1 0.887624 0.743829 0.697859
O O2 0.837701 0.850532 0.691504
O O3 0.000000 0.826206 0.750000
O O4 0.000000 0.807728 0.250000
O O5 0.200046 0.324473 0.524262
O O6 0.103705 0.364314 0.235930
O O7 0.000000 0.323034 0.750000
O O8 0.327892 0.408619 0.257863
O O9 0.188518 0.424978 0.791997
O O10 0.500000 0.044354 0.750000
O O11 0.671913 0.033370 0.795136
O O12 0.841061 0.016349 0.330915
#
# Coordination Sequence:
#
# PCOD8142756 Si02
#       5
#     8   8   8   8   8
#     4  11  27  44  67  98 132 173 224 272 317 379
#     4  10  21  39  64  99 139 174 212 257 318 394
#     4  11  24  43  70  94 133 176 217 268 327 383
#     4  11  22  38  65  98 136 175 213 257 319 398
#     4  11  24  43  65  95 130 170 216 271 328 390
#
# _framework density 25.36965
#
# number of rings (size 3 to 8) (size 9 to 14) (size 15 to 20)
#    0.000    1.200    4.000    1.200    8.400    1.600 
#    0.000    0.000    0.000    3.600    0.000    0.000 
#    0.000    0.000    0.000    0.000    0.000    0.000 
#
# Total GULP energy -247845.699356 kJ/mol
# GULP energy per Si atom -12392.284968 kJ/mol
# Density = 2.531191 g / cm^3
# Si number density = 25.369650 Si / 1000 Ang^3
#
#
#
# Elastic Constant Matrix: (Units=GPa)
#
#
# Indices 1 2 3 4 5 6 
#
# 1 122.6343 26.8679 14.7954 0.0000 40.5276 0.0000
# 2 26.8679 65.4193 0.1910 0.0000 9.7118 0.0000
# 3 14.7954 0.1910 77.1177 0.0000 29.2551 0.0000
# 4 0.0000 0.0000 0.0000 34.9274 0.0000 9.4415
# 5 40.5276 9.7118 29.2551 0.0000 42.0308 0.0000
# 6 0.0000 0.0000 0.0000 9.4415 0.0000 1.3732
#
#
#
# Elastic Compliance Matrix: (Units=1/GPa)
#
#
# Indices 1 2 3 4 5 6 
#
# 1 0.013105 -0.003349 0.002709 0.000000 -0.013748 0.000000
# 2 -0.003349 0.016878 0.001162 0.000000 -0.001479 0.000000
# 3 0.002709 0.001162 0.018394 0.000000 -0.015684 0.000000
# 4 0.000000 0.000000 0.000000 -0.033346 0.000000 0.229274
# 5 -0.013748 -0.001479 -0.015684 0.000000 0.048307 0.000000
# 6 0.000000 0.000000 0.000000 0.229274 0.000000 -0.848168
#
#
# Mechanical properties :
#
#
# Convention : Reuss Voigt Hill
#
# Bulk Modulus (GPa) = 20.23420 38.76443 29.49931
# Shear Modulus (GPa) = -6.49856 30.55408 12.02776
#
# Velocity S-wave (km/s) = -1.60222 3.47415 2.17975
# Velocity P-wave (km/s) = 2.13781 5.60410 4.24124
#
# Compressibility (1/GPa) = 0.04942128
#
# Stress axis : x y z
#
# Youngs Moduli (GPa) = 76.30965 59.24984 54.36434
#
# Poissons Ratio (x) = 0.19843 -0.14730
# Poissons Ratio (y) = 0.25556 -0.06317
# Poissons Ratio (z) = -0.20676 -0.06884
#
# Static dielectric constant tensor:
#      x y z
#    x 4.447800 0.000000 0.185830 
#    y 0.000000 4.733650 0.000000 
#    z 0.185830 0.000000 4.306060 
# 
# 
# High freq. dielectric constant tensor:
#      x y z
#    x 1.995950 0.000000 0.036410 
#    y 0.000000 2.021770 0.000000 
#    z 0.036410 0.000000 1.996430 
# 
# From -- ./inp_files/7500.got.cif
#   From: 2010.06.25/outbox.cif.g09.slc.cpg/sg15_4_cif.got.tgz:7500.got - 2010.06.28 07:06:18.
