data_PCOD8142771
_publ_section_title
;
Structure prediction by ZEFSAII (Michael W. Deem and Ramdas Pophale) SiO2 
 PCOD8142771
Probable space group: C 2/C
;
_chemical_formula_sum "Si O2"
_cell_formula_units_Z 40
_cell_length_a 12.846716
_cell_length_b 4.949274
_cell_length_c 30.035624
_cell_angle_alpha 90.000000
_cell_angle_beta 77.631391
_cell_angle_gamma 90.000000
_cell_volume 1865.397486
_symmetry_space_group_name_H-M "C 2/C"
_symmetry_group_IT_number 15
_symmetry_cell_setting 'monoclinic'
loop_
_space_group_symop_operation_xyz
x,y,z
-x,y,1/2-z
-x,-y,-z
x,-y,1/2+z
1/2+x,1/2+y,z
1/2-x,1/2+y,1/2-z
1/2-x,1/2-y,-z
1/2+x,1/2-y,1/2+z
loop_
_atom_site_type_symbol
_atom_site_label
_atom_site_fract_x
_atom_site_fract_y
_atom_site_fract_z
Si Si1 0.422371 0.785122 0.720019
Si Si2 0.807505 0.895413 0.789631
Si Si3 0.370573 0.122606 0.339044
Si Si4 0.678787 0.035399 0.557341
Si Si5 0.388345 0.529339 0.987588
O O1 0.500000 0.926297 0.750000
O O2 0.311955 0.933595 0.719164
O O3 0.390601 0.488169 0.742999
O O4 0.502188 0.798155 0.670181
O O5 0.836343 0.599200 0.804897
O O6 0.810796 0.103816 0.830575
O O7 0.332168 0.026791 0.390077
O O8 0.617449 0.828641 0.531193
O O9 0.628368 0.327517 0.552371
O O10 0.803245 0.029624 0.534117
O O11 0.500000 0.500000 0.000000
#
# Coordination Sequence:
#
# PCOD8142771 Si02
#       5
#     8   8   8   8   8
#     4  10  23  40  60  83 116 156 198 246 296 346
#     4  11  24  40  60  87 117 158 202 246 301 354
#     4  11  25  41  62  89 121 156 201 252 294 350
#     4  10  22  40  61  93 122 154 201 242 292 360
#     4  10  21  39  65  90 124 160 191 240 300 356
#
# _framework density 21.443152999999999
#
# number of rings (size 3 to 8) (size 9 to 14) (size 15 to 20)
#    0.000    1.600    0.000    4.200    0.000   18.400 
#    0.000    0.000    0.000    0.000    0.000    0.000 
#    0.000    0.000    0.000    0.000    0.000    0.000 
#
# Total GULP energy -247792.973045 kJ/mol
# GULP energy per Si atom -12389.648652 kJ/mol
# Density = 2.139435 g / cm^3
# Si number density = 21.443153 Si / 1000 Ang^3
#
#
#
# Elastic Constant Matrix: (Units=GPa)
#
#
# Indices 1 2 3 4 5 6 
#
# 1 184.6610 33.6730 47.8451 -0.0007 -6.9979 -0.0007
# 2 33.6730 47.1558 10.0338 -0.0020 -11.2339 -0.0017
# 3 47.8451 10.0338 70.3465 -0.0006 -1.4775 0.0001
# 4 -0.0007 -0.0020 -0.0006 21.2105 -0.0003 -6.2699
# 5 -6.9979 -11.2339 -1.4775 -0.0003 10.6100 -0.0001
# 6 -0.0007 -0.0017 0.0001 -6.2699 -0.0001 23.1517
#
#
#
# Elastic Compliance Matrix: (Units=1/GPa)
#
#
# Indices 1 2 3 4 5 6 
#
# 1 0.007335 -0.004414 -0.004369 0.000000 -0.000444 0.000000
# 2 -0.004414 0.031863 -0.000898 0.000004 0.030701 0.000003
# 3 -0.004369 -0.000898 0.017285 0.000000 -0.001425 0.000000
# 4 0.000000 0.000004 0.000000 0.051249 0.000006 0.013879
# 5 -0.000444 0.030701 -0.001425 0.000006 0.126266 0.000004
# 6 0.000000 0.000003 0.000000 0.013879 0.000004 0.046952
#
#
# Mechanical properties :
#
#
# Convention : Reuss Voigt Hill
#
# Bulk Modulus (GPa) = 26.93815 53.91858 40.42836
# Shear Modulus (GPa) = 15.99049 25.03519 20.51284
#
# Velocity S-wave (km/s) = 2.73374 3.42060 3.09627
# Velocity P-wave (km/s) = 4.74914 6.38750 5.62825
#
# Compressibility (1/GPa) = 0.03712207
#
# Stress axis : x y z
#
# Youngs Moduli (GPa) = 136.32575 31.38409 57.85430
#
# Poissons Ratio (x) = 0.13854 0.25275
# Poissons Ratio (y) = 0.60178 0.05193
# Poissons Ratio (z) = 0.59557 0.02817
#
# Static dielectric constant tensor:
#      x y z
#    x 4.158930 0.000000 -0.321870 
#    y 0.000000 4.007030 0.000000 
#    z -0.321870 0.000000 3.854150 
# 
# 
# High freq. dielectric constant tensor:
#      x y z
#    x 1.852830 0.000000 -0.005770 
#    y 0.000000 1.851880 0.000000 
#    z -0.005770 0.000000 1.825690 
# 
# From -- ./inp_files/309392.got.cif
#   From: 2010.06.25/outbox.cif.g09.slc.cpg/sg15_155_cif.got.tgz:309392.got - 2010.06.28 07:06:18.
