data_PCOD8142676
_publ_section_title
;
Structure prediction by ZEFSAII (Michael W. Deem and Ramdas Pophale) SiO2 
 PCOD8142676
Probable space group: C 2/C
;
_chemical_formula_sum "Si O2"
_cell_formula_units_Z 48
_cell_length_a 15.801973
_cell_length_b 8.487905
_cell_length_c 16.935596
_cell_angle_alpha 90.000000
_cell_angle_beta 61.911601
_cell_angle_gamma 90.000000
_cell_volume 2003.965777
_symmetry_space_group_name_H-M "C 2/C"
_symmetry_group_IT_number 15
_symmetry_cell_setting 'monoclinic'
loop_
_space_group_symop_operation_xyz
x,y,z
-x,y,1/2-z
-x,-y,-z
x,-y,1/2+z
1/2+x,1/2+y,z
1/2-x,1/2+y,1/2-z
1/2-x,1/2-y,-z
1/2+x,1/2-y,1/2+z
loop_
_atom_site_type_symbol
_atom_site_label
_atom_site_fract_x
_atom_site_fract_y
_atom_site_fract_z
Si Si1 0.914827 0.019490 0.977262
Si Si2 0.348463 0.192649 0.422456
Si Si3 0.899255 0.838524 0.828684
Si Si4 0.282047 0.332394 0.127397
Si Si5 0.712621 0.631087 0.689457
Si Si6 0.388643 0.975967 0.531608
O O1 0.914887 0.881295 0.912626
O O2 0.925294 0.186084 0.928364
O O3 0.816698 0.997308 0.072671
O O4 0.000000 0.000000 0.000000
O O5 0.250000 0.250000 0.500000
O O6 0.339247 0.218595 0.331733
O O7 0.373803 0.018509 0.444154
O O8 0.825989 0.693154 0.854206
O O9 0.000000 0.782832 0.750000
O O10 0.853897 0.980694 0.798095
O O11 0.286904 0.332399 0.219191
O O12 0.355638 0.200496 0.062718
O O13 0.821491 0.596943 0.611707
O O14 0.500000 0.000000 0.500000
#
# Coordination Sequence:
#
# PCOD8142676 Si02
#       6
#     8   8   8   8   8   8
#     4  11  22  39  66  92 122 168 209 256 321 391
#     4   9  20  39  62  86 120 163 204 246 308 381
#     4  10  22  39  60  92 127 164 214 264 314 380
#     4  11  23  40  64  96 128 162 212 271 320 372
#     4   9  21  40  62  89 126 170 210 254 316 394
#     4  10  21  39  63  93 125 161 210 269 321 374
#
# _framework density 23.952504999999999
#
# number of rings (size 3 to 8) (size 9 to 14) (size 15 to 20)
#    0.000    2.000    0.000    3.500    0.000   10.667 
#    0.000    0.000    0.000    2.000    0.000    1.167 
#    0.000    0.000    0.000    0.000    0.000    0.000 
#
# Total GULP energy -297416.315108 kJ/mol
# GULP energy per Si atom -12392.346463 kJ/mol
# Density = 2.389799 g / cm^3
# Si number density = 23.952505 Si / 1000 Ang^3
#
#
#
# Elastic Constant Matrix: (Units=GPa)
#
#
# Indices 1 2 3 4 5 6 
#
# 1 158.0827 22.6298 54.5405 0.0000 -4.0487 0.0000
# 2 22.6298 45.6248 35.3735 0.0000 9.1189 0.0001
# 3 54.5405 35.3735 133.8424 0.0000 22.8727 0.0000
# 4 0.0000 0.0000 0.0000 32.1338 0.0000 3.4793
# 5 -4.0487 9.1189 22.8727 0.0000 55.6115 0.0000
# 6 0.0000 0.0001 0.0000 3.4793 0.0000 28.1412
#
#
#
# Elastic Compliance Matrix: (Units=1/GPa)
#
#
# Indices 1 2 3 4 5 6 
#
# 1 0.007683 -0.001918 -0.002983 0.000000 0.002101 0.000000
# 2 -0.001918 0.028185 -0.006296 0.000000 -0.002172 0.000000
# 3 -0.002983 -0.006296 0.010984 0.000000 -0.003702 0.000000
# 4 0.000000 0.000000 0.000000 0.031542 0.000000 -0.003900
# 5 0.002101 -0.002172 -0.003702 0.000000 0.020014 0.000000
# 6 0.000000 0.000000 0.000000 -0.003900 0.000000 0.036017
#
#
# Mechanical properties :
#
#
# Convention : Reuss Voigt Hill
#
# Bulk Modulus (GPa) = 40.88765 62.51530 51.70148
# Shear Modulus (GPa) = 30.30809 38.17769 34.24289
#
# Velocity S-wave (km/s) = 3.56102 3.99669 3.78513
# Velocity P-wave (km/s) = 5.83226 6.88871 6.38238
#
# Compressibility (1/GPa) = 0.02445726
#
# Stress axis : x y z
#
# Youngs Moduli (GPa) = 130.15130 35.47999 91.04282
#
# Poissons Ratio (x) = 0.06805 0.27159
# Poissons Ratio (y) = 0.24963 0.57324
# Poissons Ratio (z) = 0.38825 0.22339
#
# Static dielectric constant tensor:
#      x y z
#    x 4.541360 0.000000 0.196340 
#    y 0.000000 3.506710 0.000000 
#    z 0.196340 0.000000 4.453920 
# 
# 
# High freq. dielectric constant tensor:
#      x y z
#    x 1.963210 0.000000 0.015790 
#    y 0.000000 1.938770 0.000000 
#    z 0.015790 0.000000 1.943160 
# 
# From -- ./inp_files/151862.got.cif
#   From: 2010.06.25/outbox.cif.g09.slc.cpg/sg15_76_cif.got.tgz:151862.got - 2010.06.28 07:06:18.
