data_PCOD8142523
_publ_section_title
;
Structure prediction by ZEFSAII (Michael W. Deem and Ramdas Pophale) SiO2 
 PCOD8142523
Probable space group: C 2/C
;
_chemical_formula_sum "Si O2"
_cell_formula_units_Z 56
_cell_length_a 27.261562
_cell_length_b 4.934909
_cell_length_c 22.974842
_cell_angle_alpha 90.000000
_cell_angle_beta 123.246671
_cell_angle_gamma 90.000000
_cell_volume 2584.960243
_symmetry_space_group_name_H-M "C 2/C"
_symmetry_group_IT_number 15
_symmetry_cell_setting 'monoclinic'
loop_
_space_group_symop_operation_xyz
x,y,z
-x,y,1/2-z
-x,-y,-z
x,-y,1/2+z
1/2+x,1/2+y,z
1/2-x,1/2+y,1/2-z
1/2-x,1/2-y,-z
1/2+x,1/2-y,1/2+z
loop_
_atom_site_type_symbol
_atom_site_label
_atom_site_fract_x
_atom_site_fract_y
_atom_site_fract_z
Si Si1 0.845762 0.931772 0.641028
Si Si2 0.991617 0.633537 0.810213
Si Si3 0.217468 0.857436 0.658241
Si Si4 0.580628 0.370964 0.209264
Si Si5 0.116817 0.553251 0.401832
Si Si6 0.826432 0.648712 0.308258
Si Si7 0.775655 0.615348 0.959049
O O1 0.866130 0.010246 0.718351
O O2 0.874296 0.134188 0.611304
O O3 0.774949 0.907397 0.594176
O O4 0.868576 0.630808 0.644428
O O5 0.949710 0.374797 0.776646
O O6 0.000000 0.747783 0.750000
O O7 0.051072 0.521560 0.879276
O O8 0.965002 0.880289 0.831555
O O9 0.174200 0.652869 0.665394
O O10 0.283713 0.824529 0.724660
O O11 0.214565 0.823906 0.587119
O O12 0.195364 0.160474 0.653939
O O13 0.608380 0.245153 0.168366
O O14 0.161886 0.479218 0.483873
O O15 0.750000 0.750000 0.000000
#
# Coordination Sequence:
#
# PCOD8142523 Si02
#       7
#     8   8   8   8   8   8   8
#     4  11  20  36  56  86 120 153 187 242 299 359
#     4  12  22  35  58  86 121 162 193 251 294 352
#     4  10  21  39  61  87 121 151 200 245 299 355
#     4  12  21  37  60  85 121 150 202 250 296 346
#     4  11  23  36  54  85 124 157 193 228 305 364
#     4  10  22  38  61  89 114 159 199 250 293 343
#     4  10  23  40  62  92 126 159 190 245 311 370
#
# _framework density 21.663775000000001
#
# number of rings (size 3 to 8) (size 9 to 14) (size 15 to 20)
#    0.000    1.143    4.286    2.571    0.000    4.571 
#    0.000    0.000    0.000    5.143    0.000    0.000 
#    0.000    0.000    0.000    0.000    0.000    0.000 
#
# Total GULP energy -347132.219431 kJ/mol
# GULP energy per Si atom -12397.579265 kJ/mol
# Density = 2.161447 g / cm^3
# Si number density = 21.663775 Si / 1000 Ang^3
#
#
#
# Elastic Constant Matrix: (Units=GPa)
#
#
# Indices 1 2 3 4 5 6 
#
# 1 76.1608 -2.4857 29.6275 -0.0405 16.5093 0.0367
# 2 -2.4857 60.7038 -2.5272 -0.0633 9.0151 0.0769
# 3 29.6275 -2.5272 71.4222 -0.0331 9.7808 0.0254
# 4 -0.0405 -0.0633 -0.0331 14.5613 0.0108 4.3398
# 5 16.5093 9.0151 9.7808 0.0108 34.2281 -0.0120
# 6 0.0367 0.0769 0.0254 4.3398 -0.0120 24.2459
#
#
#
# Elastic Compliance Matrix: (Units=1/GPa)
#
#
# Indices 1 2 3 4 5 6 
#
# 1 0.017028 0.001464 -0.006072 0.000056 -0.006864 -0.000038
# 2 0.001464 0.017382 0.000761 0.000109 -0.005502 -0.000080
# 3 -0.006072 0.000761 0.016832 0.000032 -0.002082 -0.000017
# 4 0.000056 0.000109 0.000032 0.072546 -0.000092 -0.012986
# 5 -0.006864 -0.005502 -0.002082 -0.000092 0.034570 0.000064
# 6 -0.000038 -0.000080 -0.000017 -0.012986 0.000064 0.043569
#
#
# Mechanical properties :
#
#
# Convention : Reuss Voigt Hill
#
# Bulk Modulus (GPa) = 22.96259 28.61290 25.78774
# Shear Modulus (GPa) = 22.30780 26.85186 24.57983
#
# Velocity S-wave (km/s) = 3.21242 3.52445 3.37204
# Velocity P-wave (km/s) = 4.93782 5.45882 5.20484
#
# Compressibility (1/GPa) = 0.04354909
#
# Stress axis : x y z
#
# Youngs Moduli (GPa) = 58.72769 57.52955 59.41072
#
# Poissons Ratio (x) = -0.08422 0.36073
# Poissons Ratio (y) = -0.08597 -0.04523
# Poissons Ratio (z) = 0.35658 -0.04380
#
# Static dielectric constant tensor:
#      x y z
#    x 4.013500 -0.000110 0.392380 
#    y -0.000110 3.881330 0.000070 
#    z 0.392380 0.000070 3.831320 
# 
# 
# High freq. dielectric constant tensor:
#      x y z
#    x 1.845010 0.000000 0.014920 
#    y 0.000000 1.859140 0.000000 
#    z 0.014920 0.000000 1.813070 
# 
# From -- ./inp_files/256613.got.cif
#   From: 2010.06.25/outbox.cif.g09.slc.cpg/sg15_129_cif.got.tgz:256613.got - 2010.06.28 07:06:18.
