data_PCOD8142302
_publ_section_title
;
Structure prediction by ZEFSAII (Michael W. Deem and Ramdas Pophale) SiO2 
 PCOD8142302
Probable space group: C 2/C
;
_chemical_formula_sum "Si O2"
_cell_formula_units_Z 52
_cell_length_a 15.613466
_cell_length_b 14.062591
_cell_length_c 13.364553
_cell_angle_alpha 90.000000
_cell_angle_beta 119.030030
_cell_angle_gamma 90.000000
_cell_volume 2565.736854
_symmetry_space_group_name_H-M "C 2/C"
_symmetry_group_IT_number 15
_symmetry_cell_setting 'monoclinic'
loop_
_space_group_symop_operation_xyz
x,y,z
-x,y,1/2-z
-x,-y,-z
x,-y,1/2+z
1/2+x,1/2+y,z
1/2-x,1/2+y,1/2-z
1/2-x,1/2-y,-z
1/2+x,1/2-y,1/2+z
loop_
_atom_site_type_symbol
_atom_site_label
_atom_site_fract_x
_atom_site_fract_y
_atom_site_fract_z
Si Si1 0.089366 0.757918 0.454585
Si Si2 0.503520 0.101981 0.555063
Si Si3 0.500000 0.386752 0.250000
Si Si4 0.288291 0.855290 0.009927
Si Si5 0.274695 0.134306 0.088603
Si Si6 0.295487 0.478295 0.139946
Si Si7 0.682420 0.955945 0.273209
O O1 0.039989 0.681427 0.498255
O O2 0.007710 0.824822 0.356577
O O3 0.170369 0.819454 0.562599
O O4 0.145091 0.714556 0.389268
O O5 0.400813 0.137052 0.539970
O O6 0.575621 0.087356 0.689907
O O7 0.500000 0.000000 0.500000
O O8 0.409427 0.457563 0.207274
O O9 0.270465 0.901137 0.107824
O O10 0.250000 0.750000 0.000000
O O11 0.222102 0.909432 0.889488
O O12 0.319164 0.068625 0.201507
O O13 0.262477 0.076165 0.979453
O O14 0.250642 0.440615 0.216951
#
# Coordination Sequence:
#
# PCOD8142302 Si02
#       7
#     8   8   4   8   8   8   8
#     4  10  21  38  65  96 125 155 221 267 316 394
#     4  12  23  42  65  99 130 171 221 270 333 402
#     4  10  24  38  68  94 124 172 214 270 324 382
#     4  11  26  44  65  97 136 171 222 277 328 406
#     4   9  20  41  63  95 126 160 212 280 312 380
#     4  10  21  46  61  93 131 168 216 267 326 400
#     4  11  22  42  69  87 133 174 208 267 345 372
#
# _framework density 20.267083
#
# number of rings (size 3 to 8) (size 9 to 14) (size 15 to 20)
#    0.000    1.538    3.077    1.385    4.308    1.231 
#    5.538    2.308    0.000    0.000    0.000    0.000 
#    0.000    0.000    0.000    0.000    0.000    0.000 
#
# Total GULP energy -322373.141555 kJ/mol
# GULP energy per Si atom -12398.966983 kJ/mol
# Density = 2.022095 g / cm^3
# Si number density = 20.267083 Si / 1000 Ang^3
#
#
#
# Elastic Constant Matrix: (Units=GPa)
#
#
# Indices 1 2 3 4 5 6 
#
# 1 127.2615 65.5587 61.0233 0.0000 5.1547 0.0000
# 2 65.5587 124.6078 42.0814 0.0000 6.1100 0.0000
# 3 61.0233 42.0814 86.8044 0.0000 5.3713 0.0000
# 4 0.0000 0.0000 0.0000 29.2512 0.0000 0.6708
# 5 5.1547 6.1100 5.3713 0.0000 34.0157 0.0000
# 6 0.0000 0.0000 0.0000 0.6708 0.0000 36.1987
#
#
#
# Elastic Compliance Matrix: (Units=1/GPa)
#
#
# Indices 1 2 3 4 5 6 
#
# 1 0.013900 -0.004796 -0.007442 0.000000 -0.000070 0.000000
# 2 -0.004796 0.011285 -0.002038 0.000000 -0.000978 0.000000
# 3 -0.007442 -0.002038 0.017822 0.000000 -0.001320 0.000000
# 4 0.000000 0.000000 0.000000 0.034201 0.000000 -0.000634
# 5 -0.000070 -0.000978 -0.001320 0.000000 0.029793 0.000000
# 6 0.000000 0.000000 0.000000 -0.000634 0.000000 0.027637
#
#
# Mechanical properties :
#
#
# Convention : Reuss Voigt Hill
#
# Bulk Modulus (GPa) = 69.18982 75.11118 72.15050
# Shear Modulus (GPa) = 29.76013 31.22715 30.49364
#
# Velocity S-wave (km/s) = 3.83612 3.92954 3.88311
# Velocity P-wave (km/s) = 7.33718 7.59799 7.46873
#
# Compressibility (1/GPa) = 0.01445299
#
# Stress axis : x y z
#
# Youngs Moduli (GPa) = 71.94161 88.61296 56.11069
#
# Poissons Ratio (x) = 0.42502 0.41759
# Poissons Ratio (y) = 0.34506 0.11438
# Poissons Ratio (z) = 0.53541 0.18063
#
# Static dielectric constant tensor:
#      x y z
#    x 3.761020 0.000000 0.233970 
#    y 0.000000 3.940890 0.000000 
#    z 0.233970 0.000000 3.849460 
# 
# 
# High freq. dielectric constant tensor:
#      x y z
#    x 1.788550 0.000000 0.005280 
#    y 0.000000 1.796420 0.000000 
#    z 0.005280 0.000000 1.790950 
# 
# From -- ./inp_files/97137.got.cif
#   From: 2010.06.25/outbox.cif.g09.slc.cpg/sg15_49_cif.got.tgz:97137.got - 2010.06.28 07:06:18.
