data_PCOD8142657
_publ_section_title
;
Structure prediction by ZEFSAII (Michael W. Deem and Ramdas Pophale) SiO2 
 PCOD8142657
Probable space group: C 2/C
;
_chemical_formula_sum "Si O2"
_cell_formula_units_Z 64
_cell_length_a 24.997305
_cell_length_b 11.283206
_cell_length_c 14.346693
_cell_angle_alpha 90.000000
_cell_angle_beta 132.875770
_cell_angle_gamma 90.000000
_cell_volume 2965.385567
_symmetry_space_group_name_H-M "C 2/C"
_symmetry_group_IT_number 15
_symmetry_cell_setting 'monoclinic'
loop_
_space_group_symop_operation_xyz
x,y,z
-x,y,1/2-z
-x,-y,-z
x,-y,1/2+z
1/2+x,1/2+y,z
1/2-x,1/2+y,1/2-z
1/2-x,1/2-y,-z
1/2+x,1/2-y,1/2+z
loop_
_atom_site_type_symbol
_atom_site_label
_atom_site_fract_x
_atom_site_fract_y
_atom_site_fract_z
Si Si1 0.509636 0.835436 0.871472
Si Si2 0.208369 0.742200 0.275456
Si Si3 0.516832 0.402565 0.662426
Si Si4 0.062514 0.129473 0.613925
Si Si5 0.142347 0.273214 0.321918
Si Si6 0.134107 0.465164 0.775677
Si Si7 0.281336 0.159936 0.408338
Si Si8 0.666864 0.908599 0.025644
O O1 0.500000 0.811922 0.750000
O O2 0.500830 0.711823 0.916527
O O3 0.450169 0.928174 0.841775
O O4 0.590319 0.886679 0.988501
O O5 0.141048 0.819043 0.232088
O O6 0.193216 0.605611 0.284345
O O7 0.213871 0.750274 0.171112
O O8 0.283158 0.791642 0.407203
O O9 0.500000 0.437801 0.750000
O O10 0.562966 0.504801 0.667157
O O11 0.447704 0.381871 0.510992
O O12 0.562647 0.281715 0.717855
O O13 0.144776 0.395675 0.266097
O O14 0.202202 0.177446 0.360982
O O15 0.154504 0.304664 0.444630
O O16 0.152582 0.432281 0.902068
O O17 0.291971 0.024639 0.385308
#
# Coordination Sequence:
#
# PCOD8142657 Si02
#       8
#     8   8   8   8   8   8   8   8
#     4   9  19  38  63  91 123 158 204 265 308 370
#     4  11  22  38  62  88 125 160 206 259 311 371
#     4  11  23  40  64  87 122 168 207 253 320 369
#     4  10  23  40  59  93 124 157 216 258 301 380
#     4  10  22  42  60  87 126 164 202 258 314 378
#     4   9  21  39  62  91 123 160 210 256 312 376
#     4  10  23  38  60  90 124 159 210 254 309 382
#     4  10  21  39  63  90 124 165 205 257 322 369
#
# _framework density 21.582353999999999
#
# number of rings (size 3 to 8) (size 9 to 14) (size 15 to 20)
#    0.000    2.000    0.000    2.250    3.500    3.500 
#    0.000    6.250    0.000    0.000    0.000    0.000 
#    0.000    0.000    0.000    0.000    0.000    0.000 
#
# Total GULP energy -396757.612149 kJ/mol
# GULP energy per Si atom -12398.675380 kJ/mol
# Density = 2.153323 g / cm^3
# Si number density = 21.582354 Si / 1000 Ang^3
#
#
#
# Elastic Constant Matrix: (Units=GPa)
#
#
# Indices 1 2 3 4 5 6 
#
# 1 74.3491 32.5711 35.2045 0.0000 7.0439 0.0000
# 2 32.5711 106.9569 41.5719 0.0000 10.0068 0.0000
# 3 35.2045 41.5719 67.6989 0.0000 14.8118 0.0000
# 4 0.0000 0.0000 0.0000 26.3065 0.0000 2.5766
# 5 7.0439 10.0068 14.8118 0.0000 32.8265 0.0000
# 6 0.0000 0.0000 0.0000 2.5766 0.0000 28.4566
#
#
#
# Elastic Compliance Matrix: (Units=1/GPa)
#
#
# Indices 1 2 3 4 5 6 
#
# 1 0.018332 -0.002471 -0.008121 0.000000 0.000484 0.000000
# 2 -0.002471 0.012618 -0.006366 0.000000 -0.000444 0.000000
# 3 -0.008121 -0.006366 0.024518 0.000000 -0.007380 0.000000
# 4 0.000000 0.000000 0.000000 0.038354 0.000000 -0.003473
# 5 0.000484 -0.000444 -0.007380 0.000000 0.033824 0.000000
# 6 0.000000 0.000000 0.000000 -0.003473 0.000000 0.035456
#
#
# Mechanical properties :
#
#
# Convention : Reuss Voigt Hill
#
# Bulk Modulus (GPa) = 46.40168 51.96665 49.18416
# Shear Modulus (GPa) = 24.48529 26.82841 25.65685
#
# Velocity S-wave (km/s) = 3.37190 3.52955 3.45162
# Velocity P-wave (km/s) = 6.05855 6.38286 6.22282
#
# Compressibility (1/GPa) = 0.02155095
#
# Stress axis : x y z
#
# Youngs Moduli (GPa) = 54.54826 79.25148 40.78555
#
# Poissons Ratio (x) = 0.19586 0.33124
# Poissons Ratio (y) = 0.13481 0.25965
# Poissons Ratio (z) = 0.44301 0.50453
#
# Static dielectric constant tensor:
#      x y z
#    x 3.818300 0.000000 -0.037230 
#    y 0.000000 4.031230 0.000000 
#    z -0.037230 0.000000 3.833080 
# 
# 
# High freq. dielectric constant tensor:
#      x y z
#    x 1.842210 0.000000 -0.006600 
#    y 0.000000 1.849560 0.000000 
#    z -0.006600 0.000000 1.844860 
# 
# From -- ./inp_files/177848.got.cif
#   From: 2010.06.25/outbox.cif.g09.slc.cpg/sg15_89_cif.got.tgz:177848.got - 2010.06.28 07:06:18.
