data_PCOD8142762
_publ_section_title
;
Structure prediction by ZEFSAII (Michael W. Deem and Ramdas Pophale) SiO2 
 PCOD8142762
Probable space group: C 2/C
;
_chemical_formula_sum "Si O2"
_cell_formula_units_Z 64
_cell_length_a 11.157241
_cell_length_b 31.494164
_cell_length_c 17.323026
_cell_angle_alpha 90.000000
_cell_angle_beta 29.984992
_cell_angle_gamma 90.000000
_cell_volume 3042.170600
_symmetry_space_group_name_H-M "C 2/C"
_symmetry_group_IT_number 15
_symmetry_cell_setting 'monoclinic'
loop_
_space_group_symop_operation_xyz
x,y,z
-x,y,1/2-z
-x,-y,-z
x,-y,1/2+z
1/2+x,1/2+y,z
1/2-x,1/2+y,1/2-z
1/2-x,1/2-y,-z
1/2+x,1/2-y,1/2+z
loop_
_atom_site_type_symbol
_atom_site_label
_atom_site_fract_x
_atom_site_fract_y
_atom_site_fract_z
Si Si1 0.048185 0.083759 0.606387
Si Si2 0.082160 0.380430 0.405994
Si Si3 0.120567 0.708271 0.479963
Si Si4 0.420479 0.376238 0.572869
Si Si5 0.042380 0.993569 0.815541
Si Si6 0.923166 0.425833 0.634191
Si Si7 0.662875 0.928480 0.092121
Si Si8 0.064288 0.792125 0.842936
O O1 0.081614 0.117099 0.517859
O O2 0.295488 0.070532 0.508616
O O3 0.858547 0.106637 0.769805
O O4 0.943556 0.037010 0.642034
O O5 0.067968 0.329884 0.408461
O O6 0.892938 0.395428 0.576724
O O7 0.015850 0.404768 0.365305
O O8 0.214600 0.713736 0.339726
O O9 0.332166 0.697107 0.421458
O O10 0.975905 0.749716 0.585754
O O11 0.200731 0.404750 0.723731
O O12 0.670570 0.391542 0.467455
O O13 0.382109 0.328028 0.622728
O O14 0.299289 0.970905 0.684972
O O15 0.000000 0.005100 0.750000
O O16 0.821167 0.964772 0.965382
O O17 0.500000 0.949231 0.250000
#
# Coordination Sequence:
#
# PCOD8142762 Si02
#       8
#     8   8   8   8   8   8   8   8
#     4  12  28  41  64  98 133 183 225 283 334 402
#     4  12  22  42  67  98 135 179 219 279 339 402
#     4  10  22  37  70 103 138 167 218 282 340 406
#     4  11  23  42  66  93 140 181 214 270 345 401
#     4  11  25  44  71  95 129 178 233 297 343 385
#     4  11  25  44  69  93 130 180 235 273 333 414
#     4  11  23  39  67 100 130 176 225 278 338 404
#     4  10  21  39  65 107 136 169 215 279 346 400
#
# _framework density 21.037610999999998
#
# number of rings (size 3 to 8) (size 9 to 14) (size 15 to 20)
#    0.000    1.000    5.000    1.500    3.500    4.000 
#    0.000    0.000    0.000    4.500    0.000    0.000 
#    0.000    0.000    0.000    0.000    0.000    0.000 
#
# Total GULP energy -396743.532462 kJ/mol
# GULP energy per Si atom -12398.235389 kJ/mol
# Density = 2.098973 g / cm^3
# Si number density = 21.037611 Si / 1000 Ang^3
#
#
#
# Elastic Constant Matrix: (Units=GPa)
#
#
# Indices 1 2 3 4 5 6 
#
# 1 63.8100 42.3139 36.1068 0.0000 -0.3047 0.0000
# 2 42.3139 146.8422 53.5446 0.0000 1.4236 0.0000
# 3 36.1068 53.5446 124.5655 0.0001 0.3618 -0.0001
# 4 0.0000 0.0000 0.0001 25.4014 0.0000 11.3221
# 5 -0.3047 1.4236 0.3618 0.0000 40.7869 0.0000
# 6 0.0000 0.0000 -0.0001 11.3221 0.0000 24.8837
#
#
#
# Elastic Compliance Matrix: (Units=1/GPa)
#
#
# Indices 1 2 3 4 5 6 
#
# 1 0.021037 -0.004556 -0.004141 0.000000 0.000353 0.000000
# 2 -0.004556 0.009065 -0.002575 0.000000 -0.000328 0.000000
# 3 -0.004141 -0.002575 0.010335 0.000000 -0.000033 0.000000
# 4 0.000000 0.000000 0.000000 0.049383 0.000000 -0.022469
# 5 0.000353 -0.000328 -0.000033 0.000000 0.024532 0.000000
# 6 0.000000 0.000000 0.000000 -0.022469 0.000000 0.050411
#
#
# Mechanical properties :
#
#
# Convention : Reuss Voigt Hill
#
# Bulk Modulus (GPa) = 55.88333 66.57204 61.22768
# Shear Modulus (GPa) = 25.87047 31.76455 28.81751
#
# Velocity S-wave (km/s) = 3.51055 3.88995 3.70511
# Velocity P-wave (km/s) = 6.56149 7.20337 6.88991
#
# Compressibility (1/GPa) = 0.01789443
#
# Stress axis : x y z
#
# Youngs Moduli (GPa) = 47.53505 110.31508 96.75738
#
# Poissons Ratio (x) = 0.50255 0.40064
# Poissons Ratio (y) = 0.21655 0.24916
# Poissons Ratio (z) = 0.19683 0.28408
#
# Static dielectric constant tensor:
#      x y z
#    x 3.613290 0.000000 0.105520 
#    y 0.000000 3.665560 0.000000 
#    z 0.105520 0.000000 4.071710 
# 
# 
# High freq. dielectric constant tensor:
#      x y z
#    x 1.807240 0.000000 0.009060 
#    y 0.000000 1.818090 0.000000 
#    z 0.009060 0.000000 1.844450 
# 
# From -- ./inp_files/201454.got.cif
#   From: 2010.06.25/outbox.cif.g09.slc.cpg/sg15_101_cif.got.tgz:201454.got - 2010.06.28 07:06:18.
