data_PCOD8142531
_publ_section_title
;
Structure prediction by ZEFSAII (Michael W. Deem and Ramdas Pophale) SiO2 
 PCOD8142531
Probable space group: C 2/C
;
_chemical_formula_sum "Si O2"
_cell_formula_units_Z 48
_cell_length_a 16.518009
_cell_length_b 9.241379
_cell_length_c 29.863514
_cell_angle_alpha 90.000000
_cell_angle_beta 32.890871
_cell_angle_gamma 90.000000
_cell_volume 2475.527425
_symmetry_space_group_name_H-M "C 2/C"
_symmetry_group_IT_number 15
_symmetry_cell_setting 'monoclinic'
loop_
_space_group_symop_operation_xyz
x,y,z
-x,y,1/2-z
-x,-y,-z
x,-y,1/2+z
1/2+x,1/2+y,z
1/2-x,1/2+y,1/2-z
1/2-x,1/2-y,-z
1/2+x,1/2-y,1/2+z
loop_
_atom_site_type_symbol
_atom_site_label
_atom_site_fract_x
_atom_site_fract_y
_atom_site_fract_z
Si Si1 0.659953 0.172319 0.502936
Si Si2 0.627922 0.912287 0.571795
Si Si3 0.657179 0.823532 0.656419
Si Si4 0.102269 0.000927 0.661734
Si Si5 0.968692 0.112214 0.892315
Si Si6 0.555338 0.418271 0.931286
O O1 0.750000 0.250000 0.500000
O O2 0.770728 0.113490 0.412336
O O3 0.546642 0.280699 0.531855
O O4 0.563483 0.052621 0.575722
O O5 0.664950 0.920693 0.607597
O O6 0.789341 0.898476 0.474076
O O7 0.506555 0.785636 0.618128
O O8 0.500000 0.859389 0.750000
O O9 0.681965 0.653118 0.636641
O O10 0.777056 0.869588 0.637632
O O11 0.000000 0.940224 0.750000
O O12 0.984697 0.035848 0.675977
O O13 0.055986 0.034263 0.891096
O O14 0.500000 0.500000 0.000000
#
# Coordination Sequence:
#
# PCOD8142531 Si02
#       6
#     8   8   8   8   8   8
#     4  11  20  36  63  93 118 160 209 255 298 361
#     4   9  17  36  60  85 115 160 201 238 303 361
#     4  10  21  39  61  88 126 164 201 253 313 363
#     4   9  19  38  64  87 123 163 200 250 314 364
#     4   9  17  34  63  85 118 159 196 245 297 367
#     4  12  22  37  62  93 122 154 210 254 299 365
#
# _framework density 19.389806
#
# number of rings (size 3 to 8) (size 9 to 14) (size 15 to 20)
#    0.000    2.000    5.000    1.000    0.000    0.667 
#    0.000    8.333    7.333    0.000    0.000    0.000 
#    0.000    0.000    0.000    0.000    0.000    0.000 
#
# Total GULP energy -297328.433976 kJ/mol
# GULP energy per Si atom -12388.684749 kJ/mol
# Density = 1.934567 g / cm^3
# Si number density = 19.389806 Si / 1000 Ang^3
#
#
#
# Elastic Constant Matrix: (Units=GPa)
#
#
# Indices 1 2 3 4 5 6 
#
# 1 155.1788 77.8727 57.5265 0.0001 5.8945 -0.0080
# 2 77.8727 112.1309 40.8750 0.0012 3.5872 -0.0031
# 3 57.5265 40.8750 89.7315 -0.0013 10.5756 0.0006
# 4 0.0001 0.0012 -0.0013 19.7675 0.0003 9.1890
# 5 5.8945 3.5872 10.5756 0.0003 32.5147 0.0003
# 6 -0.0080 -0.0031 0.0006 9.1890 0.0003 46.3744
#
#
#
# Elastic Compliance Matrix: (Units=1/GPa)
#
#
# Indices 1 2 3 4 5 6 
#
# 1 0.011142 -0.006155 -0.004348 -0.000001 0.000073 0.000002
# 2 -0.006155 0.014100 -0.002522 -0.000001 0.000380 0.000000
# 3 -0.004348 -0.002522 0.015551 0.000002 -0.003992 -0.000001
# 4 -0.000001 -0.000001 0.000002 0.055720 -0.000001 -0.011041
# 5 0.000073 0.000380 -0.003992 -0.000001 0.031998 0.000000
# 6 0.000002 0.000000 -0.000001 -0.011041 0.000000 0.023751
#
#
# Mechanical properties :
#
#
# Convention : Reuss Voigt Hill
#
# Bulk Modulus (GPa) = 67.82740 78.84329 73.33534
# Shear Modulus (GPa) = 27.28853 31.78246 29.53549
#
# Velocity S-wave (km/s) = 3.75556 4.05301 3.90712
# Velocity P-wave (km/s) = 7.33911 7.91537 7.63268
#
# Compressibility (1/GPa) = 0.01474331
#
# Stress axis : x y z
#
# Youngs Moduli (GPa) = 89.74927 70.92217 64.30526
#
# Poissons Ratio (x) = 0.43656 0.27959
# Poissons Ratio (y) = 0.55244 0.16215
# Poissons Ratio (z) = 0.39022 0.17883
#
# Static dielectric constant tensor:
#      x y z
#    x 6.538780 -0.000200 -1.487480 
#    y -0.000200 4.572610 0.000070 
#    z -1.487480 0.000070 4.338350 
# 
# 
# High freq. dielectric constant tensor:
#      x y z
#    x 1.750450 0.000000 0.032330 
#    y 0.000000 1.761180 0.000000 
#    z 0.032330 0.000000 1.730070 
# 
# From -- ./inp_files/315629.got.cif
#   From: 2010.06.25/outbox.cif.g09.slc.cpg/sg15_158_cif.got.tgz:315629.got - 2010.06.28 07:06:18.
