data_PCOD8142264
_publ_section_title
;
Structure prediction by ZEFSAII (Michael W. Deem and Ramdas Pophale) SiO2 
 PCOD8142264
Probable space group: C 2/C
;
_chemical_formula_sum "Si O2"
_cell_formula_units_Z 64
_cell_length_a 28.651887
_cell_length_b 9.411538
_cell_length_c 22.758601
_cell_angle_alpha 90.000000
_cell_angle_beta 149.051061
_cell_angle_gamma 90.000000
_cell_volume 3156.123155
_symmetry_space_group_name_H-M "C 2/C"
_symmetry_group_IT_number 15
_symmetry_cell_setting 'monoclinic'
loop_
_space_group_symop_operation_xyz
x,y,z
-x,y,1/2-z
-x,-y,-z
x,-y,1/2+z
1/2+x,1/2+y,z
1/2-x,1/2+y,1/2-z
1/2-x,1/2-y,-z
1/2+x,1/2-y,1/2+z
loop_
_atom_site_type_symbol
_atom_site_label
_atom_site_fract_x
_atom_site_fract_y
_atom_site_fract_z
Si Si1 0.141068 0.329274 0.556549
Si Si2 0.461586 0.238124 0.934748
Si Si3 0.989983 0.998223 0.172029
Si Si4 0.315903 0.523013 0.913104
Si Si5 0.676880 0.472519 0.713348
Si Si6 0.435264 0.693068 0.845481
Si Si7 0.995056 0.332380 0.311204
Si Si8 0.118038 0.504396 0.723376
O O1 0.198422 0.192192 0.600921
O O2 0.215487 0.442588 0.659498
O O3 0.062731 0.273782 0.516674
O O4 0.086940 0.390330 0.441706
O O5 0.393415 0.357400 0.833733
O O6 0.413975 0.083959 0.872102
O O7 0.476060 0.292751 0.016806
O O8 0.000000 0.946890 0.250000
O O9 0.054229 0.903981 0.200513
O O10 0.015639 0.163409 0.194048
O O11 0.888798 0.972122 0.039441
O O12 0.339727 0.469288 0.874030
O O13 0.222109 0.461601 0.834379
O O14 0.650932 0.626646 0.712088
O O15 0.427076 0.853601 0.816112
O O16 0.907321 0.397719 0.248401
O O17 0.000000 0.384050 0.250000
#
# Coordination Sequence:
#
# PCOD8142264 Si02
#       8
#     8   8   8   8   8   8   8   8
#     4  10  21  38  64  95 124 160 215 260 309 379
#     4  11  21  42  62  91 128 171 205 254 319 383
#     4  10  23  45  68  89 121 170 220 263 312 378
#     4  11  21  39  62  94 130 162 210 259 321 376
#     4  12  22  38  66  95 132 167 205 266 319 383
#     4  12  23  39  62  95 129 168 206 256 329 377
#     4   9  21  46  68  86 121 172 224 260 310 372
#     4  11  24  38  62  95 130 163 208 263 317 382
#
# _framework density 20.278043
#
# number of rings (size 3 to 8) (size 9 to 14) (size 15 to 20)
#    0.000    1.250    3.750    3.750    0.000    1.500 
#    6.750    2.500    0.000    0.000    0.000    0.000 
#    0.000    0.000    0.000    0.000    0.000    0.000 
#
# Total GULP energy -396480.735805 kJ/mol
# GULP energy per Si atom -12390.022994 kJ/mol
# Density = 2.023189 g / cm^3
# Si number density = 20.278043 Si / 1000 Ang^3
#
#
#
# Elastic Constant Matrix: (Units=GPa)
#
#
# Indices 1 2 3 4 5 6 
#
# 1 114.1725 36.1225 63.8236 0.0000 -16.8601 0.0000
# 2 36.1225 76.1216 32.5322 0.0000 -2.0480 0.0000
# 3 63.8236 32.5322 108.2318 0.0000 -14.5925 0.0000
# 4 0.0000 0.0000 0.0000 2.8674 0.0000 -6.8256
# 5 -16.8601 -2.0480 -14.5925 0.0000 36.9008 0.0000
# 6 0.0000 0.0000 0.0000 -6.8256 0.0000 19.4639
#
#
#
# Elastic Compliance Matrix: (Units=1/GPa)
#
#
# Indices 1 2 3 4 5 6 
#
# 1 0.014293 -0.003777 -0.006804 0.000000 0.003630 0.000000
# 2 -0.003777 0.016107 -0.002880 0.000000 -0.001971 0.000000
# 3 -0.006804 -0.002880 0.014447 0.000000 0.002444 0.000000
# 4 0.000000 0.000000 0.000000 2.110345 0.000000 0.740055
# 5 0.003630 -0.001971 0.002444 0.000000 0.029616 0.000000
# 6 0.000000 0.000000 0.000000 0.740055 0.000000 0.310900
#
#
# Mechanical properties :
#
#
# Convention : Reuss Voigt Hill
#
# Bulk Modulus (GPa) = 55.78647 62.60916 59.19782
# Shear Modulus (GPa) = 1.97738 22.91625 12.44681
#
# Velocity S-wave (km/s) = 0.98856 3.36535 2.48020
# Velocity P-wave (km/s) = 5.37341 6.78551 6.12032
#
# Compressibility (1/GPa) = 0.01792549
#
# Stress axis : x y z
#
# Youngs Moduli (GPa) = 69.96311 62.08478 69.21975
#
# Poissons Ratio (x) = 0.23451 0.47096
# Poissons Ratio (y) = 0.26427 0.19933
# Poissons Ratio (z) = 0.47602 0.17879
#
# Static dielectric constant tensor:
#      x y z
#    x 3.645750 0.000000 -0.072360 
#    y 0.000000 3.594590 0.000000 
#    z -0.072360 0.000000 3.792640 
# 
# 
# High freq. dielectric constant tensor:
#      x y z
#    x 1.776750 0.000000 0.006700 
#    y 0.000000 1.788910 0.000000 
#    z 0.006700 0.000000 1.788110 
# 
# From -- ./inp_files/284464.got.cif
#   From: 2010.06.25/outbox.cif.g09.slc.cpg/sg15_143_cif.got.tgz:284464.got - 2010.06.28 07:06:18.
