data_PCOD8142210
_publ_section_title
;
Structure prediction by ZEFSAII (Michael W. Deem and Ramdas Pophale) SiO2 
 PCOD8142210
Probable space group: C 2/C
;
_chemical_formula_sum "Si O2"
_cell_formula_units_Z 40
_cell_length_a 14.243552
_cell_length_b 12.419903
_cell_length_c 17.097580
_cell_angle_alpha 90.000000
_cell_angle_beta 36.152949
_cell_angle_gamma 90.000000
_cell_volume 1784.354156
_symmetry_space_group_name_H-M "C 2/C"
_symmetry_group_IT_number 15
_symmetry_cell_setting 'monoclinic'
loop_
_space_group_symop_operation_xyz
x,y,z
-x,y,1/2-z
-x,-y,-z
x,-y,1/2+z
1/2+x,1/2+y,z
1/2-x,1/2+y,1/2-z
1/2-x,1/2-y,-z
1/2+x,1/2-y,1/2+z
loop_
_atom_site_type_symbol
_atom_site_label
_atom_site_fract_x
_atom_site_fract_y
_atom_site_fract_z
Si Si1 0.845311 0.151473 0.902084
Si Si2 0.975437 0.709264 0.952152
Si Si3 0.360310 0.661788 0.288436
Si Si4 0.013031 0.103415 0.937759
Si Si5 0.791145 0.450161 0.152470
O O1 0.734425 0.078989 0.921345
O O2 0.000000 0.191996 0.750000
O O3 0.893750 0.081992 0.945523
O O4 0.750000 0.250000 0.000000
O O5 0.059365 0.744828 0.816155
O O6 0.029034 0.586023 0.942162
O O7 0.785970 0.712786 0.064171
O O8 0.028813 0.789075 0.985960
O O9 0.500000 0.612505 0.250000
O O10 0.274389 0.571675 0.291570
O O11 0.187181 0.121568 0.782847
O O12 0.000000 0.000000 0.000000
#
# Coordination Sequence:
#
# PCOD8142210 Si02
#       5
#     8   8   8   8   8
#     4  10  21  38  63  95 134 171 217 275 337 387
#     4  12  24  42  70  98 132 178 229 274 341 409
#     4  12  26  46  68  96 138 179 226 282 340 411
#     4  11  21  39  66  97 137 180 217 273 345 402
#     4  11  23  43  69 100 133 178 227 281 339 407
#
# _framework density 22.417074
#
# number of rings (size 3 to 8) (size 9 to 14) (size 15 to 20)
#    0.000    0.800    6.000    3.000    0.000    0.000 
#    0.000    0.000    0.000    0.000    0.000    0.000 
#    0.000    0.000    0.000    0.000    0.000    0.000 
#
# Total GULP energy -247886.822857 kJ/mol
# GULP energy per Si atom -12394.341143 kJ/mol
# Density = 2.236605 g / cm^3
# Si number density = 22.417074 Si / 1000 Ang^3
#
#
#
# Elastic Constant Matrix: (Units=GPa)
#
#
# Indices 1 2 3 4 5 6 
#
# 1 111.0180 24.6561 59.4196 0.0001 -12.2963 0.0000
# 2 24.6561 92.0433 29.8360 0.0002 0.1736 -0.0001
# 3 59.4196 29.8360 107.8089 0.0003 -14.0038 -0.0002
# 4 0.0001 0.0002 0.0003 27.3844 -0.0002 6.9088
# 5 -12.2963 0.1736 -14.0038 -0.0002 35.6427 0.0001
# 6 0.0000 -0.0001 -0.0002 6.9088 0.0001 37.2999
#
#
#
# Elastic Compliance Matrix: (Units=1/GPa)
#
#
# Indices 1 2 3 4 5 6 
#
# 1 0.013033 -0.001371 -0.006554 0.000000 0.001928 0.000000
# 2 -0.001371 0.012149 -0.002820 0.000000 -0.001640 0.000000
# 3 -0.006554 -0.002820 0.014096 0.000000 0.003291 0.000000
# 4 0.000000 0.000000 0.000000 0.038307 0.000000 -0.007095
# 5 0.001928 -0.001640 0.003291 0.000000 0.030022 0.000000
# 6 0.000000 0.000000 0.000000 -0.007095 0.000000 0.028124
#
#
# Mechanical properties :
#
#
# Convention : Reuss Voigt Hill
#
# Bulk Modulus (GPa) = 56.21246 59.85487 58.03367
# Shear Modulus (GPa) = 30.64695 33.19599 31.92147
#
# Velocity S-wave (km/s) = 3.70148 3.85234 3.77766
# Velocity P-wave (km/s) = 6.58772 6.82245 6.70611
#
# Compressibility (1/GPa) = 0.01778965
#
# Stress axis : x y z
#
# Youngs Moduli (GPa) = 76.72771 82.31326 70.94443
#
# Poissons Ratio (x) = 0.11281 0.46494
# Poissons Ratio (y) = 0.10516 0.20005
# Poissons Ratio (z) = 0.50284 0.23210
#
# Static dielectric constant tensor:
#      x y z
#    x -1.314400 -0.000020 0.445720 
#    y -0.000020 3.951920 0.000000 
#    z 0.445720 0.000000 4.260460 
# 
# 
# High freq. dielectric constant tensor:
#      x y z
#    x 1.878090 0.000000 -0.003200 
#    y 0.000000 1.872780 0.000000 
#    z -0.003200 0.000000 1.899910 
# 
# From -- ./inp_files/203785.got.cif
#   From: 2010.06.25/outbox.cif.g09.slc.cpg/sg15_102_cif.got.tgz:203785.got - 2010.06.28 07:06:18.
