data_PCOD8142235
_publ_section_title
;
Structure prediction by ZEFSAII (Michael W. Deem and Ramdas Pophale) SiO2 
 PCOD8142235
Probable space group: C 2/C
;
_chemical_formula_sum "Si O2"
_cell_formula_units_Z 36
_cell_length_a 9.380282
_cell_length_b 28.504706
_cell_length_c 9.144030
_cell_angle_alpha 90.000000
_cell_angle_beta 46.019281
_cell_angle_gamma 90.000000
_cell_volume 1759.321777
_symmetry_space_group_name_H-M "C 2/C"
_symmetry_group_IT_number 15
_symmetry_cell_setting 'monoclinic'
loop_
_space_group_symop_operation_xyz
x,y,z
-x,y,1/2-z
-x,-y,-z
x,-y,1/2+z
1/2+x,1/2+y,z
1/2-x,1/2+y,1/2-z
1/2-x,1/2-y,-z
1/2+x,1/2-y,1/2+z
loop_
_atom_site_type_symbol
_atom_site_label
_atom_site_fract_x
_atom_site_fract_y
_atom_site_fract_z
Si Si1 0.398302 0.436985 0.085503
Si Si2 0.000000 0.005456 0.250000
Si Si3 0.068874 0.641001 0.857176
Si Si4 0.222618 0.803906 0.055066
Si Si5 0.818797 0.387952 0.786543
O O1 0.360812 0.473415 0.244993
O O2 0.247275 0.395067 0.208957
O O3 0.365206 0.462177 0.952514
O O4 0.625372 0.419670 0.936543
O O5 0.143650 0.684770 0.898851
O O6 0.000000 0.660414 0.750000
O O7 0.883935 0.616297 0.070732
O O8 0.000000 0.816778 0.250000
O O9 0.250000 0.750000 0.000000
O O10 0.284277 0.835577 0.873743
O O11 0.000000 0.411184 0.750000
#
# Coordination Sequence:
#
# PCOD8142235 Si02
#       5
#     8   4   8   8   8
#     4  11  21  42  58  89 129 164 209 261 320 352
#     4  10  22  36  64  86 122 170 212 260 304 384
#     4  11  23  40  65  94 125 167 209 257 319 364
#     4  11  21  41  65  93 123 163 209 255 301 381
#     4  10  21  38  64  89 120 171 211 248 319 380
#
# _framework density 20.462430000000001
#
# number of rings (size 3 to 8) (size 9 to 14) (size 15 to 20)
#    0.000    1.333    2.222    6.000    0.000    0.000 
#    0.000   26.667    0.000    0.000    0.000    0.000 
#    0.000    0.000    0.000    0.000    0.000    0.000 
#
# Total GULP energy -223183.480461 kJ/mol
# GULP energy per Si atom -12399.082248 kJ/mol
# Density = 2.041586 g / cm^3
# Si number density = 20.462430 Si / 1000 Ang^3
#
#
#
# Elastic Constant Matrix: (Units=GPa)
#
#
# Indices 1 2 3 4 5 6 
#
# 1 99.8305 52.6184 67.3278 0.0000 15.3454 0.0000
# 2 52.6184 110.1008 37.1179 0.0000 6.9729 0.0000
# 3 67.3278 37.1179 125.7752 0.0000 10.6991 0.0000
# 4 0.0000 0.0000 0.0000 22.1374 0.0000 11.3028
# 5 15.3454 6.9729 10.6991 0.0000 48.6787 0.0000
# 6 0.0000 0.0000 0.0000 11.3028 0.0000 18.4855
#
#
#
# Elastic Compliance Matrix: (Units=1/GPa)
#
#
# Indices 1 2 3 4 5 6 
#
# 1 0.019415 -0.006282 -0.008249 0.000000 -0.003408 0.000000
# 2 -0.006282 0.012150 -0.000248 0.000000 0.000294 0.000000
# 3 -0.008249 -0.000248 0.012448 0.000000 -0.000100 0.000000
# 4 0.000000 0.000000 0.000000 0.065676 0.000000 -0.040157
# 5 -0.003408 0.000294 -0.000100 0.000000 0.021597 0.000000
# 6 0.000000 0.000000 0.000000 -0.040157 0.000000 0.078650
#
#
# Mechanical properties :
#
#
# Convention : Reuss Voigt Hill
#
# Bulk Modulus (GPa) = 69.18003 72.20385 70.69194
# Shear Modulus (GPa) = 20.46558 29.76981 25.11770
#
# Velocity S-wave (km/s) = 3.16595 3.81839 3.50738
# Velocity P-wave (km/s) = 6.87358 7.40289 7.14314
#
# Compressibility (1/GPa) = 0.01445504
#
# Stress axis : x y z
#
# Youngs Moduli (GPa) = 51.50546 82.30655 80.33252
#
# Poissons Ratio (x) = 0.51705 0.66269
# Poissons Ratio (y) = 0.32355 0.01991
# Poissons Ratio (z) = 0.42489 0.02040
#
# Static dielectric constant tensor:
#      x y z
#    x 4.015560 0.000000 0.077600 
#    y 0.000000 3.672480 0.000000 
#    z 0.077600 0.000000 4.092370 
# 
# 
# High freq. dielectric constant tensor:
#      x y z
#    x 1.790760 0.000000 0.007070 
#    y 0.000000 1.790360 0.000000 
#    z 0.007070 0.000000 1.820930 
# 
# From -- ./inp_files/24693.got.cif
#   From: 2010.06.25/outbox.cif.g09.slc.cpg/sg15_13_cif.got.tgz:24693.got - 2010.06.28 07:06:18.
