data_PCOD8142907
_publ_section_title
;
Structure prediction by ZEFSAII (Michael W. Deem and Ramdas Pophale) SiO2 
 PCOD8142907
Probable space group: C 2/C
;
_chemical_formula_sum "Si O2"
_cell_formula_units_Z 48
_cell_length_a 14.764702
_cell_length_b 26.016455
_cell_length_c 9.464515
_cell_angle_alpha 90.000000
_cell_angle_beta 140.140223
_cell_angle_gamma 90.000000
_cell_volume 2330.069260
_symmetry_space_group_name_H-M "C 2/C"
_symmetry_group_IT_number 15
_symmetry_cell_setting 'monoclinic'
loop_
_space_group_symop_operation_xyz
x,y,z
-x,y,1/2-z
-x,-y,-z
x,-y,1/2+z
1/2+x,1/2+y,z
1/2-x,1/2+y,1/2-z
1/2-x,1/2-y,-z
1/2+x,1/2-y,1/2+z
loop_
_atom_site_type_symbol
_atom_site_label
_atom_site_fract_x
_atom_site_fract_y
_atom_site_fract_z
Si Si1 0.263483 0.388760 0.717241
Si Si2 0.505102 0.145072 0.095063
Si Si3 0.097078 0.242238 0.751165
Si Si4 0.105557 0.011349 0.004158
Si Si5 0.025483 0.169955 0.429957
Si Si6 0.245315 0.408915 0.374968
O O1 0.143981 0.366524 0.673460
O O2 0.316612 0.436122 0.871768
O O3 0.381824 0.344959 0.838392
O O4 0.206599 0.405229 0.494543
O O5 0.500000 0.123395 0.250000
O O6 0.505683 0.206995 0.101821
O O7 0.374949 0.118914 0.859261
O O8 0.117871 0.207113 0.638446
O O9 0.000000 0.212673 0.750000
O O10 0.250000 0.250000 0.000000
O O11 0.228901 0.968590 0.131851
O O12 0.000000 0.017482 0.750000
O O13 0.000000 0.000000 0.000000
O O14 0.107474 0.118108 0.486897
O O15 0.000000 0.199393 0.250000
#
# Coordination Sequence:
#
# PCOD8142907 Si02
#       6
#     8   8   8   8   8   8
#     4  11  24  42  66  94 126 170 214 264 319 382
#     4  11  26  42  62  93 131 170 210 260 327 382
#     4  11  23  42  63  92 130 167 213 267 319 380
#     4  12  23  42  69  98 127 165 217 268 319 379
#     4  10  21  39  67  94 122 165 218 261 313 381
#     4  11  23  43  63  95 132 163 209 269 317 386
#
# _framework density 20.600247
#
# number of rings (size 3 to 8) (size 9 to 14) (size 15 to 20)
#    0.000    1.000    3.333    4.000    2.333    4.000 
#    0.000    4.167    0.000    0.000    0.000    0.000 
#    0.000    0.000    0.000    0.000    0.000    0.000 
#
# Total GULP energy -297481.221509 kJ/mol
# GULP energy per Si atom -12395.050896 kJ/mol
# Density = 2.055336 g / cm^3
# Si number density = 20.600247 Si / 1000 Ang^3
#
#
#
# Elastic Constant Matrix: (Units=GPa)
#
#
# Indices 1 2 3 4 5 6 
#
# 1 154.7095 27.5914 48.4732 0.0000 -13.9308 0.0000
# 2 27.5914 79.7616 54.3632 0.0000 -18.5606 0.0000
# 3 48.4732 54.3632 149.6075 0.0000 -18.8479 0.0000
# 4 0.0000 0.0000 0.0000 40.2531 0.0000 -5.5815
# 5 -13.9308 -18.5606 -18.8479 0.0000 38.3046 0.0000
# 6 0.0000 0.0000 0.0000 -5.5815 0.0000 24.0419
#
#
#
# Elastic Compliance Matrix: (Units=1/GPa)
#
#
# Indices 1 2 3 4 5 6 
#
# 1 0.007336 -0.000970 -0.001863 0.000000 0.001281 0.000000
# 2 -0.000970 0.017925 -0.005490 0.000000 0.005632 0.000000
# 3 -0.001863 -0.005490 0.009448 0.000000 0.001311 0.000000
# 4 0.000000 0.000000 0.000000 0.025669 0.000000 0.005959
# 5 0.001281 0.005632 0.001311 0.000000 0.029947 0.000000
# 6 0.000000 0.000000 0.000000 0.005959 0.000000 0.042978
#
#
# Mechanical properties :
#
#
# Convention : Reuss Voigt Hill
#
# Bulk Modulus (GPa) = 55.35994 71.65935 63.50964
# Shear Modulus (GPa) = 32.05790 37.42997 34.74393
#
# Velocity S-wave (km/s) = 3.94914 4.26721 4.11125
# Velocity P-wave (km/s) = 6.90840 7.69025 7.30979
#
# Compressibility (1/GPa) = 0.01806360
#
# Stress axis : x y z
#
# Youngs Moduli (GPa) = 136.31862 55.78819 105.84474
#
# Poissons Ratio (x) = 0.05409 0.19719
# Poissons Ratio (y) = 0.13218 0.58106
# Poissons Ratio (z) = 0.25397 0.30626
#
# Static dielectric constant tensor:
#      x y z
#    x 3.954180 0.000000 -0.276900 
#    y 0.000000 3.676990 0.000000 
#    z -0.276900 0.000000 3.926630 
# 
# 
# High freq. dielectric constant tensor:
#      x y z
#    x 1.827480 0.000000 -0.011880 
#    y 0.000000 1.796140 0.000000 
#    z -0.011880 0.000000 1.814310 
# 
# From -- ./inp_files/43952.got.cif
#   From: 2010.06.25/outbox.cif.g09.slc.cpg/sg15_22_cif.got.tgz:43952.got - 2010.06.28 07:06:18.
