data_PCOD8142632
_publ_section_title
;
Structure prediction by ZEFSAII (Michael W. Deem and Ramdas Pophale) SiO2 
 PCOD8142632
Probable space group: C 2/C
;
_chemical_formula_sum "Si O2"
_cell_formula_units_Z 48
_cell_length_a 13.929826
_cell_length_b 31.575772
_cell_length_c 5.167673
_cell_angle_alpha 90.000000
_cell_angle_beta 84.725589
_cell_angle_gamma 90.000000
_cell_volume 2263.351070
_symmetry_space_group_name_H-M "C 2/C"
_symmetry_group_IT_number 15
_symmetry_cell_setting 'monoclinic'
loop_
_space_group_symop_operation_xyz
x,y,z
-x,y,1/2-z
-x,-y,-z
x,-y,1/2+z
1/2+x,1/2+y,z
1/2-x,1/2+y,1/2-z
1/2-x,1/2-y,-z
1/2+x,1/2-y,1/2+z
loop_
_atom_site_type_symbol
_atom_site_label
_atom_site_fract_x
_atom_site_fract_y
_atom_site_fract_z
Si Si1 0.774874 0.594522 0.691926
Si Si2 0.609512 0.527293 0.721429
Si Si3 0.113317 0.729404 0.214888
Si Si4 0.886824 0.780484 0.788222
Si Si5 0.236901 0.649944 0.301423
Si Si6 0.391397 0.018139 0.557662
O O1 0.682875 0.565128 0.765987
O O2 0.755415 0.616045 0.424487
O O3 0.875139 0.567254 0.638005
O O4 0.789016 0.627826 0.919888
O O5 0.500000 0.545076 0.750000
O O6 0.627617 0.508228 0.433769
O O7 0.148823 0.758655 0.440389
O O8 0.154454 0.682809 0.241865
O O9 0.000000 0.724294 0.250000
O O10 0.148624 0.750916 0.939564
O O11 0.839242 0.826516 0.791965
O O12 0.000000 0.787989 0.750000
O O13 0.500000 0.000000 0.500000
O O14 0.339242 0.990797 0.797099
#
# Coordination Sequence:
#
# PCOD8142632 Si02
#       6
#     8   8   8   8   8   8
#     4  12  24  38  59  91 127 152 197 260 311 354
#     4  10  21  39  63  85 114 160 204 244 298 369
#     4  10  21  41  62  85 118 165 209 246 289 370
#     4  10  21  39  66  87 116 164 210 240 292 377
#     4  12  24  38  59  94 127 156 192 259 319 350
#     4  10  21  41  63  82 109 159 214 240 286 363
#
# _framework density 21.207491000000001
#
# number of rings (size 3 to 8) (size 9 to 14) (size 15 to 20)
#    0.000    1.333    0.000    6.000    0.000    1.333 
#    9.000    0.000    0.000    0.000    0.000    0.000 
#    0.000    0.000    0.000    0.000    0.000    0.000 
#
# Total GULP energy -297506.716082 kJ/mol
# GULP energy per Si atom -12396.113170 kJ/mol
# Density = 2.115922 g / cm^3
# Si number density = 21.207491 Si / 1000 Ang^3
#
#
#
# Elastic Constant Matrix: (Units=GPa)
#
#
# Indices 1 2 3 4 5 6 
#
# 1 89.1802 51.6871 28.8035 0.0000 3.1893 0.0000
# 2 51.6871 116.9172 40.0442 0.0000 1.4312 0.0000
# 3 28.8035 40.0442 153.8284 0.0000 9.2096 0.0000
# 4 0.0000 0.0000 0.0000 37.4656 0.0000 -11.2144
# 5 3.1893 1.4312 9.2096 0.0000 16.5750 0.0000
# 6 0.0000 0.0000 0.0000 -11.2144 0.0000 18.5232
#
#
#
# Elastic Compliance Matrix: (Units=1/GPa)
#
#
# Indices 1 2 3 4 5 6 
#
# 1 0.015330 -0.006377 -0.001103 0.000000 -0.001786 0.000000
# 2 -0.006377 0.012048 -0.002021 0.000000 0.001310 0.000000
# 3 -0.001103 -0.002021 0.007458 0.000000 -0.003757 0.000000
# 4 0.000000 0.000000 0.000000 0.032599 0.000000 0.019736
# 5 -0.001786 0.001310 -0.003757 0.000000 0.062650 0.000000
# 6 0.000000 0.000000 0.000000 0.019736 0.000000 0.065935
#
#
# Mechanical properties :
#
#
# Convention : Reuss Voigt Hill
#
# Bulk Modulus (GPa) = 63.15620 66.77728 64.96674
# Shear Modulus (GPa) = 22.69631 30.47217 26.58424
#
# Velocity S-wave (km/s) = 3.27494 3.79470 3.54436
# Velocity P-wave (km/s) = 6.64418 7.12430 6.88842
#
# Compressibility (1/GPa) = 0.01583376
#
# Stress axis : x y z
#
# Youngs Moduli (GPa) = 65.23339 82.99884 134.07842
#
# Poissons Ratio (x) = 0.52930 0.14794
# Poissons Ratio (y) = 0.41600 0.27093
# Poissons Ratio (z) = 0.07198 0.16772
#
# Static dielectric constant tensor:
#      x y z
#    x 3.771020 0.000000 -1.410020 
#    y 0.000000 3.750470 0.000000 
#    z -1.410020 0.000000 -5.337730 
# 
# 
# High freq. dielectric constant tensor:
#      x y z
#    x 1.838330 0.000000 0.002070 
#    y 0.000000 1.820930 0.000000 
#    z 0.002070 0.000000 1.863870 
# 
# From -- ./inp_files/8250.got.cif
#   From: 2010.06.25/outbox.cif.g09.slc.cpg/sg15_5_cif.got.tgz:8250.got - 2010.06.28 07:06:18.
