data_PCOD8142154
_publ_section_title
;
Structure prediction by ZEFSAII (Michael W. Deem and Ramdas Pophale) SiO2 
 PCOD8142154
Probable space group: C 2/C
;
_chemical_formula_sum "Si O2"
_cell_formula_units_Z 44
_cell_length_a 23.489298
_cell_length_b 13.643433
_cell_length_c 11.704560
_cell_angle_alpha 90.000000
_cell_angle_beta 31.733273
_cell_angle_gamma 90.000000
_cell_volume 1972.904998
_symmetry_space_group_name_H-M "C 2/C"
_symmetry_group_IT_number 15
_symmetry_cell_setting 'monoclinic'
loop_
_space_group_symop_operation_xyz
x,y,z
-x,y,1/2-z
-x,-y,-z
x,-y,1/2+z
1/2+x,1/2+y,z
1/2-x,1/2+y,1/2-z
1/2-x,1/2-y,-z
1/2+x,1/2-y,1/2+z
loop_
_atom_site_type_symbol
_atom_site_label
_atom_site_fract_x
_atom_site_fract_y
_atom_site_fract_z
Si Si1 0.944089 0.829259 0.020884
Si Si2 0.208598 0.319670 0.349076
Si Si3 0.367387 0.051686 0.329744
Si Si4 0.660126 0.626977 0.562822
Si Si5 0.927894 0.645810 0.628946
Si Si6 0.000000 0.018351 0.250000
O O1 0.837558 0.807155 0.127810
O O2 0.914584 0.862134 0.198418
O O3 0.006223 0.917858 0.854203
O O4 0.022845 0.735487 0.883774
O O5 0.171365 0.420289 0.476385
O O6 0.157002 0.231496 0.508299
O O7 0.169315 0.317301 0.286004
O O8 0.281604 0.094340 0.384813
O O9 0.378579 0.934019 0.301181
O O10 0.482714 0.099051 0.106332
O O11 0.607868 0.548158 0.566396
#
# Coordination Sequence:
#
# PCOD8142154 Si02
#       6
#     8   8   8   8   8   4
#     4  11  23  44  61  94 129 163 211 262 307 382
#     4  11  21  41  70  90 123 171 214 251 309 376
#     4  10  21  38  62  96 125 155 218 259 300 364
#     4  11  21  42  65  93 121 173 215 253 296 391
#     4  11  21  39  65  96 128 162 205 263 315 366
#     4  12  26  40  64  92 132 166 202 264 334 352
#
# _framework density 22.302139
#
# number of rings (size 3 to 8) (size 9 to 14) (size 15 to 20)
#    0.000    1.091    3.636    4.364    0.000    0.000 
#    6.545    5.455    0.000    0.000    0.000    0.000 
#    0.000    0.000    0.000    0.000    0.000    0.000 
#
# Total GULP energy -272922.853857 kJ/mol
# GULP energy per Si atom -12405.584266 kJ/mol
# Density = 2.225138 g / cm^3
# Si number density = 22.302139 Si / 1000 Ang^3
#
#
#
# Elastic Constant Matrix: (Units=GPa)
#
#
# Indices 1 2 3 4 5 6 
#
# 1 119.2415 58.2809 23.9617 0.0000 -26.2696 0.0000
# 2 58.2809 130.7515 40.3101 0.0000 -8.0095 0.0000
# 3 23.9617 40.3101 43.4488 0.0000 -3.2186 0.0000
# 4 0.0000 0.0000 0.0000 21.3382 0.0000 -7.0663
# 5 -26.2696 -8.0095 -3.2186 0.0000 19.9656 0.0000
# 6 0.0000 0.0000 0.0000 -7.0663 0.0000 35.8848
#
#
#
# Elastic Compliance Matrix: (Units=1/GPa)
#
#
# Indices 1 2 3 4 5 6 
#
# 1 0.015161 -0.004909 -0.002505 0.000000 0.017575 0.000000
# 2 -0.004909 0.012450 -0.009060 0.000000 -0.002925 0.000000
# 3 -0.002505 -0.009060 0.032680 0.000000 -0.001662 0.000000
# 4 0.000000 0.000000 0.000000 0.050134 0.000000 0.009872
# 5 0.017575 -0.002925 -0.001662 0.000000 0.071768 0.000000
# 6 0.000000 0.000000 0.000000 0.009872 0.000000 0.029811
#
#
# Mechanical properties :
#
#
# Convention : Reuss Voigt Hill
#
# Bulk Modulus (GPa) = 36.57307 59.83857 48.20582
# Shear Modulus (GPa) = 19.67993 26.83034 23.25514
#
# Velocity S-wave (km/s) = 2.97378 3.47225 3.23264
# Velocity P-wave (km/s) = 5.31279 6.55473 5.96616
#
# Compressibility (1/GPa) = 0.02734252
#
# Stress axis : x y z
#
# Youngs Moduli (GPa) = 65.95964 80.31964 30.60008
#
# Poissons Ratio (x) = 0.39428 0.07665
# Poissons Ratio (y) = 0.32379 0.27725
# Poissons Ratio (z) = 0.16522 0.72772
#
# Static dielectric constant tensor:
#      x y z
#    x 3.984510 0.000000 -0.233310 
#    y 0.000000 4.175810 0.000000 
#    z -0.233310 0.000000 3.715920 
# 
# 
# High freq. dielectric constant tensor:
#      x y z
#    x 1.880980 0.000000 -0.018840 
#    y 0.000000 1.885240 0.000000 
#    z -0.018840 0.000000 1.858030 
# 
# From -- ./inp_files/117905.got.cif
#   From: 2010.06.25/outbox.cif.g09.slc.cpg/sg15_59_cif.got.tgz:117905.got - 2010.06.28 07:06:18.
