data_PCOD8142736
_publ_section_title
;
Structure prediction by ZEFSAII (Michael W. Deem and Ramdas Pophale) SiO2 
 PCOD8142736
Probable space group: C 2/C
;
_chemical_formula_sum "Si O2"
_cell_formula_units_Z 64
_cell_length_a 9.389512
_cell_length_b 26.800033
_cell_length_c 25.670107
_cell_angle_alpha 90.000000
_cell_angle_beta 150.385872
_cell_angle_gamma 90.000000
_cell_volume 3192.054687
_symmetry_space_group_name_H-M "C 2/C"
_symmetry_group_IT_number 15
_symmetry_cell_setting 'monoclinic'
loop_
_space_group_symop_operation_xyz
x,y,z
-x,y,1/2-z
-x,-y,-z
x,-y,1/2+z
1/2+x,1/2+y,z
1/2-x,1/2+y,1/2-z
1/2-x,1/2-y,-z
1/2+x,1/2-y,1/2+z
loop_
_atom_site_type_symbol
_atom_site_label
_atom_site_fract_x
_atom_site_fract_y
_atom_site_fract_z
Si Si1 0.237367 0.503492 0.704150
Si Si2 0.728497 0.581963 0.697881
Si Si3 0.277033 0.431379 0.806543
Si Si4 0.887452 0.002440 0.523030
Si Si5 0.909908 0.173286 0.778379
Si Si6 0.163711 0.682740 0.251404
Si Si7 0.629285 0.761042 0.405163
Si Si8 0.757830 0.238761 0.442729
O O1 0.500000 0.517094 0.750000
O O2 0.166054 0.548721 0.720259
O O3 0.307366 0.453881 0.758874
O O4 0.954416 0.492164 0.580841
O O5 0.514358 0.550068 0.593702
O O6 0.571025 0.630316 0.671817
O O7 0.000000 0.599357 0.750000
O O8 0.542356 0.449978 0.926056
O O9 0.264642 0.372669 0.795683
O O10 0.000000 0.452143 0.750000
O O11 0.000000 0.000000 0.500000
O O12 0.580307 0.191600 0.667121
O O13 0.000000 0.153121 0.750000
O O14 0.127399 0.216852 0.865794
O O15 0.452977 0.712693 0.329827
O O16 0.000000 0.705412 0.250000
O O17 0.932361 0.688988 0.130749
O O18 0.750000 0.750000 0.500000
O O19 0.906389 0.771704 0.458597
O O20 0.750000 0.250000 0.500000
#
# Coordination Sequence:
#
# PCOD8142736 Si02
#       8
#     8   8   8   8   8   8   8   8
#     4  11  23  43  64  94 133 165 207 273 327 379
#     4  11  24  41  66  99 126 171 221 261 323 393
#     4  10  21  39  64  93 124 168 217 256 314 389
#     4  11  20  43  69  89 130 173 209 268 327 385
#     4  11  24  43  64  96 137 167 218 275 322 393
#     4  10  21  40  64  93 126 166 220 261 309 392
#     4  11  20  42  68  88 125 177 213 256 331 385
#     4  11  24  42  64  95 129 169 214 272 322 378
#
# _framework density 20.049783000000001
#
# number of rings (size 3 to 8) (size 9 to 14) (size 15 to 20)
#    0.000    1.250    5.000    1.875    1.750    5.500 
#    6.750    0.000    0.000    0.000    0.000    0.000 
#    0.000    0.000    0.000    0.000    0.000    0.000 
#
# Total GULP energy -396731.904159 kJ/mol
# GULP energy per Si atom -12397.872005 kJ/mol
# Density = 2.000415 g / cm^3
# Si number density = 20.049783 Si / 1000 Ang^3
#
#
#
# Elastic Constant Matrix: (Units=GPa)
#
#
# Indices 1 2 3 4 5 6 
#
# 1 124.3875 38.5273 57.6933 0.0061 2.0240 0.0054
# 2 38.5273 105.9227 45.7926 0.0029 -3.4036 -0.0001
# 3 57.6933 45.7926 143.3073 0.0329 5.4066 0.0066
# 4 0.0061 0.0029 0.0329 12.6713 0.0091 -1.8578
# 5 2.0240 -3.4036 5.4066 0.0091 38.9763 0.0032
# 6 0.0054 -0.0001 0.0066 -1.8578 0.0032 30.1863
#
#
#
# Elastic Compliance Matrix: (Units=1/GPa)
#
#
# Indices 1 2 3 4 5 6 
#
# 1 0.010340 -0.002290 -0.003421 0.000005 -0.000262 -0.000001
# 2 -0.002290 0.011544 -0.002824 0.000005 0.001519 0.000001
# 3 -0.003421 -0.002824 0.009309 -0.000021 -0.001360 -0.000003
# 4 0.000005 0.000005 -0.000021 0.079637 -0.000016 0.004901
# 5 -0.000262 0.001519 -0.001360 -0.000016 0.025992 -0.000003
# 6 -0.000001 0.000001 -0.000003 0.004901 -0.000003 0.033429
#
#
# Mechanical properties :
#
#
# Convention : Reuss Voigt Hill
#
# Bulk Modulus (GPa) = 70.81185 73.07154 71.94169
# Shear Modulus (GPa) = 26.03792 31.80707 28.92250
#
# Velocity S-wave (km/s) = 3.60761 3.98729 3.80219
# Velocity P-wave (km/s) = 7.26277 7.59751 7.43202
#
# Compressibility (1/GPa) = 0.01412193
#
# Stress axis : x y z
#
# Youngs Moduli (GPa) = 96.71426 86.62851 107.42467
#
# Poissons Ratio (x) = 0.19841 0.36748
# Poissons Ratio (y) = 0.22152 0.30335
# Poissons Ratio (z) = 0.33084 0.24463
#
# Static dielectric constant tensor:
#      x y z
#    x 3.803210 -0.000010 0.014920 
#    y -0.000010 3.549290 -0.000110 
#    z 0.014920 -0.000110 3.737860 
# 
# 
# High freq. dielectric constant tensor:
#      x y z
#    x 1.783140 0.000000 -0.002780 
#    y 0.000000 1.773480 0.000000 
#    z -0.002780 0.000000 1.792530 
# 
# From -- ./inp_files/266767.got.cif
#   From: 2010.06.25/outbox.cif.g09.slc.cpg/sg15_134_cif.got.tgz:266767.got - 2010.06.28 07:06:18.
