data_PCOD8142313
_publ_section_title
;
Structure prediction by ZEFSAII (Michael W. Deem and Ramdas Pophale) SiO2 
 PCOD8142313
Probable space group: C 2/C
;
_chemical_formula_sum "Si O2"
_cell_formula_units_Z 56
_cell_length_a 19.528643
_cell_length_b 20.987953
_cell_length_c 11.363253
_cell_angle_alpha 90.000000
_cell_angle_beta 34.196712
_cell_angle_gamma 90.000000
_cell_volume 2617.633819
_symmetry_space_group_name_H-M "C 2/C"
_symmetry_group_IT_number 15
_symmetry_cell_setting 'monoclinic'
loop_
_space_group_symop_operation_xyz
x,y,z
-x,y,1/2-z
-x,-y,-z
x,-y,1/2+z
1/2+x,1/2+y,z
1/2-x,1/2+y,1/2-z
1/2-x,1/2-y,-z
1/2+x,1/2-y,1/2+z
loop_
_atom_site_type_symbol
_atom_site_label
_atom_site_fract_x
_atom_site_fract_y
_atom_site_fract_z
Si Si1 0.585958 0.342378 0.942337
Si Si2 0.885823 0.472635 0.492814
Si Si3 0.026013 0.296041 0.577289
Si Si4 0.813652 0.626586 0.268851
Si Si5 0.225866 0.596551 0.765471
Si Si6 0.332881 0.433959 0.862684
Si Si7 0.871277 0.073024 0.788773
O O1 0.713543 0.339545 0.829841
O O2 0.595883 0.376334 0.801090
O O3 0.545757 0.269940 0.980407
O O4 0.486063 0.382544 0.158924
O O5 0.902709 0.417999 0.565690
O O6 0.866319 0.538046 0.589858
O O7 0.777296 0.454774 0.562184
O O8 0.000000 0.481510 0.250000
O O9 0.144991 0.339667 0.389793
O O10 0.000000 0.282004 0.750000
O O11 0.900443 0.322353 0.704510
O O12 0.745769 0.584565 0.462844
O O13 0.293035 0.592364 0.545130
O O14 0.331100 0.591966 0.713764
O O15 0.413255 0.499288 0.750858
#
# Coordination Sequence:
#
# PCOD8142313 Si02
#       7
#     8   8   8   8   8   8   8
#     4  11  27  44  65  93 135 175 217 266 322 396
#     4  10  21  38  66 100 135 170 212 272 333 379
#     4  12  25  41  68  98 129 173 217 266 325 390
#     4  11  23  43  68  97 130 170 217 272 328 378
#     4  11  23  39  69 100 133 167 216 277 317 387
#     4  10  23  43  65  99 131 172 217 269 333 379
#     4  11  22  43  69  98 128 169 222 270 327 376
#
# _framework density 21.393367000000001
#
# number of rings (size 3 to 8) (size 9 to 14) (size 15 to 20)
#    0.000    1.143    2.857    3.000    4.000    3.429 
#    2.571    0.000    6.286    0.000    0.000    0.000 
#    0.000    0.000    0.000    0.000    0.000    0.000 
#
# Total GULP energy -347223.690305 kJ/mol
# GULP energy per Si atom -12400.846082 kJ/mol
# Density = 2.134467 g / cm^3
# Si number density = 21.393367 Si / 1000 Ang^3
#
#
#
# Elastic Constant Matrix: (Units=GPa)
#
#
# Indices 1 2 3 4 5 6 
#
# 1 48.7045 110.8768 108.3382 -0.0003 25.8540 -0.0001
# 2 110.8768 -189.6973 -236.0986 0.0013 -47.3741 -0.0009
# 3 108.3382 -236.0986 -151.5693 0.0012 -32.4157 -0.0009
# 4 -0.0003 0.0013 0.0012 40.3203 0.0002 -4.0794
# 5 25.8540 -47.3741 -32.4157 0.0002 29.5257 0.0000
# 6 -0.0001 -0.0009 -0.0009 -4.0794 0.0000 12.7989
#
#
#
# Elastic Compliance Matrix: (Units=1/GPa)
#
#
# Indices 1 2 3 4 5 6 
#
# 1 0.009350 0.003056 0.002126 0.000000 -0.000950 0.000000
# 2 0.003056 0.006623 -0.007963 0.000000 -0.000792 0.000000
# 3 0.002126 -0.007963 0.008468 0.000000 -0.005341 0.000000
# 4 0.000000 0.000000 0.000000 0.025628 0.000000 0.008168
# 5 -0.000950 -0.000792 -0.005341 0.000000 0.027566 0.000000
# 6 0.000000 0.000000 0.000000 0.008168 0.000000 0.080735
#
#
# Mechanical properties :
#
#
# Convention : Reuss Voigt Hill
#
# Bulk Modulus (GPa) = 52.96784 -36.25882 8.35451
# Shear Modulus (GPa) = 29.37291 -1.84959 13.76166
#
# Velocity S-wave (km/s) = 3.70941 -0.93083 2.53902
# Velocity P-wave (km/s) = 6.56955 4.25919 3.53683
#
# Compressibility (1/GPa) = 0.01887938
#
# Stress axis : x y z
#
# Youngs Moduli (GPa) = 106.95264 150.99299 118.08938
#
# Poissons Ratio (x) = -0.46140 -0.25109
# Poissons Ratio (y) = -0.32682 0.94033
# Poissons Ratio (z) = -0.22741 1.20233
#
# Static dielectric constant tensor:
#      x y z
#    x 3.915200 0.000000 0.106050 
#    y 0.000000 3.912930 0.000000 
#    z 0.106050 0.000000 3.767200 
# 
# 
# High freq. dielectric constant tensor:
#      x y z
#    x 1.846810 0.000000 0.002620 
#    y 0.000000 1.836270 0.000000 
#    z 0.002620 0.000000 1.846750 
# 
# From -- ./inp_files/114691.got.cif
#   From: 2010.06.25/outbox.cif.g09.slc.cpg/sg15_58_cif.got.tgz:114691.got - 2010.06.28 07:06:18.
