data_PCOD8142583
_publ_section_title
;
Structure prediction by ZEFSAII (Michael W. Deem and Ramdas Pophale) SiO2 
 PCOD8142583
Probable space group: C 2/C
;
_chemical_formula_sum "Si O2"
_cell_formula_units_Z 40
_cell_length_a 8.974371
_cell_length_b 25.854881
_cell_length_c 8.283020
_cell_angle_alpha 90.000000
_cell_angle_beta 103.967762
_cell_angle_gamma 90.000000
_cell_volume 1865.091933
_symmetry_space_group_name_H-M "C 2/C"
_symmetry_group_IT_number 15
_symmetry_cell_setting 'monoclinic'
loop_
_space_group_symop_operation_xyz
x,y,z
-x,y,1/2-z
-x,-y,-z
x,-y,1/2+z
1/2+x,1/2+y,z
1/2-x,1/2+y,1/2-z
1/2-x,1/2-y,-z
1/2+x,1/2-y,1/2+z
loop_
_atom_site_type_symbol
_atom_site_label
_atom_site_fract_x
_atom_site_fract_y
_atom_site_fract_z
Si Si1 0.336926 0.167643 0.672192
Si Si2 0.158959 0.364700 0.695993
Si Si3 0.318015 0.757754 0.693538
Si Si4 0.820192 0.443640 0.220651
Si Si5 0.323300 0.463099 0.656940
O O1 0.500000 0.193819 0.750000
O O2 0.353670 0.145470 0.497389
O O3 0.218119 0.212937 0.684810
O O4 0.303705 0.116509 0.773029
O O5 0.250951 0.313896 0.779553
O O6 0.253026 0.417403 0.750338
O O7 0.000000 0.371582 0.750000
O O8 0.500000 0.762614 0.750000
O O9 0.250000 0.750000 0.500000
O O10 0.756324 0.481552 0.339331
O O11 0.000000 0.457051 0.250000
O O12 0.710406 0.451386 0.037543
O O13 0.500000 0.466855 0.750000
#
# Coordination Sequence:
#
# PCOD8142583 Si02
#       5
#     8   8   8   8   8
#     4  10  21  39  62  90 121 158 204 250 297 359
#     4  10  22  40  60  86 121 164 203 243 300 366
#     4  11  24  40  62  91 121 159 199 246 306 361
#     4  10  22  39  60  85 117 161 200 240 299 364
#     4  11  23  38  60  90 120 154 199 255 304 348
#
# _framework density 21.446663999999998
#
# number of rings (size 3 to 8) (size 9 to 14) (size 15 to 20)
#    0.000    1.600    0.000    4.800    0.000    9.600 
#    0.000    0.000    0.000    0.000    0.000    0.000 
#    0.000    0.000    0.000    0.000    0.000    0.000 
#
# Total GULP energy -247763.926561 kJ/mol
# GULP energy per Si atom -12388.196328 kJ/mol
# Density = 2.139785 g / cm^3
# Si number density = 21.446664 Si / 1000 Ang^3
#
#
#
# Elastic Constant Matrix: (Units=GPa)
#
#
# Indices 1 2 3 4 5 6 
#
# 1 80.2393 32.8463 11.5073 0.0000 7.0269 0.0000
# 2 32.8463 137.3859 -0.7267 0.0000 -19.4377 0.0000
# 3 11.5073 -0.7267 53.1001 0.0000 9.6083 0.0000
# 4 0.0000 0.0000 0.0000 27.7071 0.0000 -1.8012
# 5 7.0269 -19.4377 9.6083 0.0000 40.3608 0.0000
# 6 0.0000 0.0000 0.0000 -1.8012 0.0000 15.0283
#
#
#
# Elastic Compliance Matrix: (Units=1/GPa)
#
#
# Indices 1 2 3 4 5 6 
#
# 1 0.014868 -0.004130 -0.002561 0.000000 -0.003968 0.000000
# 2 -0.004130 0.008976 0.000110 0.000000 0.005016 0.000000
# 3 -0.002561 0.000110 0.020167 0.000000 -0.004302 0.000000
# 4 0.000000 0.000000 0.000000 0.036375 0.000000 0.004360
# 5 -0.003968 0.005016 -0.004302 0.000000 0.028907 0.000000
# 6 0.000000 0.000000 0.000000 0.004360 0.000000 0.067064
#
#
# Mechanical properties :
#
#
# Convention : Reuss Voigt Hill
#
# Bulk Modulus (GPa) = 32.41334 39.77546 36.09440
# Shear Modulus (GPa) = 25.02490 31.75913 28.39202
#
# Velocity S-wave (km/s) = 3.41962 3.85235 3.64241
# Velocity P-wave (km/s) = 5.54418 6.19467 5.87843
#
# Compressibility (1/GPa) = 0.03085150
#
# Stress axis : x y z
#
# Youngs Moduli (GPa) = 67.25918 111.40478 49.58547
#
# Poissons Ratio (x) = 0.46005 0.12697
# Poissons Ratio (y) = 0.27775 -0.00546
# Poissons Ratio (z) = 0.17222 -0.01228
#
# Static dielectric constant tensor:
#      x y z
#    x 3.686850 0.000000 -0.014740 
#    y 0.000000 4.862300 0.000000 
#    z -0.014740 0.000000 3.803540 
# 
# 
# High freq. dielectric constant tensor:
#      x y z
#    x 1.825090 0.000000 0.006130 
#    y 0.000000 1.872750 0.000000 
#    z 0.006130 0.000000 1.837650 
# 
# From -- ./inp_files/23503.got.cif
#   From: 2010.06.25/outbox.cif.g09.slc.cpg/sg15_12_cif.got.tgz:23503.got - 2010.06.28 07:06:18.
