data_PCOD8142247
_publ_section_title
;
Structure prediction by ZEFSAII (Michael W. Deem and Ramdas Pophale) SiO2 
 PCOD8142247
Probable space group: C 2/C
;
_chemical_formula_sum "Si O2"
_cell_formula_units_Z 44
_cell_length_a 6.697011
_cell_length_b 14.156825
_cell_length_c 24.994433
_cell_angle_alpha 90.000000
_cell_angle_beta 124.276654
_cell_angle_gamma 90.000000
_cell_volume 1958.134645
_symmetry_space_group_name_H-M "C 2/C"
_symmetry_group_IT_number 15
_symmetry_cell_setting 'monoclinic'
loop_
_space_group_symop_operation_xyz
x,y,z
-x,y,1/2-z
-x,-y,-z
x,-y,1/2+z
1/2+x,1/2+y,z
1/2-x,1/2+y,1/2-z
1/2-x,1/2-y,-z
1/2+x,1/2-y,1/2+z
loop_
_atom_site_type_symbol
_atom_site_label
_atom_site_fract_x
_atom_site_fract_y
_atom_site_fract_z
Si Si1 0.416023 0.234621 0.796090
Si Si2 0.220665 0.524789 0.705085
Si Si3 0.380720 0.534446 0.035429
Si Si4 0.045592 0.231073 0.425210
Si Si5 0.500000 0.878724 0.750000
Si Si6 0.146822 0.414757 0.078839
O O1 0.500000 0.268638 0.750000
O O2 0.312755 0.128749 0.773914
O O3 0.621433 0.241611 0.874597
O O4 0.224835 0.308712 0.791916
O O5 0.500000 0.494802 0.750000
O O6 0.141197 0.523994 0.631669
O O7 0.049676 0.447575 0.707260
O O8 0.535614 0.621828 0.082489
O O9 0.372902 0.448171 0.076597
O O10 0.500000 0.500000 0.000000
O O11 0.108050 0.570027 0.988358
O O12 0.250000 0.250000 0.500000
O O13 0.822016 0.302522 0.404980
#
# Coordination Sequence:
#
# PCOD8142247 Si02
#       6
#     8   8   8   8   4   8
#     4  11  24  46  69 102 136 175 232 281 336 414
#     4  11  24  44  65  95 139 174 224 276 338 401
#     4  10  21  38  64  92 121 165 217 263 330 395
#     4   9  21  43  64  91 132 170 210 275 338 386
#     4  12  26  40  70  98 128 188 218 278 348 392
#     4   9  22  41  59  89 127 163 212 272 321 395
#
# _framework density 22.470364
#
# number of rings (size 3 to 8) (size 9 to 14) (size 15 to 20)
#    0.000    1.818    1.818    0.545    7.636    0.727 
#    3.273    0.000    0.000    0.000    0.000    0.000 
#    0.000    0.000    0.000    0.000    0.000    0.000 
#
# Total GULP energy -272547.726941 kJ/mol
# GULP energy per Si atom -12388.533043 kJ/mol
# Density = 2.241922 g / cm^3
# Si number density = 22.470364 Si / 1000 Ang^3
#
#
#
# Elastic Constant Matrix: (Units=GPa)
#
#
# Indices 1 2 3 4 5 6 
#
# 1 126.1593 76.3277 33.4788 0.0000 -38.4096 0.0000
# 2 76.3277 161.3738 23.3079 0.0000 -21.5965 0.0000
# 3 33.4788 23.3079 97.4084 0.0000 -31.8882 0.0000
# 4 0.0000 0.0000 0.0000 25.7707 0.0000 -7.3747
# 5 -38.4096 -21.5965 -31.8882 0.0000 40.1743 0.0000
# 6 0.0000 0.0000 0.0000 -7.3747 0.0000 39.3083
#
#
#
# Elastic Compliance Matrix: (Units=1/GPa)
#
#
# Indices 1 2 3 4 5 6 
#
# 1 0.014550 -0.005404 -0.000142 0.000000 0.010894 0.000000
# 2 -0.005404 0.008708 -0.000520 0.000000 -0.000898 0.000000
# 3 -0.000142 -0.000520 0.013921 0.000000 0.010634 0.000000
# 4 0.000000 0.000000 0.000000 0.041005 0.000000 0.007693
# 5 0.010894 -0.000898 0.010634 0.000000 0.043264 0.000000
# 6 0.000000 0.000000 0.000000 0.007693 0.000000 0.026883
#
#
# Mechanical properties :
#
#
# Convention : Reuss Voigt Hill
#
# Bulk Modulus (GPa) = 39.92539 72.35226 56.13883
# Shear Modulus (GPa) = 29.61894 37.83914 33.72904
#
# Velocity S-wave (km/s) = 3.63455 4.10806 3.87854
# Velocity P-wave (km/s) = 5.95146 7.40070 6.71529
#
# Compressibility (1/GPa) = 0.02504672
#
# Stress axis : x y z
#
# Youngs Moduli (GPa) = 68.72928 114.84288 71.83626
#
# Poissons Ratio (x) = 0.62056 0.01017
# Poissons Ratio (y) = 0.37138 0.03739
# Poissons Ratio (z) = 0.00973 0.05977
#
# Static dielectric constant tensor:
#      x y z
#    x 3.869460 0.000000 -0.148080 
#    y 0.000000 4.956630 0.000000 
#    z -0.148080 0.000000 4.089600 
# 
# 
# High freq. dielectric constant tensor:
#      x y z
#    x 1.850220 0.000000 -0.025490 
#    y 0.000000 1.909030 0.000000 
#    z -0.025490 0.000000 1.890670 
# 
# From -- ./inp_files/285632.got.cif
#   From: 2010.06.25/outbox.cif.g09.slc.cpg/sg15_143_cif.got.tgz:285632.got - 2010.06.28 07:06:18.
