data_PCOD8142403
_publ_section_title
;
Structure prediction by ZEFSAII (Michael W. Deem and Ramdas Pophale) SiO2 
 PCOD8142403
Probable space group: C 2/C
;
_chemical_formula_sum "Si O2"
_cell_formula_units_Z 48
_cell_length_a 12.769282
_cell_length_b 16.241991
_cell_length_c 10.603541
_cell_angle_alpha 90.000000
_cell_angle_beta 86.818638
_cell_angle_gamma 90.000000
_cell_volume 2195.769979
_symmetry_space_group_name_H-M "C 2/C"
_symmetry_group_IT_number 15
_symmetry_cell_setting 'monoclinic'
loop_
_space_group_symop_operation_xyz
x,y,z
-x,y,1/2-z
-x,-y,-z
x,-y,1/2+z
1/2+x,1/2+y,z
1/2-x,1/2+y,1/2-z
1/2-x,1/2-y,-z
1/2+x,1/2-y,1/2+z
loop_
_atom_site_type_symbol
_atom_site_label
_atom_site_fract_x
_atom_site_fract_y
_atom_site_fract_z
Si Si1 0.000000 0.077095 0.250000
Si Si2 0.793266 0.009589 0.707596
Si Si3 0.000000 0.706054 0.250000
Si Si4 0.998504 0.371767 0.486059
Si Si5 0.109258 0.218590 0.102515
Si Si6 0.326693 0.002291 0.534725
Si Si7 0.804063 0.198928 0.677921
O O1 0.052327 0.135021 0.142576
O O2 0.086430 0.018521 0.306496
O O3 0.745713 0.975006 0.580062
O O4 0.785018 0.107091 0.726100
O O5 0.736740 0.972833 0.836779
O O6 0.987408 0.646577 0.368415
O O7 0.103772 0.761972 0.245461
O O8 0.979941 0.289173 0.406542
O O9 0.895185 0.426912 0.478352
O O10 0.100984 0.419921 0.430515
O O11 0.196786 0.247722 0.198494
O O12 0.165392 0.197327 0.969397
#
# Coordination Sequence:
#
# PCOD8142403 Si02
#       7
#     4   8   4   8   8   8   8
#     4  12  29  40  69 100 146 178 240 282 355 414
#     4  12  26  46  67 101 139 187 225 286 343 426
#     4  10  21  38  71  96 128 172 232 292 337 412
#     4  10  22  42  66 101 131 174 232 290 349 406
#     4  10  23  43  67  97 134 187 224 287 344 419
#     4  11  25  42  71  98 137 180 231 287 347 415
#     4  10  22  42  69  92 138 180 228 272 359 407
#
# _framework density 21.860212000000001
#
# number of rings (size 3 to 8) (size 9 to 14) (size 15 to 20)
#    0.000    1.333    1.667    2.500    9.333    7.333 
#    0.000    1.667    0.000    0.000    0.000    0.000 
#    0.000    0.000    0.000    0.000    0.000    0.000 
#
# Total GULP energy -297675.955894 kJ/mol
# GULP energy per Si atom -12403.164829 kJ/mol
# Density = 2.181046 g / cm^3
# Si number density = 21.860212 Si / 1000 Ang^3
#
#
#
# Elastic Constant Matrix: (Units=GPa)
#
#
# Indices 1 2 3 4 5 6 
#
# 1 139.3194 32.9444 48.0673 0.0000 17.7842 0.0000
# 2 32.9444 65.2005 8.4051 0.0000 3.9248 0.0000
# 3 48.0673 8.4051 76.6214 0.0000 17.1907 0.0000
# 4 0.0000 0.0000 0.0000 23.6723 0.0000 -8.8783
# 5 17.7842 3.9248 17.1907 0.0000 34.2091 0.0000
# 6 0.0000 0.0000 0.0000 -8.8783 0.0000 26.5537
#
#
#
# Elastic Compliance Matrix: (Units=1/GPa)
#
#
# Indices 1 2 3 4 5 6 
#
# 1 0.010415 -0.004417 -0.005577 0.000000 -0.002105 0.000000
# 2 -0.004417 0.017464 0.000890 0.000000 -0.000155 0.000000
# 3 -0.005577 0.000890 0.017835 0.000000 -0.006166 0.000000
# 4 0.000000 0.000000 0.000000 0.048300 0.000000 0.016149
# 5 -0.002105 -0.000155 -0.006166 0.000000 0.033442 0.000000
# 6 0.000000 0.000000 0.000000 0.016149 0.000000 0.043059
#
#
# Mechanical properties :
#
#
# Convention : Reuss Voigt Hill
#
# Bulk Modulus (GPa) = 36.35531 51.10831 43.73181
# Shear Modulus (GPa) = 25.26623 29.66864 27.46743
#
# Velocity S-wave (km/s) = 3.40341 3.68801 3.54856
# Velocity P-wave (km/s) = 5.66667 6.44714 6.06946
#
# Compressibility (1/GPa) = 0.02750630
#
# Stress axis : x y z
#
# Youngs Moduli (GPa) = 96.01520 57.26187 56.06817
#
# Poissons Ratio (x) = 0.25292 0.31268
# Poissons Ratio (y) = 0.42408 -0.04989
# Poissons Ratio (z) = 0.53546 -0.05095
#
# Static dielectric constant tensor:
#      x y z
#    x 4.301100 0.000000 0.125690 
#    y 0.000000 3.975300 0.000000 
#    z 0.125690 0.000000 3.695450 
# 
# 
# High freq. dielectric constant tensor:
#      x y z
#    x 1.872820 0.000000 0.009450 
#    y 0.000000 1.865850 0.000000 
#    z 0.009450 0.000000 1.845570 
# 
# From -- ./inp_files/87421.got.cif
#   From: 2010.06.25/outbox.cif.g09.slc.cpg/sg15_44_cif.got.tgz:87421.got - 2010.06.28 07:06:18.
