data_PCOD8142161
_publ_section_title
;
Structure prediction by ZEFSAII (Michael W. Deem and Ramdas Pophale) SiO2 
 PCOD8142161
Probable space group: C 2/C
;
_chemical_formula_sum "Si O2"
_cell_formula_units_Z 64
_cell_length_a 19.974654
_cell_length_b 18.073357
_cell_length_c 18.217035
_cell_angle_alpha 90.000000
_cell_angle_beta 27.249649
_cell_angle_gamma 90.000000
_cell_volume 3011.178647
_symmetry_space_group_name_H-M "C 2/C"
_symmetry_group_IT_number 15
_symmetry_cell_setting 'monoclinic'
loop_
_space_group_symop_operation_xyz
x,y,z
-x,y,1/2-z
-x,-y,-z
x,-y,1/2+z
1/2+x,1/2+y,z
1/2-x,1/2+y,1/2-z
1/2-x,1/2-y,-z
1/2+x,1/2-y,1/2+z
loop_
_atom_site_type_symbol
_atom_site_label
_atom_site_fract_x
_atom_site_fract_y
_atom_site_fract_z
Si Si1 0.508690 0.321792 0.908129
Si Si2 0.528330 0.848563 0.916340
Si Si3 0.282809 0.671928 0.429852
Si Si4 0.965928 0.342788 0.432759
Si Si5 0.620926 0.942564 0.690964
Si Si6 0.759330 0.093367 0.595159
Si Si7 0.342369 0.319435 0.440746
Si Si8 0.823681 0.778547 0.618714
O O1 0.584900 0.321245 0.754868
O O2 0.429565 0.242253 0.990310
O O3 0.618312 0.329135 0.870027
O O4 0.389483 0.388472 0.026356
O O5 0.533757 0.903580 0.842627
O O6 0.648650 0.783785 0.787249
O O7 0.552444 0.888795 0.972324
O O8 0.371207 0.807478 0.076274
O O9 0.250000 0.750000 0.500000
O O10 0.147099 0.634160 0.519446
O O11 0.322064 0.613044 0.454015
O O12 0.126668 0.351991 0.243554
O O13 0.500000 0.969908 0.750000
O O14 0.736560 0.890575 0.535891
O O15 0.707788 0.008870 0.645601
O O16 0.500000 0.330455 0.250000
O O17 0.250000 0.250000 0.500000
O O18 0.385974 0.311425 0.482834
#
# Coordination Sequence:
#
# PCOD8142161 Si02
#       8
#     8   8   8   8   8   8   8   8
#     4  11  22  38  60  96 131 166 217 265 328 394
#     4  10  22  39  66  92 132 166 214 273 334 397
#     4  12  21  37  61  93 127 168 215 270 325 393
#     4  11  21  38  61  92 124 169 221 263 327 392
#     4  11  25  47  65  95 134 176 224 279 343 403
#     4  12  26  39  62  93 134 177 220 279 329 401
#     4  11  22  42  73 103 129 168 225 282 339 392
#     4  10  21  38  63 100 127 164 216 276 327 392
#
# _framework density 21.254134000000001
#
# number of rings (size 3 to 8) (size 9 to 14) (size 15 to 20)
#    0.000    1.000    3.750    4.125    5.250    1.500 
#    0.000    2.500    0.000    0.000    0.000    0.000 
#    0.000    0.000    0.000    0.000    0.000    0.000 
#
# Total GULP energy -396618.215454 kJ/mol
# GULP energy per Si atom -12394.319233 kJ/mol
# Density = 2.120576 g / cm^3
# Si number density = 21.254134 Si / 1000 Ang^3
#
#
#
# Elastic Constant Matrix: (Units=GPa)
#
#
# Indices 1 2 3 4 5 6 
#
# 1 90.3251 23.1819 17.7903 -0.0048 9.3443 0.0019
# 2 23.1819 87.5194 16.8067 -0.0072 -6.3962 0.0030
# 3 17.7903 16.8067 72.7502 -0.0075 11.9897 0.0039
# 4 -0.0048 -0.0072 -0.0075 21.6341 0.0046 -3.5349
# 5 9.3443 -6.3962 11.9897 0.0046 38.7026 -0.0020
# 6 0.0019 0.0030 0.0039 -3.5349 -0.0020 25.1921
#
#
#
# Elastic Compliance Matrix: (Units=1/GPa)
#
#
# Indices 1 2 3 4 5 6 
#
# 1 0.012563 -0.003192 -0.001842 0.000002 -0.002990 0.000000
# 2 -0.003192 0.013104 -0.002877 0.000002 0.003828 0.000000
# 3 -0.001842 -0.002877 0.015666 0.000005 -0.004884 -0.000002
# 4 0.000002 0.000002 0.000005 0.047308 -0.000007 0.006638
# 5 -0.002990 0.003828 -0.004884 -0.000007 0.028706 0.000002
# 6 0.000000 0.000000 -0.000002 0.006638 0.000002 0.040626
#
#
# Mechanical properties :
#
#
# Convention : Reuss Voigt Hill
#
# Bulk Modulus (GPa) = 39.20180 40.68361 39.94270
# Shear Modulus (GPa) = 27.42759 29.96016 28.69387
#
# Velocity S-wave (km/s) = 3.59619 3.75856 3.67827
# Velocity P-wave (km/s) = 5.97728 6.16593 6.07234
#
# Compressibility (1/GPa) = 0.02550904
#
# Stress axis : x y z
#
# Youngs Moduli (GPa) = 79.60191 76.31292 63.83372
#
# Poissons Ratio (x) = 0.24362 0.11757
# Poissons Ratio (y) = 0.25412 0.18368
# Poissons Ratio (z) = 0.14661 0.21959
#
# Static dielectric constant tensor:
#      x y z
#    x 4.225180 0.000000 0.173790 
#    y 0.000000 3.471880 0.000010 
#    z 0.173790 0.000010 4.085920 
# 
# 
# High freq. dielectric constant tensor:
#      x y z
#    x 1.852400 0.000000 0.009300 
#    y 0.000000 1.781980 0.000000 
#    z 0.009300 0.000000 1.848650 
# 
# From -- ./inp_files/216152.got.cif
#   From: 2010.06.25/outbox.cif.g09.slc.cpg/sg15_109_cif.got.tgz:216152.got - 2010.06.28 07:06:18.
