data_PCOD8142310
_publ_section_title
;
Structure prediction by ZEFSAII (Michael W. Deem and Ramdas Pophale) SiO2 
 PCOD8142310
Probable space group: C 2/C
;
_chemical_formula_sum "Si O2"
_cell_formula_units_Z 48
_cell_length_a 5.643452
_cell_length_b 26.254613
_cell_length_c 13.997877
_cell_angle_alpha 90.000000
_cell_angle_beta 95.679981
_cell_angle_gamma 90.000000
_cell_volume 2063.835525
_symmetry_space_group_name_H-M "C 2/C"
_symmetry_group_IT_number 15
_symmetry_cell_setting 'monoclinic'
loop_
_space_group_symop_operation_xyz
x,y,z
-x,y,1/2-z
-x,-y,-z
x,-y,1/2+z
1/2+x,1/2+y,z
1/2-x,1/2+y,1/2-z
1/2-x,1/2-y,-z
1/2+x,1/2-y,1/2+z
loop_
_atom_site_type_symbol
_atom_site_label
_atom_site_fract_x
_atom_site_fract_y
_atom_site_fract_z
Si Si1 0.112762 0.054133 0.487754
Si Si2 0.436789 0.893617 0.145601
Si Si3 0.877388 0.200719 0.848372
Si Si4 0.718126 0.641611 0.993225
Si Si5 0.254247 0.082286 0.302340
Si Si6 0.100093 0.312243 0.651617
O O1 0.240439 0.070187 0.590602
O O2 0.291974 0.051510 0.403520
O O3 0.921547 0.098189 0.452751
O O4 0.000000 0.000000 0.500000
O O5 0.500000 0.918888 0.250000
O O6 0.348660 0.835997 0.159376
O O7 0.664280 0.890514 0.087550
O O8 0.000000 0.196243 0.750000
O O9 0.050832 0.184462 0.941295
O O10 0.786847 0.257797 0.873621
O O11 0.900723 0.669865 0.069206
O O12 0.500000 0.075084 0.250000
O O13 0.213641 0.141806 0.328950
O O14 0.000000 0.062833 0.250000
O O15 0.000000 0.299070 0.750000
#
# Coordination Sequence:
#
# PCOD8142310 Si02
#       6
#     8   8   8   8   8   8
#     4  11  26  48  72 101 135 185 242 307 366 436
#     4  11  23  43  69  98 140 184 235 301 361 430
#     4  10  21  38  65  99 139 185 239 287 357 437
#     4  11  22  44  67  95 144 182 237 301 363 425
#     4  11  24  48  73 104 150 188 235 304 371 431
#     4  10  21  40  65 101 137 189 235 290 357 437
#
# _framework density 23.257669
#
# number of rings (size 3 to 8) (size 9 to 14) (size 15 to 20)
#    0.000    1.333    3.333    2.500    0.000    2.000 
#    9.000    0.833    0.000    0.000    0.000    0.000 
#    0.000    0.000    0.000    0.000    0.000    0.000 
#
# Total GULP energy -297426.790449 kJ/mol
# GULP energy per Si atom -12392.782935 kJ/mol
# Density = 2.320473 g / cm^3
# Si number density = 23.257669 Si / 1000 Ang^3
#
#
#
# Elastic Constant Matrix: (Units=GPa)
#
#
# Indices 1 2 3 4 5 6 
#
# 1 88.7715 24.1990 41.8274 0.0000 -6.5127 0.0000
# 2 24.1990 120.9710 49.2339 0.0000 -13.3392 0.0000
# 3 41.8274 49.2339 142.3634 0.0000 2.6933 0.0000
# 4 0.0000 0.0000 0.0000 23.6808 0.0000 -5.5289
# 5 -6.5127 -13.3392 2.6933 0.0000 41.1129 0.0000
# 6 0.0000 0.0000 0.0000 -5.5289 0.0000 16.6997
#
#
#
# Elastic Compliance Matrix: (Units=1/GPa)
#
#
# Indices 1 2 3 4 5 6 
#
# 1 0.013394 -0.000974 -0.003637 0.000000 0.002044 0.000000
# 2 -0.000974 0.010173 -0.003296 0.000000 0.003362 0.000000
# 3 -0.003637 -0.003296 0.009275 0.000000 -0.002253 0.000000
# 4 0.000000 0.000000 0.000000 0.045766 0.000000 0.015152
# 5 0.002044 0.003362 -0.002253 0.000000 0.025886 0.000000
# 6 0.000000 0.000000 0.000000 0.015152 0.000000 0.064898
#
#
# Mechanical properties :
#
#
# Convention : Reuss Voigt Hill
#
# Bulk Modulus (GPa) = 58.72206 64.73628 61.72917
# Shear Modulus (GPa) = 26.19421 32.08839 29.14130
#
# Velocity S-wave (km/s) = 3.35962 3.71845 3.54358
# Velocity P-wave (km/s) = 6.35238 6.80666 6.58344
#
# Compressibility (1/GPa) = 0.01702937
#
# Stress axis : x y z
#
# Youngs Moduli (GPa) = 74.66011 98.29604 107.81261
#
# Poissons Ratio (x) = 0.09570 0.39214
# Poissons Ratio (y) = 0.07269 0.35533
# Poissons Ratio (z) = 0.27156 0.32397
#
# Static dielectric constant tensor:
#      x y z
#    x 4.110380 0.000000 0.161920 
#    y 0.000000 4.156050 0.000000 
#    z 0.161920 0.000000 5.088460 
# 
# 
# High freq. dielectric constant tensor:
#      x y z
#    x 1.904100 0.000000 0.001400 
#    y 0.000000 1.908850 0.000000 
#    z 0.001400 0.000000 1.944560 
# 
# From -- ./inp_files/130027.got.cif
#   From: 2010.06.25/outbox.cif.g09.slc.cpg/sg15_66_cif.got.tgz:130027.got - 2010.06.28 07:06:18.
