data_PCOD8142787
_publ_section_title
;
Structure prediction by ZEFSAII (Michael W. Deem and Ramdas Pophale) SiO2 
 PCOD8142787
Probable space group: C 2/C
;
_chemical_formula_sum "Si O2"
_cell_formula_units_Z 60
_cell_length_a 8.004357
_cell_length_b 12.098646
_cell_length_c 29.511187
_cell_angle_alpha 90.000000
_cell_angle_beta 112.002754
_cell_angle_gamma 90.000000
_cell_volume 2649.764784
_symmetry_space_group_name_H-M "C 2/C"
_symmetry_group_IT_number 15
_symmetry_cell_setting 'monoclinic'
loop_
_space_group_symop_operation_xyz
x,y,z
-x,y,1/2-z
-x,-y,-z
x,-y,1/2+z
1/2+x,1/2+y,z
1/2-x,1/2+y,1/2-z
1/2-x,1/2-y,-z
1/2+x,1/2-y,1/2+z
loop_
_atom_site_type_symbol
_atom_site_label
_atom_site_fract_x
_atom_site_fract_y
_atom_site_fract_z
Si Si1 0.700583 0.049873 0.602263
Si Si2 0.362032 0.606271 0.437483
Si Si3 0.768405 0.012184 0.012018
Si Si4 0.920084 0.139482 0.830639
Si Si5 0.190517 0.104376 0.170260
Si Si6 0.000000 0.264595 0.750000
Si Si7 0.907207 0.701325 0.555932
Si Si8 0.700755 0.312096 0.868454
O O1 0.522163 0.115757 0.599522
O O2 0.878394 0.123793 0.629071
O O3 0.660211 0.031791 0.544254
O O4 0.707565 0.932396 0.628244
O O5 0.521663 0.513786 0.451323
O O6 0.231519 0.569575 0.465413
O O7 0.263974 0.609710 0.378891
O O8 0.445819 0.726175 0.456552
O O9 0.719643 0.138459 0.992782
O O10 0.921039 0.185956 0.780326
O O11 0.803792 0.223713 0.848843
O O12 0.820707 0.023068 0.817245
O O13 0.348519 0.156668 0.214771
O O14 0.010059 0.172300 0.164931
O O15 0.787776 0.776059 0.577686
#
# Coordination Sequence:
#
# PCOD8142787 Si02
#       8
#     8   8   8   8   8   4   8   8
#     4  11  24  41  63  99 135 171 223 264 309 389
#     4  10  21  39  65  92 135 172 221 264 317 387
#     4  11  21  37  64  97 132 182 216 260 315 390
#     4  11  24  45  70  93 130 170 209 272 337 379
#     4  10  23  47  65  99 129 163 218 274 317 395
#     4  12  28  44  74  98 124 162 220 276 338 386
#     4  11  22  37  61  93 134 176 217 260 311 373
#     4  10  23  42  68  94 133 172 211 262 327 383
#
# _framework density 22.643519000000001
#
# number of rings (size 3 to 8) (size 9 to 14) (size 15 to 20)
#    0.000    1.333    4.000    3.200    1.867    7.467 
#    0.000    0.000    0.000    0.000    0.000    0.000 
#    0.000    0.000    0.000    0.000    0.000    0.000 
#
# Total GULP energy -371974.802224 kJ/mol
# GULP energy per Si atom -12399.160074 kJ/mol
# Density = 2.259198 g / cm^3
# Si number density = 22.643519 Si / 1000 Ang^3
#
#
#
# Elastic Constant Matrix: (Units=GPa)
#
#
# Indices 1 2 3 4 5 6 
#
# 1 35.7602 25.9256 25.3297 0.0000 1.6946 0.0000
# 2 25.9256 105.2636 42.2234 0.0000 -0.1413 0.0000
# 3 25.3297 42.2234 118.4791 0.0000 11.8504 0.0000
# 4 0.0000 0.0000 0.0000 34.7475 0.0000 3.6616
# 5 1.6946 -0.1413 11.8504 0.0000 34.2226 0.0000
# 6 0.0000 0.0000 0.0000 3.6616 0.0000 32.2591
#
#
#
# Elastic Compliance Matrix: (Units=1/GPa)
#
#
# Indices 1 2 3 4 5 6 
#
# 1 0.036792 -0.006891 -0.005413 0.000000 0.000024 0.000000
# 2 -0.006891 0.012446 -0.003109 0.000000 0.001469 0.000000
# 3 -0.005413 -0.003109 0.011063 0.000000 -0.003576 0.000000
# 4 0.000000 0.000000 0.000000 0.029127 0.000000 -0.003306
# 5 0.000024 0.001469 -0.003576 0.000000 0.030464 0.000000
# 6 0.000000 0.000000 0.000000 -0.003306 0.000000 0.031374
#
#
# Mechanical properties :
#
#
# Convention : Reuss Voigt Hill
#
# Bulk Modulus (GPa) = 33.92508 49.60673 41.76590
# Shear Modulus (GPa) = 26.05282 31.31411 28.68346
#
# Velocity S-wave (km/s) = 3.39568 3.72279 3.56299
# Velocity P-wave (km/s) = 5.51262 6.35879 5.95076
#
# Compressibility (1/GPa) = 0.02947672
#
# Stress axis : x y z
#
# Youngs Moduli (GPa) = 27.17959 80.34540 90.38934
#
# Poissons Ratio (x) = 0.55362 0.48924
# Poissons Ratio (y) = 0.18728 0.28106
# Poissons Ratio (z) = 0.14711 0.24983
#
# Static dielectric constant tensor:
#      x y z
#    x 3.947830 0.000000 -0.012740 
#    y 0.000000 4.363660 0.000000 
#    z -0.012740 0.000000 3.966000 
# 
# 
# High freq. dielectric constant tensor:
#      x y z
#    x 1.878340 0.000000 0.010210 
#    y 0.000000 1.915420 0.000000 
#    z 0.010210 0.000000 1.879530 
# 
# From -- ./inp_files/307530.got.cif
#   From: 2010.06.25/outbox.cif.g09.slc.cpg/sg15_154_cif.got.tgz:307530.got - 2010.06.28 07:06:18.
