data_PCOD8142516
_publ_section_title
;
Structure prediction by ZEFSAII (Michael W. Deem and Ramdas Pophale) SiO2 
 PCOD8142516
Probable space group: C 2/C
;
_chemical_formula_sum "Si O2"
_cell_formula_units_Z 48
_cell_length_a 6.235163
_cell_length_b 28.065849
_cell_length_c 15.561070
_cell_angle_alpha 90.000000
_cell_angle_beta 123.182547
_cell_angle_gamma 90.000000
_cell_volume 2279.056764
_symmetry_space_group_name_H-M "C 2/C"
_symmetry_group_IT_number 15
_symmetry_cell_setting 'monoclinic'
loop_
_space_group_symop_operation_xyz
x,y,z
-x,y,1/2-z
-x,-y,-z
x,-y,1/2+z
1/2+x,1/2+y,z
1/2-x,1/2+y,1/2-z
1/2-x,1/2-y,-z
1/2+x,1/2-y,1/2+z
loop_
_atom_site_type_symbol
_atom_site_label
_atom_site_fract_x
_atom_site_fract_y
_atom_site_fract_z
Si Si1 0.064130 0.931360 0.666534
Si Si2 0.000000 0.495799 0.250000
Si Si3 0.566582 0.885284 0.528697
Si Si4 0.302310 0.301584 0.474300
Si Si5 0.783921 0.419486 0.316530
Si Si6 0.677841 0.843757 0.858555
Si Si7 0.000000 0.661302 0.750000
O O1 0.197429 0.881095 0.679313
O O2 0.000000 0.940560 0.750000
O O3 0.782478 0.926406 0.562878
O O4 0.247325 0.973291 0.671976
O O5 0.966812 0.462177 0.325631
O O6 0.658048 0.836858 0.505496
O O7 0.326929 0.906793 0.425412
O O8 0.489106 0.873386 0.608902
O O9 0.250000 0.250000 0.500000
O O10 0.610732 0.311470 0.545842
O O11 0.187049 0.306718 0.352072
O O12 0.500000 0.439440 0.250000
O O13 0.816484 0.371924 0.266798
O O14 0.500000 0.814156 0.750000
#
# Coordination Sequence:
#
# PCOD8142516 Si02
#       7
#     8   4   8   8   8   8   4
#     4  11  20  39  60  86 123 160 200 255 312 364
#     4  11  22  36  60  90 120 162 206 260 304 367
#     4  10  22  39  63  88 119 166 204 250 315 370
#     4  10  23  39  63  94 125 162 205 257 308 366
#     4  10  21  39  61  86 122 166 207 252 306 367
#     4  11  21  38  64  91 121 163 207 252 311 368
#     4   9  20  42  60  86 130 168 204 250 308 371
#
# _framework density 21.061343999999998
#
# number of rings (size 3 to 8) (size 9 to 14) (size 15 to 20)
#    0.000    1.667    2.500    1.500    0.000    4.000 
#    0.000    9.167    0.000    0.000    0.000    0.000 
#    0.000    0.000    0.000    0.000    0.000    0.000 
#
# Total GULP energy -297349.835834 kJ/mol
# GULP energy per Si atom -12389.576493 kJ/mol
# Density = 2.101341 g / cm^3
# Si number density = 21.061344 Si / 1000 Ang^3
#
#
#
# Elastic Constant Matrix: (Units=GPa)
#
#
# Indices 1 2 3 4 5 6 
#
# 1 106.0698 34.7559 59.6360 0.0000 13.4170 0.0000
# 2 34.7559 101.9800 57.4235 0.0000 11.8526 0.0000
# 3 59.6360 57.4235 172.2861 0.0000 15.4812 0.0000
# 4 0.0000 0.0000 0.0000 16.3200 0.0000 -5.1557
# 5 13.4170 11.8526 15.4812 0.0000 33.4878 0.0000
# 6 0.0000 0.0000 0.0000 -5.1557 0.0000 -15.7721
#
#
#
# Elastic Compliance Matrix: (Units=1/GPa)
#
#
# Indices 1 2 3 4 5 6 
#
# 1 0.012305 -0.001994 -0.003355 0.000000 -0.002674 0.000000
# 2 -0.001994 0.012601 -0.003319 0.000000 -0.002127 0.000000
# 3 -0.003355 -0.003319 0.008185 0.000000 -0.001265 0.000000
# 4 0.000000 0.000000 0.000000 0.055539 0.000000 -0.018155
# 5 -0.002674 -0.002127 -0.001265 0.000000 0.032271 0.000000
# 6 0.000000 0.000000 0.000000 -0.018155 0.000000 -0.057469
#
#
# Mechanical properties :
#
#
# Convention : Reuss Voigt Hill
#
# Bulk Modulus (GPa) = 63.46278 75.99630 69.72954
# Shear Modulus (GPa) = 58.12582 22.04187 40.08385
#
# Velocity S-wave (km/s) = 5.25911 3.23856 4.36730
# Velocity P-wave (km/s) = 8.18996 7.08138 7.65576
#
# Compressibility (1/GPa) = 0.01575727
#
# Stress axis : x y z
#
# Youngs Moduli (GPa) = 81.26504 79.35636 122.17034
#
# Poissons Ratio (x) = 0.15825 0.40983
# Poissons Ratio (y) = 0.16206 0.40544
# Poissons Ratio (z) = 0.27261 0.26336
#
# Static dielectric constant tensor:
#      x y z
#    x 3.987410 0.000000 0.225140 
#    y 0.000000 3.567530 0.000000 
#    z 0.225140 0.000000 4.066190 
# 
# 
# High freq. dielectric constant tensor:
#      x y z
#    x 1.833000 0.000000 0.005330 
#    y 0.000000 1.802240 0.000000 
#    z 0.005330 0.000000 1.833590 
# 
# From -- ./inp_files/130499.got.cif
#   From: 2010.06.25/outbox.cif.g09.slc.cpg/sg15_66_cif.got.tgz:130499.got - 2010.06.28 07:06:18.
