data_PCOD8142446
_publ_section_title
;
Structure prediction by ZEFSAII (Michael W. Deem and Ramdas Pophale) SiO2 
 PCOD8142446
Probable space group: C 2/C
;
_chemical_formula_sum "Si O2"
_cell_formula_units_Z 40
_cell_length_a 27.040567
_cell_length_b 6.415060
_cell_length_c 22.682128
_cell_angle_alpha 90.000000
_cell_angle_beta 148.976573
_cell_angle_gamma 90.000000
_cell_volume 2027.846347
_symmetry_space_group_name_H-M "C 2/C"
_symmetry_group_IT_number 15
_symmetry_cell_setting 'monoclinic'
loop_
_space_group_symop_operation_xyz
x,y,z
-x,y,1/2-z
-x,-y,-z
x,-y,1/2+z
1/2+x,1/2+y,z
1/2-x,1/2+y,1/2-z
1/2-x,1/2-y,-z
1/2+x,1/2-y,1/2+z
loop_
_atom_site_type_symbol
_atom_site_label
_atom_site_fract_x
_atom_site_fract_y
_atom_site_fract_z
Si Si1 0.399025 0.404231 0.880877
Si Si2 0.615407 0.735389 0.010297
Si Si3 0.049327 0.557027 0.656505
Si Si4 0.678106 0.325796 0.300264
Si Si5 0.478505 0.559316 0.296248
O O1 0.345418 0.360756 0.887958
O O2 0.418013 0.191242 0.865671
O O3 0.338716 0.568023 0.780781
O O4 0.500000 0.500000 0.000000
O O5 0.708425 0.817558 0.070061
O O6 0.559918 0.562182 0.915922
O O7 0.545248 0.924754 0.954938
O O8 0.137796 0.407744 0.762261
O O9 0.023605 0.700217 0.686507
O O10 0.626033 0.461379 0.297496
O O11 0.500000 0.541249 0.250000
#
# Coordination Sequence:
#
# PCOD8142446 Si02
#       5
#     8   8   8   8   8
#     4  11  20  37  58  90 125 160 192 241 297 368
#     4  11  23  38  62  91 124 157 198 248 303 357
#     4  10  21  39  59  84 124 160 199 242 305 353
#     4  10  24  38  60  96 121 154 202 245 302 364
#     4  10  23  44  62  83 119 161 210 253 296 349
#
# _framework density 19.725362000000001
#
# number of rings (size 3 to 8) (size 9 to 14) (size 15 to 20)
#    0.000    1.600    6.000    0.600    2.800    7.200 
#    0.000    2.000    0.000    0.000    0.000    0.000 
#    0.000    0.000    0.000    0.000    0.000    0.000 
#
# Total GULP energy -248002.932708 kJ/mol
# GULP energy per Si atom -12400.146635 kJ/mol
# Density = 1.968047 g / cm^3
# Si number density = 19.725362 Si / 1000 Ang^3
#
#
#
# Elastic Constant Matrix: (Units=GPa)
#
#
# Indices 1 2 3 4 5 6 
#
# 1 133.2017 32.5133 34.8790 0.0003 -16.4294 0.0003
# 2 32.5133 112.9608 30.2638 0.0037 -8.3058 0.0007
# 3 34.8790 30.2638 67.0113 0.0015 19.1750 0.0004
# 4 0.0003 0.0037 0.0015 7.9882 -0.0004 1.3132
# 5 -16.4294 -8.3058 19.1750 -0.0004 38.2729 0.0001
# 6 0.0003 0.0007 0.0004 1.3132 0.0001 21.2911
#
#
#
# Elastic Compliance Matrix: (Units=1/GPa)
#
#
# Indices 1 2 3 4 5 6 
#
# 1 0.010676 -0.000365 -0.007799 0.000002 0.008411 0.000000
# 2 -0.000365 0.011061 -0.006359 -0.000004 0.005429 0.000000
# 3 -0.007799 -0.006359 0.027090 -0.000003 -0.018300 0.000000
# 4 0.000002 -0.000004 -0.000003 0.126467 0.000003 -0.007800
# 5 0.008411 0.005429 -0.018300 0.000003 0.040086 0.000000
# 6 0.000000 0.000000 0.000000 -0.007800 0.000000 0.047449
#
#
# Mechanical properties :
#
#
# Convention : Reuss Voigt Hill
#
# Bulk Modulus (GPa) = 50.55144 56.49846 53.52495
# Shear Modulus (GPa) = 16.75224 27.87829 22.31526
#
# Velocity S-wave (km/s) = 2.91739 3.76350 3.36713
# Velocity P-wave (km/s) = 6.08535 6.89855 6.50467
#
# Compressibility (1/GPa) = 0.01978183
#
# Stress axis : x y z
#
# Youngs Moduli (GPa) = 93.66780 90.41160 36.91354
#
# Poissons Ratio (x) = 0.03300 0.28788
# Poissons Ratio (y) = 0.03419 0.23473
# Poissons Ratio (z) = 0.73049 0.57491
#
# Static dielectric constant tensor:
#      x y z
#    x 3.808060 -0.000120 -0.004080 
#    y -0.000120 2.105870 0.000030 
#    z -0.004080 0.000030 3.362750 
# 
# 
# High freq. dielectric constant tensor:
#      x y z
#    x 1.766520 0.000000 0.010190 
#    y 0.000000 1.783600 0.000000 
#    z 0.010190 0.000000 1.749320 
# 
# From -- ./inp_files/170738.got.cif
#   From: 2010.06.25/outbox.cif.g09.slc.cpg/sg15_86_cif.got.tgz:170738.got - 2010.06.28 07:06:18.
