data_PCOD8142369
_publ_section_title
;
Structure prediction by ZEFSAII (Michael W. Deem and Ramdas Pophale) SiO2 
 PCOD8142369
Probable space group: C 2/C
;
_chemical_formula_sum "Si O2"
_cell_formula_units_Z 64
_cell_length_a 29.700000
_cell_length_b 8.942615
_cell_length_c 14.663128
_cell_angle_alpha 90.000000
_cell_angle_beta 130.662003
_cell_angle_gamma 90.000000
_cell_volume 2954.209829
_symmetry_space_group_name_H-M "C 2/C"
_symmetry_group_IT_number 15
_symmetry_cell_setting 'monoclinic'
loop_
_space_group_symop_operation_xyz
x,y,z
-x,y,1/2-z
-x,-y,-z
x,-y,1/2+z
1/2+x,1/2+y,z
1/2-x,1/2+y,1/2-z
1/2-x,1/2-y,-z
1/2+x,1/2-y,1/2+z
loop_
_atom_site_type_symbol
_atom_site_label
_atom_site_fract_x
_atom_site_fract_y
_atom_site_fract_z
Si Si1 0.748512 0.215276 0.848861
Si Si2 0.039916 0.418246 0.892390
Si Si3 0.136075 0.719725 0.404738
Si Si4 0.537187 0.683858 0.635798
Si Si5 0.328888 0.895312 0.093857
Si Si6 0.569501 0.526094 0.496035
Si Si7 0.689300 0.590811 0.118380
Si Si8 0.935465 0.282097 0.133348
O O1 0.692883 0.159642 0.836284
O O2 0.729289 0.304990 0.734295
O O3 0.782940 0.071852 0.857689
O O4 0.788554 0.328621 0.960204
O O5 0.097762 0.322586 0.943630
O O6 0.060549 0.588124 0.940417
O O7 0.000000 0.430970 0.750000
O O8 0.999810 0.340937 0.917857
O O9 0.094732 0.803043 0.276037
O O10 0.169991 0.576544 0.406996
O O11 0.183531 0.836574 0.509092
O O12 0.557926 0.635938 0.564607
O O13 0.490232 0.561568 0.611565
O O14 0.396035 0.837271 0.166853
O O15 0.625669 0.419435 0.586633
O O16 0.591957 0.631886 0.443748
O O17 0.000000 0.235846 0.250000
#
# Coordination Sequence:
#
# PCOD8142369 Si02
#       8
#     8   8   8   8   8   8   8   8
#     4  11  26  45  71  95 134 173 232 281 329 396
#     4   8  16  35  58  88 127 169 205 252 321 390
#     4  10  21  41  69  93 131 176 218 272 339 401
#     4  10  22  39  60  99 138 173 215 265 330 417
#     4  10  23  47  70 100 128 178 226 277 334 398
#     4  11  24  38  61  98 135 175 221 268 333 392
#     4  12  25  44  66  96 130 179 222 286 335 388
#     4  10  21  38  67  97 132 169 214 269 336 397
#
# _framework density 21.663999
#
# number of rings (size 3 to 8) (size 9 to 14) (size 15 to 20)
#    0.000    1.750    2.500    1.500    1.750    6.000 
#    4.500    0.000    0.000    0.000    0.000    0.000 
#    0.000    0.000    0.000    0.000    0.000    0.000 
#
# Total GULP energy -396596.010750 kJ/mol
# GULP energy per Si atom -12393.625336 kJ/mol
# Density = 2.161469 g / cm^3
# Si number density = 21.663999 Si / 1000 Ang^3
#
#
#
# Elastic Constant Matrix: (Units=GPa)
#
#
# Indices 1 2 3 4 5 6 
#
# 1 87.3260 36.6812 27.5414 0.0000 6.8131 0.0000
# 2 36.6812 119.7070 58.1470 0.0000 3.5632 0.0000
# 3 27.5414 58.1470 96.7645 0.0000 10.7124 0.0000
# 4 0.0000 0.0000 0.0000 34.2981 0.0000 1.6482
# 5 6.8131 3.5632 10.7124 0.0000 19.3357 0.0000
# 6 0.0000 0.0000 0.0000 1.6482 0.0000 33.6136
#
#
#
# Elastic Compliance Matrix: (Units=1/GPa)
#
#
# Indices 1 2 3 4 5 6 
#
# 1 0.013585 -0.003340 -0.001489 0.000000 -0.003346 0.000000
# 2 -0.003340 0.012682 -0.006969 0.000000 0.002701 0.000000
# 3 -0.001489 -0.006969 0.015709 0.000000 -0.006894 0.000000
# 4 0.000000 0.000000 0.000000 0.029225 0.000000 -0.001433
# 5 -0.003346 0.002701 -0.006894 0.000000 0.056219 0.000000
# 6 0.000000 0.000000 0.000000 -0.001433 0.000000 0.029820
#
#
# Mechanical properties :
#
#
# Convention : Reuss Voigt Hill
#
# Bulk Modulus (GPa) = 54.40724 60.94853 57.67788
# Shear Modulus (GPa) = 26.74322 29.54468 28.14395
#
# Velocity S-wave (km/s) = 3.51729 3.69693 3.60823
# Velocity P-wave (km/s) = 6.45475 6.81305 6.63632
#
# Compressibility (1/GPa) = 0.01837991
#
# Stress axis : x y z
#
# Youngs Moduli (GPa) = 73.61080 78.85204 63.65640
#
# Poissons Ratio (x) = 0.26335 0.09480
# Poissons Ratio (y) = 0.24584 0.44363
# Poissons Ratio (z) = 0.10962 0.54953
#
# Static dielectric constant tensor:
#      x y z
#    x 3.871740 0.000000 0.209610 
#    y 0.000000 4.280800 0.000000 
#    z 0.209610 0.000000 3.687070 
# 
# 
# High freq. dielectric constant tensor:
#      x y z
#    x 1.842230 0.000000 0.018790 
#    y 0.000000 1.872680 0.000000 
#    z 0.018790 0.000000 1.828650 
# 
# From -- ./inp_files/181159.got.cif
#   From: 2010.06.25/outbox.cif.g09.slc.cpg/sg15_91_cif.got.tgz:181159.got - 2010.06.28 07:06:18.
