data_PCOD8142739
_publ_section_title
;
Structure prediction by ZEFSAII (Michael W. Deem and Ramdas Pophale) SiO2 
 PCOD8142739
Probable space group: C 2/C
;
_chemical_formula_sum "Si O2"
_cell_formula_units_Z 56
_cell_length_a 23.891037
_cell_length_b 23.461366
_cell_length_c 5.251104
_cell_angle_alpha 90.000000
_cell_angle_beta 116.521354
_cell_angle_gamma 90.000000
_cell_volume 2633.597252
_symmetry_space_group_name_H-M "C 2/C"
_symmetry_group_IT_number 15
_symmetry_cell_setting 'monoclinic'
loop_
_space_group_symop_operation_xyz
x,y,z
-x,y,1/2-z
-x,-y,-z
x,-y,1/2+z
1/2+x,1/2+y,z
1/2-x,1/2+y,1/2-z
1/2-x,1/2-y,-z
1/2+x,1/2-y,1/2+z
loop_
_atom_site_type_symbol
_atom_site_label
_atom_site_fract_x
_atom_site_fract_y
_atom_site_fract_z
Si Si1 0.935167 0.348644 0.486347
Si Si2 0.157362 0.145585 0.489163
Si Si3 0.068502 0.522104 0.478284
Si Si4 0.571882 0.536249 0.394635
Si Si5 0.930571 0.242570 0.132615
Si Si6 0.338829 0.208707 0.098130
Si Si7 0.776433 0.817718 0.854671
O O1 0.936870 0.414689 0.416674
O O2 0.929644 0.306521 0.238747
O O3 0.870900 0.342805 0.514318
O O4 0.000000 0.330754 0.750000
O O5 0.119319 0.087696 0.444702
O O6 0.109361 0.195157 0.298477
O O7 0.191902 0.158427 0.823334
O O8 0.207348 0.142984 0.357084
O O9 0.102782 0.484376 0.770681
O O10 0.000000 0.497993 0.250000
O O11 0.500000 0.558086 0.250000
O O12 0.584923 0.508842 0.696639
O O13 0.000000 0.217911 0.250000
O O14 0.896936 0.250283 0.793767
O O15 0.294658 0.250922 0.841657
O O16 0.298647 0.182149 0.250764
#
# Coordination Sequence:
#
# PCOD8142739 Si02
#       7
#     8   8   8   8   8   8   8
#     4  11  21  35  58  85 120 151 189 244 307 357
#     4  11  22  40  61  89 122 161 198 248 297 359
#     4   9  20  35  54  76 105 146 190 225 270 336
#     4  10  21  39  64  94 124 161 207 252 301 362
#     4  11  22  34  57  91 127 152 185 242 314 363
#     4  10  22  37  55  86 120 159 197 243 288 370
#     4  10  23  38  60  84 120 161 205 237 291 355
#
# _framework density 21.263691000000001
#
# number of rings (size 3 to 8) (size 9 to 14) (size 15 to 20)
#    0.000    1.714    2.857    1.286    4.000    2.286 
#    0.000    2.143    0.000    5.143    0.000    0.000 
#    0.000    0.000    0.000    0.000    0.000    0.000 
#
# Total GULP energy -346866.855365 kJ/mol
# GULP energy per Si atom -12388.101977 kJ/mol
# Density = 2.121529 g / cm^3
# Si number density = 21.263691 Si / 1000 Ang^3
#
#
#
# Elastic Constant Matrix: (Units=GPa)
#
#
# Indices 1 2 3 4 5 6 
#
# 1 114.4638 17.7693 15.4773 0.0000 -7.4742 0.0000
# 2 17.7693 74.8677 11.7544 0.0000 -5.6431 0.0000
# 3 15.4773 11.7544 60.5983 0.0000 -16.9861 0.0000
# 4 0.0000 0.0000 0.0000 22.2941 0.0000 -3.6504
# 5 -7.4742 -5.6431 -16.9861 0.0000 37.4105 0.0000
# 6 0.0000 0.0000 0.0000 -3.6504 0.0000 30.3094
#
#
#
# Elastic Compliance Matrix: (Units=1/GPa)
#
#
# Indices 1 2 3 4 5 6 
#
# 1 0.009321 -0.001872 -0.001804 0.000000 0.000761 0.000000
# 2 -0.001872 0.014184 -0.002038 0.000000 0.000840 0.000000
# 3 -0.001804 -0.002038 0.019675 0.000000 0.008266 0.000000
# 4 0.000000 0.000000 0.000000 0.045757 0.000000 0.005511
# 5 0.000761 0.000840 0.008266 0.000000 0.030762 0.000000
# 6 0.000000 0.000000 0.000000 0.005511 0.000000 0.033657
#
#
# Mechanical properties :
#
#
# Convention : Reuss Voigt Hill
#
# Bulk Modulus (GPa) = 31.49334 37.77019 34.63177
# Shear Modulus (GPa) = 28.51149 31.66472 30.08810
#
# Velocity S-wave (km/s) = 3.66574 3.86313 3.76573
# Velocity P-wave (km/s) = 5.72362 6.14001 5.93547
#
# Compressibility (1/GPa) = 0.03175274
#
# Stress axis : x y z
#
# Youngs Moduli (GPa) = 107.28970 70.50007 50.82563
#
# Poissons Ratio (x) = 0.13195 0.09171
# Poissons Ratio (y) = 0.20080 0.10357
# Poissons Ratio (z) = 0.19358 0.14366
#
# Static dielectric constant tensor:
#      x y z
#    x 4.353950 0.000000 0.037540 
#    y 0.000000 3.563650 0.000000 
#    z 0.037540 0.000000 3.874150 
# 
# 
# High freq. dielectric constant tensor:
#      x y z
#    x 1.834570 0.000000 -0.009190 
#    y 0.000000 1.810750 0.000000 
#    z -0.009190 0.000000 1.828810 
# 
# From -- ./inp_files/16179.got.cif
#   From: 2010.06.25/outbox.cif.g09.slc.cpg/sg15_9_cif.got.tgz:16179.got - 2010.06.28 07:06:18.
