data_PCOD8142569
_publ_section_title
;
Structure prediction by ZEFSAII (Michael W. Deem and Ramdas Pophale) SiO2 
 PCOD8142569
Probable space group: C 2/C
;
_chemical_formula_sum "Si O2"
_cell_formula_units_Z 56
_cell_length_a 24.951082
_cell_length_b 18.487934
_cell_length_c 8.865981
_cell_angle_alpha 90.000000
_cell_angle_beta 136.333945
_cell_angle_gamma 90.000000
_cell_volume 2823.834831
_symmetry_space_group_name_H-M "C 2/C"
_symmetry_group_IT_number 15
_symmetry_cell_setting 'monoclinic'
loop_
_space_group_symop_operation_xyz
x,y,z
-x,y,1/2-z
-x,-y,-z
x,-y,1/2+z
1/2+x,1/2+y,z
1/2-x,1/2+y,1/2-z
1/2-x,1/2-y,-z
1/2+x,1/2-y,1/2+z
loop_
_atom_site_type_symbol
_atom_site_label
_atom_site_fract_x
_atom_site_fract_y
_atom_site_fract_z
Si Si1 0.294806 0.920744 0.516887
Si Si2 0.141763 0.838663 0.214796
Si Si3 0.413641 0.196927 0.252889
Si Si4 0.495588 0.422326 0.419116
Si Si5 0.863059 0.839506 0.650727
Si Si6 0.093039 0.302875 0.112562
Si Si7 0.289415 0.924671 0.157377
O O1 0.227251 0.866174 0.432669
O O2 0.376719 0.881241 0.714257
O O3 0.282732 0.938409 0.319308
O O4 0.292726 0.996716 0.594191
O O5 0.131707 0.755514 0.240181
O O6 0.084762 0.887209 0.196922
O O7 0.124771 0.846457 0.003017
O O8 0.503697 0.193356 0.482518
O O9 0.401693 0.217010 0.053267
O O10 0.500000 0.429171 0.250000
O O11 0.500000 0.500000 0.500000
O O12 0.564451 0.372930 0.616766
O O13 0.859733 0.755957 0.694259
O O14 0.785747 0.879861 0.550235
O O15 0.133198 0.379970 0.227317
#
# Coordination Sequence:
#
# PCOD8142569 Si02
#       7
#     8   8   8   8   8   8   8
#     4  10  23  40  59  87 121 158 200 249 298 351
#     4  11  22  38  60  88 120 154 200 247 294 356
#     4  10  21  39  62  88 120 158 199 245 299 352
#     4  12  24  38  58  86 121 158 195 242 298 356
#     4  11  22  38  60  88 120 154 200 247 294 356
#     4  10  21  39  62  88 120 158 199 245 299 352
#     4  10  23  40  59  87 121 158 200 249 298 351
#
# _framework density 19.831188999999998
#
# number of rings (size 3 to 8) (size 9 to 14) (size 15 to 20)
#    0.000    1.429    1.429    3.857    0.000    6.286 
#    0.000    0.000    0.000    0.000    0.000    0.000 
#    0.000    0.000    0.000    0.000    0.000    0.000 
#
# Total GULP energy -347289.604136 kJ/mol
# GULP energy per Si atom -12403.200148 kJ/mol
# Density = 1.978605 g / cm^3
# Si number density = 19.831189 Si / 1000 Ang^3
#
#
#
# Elastic Constant Matrix: (Units=GPa)
#
#
# Indices 1 2 3 4 5 6 
#
# 1 100.4502 76.6561 50.4605 0.0000 7.4980 0.0000
# 2 76.6561 131.2190 44.1925 0.0000 11.1067 0.0000
# 3 50.4605 44.1925 55.2072 0.0000 6.8738 0.0000
# 4 0.0000 0.0000 0.0000 52.5828 0.0000 -0.2972
# 5 7.4980 11.1067 6.8738 0.0000 28.8450 0.0000
# 6 0.0000 0.0000 0.0000 -0.2972 0.0000 34.9567
#
#
#
# Elastic Compliance Matrix: (Units=1/GPa)
#
#
# Indices 1 2 3 4 5 6 
#
# 1 0.024644 -0.009371 -0.015124 0.000000 0.000807 0.000000
# 2 -0.009371 0.014121 -0.002437 0.000000 -0.002421 0.000000
# 3 -0.015124 -0.002437 0.034299 0.000000 -0.003304 0.000000
# 4 0.000000 0.000000 0.000000 0.019019 0.000000 0.000162
# 5 0.000807 -0.002421 -0.003304 0.000000 0.036178 0.000000
# 6 0.000000 0.000000 0.000000 0.000162 0.000000 0.028608
#
#
# Mechanical properties :
#
#
# Convention : Reuss Voigt Hill
#
# Bulk Modulus (GPa) = 52.08281 69.94387 61.01334
# Shear Modulus (GPa) = 23.02750 30.98138 27.00444
#
# Velocity S-wave (km/s) = 3.41130 3.95683 3.69415
# Velocity P-wave (km/s) = 6.46808 7.49810 7.00205
#
# Compressibility (1/GPa) = 0.01920019
#
# Stress axis : x y z
#
# Youngs Moduli (GPa) = 40.57806 70.81676 29.15549
#
# Poissons Ratio (x) = 0.66365 0.44094
# Poissons Ratio (y) = 0.38027 0.07104
# Poissons Ratio (z) = 0.61369 0.17255
#
# Static dielectric constant tensor:
#      x y z
#    x 3.736270 0.000000 0.110420 
#    y 0.000000 3.607350 0.000000 
#    z 0.110420 0.000000 3.664920 
# 
# 
# High freq. dielectric constant tensor:
#      x y z
#    x 1.780930 0.000000 0.006840 
#    y 0.000000 1.782750 0.000000 
#    z 0.006840 0.000000 1.775150 
# 
# From -- ./inp_files/67215.got.cif
#   From: 2010.06.25/outbox.cif.g09.slc.cpg/sg15_34_cif.got.tgz:67215.got - 2010.06.28 07:06:18.
