data_PCOD8142174
_publ_section_title
;
Structure prediction by ZEFSAII (Michael W. Deem and Ramdas Pophale) SiO2 
 PCOD8142174
Probable space group: C 2/C
;
_chemical_formula_sum "Si O2"
_cell_formula_units_Z 64
_cell_length_a 18.589820
_cell_length_b 11.841492
_cell_length_c 30.726676
_cell_angle_alpha 90.000000
_cell_angle_beta 152.785422
_cell_angle_gamma 90.000000
_cell_volume 3093.295320
_symmetry_space_group_name_H-M "C 2/C"
_symmetry_group_IT_number 15
_symmetry_cell_setting 'monoclinic'
loop_
_space_group_symop_operation_xyz
x,y,z
-x,y,1/2-z
-x,-y,-z
x,-y,1/2+z
1/2+x,1/2+y,z
1/2-x,1/2+y,1/2-z
1/2-x,1/2-y,-z
1/2+x,1/2-y,1/2+z
loop_
_atom_site_type_symbol
_atom_site_label
_atom_site_fract_x
_atom_site_fract_y
_atom_site_fract_z
Si Si1 0.545272 0.858366 0.819765
Si Si2 0.118485 0.196352 0.209699
Si Si3 0.863741 0.479020 0.486288
Si Si4 0.288237 0.379521 0.516018
Si Si5 0.716122 0.002957 0.153678
Si Si6 0.471634 0.108594 0.686672
Si Si7 0.366436 0.696132 0.785915
Si Si8 0.348727 0.272073 0.010505
O O1 0.500000 0.801133 0.750000
O O2 0.471644 0.786736 0.818204
O O3 0.736963 0.858013 0.923578
O O4 0.462688 0.981322 0.778727
O O5 0.208776 0.240990 0.215980
O O6 0.977634 0.112660 0.118644
O O7 0.062115 0.310142 0.202780
O O8 0.232697 0.126861 0.302924
O O9 0.782734 0.543838 0.483086
O O10 0.767362 0.501270 0.389832
O O11 0.872673 0.345450 0.498196
O O12 0.040171 0.525638 0.574950
O O13 0.250000 0.250000 0.500000
O O14 0.209857 0.409445 0.427187
O O15 0.831130 0.910953 0.237048
O O16 0.500000 0.159901 0.750000
O O17 0.482918 0.666122 0.889407
O O18 0.250000 0.250000 0.000000
#
# Coordination Sequence:
#
# PCOD8142174 Si02
#       8
#     8   8   8   8   8   8   8   8
#     4  10  22  41  65  90 122 171 222 271 326 394
#     4  11  25  40  65  97 130 177 218 274 346 395
#     4  11  23  44  63  97 137 172 224 280 334 395
#     4  10  22  39  65  88 127 176 216 265 329 398
#     4  11  25  39  67  97 134 174 217 287 339 389
#     4  10  23  43  64  91 130 172 224 273 324 397
#     4  11  23  41  63  94 131 168 221 273 336 403
#     4  10  21  38  63  89 124 170 215 265 325 391
#
# _framework density 20.689909
#
# number of rings (size 3 to 8) (size 9 to 14) (size 15 to 20)
#    0.000    1.500    1.250    3.750   10.500    0.000 
#    0.000    0.000    0.000    3.000    0.000    0.000 
#    0.000    0.000    0.000    0.000    0.000    0.000 
#
# Total GULP energy -396500.825336 kJ/mol
# GULP energy per Si atom -12390.650792 kJ/mol
# Density = 2.064282 g / cm^3
# Si number density = 20.689909 Si / 1000 Ang^3
#
#
#
# Elastic Constant Matrix: (Units=GPa)
#
#
# Indices 1 2 3 4 5 6 
#
# 1 75.1521 17.9548 60.5646 0.0001 -5.4181 0.0001
# 2 17.9548 90.5335 32.4109 0.0002 -3.8443 0.0001
# 3 60.5646 32.4109 148.1064 0.0011 -12.6790 -0.0003
# 4 0.0001 0.0002 0.0011 34.3922 0.0001 -0.2518
# 5 -5.4181 -3.8443 -12.6790 0.0001 36.3902 0.0000
# 6 0.0001 0.0001 -0.0003 -0.2518 0.0000 26.4794
#
#
#
# Elastic Compliance Matrix: (Units=1/GPa)
#
#
# Indices 1 2 3 4 5 6 
#
# 1 0.019952 -0.001123 -0.007905 0.000000 0.000098 0.000000
# 2 -0.001123 0.012052 -0.002148 0.000000 0.000358 0.000000
# 3 -0.007905 -0.002148 0.010652 0.000000 0.002308 0.000000
# 4 0.000000 0.000000 0.000000 0.029078 0.000000 0.000277
# 5 0.000098 0.000358 0.002308 0.000000 0.028336 0.000000
# 6 0.000000 0.000000 0.000000 0.000277 0.000000 0.037768
#
#
# Mechanical properties :
#
#
# Convention : Reuss Voigt Hill
#
# Bulk Modulus (GPa) = 49.24742 59.51696 54.38219
# Shear Modulus (GPa) = 29.94759 32.97647 31.46203
#
# Velocity S-wave (km/s) = 3.80866 3.99663 3.90378
# Velocity P-wave (km/s) = 6.57233 7.07997 6.83087
#
# Compressibility (1/GPa) = 0.02030563
#
# Stress axis : x y z
#
# Youngs Moduli (GPa) = 50.11988 82.97117 93.87959
#
# Poissons Ratio (x) = 0.09317 0.74211
# Poissons Ratio (y) = 0.05628 0.20162
# Poissons Ratio (z) = 0.39619 0.17820
#
# Static dielectric constant tensor:
#      x y z
#    x 3.284710 0.000000 0.032060 
#    y 0.000000 3.755050 0.000000 
#    z 0.032060 0.000000 4.632660 
# 
# 
# High freq. dielectric constant tensor:
#      x y z
#    x 1.783330 0.000000 -0.009140 
#    y 0.000000 1.814020 0.000000 
#    z -0.009140 0.000000 1.833000 
# 
# From -- ./inp_files/316227.got.cif
#   From: 2010.06.25/outbox.cif.g09.slc.cpg/sg15_159_cif.got.tgz:316227.got - 2010.06.28 07:06:18.
