data_PCOD8142937
_publ_section_title
;
Structure prediction by ZEFSAII (Michael W. Deem and Ramdas Pophale) SiO2 
 PCOD8142937
Probable space group: C 2/C
;
_chemical_formula_sum "Si O2"
_cell_formula_units_Z 40
_cell_length_a 9.394198
_cell_length_b 22.140459
_cell_length_c 9.729450
_cell_angle_alpha 90.000000
_cell_angle_beta 132.636132
_cell_angle_gamma 90.000000
_cell_volume 1488.736095
_symmetry_space_group_name_H-M "C 2/C"
_symmetry_group_IT_number 15
_symmetry_cell_setting 'monoclinic'
loop_
_space_group_symop_operation_xyz
x,y,z
-x,y,1/2-z
-x,-y,-z
x,-y,1/2+z
1/2+x,1/2+y,z
1/2-x,1/2+y,1/2-z
1/2-x,1/2-y,-z
1/2+x,1/2-y,1/2+z
loop_
_atom_site_type_symbol
_atom_site_label
_atom_site_fract_x
_atom_site_fract_y
_atom_site_fract_z
Si Si1 0.849956 0.698870 0.977256
Si Si2 0.223716 0.426556 0.126568
Si Si3 0.294207 0.060753 0.429820
Si Si4 0.509103 0.608590 0.463220
Si Si5 0.163642 0.231285 0.588213
O O1 0.789414 0.631343 0.987925
O O2 0.815774 0.700260 0.789148
O O3 0.079585 0.712152 0.124019
O O4 0.750000 0.750000 0.000000
O O5 0.236323 0.489652 0.055539
O O6 0.419526 0.419377 0.344967
O O7 0.022160 0.424802 0.080649
O O8 0.187354 0.098363 0.475489
O O9 0.190620 0.077052 0.215550
O O10 0.490107 0.681819 0.453037
O O11 0.250000 0.250000 0.500000
#
# Coordination Sequence:
#
# PCOD8142937 Si02
#       5
#     8   8   8   8   8
#     4  11  25  45  65  99 143 178 222 283 359 418
#     4  10  22  43  63  93 135 178 223 286 345 423
#     4  10  21  39  68  95 126 174 234 282 352 400
#     4  10  22  40  64  96 131 170 232 291 341 412
#     4  11  24  42  71 100 133 182 233 287 343 414
#
# _framework density 26.868427000000001
#
# number of rings (size 3 to 8) (size 9 to 14) (size 15 to 20)
#    0.000    1.600    0.000    3.600    8.400    3.200 
#   18.000    2.000    0.000    0.000    0.000    0.000 
#    0.000    0.000    0.000    0.000    0.000    0.000 
#
# Total GULP energy -247816.414448 kJ/mol
# GULP energy per Si atom -12390.820722 kJ/mol
# Density = 2.680727 g / cm^3
# Si number density = 26.868427 Si / 1000 Ang^3
#
#
#
# Elastic Constant Matrix: (Units=GPa)
#
#
# Indices 1 2 3 4 5 6 
#
# 1 28.8605 -5.9346 -7.1912 0.0000 1.3129 0.0000
# 2 -5.9346 165.5533 23.5105 0.0000 -4.8553 0.0000
# 3 -7.1912 23.5105 84.4303 0.0000 6.1583 0.0000
# 4 0.0000 0.0000 0.0000 33.6168 0.0000 4.3960
# 5 1.3129 -4.8553 6.1583 0.0000 37.4924 0.0000
# 6 0.0000 0.0000 0.0000 4.3960 0.0000 34.7262
#
#
#
# Elastic Compliance Matrix: (Units=1/GPa)
#
#
# Indices 1 2 3 4 5 6 
#
# 1 0.035620 0.000814 0.002926 0.000000 -0.001622 0.000000
# 2 0.000814 0.006354 -0.001779 0.000000 0.001087 0.000000
# 3 0.002926 -0.001779 0.012766 0.000000 -0.002430 0.000000
# 4 0.000000 0.000000 0.000000 0.030248 0.000000 -0.003829
# 5 -0.001622 0.001087 -0.002430 0.000000 0.027269 0.000000
# 6 0.000000 0.000000 0.000000 -0.003829 0.000000 0.029281
#
#
# Mechanical properties :
#
#
# Convention : Reuss Voigt Hill
#
# Bulk Modulus (GPa) = 17.04745 33.29039 25.16892
# Shear Modulus (GPa) = 31.81255 39.06436 35.43846
#
# Velocity S-wave (km/s) = 3.44468 3.81716 3.63569
# Velocity P-wave (km/s) = 4.70953 5.64311 5.19732
#
# Compressibility (1/GPa) = 0.05865981
#
# Stress axis : x y z
#
# Youngs Moduli (GPa) = 28.07443 157.37935 78.33333
#
# Poissons Ratio (x) = -0.12808 -0.22917
# Poissons Ratio (y) = -0.02285 0.13938
# Poissons Ratio (z) = -0.08213 0.28003
#
# Static dielectric constant tensor:
#      x y z
#    x 4.545660 0.000000 0.155260 
#    y 0.000000 5.447460 0.000000 
#    z 0.155260 0.000000 5.128990 
# 
# 
# High freq. dielectric constant tensor:
#      x y z
#    x 2.066240 0.000000 0.013060 
#    y 0.000000 2.100300 0.000000 
#    z 0.013060 0.000000 2.075740 
# 
# From -- ./inp_files/89857.got.cif
#   From: 2010.06.25/outbox.cif.g09.slc.cpg/sg15_45_cif.got.tgz:89857.got - 2010.06.28 07:06:18.
