data_PCOD8142556
_publ_section_title
;
Structure prediction by ZEFSAII (Michael W. Deem and Ramdas Pophale) SiO2 
 PCOD8142556
Probable space group: C 2/C
;
_chemical_formula_sum "Si O2"
_cell_formula_units_Z 48
_cell_length_a 7.943418
_cell_length_b 26.865038
_cell_length_c 11.345804
_cell_angle_alpha 90.000000
_cell_angle_beta 94.344398
_cell_angle_gamma 90.000000
_cell_volume 2414.240399
_symmetry_space_group_name_H-M "C 2/C"
_symmetry_group_IT_number 15
_symmetry_cell_setting 'monoclinic'
loop_
_space_group_symop_operation_xyz
x,y,z
-x,y,1/2-z
-x,-y,-z
x,-y,1/2+z
1/2+x,1/2+y,z
1/2-x,1/2+y,1/2-z
1/2-x,1/2-y,-z
1/2+x,1/2-y,1/2+z
loop_
_atom_site_type_symbol
_atom_site_label
_atom_site_fract_x
_atom_site_fract_y
_atom_site_fract_z
Si Si1 0.000000 0.138232 0.750000
Si Si2 0.097719 0.404725 0.937344
Si Si3 0.160557 0.160617 0.186933
Si Si4 0.000000 0.516249 0.250000
Si Si5 0.023230 0.206456 0.531333
Si Si6 0.140285 0.688456 0.083130
Si Si7 0.330091 0.921802 0.293363
O O1 0.038056 0.172527 0.864324
O O2 0.836949 0.104075 0.766225
O O3 0.252403 0.387527 0.863994
O O4 0.009873 0.451077 0.868572
O O5 0.962666 0.361181 0.947329
O O6 0.170871 0.420975 0.065712
O O7 0.287967 0.189295 0.280256
O O8 0.000000 0.140114 0.250000
O O9 0.105381 0.199551 0.083680
O O10 0.835495 0.479926 0.252572
O O11 0.016349 0.264409 0.565432
O O12 0.212574 0.190907 0.505939
O O13 0.500000 0.894909 0.250000
#
# Coordination Sequence:
#
# PCOD8142556 Si02
#       7
#     4   8   8   4   8   8   8
#     4  12  22  43  64  92 136 173 212 264 328 386
#     4  12  20  43  68  90 125 170 207 270 328 381
#     4  10  21  39  61  95 129 163 218 258 312 383
#     4  10  24  43  66  96 124 163 220 276 324 390
#     4  10  23  39  61  95 131 167 210 262 313 392
#     4  10  22  39  65  93 127 169 211 260 321 385
#     4  10  25  43  64  95 128 168 219 271 325 391
#
# _framework density 19.88203
#
# number of rings (size 3 to 8) (size 9 to 14) (size 15 to 20)
#    0.500    1.000    3.333    1.500    2.333    2.000 
#    1.500    4.167    0.000    0.000    0.000    0.000 
#    0.000    0.000    0.000    0.000    0.000    0.000 
#
# Total GULP energy -297624.175841 kJ/mol
# GULP energy per Si atom -12401.007327 kJ/mol
# Density = 1.983678 g / cm^3
# Si number density = 19.882030 Si / 1000 Ang^3
#
#
#
# Elastic Constant Matrix: (Units=GPa)
#
#
# Indices 1 2 3 4 5 6 
#
# 1 74.6101 30.1323 5.9738 0.0000 -4.9190 0.0000
# 2 30.1323 117.8994 22.9309 0.0000 -2.6034 0.0000
# 3 5.9738 22.9309 86.4758 0.0000 -5.1247 0.0000
# 4 0.0000 0.0000 0.0000 33.2620 0.0000 -3.2230
# 5 -4.9190 -2.6034 -5.1247 0.0000 28.1315 0.0000
# 6 0.0000 0.0000 0.0000 -3.2230 0.0000 29.3080
#
#
#
# Elastic Compliance Matrix: (Units=1/GPa)
#
#
# Indices 1 2 3 4 5 6 
#
# 1 0.015092 -0.003827 0.000109 0.000000 0.002305 0.000000
# 2 -0.003827 0.009918 -0.002377 0.000000 -0.000184 0.000000
# 3 0.000109 -0.002377 0.012308 0.000000 0.002041 0.000000
# 4 0.000000 0.000000 0.000000 0.030388 0.000000 0.003342
# 5 0.002305 -0.000184 0.002041 0.000000 0.036305 0.000000
# 6 0.000000 0.000000 0.000000 0.003342 0.000000 0.034488
#
#
# Mechanical properties :
#
#
# Convention : Reuss Voigt Hill
#
# Bulk Modulus (GPa) = 39.79682 44.11769 41.95725
# Shear Modulus (GPa) = 31.43374 32.80354 32.11864
#
# Velocity S-wave (km/s) = 3.98051 4.06631 4.02364
# Velocity P-wave (km/s) = 6.41762 6.65466 6.53721
#
# Compressibility (1/GPa) = 0.02512764
#
# Stress axis : x y z
#
# Youngs Moduli (GPa) = 66.26023 100.82504 81.25091
#
# Poissons Ratio (x) = 0.38590 -0.00885
# Poissons Ratio (y) = 0.25361 0.19310
# Poissons Ratio (z) = -0.00722 0.23961
#
# Static dielectric constant tensor:
#      x y z
#    x 3.586170 0.000000 -0.085220 
#    y 0.000000 3.475630 0.000000 
#    z -0.085220 0.000000 3.707260 
# 
# 
# High freq. dielectric constant tensor:
#      x y z
#    x 1.770700 0.000000 -0.005790 
#    y 0.000000 1.764640 0.000000 
#    z -0.005790 0.000000 1.790900 
# 
# From -- ./inp_files/80267.got.cif
#   From: 2010.06.25/outbox.cif.g09.slc.cpg/sg15_41_cif.got.tgz:80267.got - 2010.06.28 07:06:18.
