data_PCOD8142377
_publ_section_title
;
Structure prediction by ZEFSAII (Michael W. Deem and Ramdas Pophale) SiO2 
 PCOD8142377
Probable space group: C 2/C
;
_chemical_formula_sum "Si O2"
_cell_formula_units_Z 64
_cell_length_a 15.853898
_cell_length_b 11.606067
_cell_length_c 27.120885
_cell_angle_alpha 90.000000
_cell_angle_beta 37.254158
_cell_angle_gamma 90.000000
_cell_volume 3020.875275
_symmetry_space_group_name_H-M "C 2/C"
_symmetry_group_IT_number 15
_symmetry_cell_setting 'monoclinic'
loop_
_space_group_symop_operation_xyz
x,y,z
-x,y,1/2-z
-x,-y,-z
x,-y,1/2+z
1/2+x,1/2+y,z
1/2-x,1/2+y,1/2-z
1/2-x,1/2-y,-z
1/2+x,1/2-y,1/2+z
loop_
_atom_site_type_symbol
_atom_site_label
_atom_site_fract_x
_atom_site_fract_y
_atom_site_fract_z
Si Si1 0.604666 0.391651 0.157076
Si Si2 0.650643 0.003069 0.904511
Si Si3 0.064069 0.098125 0.565497
Si Si4 0.609025 0.807630 0.854372
Si Si5 0.057338 0.505537 0.303558
Si Si6 0.349668 0.809918 0.181222
Si Si7 0.807145 0.628952 0.390686
Si Si8 0.356353 0.581709 0.126870
O O1 0.500000 0.419465 0.250000
O O2 0.741132 0.469501 0.102306
O O3 0.538602 0.427575 0.135316
O O4 0.631582 0.255779 0.142026
O O5 0.677862 0.101198 0.850512
O O6 0.681600 0.876772 0.865933
O O7 0.500000 0.000000 0.000000
O O8 0.230374 0.099866 0.478026
O O9 0.009626 0.221845 0.571686
O O10 0.984012 0.004770 0.569875
O O11 0.527445 0.903192 0.860739
O O12 0.709991 0.727213 0.774760
O O13 0.046562 0.373700 0.328202
O O14 0.215437 0.525675 0.213548
O O15 0.933143 0.535909 0.322724
O O16 0.412902 0.692991 0.130239
O O17 0.680819 0.615867 0.411096
#
# Coordination Sequence:
#
# PCOD8142377 Si02
#       8
#     8   8   8   8   8   8   8   8
#     4  12  25  42  68 101 130 168 225 276 326 396
#     4  11  24  41  70 104 136 172 230 285 334 394
#     4  12  25  42  65  99 134 170 216 280 338 391
#     4  10  21  39  67  95 130 177 220 270 338 402
#     4  10  21  38  68  93 126 168 226 270 324 392
#     4  10  21  40  68  93 130 179 222 264 334 407
#     4  12  24  40  65 100 130 167 221 281 329 386
#     4  11  23  42  66  91 133 177 216 262 336 405
#
# _framework density 21.185914
#
# number of rings (size 3 to 8) (size 9 to 14) (size 15 to 20)
#    0.000    1.000    3.750    3.375    7.000    0.000 
#    0.000    1.875    0.000    0.000    0.000    0.000 
#    0.000    0.000    0.000    0.000    0.000    0.000 
#
# Total GULP energy -396582.294789 kJ/mol
# GULP energy per Si atom -12393.196712 kJ/mol
# Density = 2.113769 g / cm^3
# Si number density = 21.185914 Si / 1000 Ang^3
#
#
#
# Elastic Constant Matrix: (Units=GPa)
#
#
# Indices 1 2 3 4 5 6 
#
# 1 56.9949 15.8473 21.4700 0.0000 -9.0824 0.0000
# 2 15.8473 81.1214 41.8977 0.0000 -9.8138 0.0000
# 3 21.4700 41.8977 89.1485 0.0000 -6.4849 0.0000
# 4 0.0000 0.0000 0.0000 25.2038 0.0000 2.8001
# 5 -9.0824 -9.8138 -6.4849 0.0000 30.8596 0.0000
# 6 0.0000 0.0000 0.0000 2.8001 0.0000 44.5832
#
#
#
# Elastic Compliance Matrix: (Units=1/GPa)
#
#
# Indices 1 2 3 4 5 6 
#
# 1 0.020127 -0.001371 -0.003863 0.000000 0.004676 0.000000
# 2 -0.001371 0.016781 -0.007309 0.000000 0.003397 0.000000
# 3 -0.003863 -0.007309 0.015569 0.000000 -0.000190 0.000000
# 4 0.000000 0.000000 0.000000 0.039955 0.000000 -0.002509
# 5 0.004676 0.003397 -0.000190 0.000000 0.034821 0.000000
# 6 0.000000 0.000000 0.000000 -0.002509 0.000000 0.022588
#
#
# Mechanical properties :
#
#
# Convention : Reuss Voigt Hill
#
# Bulk Modulus (GPa) = 36.50907 42.85500 39.68204
# Shear Modulus (GPa) = 27.16531 29.99930 28.58231
#
# Velocity S-wave (km/s) = 3.58472 3.76706 3.67702
# Velocity P-wave (km/s) = 5.86547 6.26043 6.06616
#
# Compressibility (1/GPa) = 0.02739045
#
# Stress axis : x y z
#
# Youngs Moduli (GPa) = 49.68486 59.59040 64.23026
#
# Poissons Ratio (x) = 0.08171 0.24810
# Poissons Ratio (y) = 0.06813 0.46949
# Poissons Ratio (z) = 0.19192 0.43557
#
# Static dielectric constant tensor:
#      x y z
#    x 3.958520 0.000000 0.122160 
#    y 0.000000 3.935960 0.000000 
#    z 0.122160 0.000000 3.831410 
# 
# 
# High freq. dielectric constant tensor:
#      x y z
#    x 1.819040 0.000000 0.010470 
#    y 0.000000 1.823970 0.000000 
#    z 0.010470 0.000000 1.836240 
# 
# From -- ./inp_files/296117.got.cif
#   From: 2010.06.25/outbox.cif.g09.slc.cpg/sg15_149_cif.got.tgz:296117.got - 2010.06.28 07:06:18.
