data_PCOD8142616
_publ_section_title
;
Structure prediction by ZEFSAII (Michael W. Deem and Ramdas Pophale) SiO2 
 PCOD8142616
Probable space group: C 2/C
;
_chemical_formula_sum "Si O2"
_cell_formula_units_Z 48
_cell_length_a 15.187630
_cell_length_b 11.754116
_cell_length_c 19.241466
_cell_angle_alpha 90.000000
_cell_angle_beta 43.170609
_cell_angle_gamma 90.000000
_cell_volume 2350.087966
_symmetry_space_group_name_H-M "C 2/C"
_symmetry_group_IT_number 15
_symmetry_cell_setting 'monoclinic'
loop_
_space_group_symop_operation_xyz
x,y,z
-x,y,1/2-z
-x,-y,-z
x,-y,1/2+z
1/2+x,1/2+y,z
1/2-x,1/2+y,1/2-z
1/2-x,1/2-y,-z
1/2+x,1/2-y,1/2+z
loop_
_atom_site_type_symbol
_atom_site_label
_atom_site_fract_x
_atom_site_fract_y
_atom_site_fract_z
Si Si1 0.942327 0.786090 0.353903
Si Si2 0.161904 0.665542 0.593436
Si Si3 0.390021 0.368548 0.127538
Si Si4 0.920472 0.879504 0.591243
Si Si5 0.384510 0.202174 0.727440
Si Si6 0.245365 0.591289 0.059426
O O1 0.889567 0.658783 0.369255
O O2 0.830455 0.870100 0.444721
O O3 0.000000 0.837923 0.250000
O O4 0.056064 0.782080 0.345537
O O5 0.250000 0.750000 0.500000
O O6 0.135656 0.732870 0.680243
O O7 0.226415 0.543627 0.567709
O O8 0.023305 0.643087 0.635985
O O9 0.449270 0.494381 0.103825
O O10 0.236049 0.378652 0.222207
O O11 0.445900 0.329524 0.019243
O O12 0.874396 0.811777 0.684805
O O13 0.810813 0.876175 0.594960
#
# Coordination Sequence:
#
# PCOD8142616 Si02
#       6
#     8   8   8   8   8   8
#     4  10  22  37  68  97 125 162 218 261 312 380
#     4  11  25  42  63  93 135 165 216 263 328 385
#     4  10  21  39  62  95 124 167 206 264 319 371
#     4  10  21  40  67  86 132 166 211 257 320 386
#     4  11  23  38  64  97 117 173 212 261 317 385
#     4  10  22  43  66  93 128 173 205 268 318 371
#
# _framework density 20.424766999999999
#
# number of rings (size 3 to 8) (size 9 to 14) (size 15 to 20)
#    0.000    1.667    1.667    2.000    7.000    2.667 
#    0.000    0.000    0.000   13.000    0.000    0.000 
#    0.000    0.000    0.000    0.000    0.000    0.000 
#
# Total GULP energy -297435.525860 kJ/mol
# GULP energy per Si atom -12393.146911 kJ/mol
# Density = 2.037828 g / cm^3
# Si number density = 20.424767 Si / 1000 Ang^3
#
#
#
# Elastic Constant Matrix: (Units=GPa)
#
#
# Indices 1 2 3 4 5 6 
#
# 1 90.1552 45.1377 55.1592 0.0000 -5.3359 0.0000
# 2 45.1377 90.4807 52.4413 0.0000 14.5882 0.0000
# 3 55.1592 52.4413 139.4333 0.0000 0.6374 0.0000
# 4 0.0000 0.0000 0.0000 28.1452 0.0000 -1.2227
# 5 -5.3359 14.5882 0.6374 0.0000 42.1644 0.0000
# 6 0.0000 0.0000 0.0000 -1.2227 0.0000 33.4229
#
#
#
# Elastic Compliance Matrix: (Units=1/GPa)
#
#
# Indices 1 2 3 4 5 6 
#
# 1 0.017514 -0.006991 -0.004321 0.000000 0.004700 0.000000
# 2 -0.006991 0.017971 -0.003961 0.000000 -0.007042 0.000000
# 3 -0.004321 -0.003961 0.010368 0.000000 0.000667 0.000000
# 4 0.000000 0.000000 0.000000 0.035587 0.000000 0.001302
# 5 0.004700 -0.007042 0.000667 0.000000 0.026738 0.000000
# 6 0.000000 0.000000 0.000000 0.001302 0.000000 0.029967
#
#
# Mechanical properties :
#
#
# Convention : Reuss Voigt Hill
#
# Bulk Modulus (GPa) = 65.32794 69.50508 67.41651
# Shear Modulus (GPa) = 28.77014 31.90188 30.33601
#
# Velocity S-wave (km/s) = 3.75719 3.95640 3.85808
# Velocity P-wave (km/s) = 7.13275 7.41448 7.27498
#
# Compressibility (1/GPa) = 0.01530739
#
# Stress axis : x y z
#
# Youngs Moduli (GPa) = 57.09856 55.64599 96.45176
#
# Poissons Ratio (x) = 0.38900 0.41673
# Poissons Ratio (y) = 0.39915 0.38207
# Poissons Ratio (z) = 0.24670 0.22043
#
# Static dielectric constant tensor:
#      x y z
#    x 3.926960 0.000000 -0.170460 
#    y 0.000000 3.403970 0.000000 
#    z -0.170460 0.000000 4.045720 
# 
# 
# High freq. dielectric constant tensor:
#      x y z
#    x 1.807540 0.000000 -0.011340 
#    y 0.000000 1.764220 0.000000 
#    z -0.011340 0.000000 1.816650 
# 
# From -- ./inp_files/243928.got.cif
#   From: 2010.06.25/outbox.cif.g09.slc.cpg/sg15_122_cif.got.tgz:243928.got - 2010.06.28 07:06:18.
