data_PCOD8142752
_publ_section_title
;
Structure prediction by ZEFSAII (Michael W. Deem and Ramdas Pophale) SiO2 
 PCOD8142752
Probable space group: C 2/C
;
_chemical_formula_sum "Si O2"
_cell_formula_units_Z 48
_cell_length_a 12.886513
_cell_length_b 26.381470
_cell_length_c 7.753316
_cell_angle_alpha 90.000000
_cell_angle_beta 120.724208
_cell_angle_gamma 90.000000
_cell_volume 2265.879093
_symmetry_space_group_name_H-M "C 2/C"
_symmetry_group_IT_number 15
_symmetry_cell_setting 'monoclinic'
loop_
_space_group_symop_operation_xyz
x,y,z
-x,y,1/2-z
-x,-y,-z
x,-y,1/2+z
1/2+x,1/2+y,z
1/2-x,1/2+y,1/2-z
1/2-x,1/2-y,-z
1/2+x,1/2-y,1/2+z
loop_
_atom_site_type_symbol
_atom_site_label
_atom_site_fract_x
_atom_site_fract_y
_atom_site_fract_z
Si Si1 0.461388 0.836136 0.035070
Si Si2 0.195756 0.935626 0.088733
Si Si3 0.268785 0.962953 0.519378
Si Si4 0.313054 0.341984 0.652834
Si Si5 0.452242 0.409696 0.023874
Si Si6 0.500000 0.902884 0.750000
Si Si7 0.500000 0.259579 0.750000
O O1 0.500000 0.863272 0.250000
O O2 0.507286 0.777515 0.087250
O O3 0.317676 0.832643 0.876266
O O4 0.525277 0.866534 0.934889
O O5 0.267402 0.940576 0.327315
O O6 0.052709 0.942233 0.006189
O O7 0.210803 0.879860 0.025770
O O8 0.254689 0.975979 0.005421
O O9 0.160029 0.946695 0.550235
O O10 0.390651 0.940745 0.704474
O O11 0.376109 0.291465 0.633896
O O12 0.408594 0.362122 0.875028
O O13 0.500000 0.389974 0.250000
#
# Coordination Sequence:
#
# PCOD8142752 Si02
#       7
#     8   8   8   8   8   4   4
#     4  10  25  45  70  99 137 180 232 282 344 409
#     4  11  23  39  66  97 133 178 228 277 344 402
#     4  11  24  40  64  98 139 186 225 272 342 415
#     4  12  20  45  70  96 136 176 219 296 341 409
#     4  10  21  39  64  97 133 175 228 278 341 395
#     4  12  24  48  65  98 148 185 232 282 334 418
#     4  10  24  44  73 104 128 179 230 288 356 404
#
# _framework density 21.183831000000001
#
# number of rings (size 3 to 8) (size 9 to 14) (size 15 to 20)
#    0.500    0.667    3.333    3.000    0.000    3.333 
#    3.000    0.833    0.000    0.000    0.000    0.000 
#    0.000    0.000    0.000    0.000    0.000    0.000 
#
# Total GULP energy -297469.114883 kJ/mol
# GULP energy per Si atom -12394.546453 kJ/mol
# Density = 2.113562 g / cm^3
# Si number density = 21.183831 Si / 1000 Ang^3
#
#
#
# Elastic Constant Matrix: (Units=GPa)
#
#
# Indices 1 2 3 4 5 6 
#
# 1 76.7009 46.8613 17.9632 0.0000 4.8888 0.0000
# 2 46.8613 125.7742 44.2896 0.0000 -0.9923 0.0000
# 3 17.9632 44.2896 91.9904 0.0000 -4.4510 0.0000
# 4 0.0000 0.0000 0.0000 28.0415 0.0000 0.1331
# 5 4.8888 -0.9923 -4.4510 0.0000 35.5689 0.0000
# 6 0.0000 0.0000 0.0000 0.1331 0.0000 30.3377
#
#
#
# Elastic Compliance Matrix: (Units=1/GPa)
#
#
# Indices 1 2 3 4 5 6 
#
# 1 0.017121 -0.006235 -0.000466 0.000000 -0.002586 0.000000
# 2 -0.006235 0.011848 -0.004456 0.000000 0.000630 0.000000
# 3 -0.000466 -0.004456 0.013184 0.000000 0.001590 0.000000
# 4 0.000000 0.000000 0.000000 0.035662 0.000000 -0.000156
# 5 -0.002586 0.000630 0.001590 0.000000 0.028686 0.000000
# 6 0.000000 0.000000 0.000000 -0.000156 0.000000 0.032963
#
#
# Mechanical properties :
#
#
# Convention : Reuss Voigt Hill
#
# Bulk Modulus (GPa) = 50.40930 56.96598 53.68764
# Shear Modulus (GPa) = 29.69237 31.14637 30.41937
#
# Velocity S-wave (km/s) = 3.74793 3.83860 3.79353
# Velocity P-wave (km/s) = 6.52511 6.82613 6.67732
#
# Compressibility (1/GPa) = 0.01983761
#
# Stress axis : x y z
#
# Youngs Moduli (GPa) = 58.40724 84.40170 75.84816
#
# Poissons Ratio (x) = 0.52626 0.03537
# Poissons Ratio (y) = 0.36418 0.33800
# Poissons Ratio (z) = 0.02724 0.37612
#
# Static dielectric constant tensor:
#      x y z
#    x 3.773340 0.000000 0.085540 
#    y 0.000000 3.728550 0.000000 
#    z 0.085540 0.000000 3.776030 
# 
# 
# High freq. dielectric constant tensor:
#      x y z
#    x 1.829250 0.000000 0.010750 
#    y 0.000000 1.817550 0.000000 
#    z 0.010750 0.000000 1.830780 
# 
# From -- ./inp_files/33853.got.cif
#   From: 2010.06.25/outbox.cif.g09.slc.cpg/sg15_17_cif.got.tgz:33853.got - 2010.06.28 07:06:18.
