data_PCOD8142673
_publ_section_title
;
Structure prediction by ZEFSAII (Michael W. Deem and Ramdas Pophale) SiO2 
 PCOD8142673
Probable space group: C 2/C
;
_chemical_formula_sum "Si O2"
_cell_formula_units_Z 56
_cell_length_a 18.403897
_cell_length_b 17.140237
_cell_length_c 8.925817
_cell_angle_alpha 90.000000
_cell_angle_beta 103.432902
_cell_angle_gamma 90.000000
_cell_volume 2738.595554
_symmetry_space_group_name_H-M "C 2/C"
_symmetry_group_IT_number 15
_symmetry_cell_setting 'monoclinic'
loop_
_space_group_symop_operation_xyz
x,y,z
-x,y,1/2-z
-x,-y,-z
x,-y,1/2+z
1/2+x,1/2+y,z
1/2-x,1/2+y,1/2-z
1/2-x,1/2-y,-z
1/2+x,1/2-y,1/2+z
loop_
_atom_site_type_symbol
_atom_site_label
_atom_site_fract_x
_atom_site_fract_y
_atom_site_fract_z
Si Si1 0.913741 0.137250 0.682270
Si Si2 0.329187 0.189250 0.646727
Si Si3 0.445362 0.529637 0.104268
Si Si4 0.922072 0.453040 0.294295
Si Si5 0.922451 0.401983 0.636472
Si Si6 0.832155 0.258487 0.480274
Si Si7 0.841012 0.168556 0.952150
O O1 0.883282 0.181364 0.521742
O O2 0.861959 0.172596 0.788360
O O3 0.000000 0.157649 0.750000
O O4 0.902732 0.044616 0.656182
O O5 0.382767 0.116088 0.686391
O O6 0.247247 0.157795 0.562484
O O7 0.363779 0.249915 0.542515
O O8 0.326006 0.232583 0.801631
O O9 0.500000 0.570008 0.250000
O O10 0.500000 0.500000 0.000000
O O11 0.384178 0.592913 0.033119
O O12 0.932513 0.440429 0.475639
O O13 0.882142 0.535686 0.230815
O O14 0.000000 0.465957 0.250000
O O15 0.868840 0.328810 0.590601
O O16 0.000000 0.373205 0.750000
O O17 0.750000 0.250000 0.500000
#
# Coordination Sequence:
#
# PCOD8142673 Si02
#       7
#     8   8   8   8   8   8   8
#     4  11  23  40  67  94 128 170 215 267 321 389
#     4  10  25  42  61  95 129 174 208 267 320 386
#     4  11  23  42  65  98 129 168 220 272 325 385
#     4  10  21  40  63  92 124 158 214 256 313 377
#     4  10  21  39  63  93 121 159 208 260 312 365
#     4  11  23  41  62  90 128 166 212 255 318 383
#     4  11  23  44  62  91 137 166 218 261 324 392
#
# _framework density 20.448436999999998
#
# number of rings (size 3 to 8) (size 9 to 14) (size 15 to 20)
#    0.000    1.429    4.286    2.143    2.000    6.286 
#    0.000    0.000    0.000    0.000    0.000    0.000 
#    0.000    0.000    0.000    0.000    0.000    0.000 
#
# Total GULP energy -347038.169134 kJ/mol
# GULP energy per Si atom -12394.220326 kJ/mol
# Density = 2.040189 g / cm^3
# Si number density = 20.448437 Si / 1000 Ang^3
#
#
#
# Elastic Constant Matrix: (Units=GPa)
#
#
# Indices 1 2 3 4 5 6 
#
# 1 71.0975 47.0479 29.3027 0.0000 3.4711 0.0000
# 2 47.0479 109.1520 52.3648 0.0000 12.0747 0.0000
# 3 29.3027 52.3648 107.3457 0.0000 13.6363 0.0000
# 4 0.0000 0.0000 0.0000 41.6655 0.0000 -1.1306
# 5 3.4711 12.0747 13.6363 0.0000 33.1906 0.0000
# 6 0.0000 0.0000 0.0000 -1.1306 0.0000 30.6760
#
#
#
# Elastic Compliance Matrix: (Units=1/GPa)
#
#
# Indices 1 2 3 4 5 6 
#
# 1 0.019966 -0.007921 -0.001780 0.000000 0.001525 0.000000
# 2 -0.007921 0.015238 -0.004929 0.000000 -0.002690 0.000000
# 3 -0.001780 -0.004929 0.012613 0.000000 -0.003203 0.000000
# 4 0.000000 0.000000 0.000000 0.024025 0.000000 0.000885
# 5 0.001525 -0.002690 -0.003203 0.000000 0.032264 0.000000
# 6 0.000000 0.000000 0.000000 0.000885 0.000000 0.032631
#
#
# Mechanical properties :
#
#
# Convention : Reuss Voigt Hill
#
# Bulk Modulus (GPa) = 53.88921 60.55845 57.22383
# Shear Modulus (GPa) = 29.03893 31.69840 30.36866
#
# Velocity S-wave (km/s) = 3.77252 3.94148 3.85792
# Velocity P-wave (km/s) = 6.73697 7.09882 6.92026
#
# Compressibility (1/GPa) = 0.01855659
#
# Stress axis : x y z
#
# Youngs Moduli (GPa) = 50.08583 65.62552 79.28258
#
# Poissons Ratio (x) = 0.51979 0.14113
# Poissons Ratio (y) = 0.39671 0.39082
# Poissons Ratio (z) = 0.08916 0.32350
#
# Static dielectric constant tensor:
#      x y z
#    x 3.485160 0.000000 0.150720 
#    y 0.000000 3.731790 0.000000 
#    z 0.150720 0.000000 4.036010 
# 
# 
# High freq. dielectric constant tensor:
#      x y z
#    x 1.783570 0.000000 0.007560 
#    y 0.000000 1.809750 0.000000 
#    z 0.007560 0.000000 1.821150 
# 
# From -- ./inp_files/49151.got.cif
#   From: 2010.06.25/outbox.cif.g09.slc.cpg/sg15_25_cif.got.tgz:49151.got - 2010.06.28 07:06:18.
