data_PCOD8142014
_publ_section_title
;
Structure prediction by ZEFSAII (Michael W. Deem and Ramdas Pophale) SiO2 
 PCOD8142014
Probable space group: C 2/C
;
_chemical_formula_sum "Si O2"
_cell_formula_units_Z 64
_cell_length_a 10.021620
_cell_length_b 17.963499
_cell_length_c 31.727366
_cell_angle_alpha 90.000000
_cell_angle_beta 145.916360
_cell_angle_gamma 90.000000
_cell_volume 3200.832674
_symmetry_space_group_name_H-M "C 2/C"
_symmetry_group_IT_number 15
_symmetry_cell_setting 'monoclinic'
loop_
_space_group_symop_operation_xyz
x,y,z
-x,y,1/2-z
-x,-y,-z
x,-y,1/2+z
1/2+x,1/2+y,z
1/2-x,1/2+y,1/2-z
1/2-x,1/2-y,-z
1/2+x,1/2-y,1/2+z
loop_
_atom_site_type_symbol
_atom_site_label
_atom_site_fract_x
_atom_site_fract_y
_atom_site_fract_z
Si Si1 0.834314 0.374468 0.666496
Si Si2 0.005764 0.684118 0.701198
Si Si3 0.865853 0.652693 0.952562
Si Si4 0.865275 0.067386 0.533232
Si Si5 0.103703 0.471006 0.321402
Si Si6 0.498546 0.279106 0.200018
Si Si7 0.810448 0.100935 0.015662
Si Si8 0.059604 0.808453 0.030773
O O1 0.900896 0.448688 0.655626
O O2 0.867979 0.297401 0.650549
O O3 0.555836 0.385012 0.605656
O O4 0.000000 0.362940 0.750000
O O5 0.040809 0.596937 0.695417
O O6 0.761098 0.714945 0.617577
O O7 0.000000 0.688832 0.750000
O O8 0.228795 0.729531 0.742677
O O9 0.801665 0.594980 0.972583
O O10 0.644496 0.656192 0.861822
O O11 0.097478 0.622267 0.990292
O O12 0.915091 0.734148 0.983830
O O13 0.134798 0.060662 0.619735
O O14 0.869779 0.129749 0.497557
O O15 0.780018 0.986137 0.494191
O O16 0.000000 0.495869 0.250000
O O17 0.500000 0.295735 0.250000
O O18 0.806339 0.154833 0.974083
#
# Coordination Sequence:
#
# PCOD8142014 Si02
#       8
#     8   8   8   8   8   8   8   8
#     4   9  19  33  56  81 112 150 195 236 282 343
#     4  10  21  38  61  82 113 154 196 238 293 351
#     4  12  23  37  61  91 122 153 195 249 300 347
#     4  10  22  38  58  86 120 158 193 239 298 358
#     4   8  15  33  55  77 104 148 195 229 271 341
#     4  11  22  36  59  87 116 151 197 244 292 343
#     4  11  22  39  60  88 120 156 199 244 292 348
#     4  11  22  38  62  87 119 154 201 244 293 352
#
# _framework density 19.994799
#
# number of rings (size 3 to 8) (size 9 to 14) (size 15 to 20)
#    0.000    1.750    1.250    4.500    3.500    0.000 
#    0.000    0.000    0.000    0.750    0.000    0.000 
#    0.000    0.000    0.000    0.000    0.000    0.000 
#
# Total GULP energy -396451.261676 kJ/mol
# GULP energy per Si atom -12389.101927 kJ/mol
# Density = 1.994929 g / cm^3
# Si number density = 19.994799 Si / 1000 Ang^3
#
#
#
# Elastic Constant Matrix: (Units=GPa)
#
#
# Indices 1 2 3 4 5 6 
#
# 1 85.8501 19.2489 10.3146 0.0002 7.4024 -0.0008
# 2 19.2489 82.2061 12.9255 0.0016 6.5395 -0.0013
# 3 10.3146 12.9255 79.8737 0.0029 0.3213 -0.0018
# 4 0.0002 0.0016 0.0029 15.4720 0.0001 3.1123
# 5 7.4024 6.5395 0.3213 0.0001 20.3304 -0.0007
# 6 -0.0008 -0.0013 -0.0018 3.1123 -0.0007 25.6759
#
#
#
# Elastic Compliance Matrix: (Units=1/GPa)
#
#
# Indices 1 2 3 4 5 6 
#
# 1 0.012677 -0.002474 -0.001221 0.000000 -0.003801 0.000000
# 2 -0.002474 0.013296 -0.001819 -0.000001 -0.003347 0.000000
# 3 -0.001221 -0.001819 0.012968 -0.000002 0.000825 0.000001
# 4 0.000000 -0.000001 -0.000002 0.066248 -0.000001 -0.008030
# 5 -0.003801 -0.003347 0.000825 -0.000001 0.051635 0.000001
# 6 0.000000 0.000000 0.000001 -0.008030 0.000001 0.039920
#
#
# Mechanical properties :
#
#
# Convention : Reuss Voigt Hill
#
# Bulk Modulus (GPa) = 35.82485 36.98977 36.40731
# Shear Modulus (GPa) = 23.03313 25.99171 24.51242
#
# Velocity S-wave (km/s) = 3.39773 3.60936 3.50514
# Velocity P-wave (km/s) = 5.77484 5.99248 5.88466
#
# Compressibility (1/GPa) = 0.02791358
#
# Stress axis : x y z
#
# Youngs Moduli (GPa) = 78.88044 75.21012 77.10994
#
# Poissons Ratio (x) = 0.18607 0.09419
# Poissons Ratio (y) = 0.19515 0.14024
# Poissons Ratio (z) = 0.09635 0.13678
#
# Static dielectric constant tensor:
#      x y z
#    x 3.389110 0.000000 0.007160 
#    y 0.000000 4.085440 0.000000 
#    z 0.007160 0.000000 3.727120 
# 
# 
# High freq. dielectric constant tensor:
#      x y z
#    x 1.744110 0.000000 0.002440 
#    y 0.000000 1.795970 0.000000 
#    z 0.002440 0.000000 1.791880 
# 
# From -- ./inp_files/308819.got.cif
#   From: 2010.06.25/outbox.cif.g09.slc.cpg/sg15_155_cif.got.tgz:308819.got - 2010.06.28 07:06:18.
