data_PCOD8142980
_publ_section_title
;
Structure prediction by ZEFSAII (Michael W. Deem and Ramdas Pophale) SiO2 
 PCOD8142980
Probable space group: C 2/C
;
_chemical_formula_sum "Si O2"
_cell_formula_units_Z 64
_cell_length_a 16.974410
_cell_length_b 9.182051
_cell_length_c 28.178655
_cell_angle_alpha 90.000000
_cell_angle_beta 42.770429
_cell_angle_gamma 90.000000
_cell_volume 2982.389860
_symmetry_space_group_name_H-M "C 2/C"
_symmetry_group_IT_number 15
_symmetry_cell_setting 'monoclinic'
loop_
_space_group_symop_operation_xyz
x,y,z
-x,y,1/2-z
-x,-y,-z
x,-y,1/2+z
1/2+x,1/2+y,z
1/2-x,1/2+y,1/2-z
1/2-x,1/2-y,-z
1/2+x,1/2-y,1/2+z
loop_
_atom_site_type_symbol
_atom_site_label
_atom_site_fract_x
_atom_site_fract_y
_atom_site_fract_z
Si Si1 0.664160 0.508340 0.290881
Si Si2 0.627007 0.668039 0.944577
Si Si3 0.846614 0.702422 0.163119
Si Si4 0.049382 0.956383 0.676937
Si Si5 0.829860 0.690301 0.923544
Si Si6 0.892652 0.856435 0.589584
Si Si7 0.599228 0.109519 0.074046
Si Si8 0.743167 0.691796 0.579965
O O1 0.764088 0.568280 0.212460
O O2 0.705268 0.356101 0.295598
O O3 0.549413 0.471517 0.311648
O O4 0.641966 0.635277 0.339901
O O5 0.645966 0.795409 0.897429
O O6 0.744468 0.635476 0.920295
O O7 0.592866 0.522335 0.932630
O O8 0.520433 0.715550 0.026277
O O9 0.972275 0.677434 0.130271
O O10 0.084541 0.809728 0.634905
O O11 0.000000 0.915166 0.750000
O O12 0.157058 0.065259 0.634799
O O13 0.908147 0.559118 0.908354
O O14 0.750000 0.750000 0.000000
O O15 0.796555 0.766457 0.603073
O O16 0.676142 0.188355 0.079400
O O17 0.655195 0.124045 0.997143
#
# Coordination Sequence:
#
# PCOD8142980 Si02
#       8
#     8   8   8   8   8   8   8   8
#     4  11  26  44  67  99 137 185 224 285 350 420
#     4  10  21  41  66  98 131 172 223 278 342 405
#     4  11  24  46  67  98 137 181 232 284 347 414
#     4  12  27  46  67  99 148 181 220 289 357 410
#     4  12  24  43  66 101 135 179 226 280 345 418
#     4  10  21  39  71  98 131 171 227 280 338 405
#     4  11  23  42  71 101 136 174 237 284 341 413
#     4  11  22  42  71 105 131 176 230 292 339 410
#
# _framework density 21.459299999999999
#
# number of rings (size 3 to 8) (size 9 to 14) (size 15 to 20)
#    0.000    1.000    5.000    1.500    3.500    0.000 
#    0.000    1.875    0.000    0.000    0.000    0.000 
#    0.000    0.000    0.000    0.000    0.000    0.000 
#
# Total GULP energy -396907.169795 kJ/mol
# GULP energy per Si atom -12403.349056 kJ/mol
# Density = 2.141046 g / cm^3
# Si number density = 21.459300 Si / 1000 Ang^3
#
#
#
# Elastic Constant Matrix: (Units=GPa)
#
#
# Indices 1 2 3 4 5 6 
#
# 1 83.4088 7.3371 14.6338 0.0000 -3.2914 0.0004
# 2 7.3371 84.0509 39.2065 0.0000 0.4802 0.0004
# 3 14.6338 39.2065 103.6709 0.0000 -5.4639 -0.0001
# 4 0.0000 0.0000 0.0000 31.2435 0.0000 -2.5551
# 5 -3.2914 0.4802 -5.4639 0.0000 34.3907 -0.0001
# 6 0.0004 0.0004 -0.0001 -2.5551 -0.0001 38.0408
#
#
#
# Elastic Compliance Matrix: (Units=1/GPa)
#
#
# Indices 1 2 3 4 5 6 
#
# 1 0.012331 -0.000356 -0.001557 0.000000 0.000938 0.000000
# 2 -0.000356 0.014496 -0.005490 0.000000 -0.001109 0.000000
# 3 -0.001557 -0.005490 0.012039 0.000000 0.001840 0.000000
# 4 0.000000 0.000000 0.000000 0.032183 0.000000 0.002162
# 5 0.000938 -0.001109 0.001840 0.000000 0.029475 0.000000
# 6 0.000000 0.000000 0.000000 0.002162 0.000000 0.026433
#
#
# Mechanical properties :
#
#
# Convention : Reuss Voigt Hill
#
# Bulk Modulus (GPa) = 41.56228 43.72062 42.64145
# Shear Modulus (GPa) = 33.38181 34.73189 34.05685
#
# Velocity S-wave (km/s) = 3.94837 4.02742 3.98809
# Velocity P-wave (km/s) = 6.34005 6.48420 6.41253
#
# Compressibility (1/GPa) = 0.02406028
#
# Stress axis : x y z
#
# Youngs Moduli (GPa) = 81.09951 68.98474 83.06353
#
# Poissons Ratio (x) = 0.02453 0.12930
# Poissons Ratio (y) = 0.02884 0.45605
# Poissons Ratio (z) = 0.12624 0.37875
#
# Static dielectric constant tensor:
#      x y z
#    x 3.854780 0.000000 0.125780 
#    y 0.000000 3.799380 0.000000 
#    z 0.125780 0.000000 3.896350 
# 
# 
# High freq. dielectric constant tensor:
#      x y z
#    x 1.849550 0.000000 0.002710 
#    y 0.000000 1.837740 0.000000 
#    z 0.002710 0.000000 1.844110 
# 
# From -- ./inp_files/315696.got.cif
#   From: 2010.06.25/outbox.cif.g09.slc.cpg/sg15_158_cif.got.tgz:315696.got - 2010.06.28 07:06:18.
