data_PCOD8142212
_publ_section_title
;
Structure prediction by ZEFSAII (Michael W. Deem and Ramdas Pophale) SiO2 
 PCOD8142212
Probable space group: C 2/C
;
_chemical_formula_sum "Si O2"
_cell_formula_units_Z 32
_cell_length_a 15.112267
_cell_length_b 8.175092
_cell_length_c 12.131243
_cell_angle_alpha 90.000000
_cell_angle_beta 119.651134
_cell_angle_gamma 90.000000
_cell_volume 1302.489445
_symmetry_space_group_name_H-M "C 2/C"
_symmetry_group_IT_number 15
_symmetry_cell_setting 'monoclinic'
loop_
_space_group_symop_operation_xyz
x,y,z
-x,y,1/2-z
-x,-y,-z
x,-y,1/2+z
1/2+x,1/2+y,z
1/2-x,1/2+y,1/2-z
1/2-x,1/2-y,-z
1/2+x,1/2-y,1/2+z
loop_
_atom_site_type_symbol
_atom_site_label
_atom_site_fract_x
_atom_site_fract_y
_atom_site_fract_z
Si Si1 0.668233 0.682220 0.203042
Si Si2 0.563613 0.115738 0.460771
Si Si3 0.865768 0.300344 0.089043
Si Si4 0.614146 0.311512 0.126495
O O1 0.602155 0.748348 0.267253
O O2 0.640783 0.494573 0.171348
O O3 0.788923 0.692933 0.299431
O O4 0.648625 0.784831 0.080701
O O5 0.480879 0.244583 0.358421
O O6 0.500000 0.000000 0.500000
O O7 0.619102 0.998725 0.405767
O O8 0.750000 0.250000 0.000000
O O9 0.925085 0.205247 0.026397
#
# Coordination Sequence:
#
# PCOD8142212 Si02
#       4
#     8   8   8   8
#     4  11  21  41  64  89 132 171 206 271 327 372
#     4  10  21  39  62  92 125 164 216 265 316 386
#     4   9  20  39  62  90 123 167 213 261 320 383
#     4  10  21  38  63  96 127 167 215 264 322 390
#
# _framework density 24.568335999999999
#
# number of rings (size 3 to 8) (size 9 to 14) (size 15 to 20)
#    0.000    2.000    0.000    5.250    0.000    4.000 
#    0.000   21.250    0.000    0.000    0.000    0.000 
#    0.000    0.000    0.000    0.000    0.000    0.000 
#
# Total GULP energy -198286.131411 kJ/mol
# GULP energy per Si atom -12392.883213 kJ/mol
# Density = 2.451242 g / cm^3
# Si number density = 24.568336 Si / 1000 Ang^3
#
#
#
# Elastic Constant Matrix: (Units=GPa)
#
#
# Indices 1 2 3 4 5 6 
#
# 1 70.5362 56.6740 39.9194 0.0000 -2.9344 0.0000
# 2 56.6740 202.9753 88.0095 0.0000 -3.3239 0.0000
# 3 39.9194 88.0095 103.3253 0.0000 1.5855 0.0000
# 4 0.0000 0.0000 0.0000 40.0518 0.0000 2.9125
# 5 -2.9344 -3.3239 1.5855 0.0000 24.2274 0.0000
# 6 0.0000 0.0000 0.0000 2.9125 0.0000 57.8885
#
#
#
# Elastic Compliance Matrix: (Units=1/GPa)
#
#
# Indices 1 2 3 4 5 6 
#
# 1 0.019689 -0.003406 -0.004740 0.000000 0.002228 0.000000
# 2 -0.003406 0.008456 -0.005905 0.000000 0.001134 0.000000
# 3 -0.004740 -0.005905 0.016577 0.000000 -0.002469 0.000000
# 4 0.000000 0.000000 0.000000 0.025059 0.000000 -0.001261
# 5 0.002228 0.001134 -0.002469 0.000000 0.041863 0.000000
# 6 0.000000 0.000000 0.000000 -0.001261 0.000000 0.017338
#
#
# Mechanical properties :
#
#
# Convention : Reuss Voigt Hill
#
# Bulk Modulus (GPa) = 60.16364 82.89363 71.52863
# Shear Modulus (GPa) = 30.74604 37.24914 33.99759
#
# Velocity S-wave (km/s) = 3.54142 3.89799 3.72398
# Velocity P-wave (km/s) = 6.42368 7.35339 6.90420
#
# Compressibility (1/GPa) = 0.01662134
#
# Stress axis : x y z
#
# Youngs Moduli (GPa) = 50.79051 118.25379 60.32580
#
# Poissons Ratio (x) = 0.40274 0.28594
# Poissons Ratio (y) = 0.17298 0.35620
# Poissons Ratio (z) = 0.24075 0.69823
#
# Static dielectric constant tensor:
#      x y z
#    x 5.389340 0.000000 -0.016400 
#    y 0.000000 4.860390 0.000000 
#    z -0.016400 0.000000 4.849870 
# 
# 
# High freq. dielectric constant tensor:
#      x y z
#    x 1.974620 0.000000 0.019880 
#    y 0.000000 1.981020 0.000000 
#    z 0.019880 0.000000 1.971590 
# 
# From -- ./inp_files/93556.got.cif
#   From: 2010.06.25/outbox.cif.g09.slc.cpg/sg15_47_cif.got.tgz:93556.got - 2010.06.28 07:06:18.
