data_PCOD8142526
_publ_section_title
;
Structure prediction by ZEFSAII (Michael W. Deem and Ramdas Pophale) SiO2 
 PCOD8142526
Probable space group: C 2/C
;
_chemical_formula_sum "Si O2"
_cell_formula_units_Z 48
_cell_length_a 22.211499
_cell_length_b 23.643289
_cell_length_c 5.198945
_cell_angle_alpha 90.000000
_cell_angle_beta 65.129517
_cell_angle_gamma 90.000000
_cell_volume 2477.040622
_symmetry_space_group_name_H-M "C 2/C"
_symmetry_group_IT_number 15
_symmetry_cell_setting 'monoclinic'
loop_
_space_group_symop_operation_xyz
x,y,z
-x,y,1/2-z
-x,-y,-z
x,-y,1/2+z
1/2+x,1/2+y,z
1/2-x,1/2+y,1/2-z
1/2-x,1/2-y,-z
1/2+x,1/2-y,1/2+z
loop_
_atom_site_type_symbol
_atom_site_label
_atom_site_fract_x
_atom_site_fract_y
_atom_site_fract_z
Si Si1 0.193819 0.964639 0.050519
Si Si2 0.067861 0.756394 0.494474
Si Si3 0.847953 0.463514 0.781480
Si Si4 0.308586 0.710219 0.470748
Si Si5 0.543137 0.869159 0.918311
Si Si6 0.155588 0.156591 0.603247
O O1 0.145996 0.910197 0.158401
O O2 0.176226 0.004870 0.317500
O O3 0.270843 0.945656 0.916135
O O4 0.124383 0.752514 0.615033
O O5 0.063746 0.696601 0.355697
O O6 0.087329 0.807278 0.261609
O O7 0.000000 0.773820 0.750000
O O8 0.865801 0.503060 0.508544
O O9 0.890712 0.406517 0.690236
O O10 0.250000 0.750000 0.500000
O O11 0.292755 0.678051 0.767859
O O12 0.315946 0.664593 0.232052
O O13 0.500000 0.886953 0.750000
O O14 0.500000 0.879467 0.250000
#
# Coordination Sequence:
#
# PCOD8142526 Si02
#       6
#     8   8   8   8   8   8
#     4  10  21  39  61  88 118 150 200 251 306 360
#     4   9  24  40  60  88 125 160 199 240 308 363
#     4  10  22  39  57  82 113 158 199 248 298 345
#     4  10  22  36  59  93 119 156 200 248 299 362
#     4  11  24  38  57  84 117 159 204 248 284 350
#     4  10  22  38  62  88 120 162 192 246 312 360
#
# _framework density 19.377963000000001
#
# number of rings (size 3 to 8) (size 9 to 14) (size 15 to 20)
#    1.000    1.000    0.000    2.500    7.000    2.000 
#    0.000    0.000    0.000    1.000    0.000    0.000 
#    0.000    0.000    0.000    0.000    0.000    0.000 
#
# Total GULP energy -297492.072991 kJ/mol
# GULP energy per Si atom -12395.503041 kJ/mol
# Density = 1.933386 g / cm^3
# Si number density = 19.377963 Si / 1000 Ang^3
#
#
#
# Elastic Constant Matrix: (Units=GPa)
#
#
# Indices 1 2 3 4 5 6 
#
# 1 52.9438 13.9655 31.8466 0.0000 -7.6506 0.0000
# 2 13.9655 106.9945 36.3113 0.0000 -20.8968 0.0000
# 3 31.8466 36.3113 88.2131 0.0000 23.9971 0.0000
# 4 0.0000 0.0000 0.0000 27.6291 0.0000 0.0715
# 5 -7.6506 -20.8968 23.9971 0.0000 18.3074 0.0000
# 6 0.0000 0.0000 0.0000 0.0715 0.0000 25.0928
#
#
#
# Elastic Compliance Matrix: (Units=1/GPa)
#
#
# Indices 1 2 3 4 5 6 
#
# 1 -0.007637 -0.027390 0.036376 0.000000 -0.082137 0.000000
# 2 -0.027390 -0.012363 0.034084 0.000000 -0.070236 0.000000
# 3 0.036376 0.034084 -0.047473 0.000000 0.116334 0.000000
# 4 0.000000 0.000000 0.000000 0.036194 0.000000 -0.000103
# 5 -0.082137 -0.070236 0.116334 0.000000 -0.212361 0.000000
# 6 0.000000 0.000000 0.000000 -0.000103 0.000000 0.039852
#
#
# Mechanical properties :
#
#
# Convention : Reuss Voigt Hill
#
# Bulk Modulus (GPa) = 53.57344 45.82203 49.69774
# Shear Modulus (GPa) = -17.62381 25.27441 3.82530
#
# Velocity S-wave (km/s) = -3.01903 3.61541 1.40653
# Velocity P-wave (km/s) = 3.94384 6.41296 5.32353
#
# Compressibility (1/GPa) = 0.01866596
#
# Stress axis : x y z
#
# Youngs Moduli (GPa) = -130.93848 -80.88358 -21.06442
#
# Poissons Ratio (x) = -2.21543 0.76624
# Poissons Ratio (y) = -3.58645 0.71796
# Poissons Ratio (z) = 4.76304 2.75685
#
# Static dielectric constant tensor:
#      x y z
#    x 3.538090 0.000000 0.060220 
#    y 0.000000 3.745350 0.000000 
#    z 0.060220 0.000000 3.763830 
# 
# 
# High freq. dielectric constant tensor:
#      x y z
#    x 1.739710 0.000000 0.019640 
#    y 0.000000 1.751140 0.000000 
#    z 0.019640 0.000000 1.761020 
# 
# From -- ./inp_files/15602.got.cif
#   From: 2010.06.25/outbox.cif.g09.slc.cpg/sg15_8_cif.got.tgz:15602.got - 2010.06.28 07:06:18.
