data_PCOD8142026
_publ_section_title
;
Structure prediction by ZEFSAII (Michael W. Deem and Ramdas Pophale) SiO2 
 PCOD8142026
Probable space group: C 2/C
;
_chemical_formula_sum "Si O2"
_cell_formula_units_Z 48
_cell_length_a 14.826776
_cell_length_b 22.622104
_cell_length_c 12.040822
_cell_angle_alpha 90.000000
_cell_angle_beta 36.931767
_cell_angle_gamma 90.000000
_cell_volume 2426.675397
_symmetry_space_group_name_H-M "C 2/C"
_symmetry_group_IT_number 15
_symmetry_cell_setting 'monoclinic'
loop_
_space_group_symop_operation_xyz
x,y,z
-x,y,1/2-z
-x,-y,-z
x,-y,1/2+z
1/2+x,1/2+y,z
1/2-x,1/2+y,1/2-z
1/2-x,1/2-y,-z
1/2+x,1/2-y,1/2+z
loop_
_atom_site_type_symbol
_atom_site_label
_atom_site_fract_x
_atom_site_fract_y
_atom_site_fract_z
Si Si1 0.647643 0.706914 0.532181
Si Si2 0.894898 0.505364 0.757210
Si Si3 0.116551 0.288825 0.356219
Si Si4 0.380943 0.724546 0.446345
Si Si5 0.382675 0.914076 0.068766
Si Si6 0.673850 0.581032 0.573530
O O1 0.500000 0.700869 0.750000
O O2 0.750000 0.750000 0.500000
O O3 0.625337 0.732365 0.430171
O O4 0.714447 0.640221 0.462006
O O5 0.845311 0.557712 0.724827
O O6 0.000000 0.533215 0.750000
O O7 0.983246 0.451131 0.615478
O O8 0.742495 0.477440 0.951881
O O9 0.060846 0.346759 0.475210
O O10 0.989532 0.275130 0.389839
O O11 0.283508 0.305618 0.141144
O O12 0.500000 0.686558 0.250000
O O13 0.250000 0.750000 0.500000
O O14 0.235243 0.913070 0.138207
O O15 0.500000 0.568302 0.750000
#
# Coordination Sequence:
#
# PCOD8142026 Si02
#       6
#     8   8   8   8   8   8
#     4  11  22  33  55  94 125 155 189 233 307 363
#     4   9  21  40  61  83 115 154 203 249 289 336
#     4  11  21  35  62  86 119 158 196 242 300 359
#     4   9  21  39  54  79 116 156 196 242 288 341
#     4  10  21  38  61  87 111 157 204 240 290 355
#     4  10  22  38  58  87 127 150 189 251 294 361
#
# _framework density 19.780149999999999
#
# number of rings (size 3 to 8) (size 9 to 14) (size 15 to 20)
#    0.000    2.000    1.667    1.000    7.000    2.667 
#    0.000    0.833    0.000    0.000    0.000    0.000 
#    0.000    0.000    0.000    0.000    0.000    0.000 
#
# Total GULP energy -297333.858832 kJ/mol
# GULP energy per Si atom -12388.910785 kJ/mol
# Density = 1.973513 g / cm^3
# Si number density = 19.780150 Si / 1000 Ang^3
#
#
#
# Elastic Constant Matrix: (Units=GPa)
#
#
# Indices 1 2 3 4 5 6 
#
# 1 143.1563 52.8318 38.4791 0.0023 1.0760 -0.0047
# 2 52.8318 74.6676 13.2815 0.0011 4.5149 -0.0021
# 3 38.4791 13.2815 82.7694 0.0028 -0.3725 -0.0050
# 4 0.0023 0.0011 0.0028 7.6442 -0.0019 5.6765
# 5 1.0760 4.5149 -0.3725 -0.0019 36.1215 0.0041
# 6 -0.0047 -0.0021 -0.0050 5.6765 0.0041 21.2646
#
#
#
# Elastic Compliance Matrix: (Units=1/GPa)
#
#
# Indices 1 2 3 4 5 6 
#
# 1 0.010507 -0.006790 -0.003793 -0.000002 0.000497 0.000001
# 2 -0.006790 0.018285 0.000213 -0.000002 -0.002081 0.000001
# 3 -0.003793 0.000213 0.013812 -0.000007 0.000229 0.000004
# 4 -0.000002 -0.000002 -0.000007 0.163162 0.000014 -0.043556
# 5 0.000497 -0.002081 0.000229 0.000014 0.027932 -0.000009
# 6 0.000001 0.000001 0.000004 -0.043556 -0.000009 0.058654
#
#
# Mechanical properties :
#
#
# Convention : Reuss Voigt Hill
#
# Bulk Modulus (GPa) = 45.73604 56.64202 51.18903
# Shear Modulus (GPa) = 15.60658 26.07278 20.83968
#
# Velocity S-wave (km/s) = 2.81197 3.63454 3.24939
# Velocity P-wave (km/s) = 5.80648 6.80523 6.32560
#
# Compressibility (1/GPa) = 0.02186460
#
# Stress axis : x y z
#
# Youngs Moduli (GPa) = 95.17634 54.69063 72.40143
#
# Poissons Ratio (x) = 0.37133 0.27461
# Poissons Ratio (y) = 0.64621 -0.01542
# Poissons Ratio (z) = 0.36099 -0.01165
#
# Static dielectric constant tensor:
#      x y z
#    x 3.879650 -0.000020 0.183110 
#    y -0.000020 2.877360 -0.000080 
#    z 0.183110 -0.000080 4.068440 
# 
# 
# High freq. dielectric constant tensor:
#      x y z
#    x 1.788640 0.000000 0.002100 
#    y 0.000000 1.742430 0.000000 
#    z 0.002100 0.000000 1.777040 
# 
# From -- ./inp_files/99969.got.cif
#   From: 2010.06.25/outbox.cif.g09.slc.cpg/sg15_50_cif.got.tgz:99969.got - 2010.06.28 07:06:18.
