data_PCOD8142114
_publ_section_title
;
Structure prediction by ZEFSAII (Michael W. Deem and Ramdas Pophale) SiO2 
 PCOD8142114
Probable space group: C 2/C
;
_chemical_formula_sum "Si O2"
_cell_formula_units_Z 48
_cell_length_a 14.564976
_cell_length_b 25.259392
_cell_length_c 5.226545
_cell_angle_alpha 90.000000
_cell_angle_beta 83.180080
_cell_angle_gamma 90.000000
_cell_volume 1909.253045
_symmetry_space_group_name_H-M "C 2/C"
_symmetry_group_IT_number 15
_symmetry_cell_setting 'monoclinic'
loop_
_space_group_symop_operation_xyz
x,y,z
-x,y,1/2-z
-x,-y,-z
x,-y,1/2+z
1/2+x,1/2+y,z
1/2-x,1/2+y,1/2-z
1/2-x,1/2-y,-z
1/2+x,1/2-y,1/2+z
loop_
_atom_site_type_symbol
_atom_site_label
_atom_site_fract_x
_atom_site_fract_y
_atom_site_fract_z
Si Si1 0.500000 0.128287 0.250000
Si Si2 0.697835 0.027857 0.594439
Si Si3 0.974059 0.115454 0.507908
Si Si4 0.683769 0.809552 0.606173
Si Si5 0.765022 0.144712 0.564832
Si Si6 0.947785 0.227389 0.014922
Si Si7 0.500000 0.941240 0.250000
O O1 0.409207 0.163598 0.259392
O O2 0.483002 0.094527 0.509197
O O3 0.723319 0.087543 0.511032
O O4 0.587287 0.021243 0.658996
O O5 0.739460 0.991198 0.352984
O O6 0.874613 0.141115 0.549715
O O7 0.000000 0.080428 0.250000
O O8 0.049932 0.163684 0.474893
O O9 0.000000 0.081093 0.750000
O O10 0.727098 0.839824 0.352833
O O11 0.657604 0.750199 0.502254
O O12 0.747636 0.812893 0.841076
O O13 0.000000 0.248972 0.750000
O O14 0.000000 0.251452 0.250000
#
# Coordination Sequence:
#
# PCOD8142114 Si02
#       7
#     4   8   8   8   8   8   4
#     4  12  20  35  60  86 136 176 212 242 308 379
#     4  12  24  40  61  95 135 169 213 272 318 383
#     4  10  23  47  69  92 127 170 215 274 341 389
#     4  12  22  38  64  94 131 174 215 264 311 385
#     4  12  25  43  68  97 126 174 225 265 330 392
#     4  10  21  38  62  89 126 172 207 263 323 367
#     4  12  22  39  58  92 132 188 204 242 326 399
#
# _framework density 25.140720999999999
#
# number of rings (size 3 to 8) (size 9 to 14) (size 15 to 20)
#    0.000    0.667    4.167    4.500    1.167    0.000 
#    0.000   20.000    0.000    3.000    0.000    0.000 
#    0.000    0.000    0.000    0.000    0.000    0.000 
#
# Total GULP energy -297363.132770 kJ/mol
# GULP energy per Si atom -12390.130532 kJ/mol
# Density = 2.508350 g / cm^3
# Si number density = 25.140721 Si / 1000 Ang^3
#
#
#
# Elastic Constant Matrix: (Units=GPa)
#
#
# Indices 1 2 3 4 5 6 
#
# 1 52.2820 -14.6938 23.3112 0.0000 10.4008 0.0000
# 2 -14.6938 53.6527 17.1762 0.0000 -7.3167 0.0000
# 3 23.3112 17.1762 210.2507 0.0000 18.9861 0.0000
# 4 0.0000 0.0000 0.0000 26.1494 0.0000 2.7140
# 5 10.4008 -7.3167 18.9861 0.0000 35.0418 0.0000
# 6 0.0000 0.0000 0.0000 2.7140 0.0000 -10.6333
#
#
#
# Elastic Compliance Matrix: (Units=1/GPa)
#
#
# Indices 1 2 3 4 5 6 
#
# 1 0.022998 0.006634 -0.002734 0.000000 -0.003960 0.000000
# 2 0.006634 0.021958 -0.002908 0.000000 0.004191 0.000000
# 3 -0.002734 -0.002908 0.005550 0.000000 -0.002803 0.000000
# 4 0.000000 0.000000 0.000000 0.037255 0.000000 0.009509
# 5 -0.003960 0.004191 -0.002803 0.000000 0.032106 0.000000
# 6 0.000000 0.000000 0.000000 0.009509 0.000000 -0.091617
#
#
# Mechanical properties :
#
#
# Convention : Reuss Voigt Hill
#
# Bulk Modulus (GPa) = 19.05137 40.86363 29.95750
# Shear Modulus (GPa) = 114.25184 29.47104 71.86144
#
# Velocity S-wave (km/s) = 6.74860 3.42752 5.35217
# Velocity P-wave (km/s) = 8.26554 5.65271 7.08069
#
# Compressibility (1/GPa) = 0.05248967
#
# Stress axis : x y z
#
# Youngs Moduli (GPa) = 43.48139 45.54216 180.17951
#
# Poissons Ratio (x) = -0.30212 0.49267
# Poissons Ratio (y) = -0.28845 0.52393
# Poissons Ratio (z) = 0.11889 0.13243
#
# Static dielectric constant tensor:
#      x y z
#    x 4.623020 0.000000 0.068020 
#    y 0.000000 4.132090 0.000000 
#    z 0.068020 0.000000 5.615880 
# 
# 
# High freq. dielectric constant tensor:
#      x y z
#    x 2.001160 0.000000 -0.004890 
#    y 0.000000 1.959900 0.000000 
#    z -0.004890 0.000000 2.045050 
# 
# From -- ./inp_files/8285.got.cif
#   From: 2010.06.25/outbox.cif.g09.slc.cpg/sg15_5_cif.got.tgz:8285.got - 2010.06.28 07:06:18.
