data_PCOD8142487
_publ_section_title
;
Structure prediction by ZEFSAII (Michael W. Deem and Ramdas Pophale) SiO2 
 PCOD8142487
Probable space group: C 2/C
;
_chemical_formula_sum "Si O2"
_cell_formula_units_Z 48
_cell_length_a 27.405877
_cell_length_b 9.232630
_cell_length_c 14.146652
_cell_angle_alpha 90.000000
_cell_angle_beta 139.135061
_cell_angle_gamma 90.000000
_cell_volume 2341.991049
_symmetry_space_group_name_H-M "C 2/C"
_symmetry_group_IT_number 15
_symmetry_cell_setting 'monoclinic'
loop_
_space_group_symop_operation_xyz
x,y,z
-x,y,1/2-z
-x,-y,-z
x,-y,1/2+z
1/2+x,1/2+y,z
1/2-x,1/2+y,1/2-z
1/2-x,1/2-y,-z
1/2+x,1/2-y,1/2+z
loop_
_atom_site_type_symbol
_atom_site_label
_atom_site_fract_x
_atom_site_fract_y
_atom_site_fract_z
Si Si1 0.820393 0.094630 0.390817
Si Si2 0.690488 0.934968 0.118299
Si Si3 0.428644 0.595382 0.386571
Si Si4 0.424581 0.086076 0.898120
Si Si5 0.320040 0.849670 0.066483
Si Si6 0.413937 0.602235 0.151834
O O1 0.799216 0.261660 0.378785
O O2 0.858657 0.055524 0.347712
O O3 0.747284 0.996003 0.280408
O O4 0.877784 0.039565 0.553503
O O5 0.612156 0.963253 0.056523
O O6 0.701208 0.014605 0.032629
O O7 0.500000 0.500000 0.500000
O O8 0.455652 0.753356 0.455238
O O9 0.398246 0.579476 0.238006
O O10 0.366977 0.085026 0.724066
O O11 0.500000 0.000000 0.000000
O O12 0.370682 0.752775 0.068642
O O13 0.250000 0.750000 0.000000
O O14 0.500000 0.617402 0.250000
#
# Coordination Sequence:
#
# PCOD8142487 Si02
#       6
#     8   8   8   8   8   8
#     4  11  23  42  63  97 127 175 226 270 337 398
#     4  11  24  42  69  92 134 179 217 280 334 402
#     4  10  21  39  60  88 130 168 209 276 327 393
#     4  10  24  40  62  97 130 166 223 274 333 395
#     4  11  24  46  68  94 137 177 224 278 342 409
#     4  11  22  38  66  94 127 173 222 269 338 403
#
# _framework density 20.495380999999998
#
# number of rings (size 3 to 8) (size 9 to 14) (size 15 to 20)
#    0.000    1.333    1.667    5.000    4.667    2.667 
#    0.000    5.833    0.000    0.000    0.000    0.000 
#    0.000    0.000    0.000    0.000    0.000    0.000 
#
# Total GULP energy -297313.333573 kJ/mol
# GULP energy per Si atom -12388.055566 kJ/mol
# Density = 2.044873 g / cm^3
# Si number density = 20.495381 Si / 1000 Ang^3
#
#
#
# Elastic Constant Matrix: (Units=GPa)
#
#
# Indices 1 2 3 4 5 6 
#
# 1 120.9324 69.8074 46.3388 0.0000 0.9231 0.0000
# 2 69.8074 115.1246 49.8928 0.0000 20.1019 0.0000
# 3 46.3388 49.8928 84.7114 0.0000 22.4020 0.0000
# 4 0.0000 0.0000 0.0000 39.0994 0.0000 2.0268
# 5 0.9231 20.1019 22.4020 0.0000 28.9378 0.0000
# 6 0.0000 0.0000 0.0000 2.0268 0.0000 43.1063
#
#
#
# Elastic Compliance Matrix: (Units=1/GPa)
#
#
# Indices 1 2 3 4 5 6 
#
# 1 0.015431 -0.008468 -0.006135 0.000000 0.010140 0.000000
# 2 -0.008468 0.016600 -0.002724 0.000000 -0.009152 0.000000
# 3 -0.006135 -0.002724 0.020386 0.000000 -0.013694 0.000000
# 4 0.000000 0.000000 0.000000 0.025638 0.000000 -0.001205
# 5 0.010140 -0.009152 -0.013694 0.000000 0.051192 0.000000
# 6 0.000000 0.000000 0.000000 -0.001205 0.000000 0.023255
#
#
# Mechanical properties :
#
#
# Convention : Reuss Voigt Hill
#
# Bulk Modulus (GPa) = 56.29846 72.53849 64.41848
# Shear Modulus (GPa) = 25.89631 32.54401 29.22016
#
# Velocity S-wave (km/s) = 3.55846 3.98913 3.77993
# Velocity P-wave (km/s) = 6.66423 7.52908 7.10982
#
# Compressibility (1/GPa) = 0.01776247
#
# Stress axis : x y z
#
# Youngs Moduli (GPa) = 64.80586 60.24130 49.05250
#
# Poissons Ratio (x) = 0.51015 0.30092
# Poissons Ratio (y) = 0.54881 0.13363
# Poissons Ratio (z) = 0.39756 0.16411
#
# Static dielectric constant tensor:
#      x y z
#    x 4.099840 0.000000 -0.644910 
#    y 0.000000 5.201700 0.000000 
#    z -0.644910 0.000000 4.544550 
# 
# 
# High freq. dielectric constant tensor:
#      x y z
#    x 1.815070 0.000000 0.006150 
#    y 0.000000 1.802420 0.000000 
#    z 0.006150 0.000000 1.806150 
# 
# From -- ./inp_files/176991.got.cif
#   From: 2010.06.25/outbox.cif.g09.slc.cpg/sg15_89_cif.got.tgz:176991.got - 2010.06.28 07:06:18.
