data_PCOD8142857
_publ_section_title
;
Structure prediction by ZEFSAII (Michael W. Deem and Ramdas Pophale) SiO2 
 PCOD8142857
Probable space group: C 2/C
;
_chemical_formula_sum "Si O2"
_cell_formula_units_Z 36
_cell_length_a 22.151628
_cell_length_b 4.689457
_cell_length_c 13.987588
_cell_angle_alpha 90.000000
_cell_angle_beta 108.320484
_cell_angle_gamma 90.000000
_cell_volume 1379.369253
_symmetry_space_group_name_H-M "C 2/C"
_symmetry_group_IT_number 15
_symmetry_cell_setting 'monoclinic'
loop_
_space_group_symop_operation_xyz
x,y,z
-x,y,1/2-z
-x,-y,-z
x,-y,1/2+z
1/2+x,1/2+y,z
1/2-x,1/2+y,1/2-z
1/2-x,1/2-y,-z
1/2+x,1/2-y,1/2+z
loop_
_atom_site_type_symbol
_atom_site_label
_atom_site_fract_x
_atom_site_fract_y
_atom_site_fract_z
Si Si1 0.000000 0.796509 0.250000
Si Si2 0.340988 0.561258 0.965854
Si Si3 0.725692 0.915270 0.296609
Si Si4 0.873867 0.063307 0.771147
Si Si5 0.614237 0.063167 0.397210
O O1 0.052135 0.990127 0.220919
O O2 0.038422 0.596010 0.344715
O O3 0.263795 0.577456 0.916809
O O4 0.374304 0.651364 0.882808
O O5 0.360732 0.238635 0.999227
O O6 0.367104 0.739305 0.069670
O O7 0.775402 0.735675 0.251314
O O8 0.659927 0.738904 0.264534
O O9 0.849331 0.322134 0.683205
#
# Coordination Sequence:
#
# PCOD8142857 Si02
#       5
#     4   8   8   8   8
#     4   8  22  48  56 100 124 174 204 268 310 366
#     4  11  22  40  68  93 124 171 208 256 324 370
#     4  10  21  39  66  95 126 166 208 260 320 368
#     4   9  22  44  63  94 136 160 209 272 299 384
#     4  10  24  41  63  98 123 168 215 252 320 376
#
# _framework density 26.098887999999999
#
# number of rings (size 3 to 8) (size 9 to 14) (size 15 to 20)
#    1.333    0.889    0.000    2.667    0.000    9.778 
#    0.000    0.000    0.000    0.000    0.000    0.000 
#    0.000    0.000    0.000    0.000    0.000    0.000 
#
# Total GULP energy -223095.401735 kJ/mol
# GULP energy per Si atom -12394.188985 kJ/mol
# Density = 2.603949 g / cm^3
# Si number density = 26.098888 Si / 1000 Ang^3
#
#
#
# Elastic Constant Matrix: (Units=GPa)
#
#
# Indices 1 2 3 4 5 6 
#
# 1 122.1805 10.5965 46.6450 0.0000 12.2596 0.0000
# 2 10.5965 111.9482 22.3808 0.0000 12.4584 0.0000
# 3 46.6450 22.3808 128.6499 0.0000 10.2074 0.0000
# 4 0.0000 0.0000 0.0000 23.4962 0.0000 -0.6968
# 5 12.2596 12.4584 10.2074 0.0000 59.9882 0.0000
# 6 0.0000 0.0000 0.0000 -0.6968 0.0000 22.1391
#
#
#
# Elastic Compliance Matrix: (Units=1/GPa)
#
#
# Indices 1 2 3 4 5 6 
#
# 1 0.009613 -0.000085 -0.003362 0.000000 -0.001375 0.000000
# 2 -0.000085 0.009423 -0.001475 0.000000 -0.001689 0.000000
# 3 -0.003362 -0.001475 0.009295 0.000000 -0.000588 0.000000
# 4 0.000000 0.000000 0.000000 0.042600 0.000000 0.001341
# 5 -0.001375 -0.001689 -0.000588 0.000000 0.017402 0.000000
# 6 0.000000 0.000000 0.000000 0.001341 0.000000 0.045211
#
#
# Mechanical properties :
#
#
# Convention : Reuss Voigt Hill
#
# Bulk Modulus (GPa) = 54.08440 58.00259 56.04350
# Shear Modulus (GPa) = 33.43358 40.00179 36.71769
#
# Velocity S-wave (km/s) = 3.58304 3.91922 3.75489
# Velocity P-wave (km/s) = 6.15511 6.53856 6.34973
#
# Compressibility (1/GPa) = 0.01848962
#
# Stress axis : x y z
#
# Youngs Moduli (GPa) = 104.02221 106.11784 107.58353
#
# Poissons Ratio (x) = 0.00901 0.36166
# Poissons Ratio (y) = 0.00883 0.15864
# Poissons Ratio (z) = 0.34969 0.15648
#
# Static dielectric constant tensor:
#      x y z
#    x 5.039550 0.000000 -0.113380 
#    y 0.000000 4.633140 0.000000 
#    z -0.113380 0.000000 4.633760 
# 
# 
# High freq. dielectric constant tensor:
#      x y z
#    x 2.067260 0.000000 -0.005340 
#    y 0.000000 2.058880 0.000000 
#    z -0.005340 0.000000 2.051240 
# 
# From -- ./inp_files/170625.got.cif
#   From: 2010.06.25/outbox.cif.g09.slc.cpg/sg15_86_cif.got.tgz:170625.got - 2010.06.28 07:06:18.
