data_PCOD8142371
_publ_section_title
;
Structure prediction by ZEFSAII (Michael W. Deem and Ramdas Pophale) SiO2 
 PCOD8142371
Probable space group: C 2/C
;
_chemical_formula_sum "Si O2"
_cell_formula_units_Z 44
_cell_length_a 21.696752
_cell_length_b 9.121997
_cell_length_c 10.676247
_cell_angle_alpha 90.000000
_cell_angle_beta 59.878974
_cell_angle_gamma 90.000000
_cell_volume 1827.691798
_symmetry_space_group_name_H-M "C 2/C"
_symmetry_group_IT_number 15
_symmetry_cell_setting 'monoclinic'
loop_
_space_group_symop_operation_xyz
x,y,z
-x,y,1/2-z
-x,-y,-z
x,-y,1/2+z
1/2+x,1/2+y,z
1/2-x,1/2+y,1/2-z
1/2-x,1/2-y,-z
1/2+x,1/2-y,1/2+z
loop_
_atom_site_type_symbol
_atom_site_label
_atom_site_fract_x
_atom_site_fract_y
_atom_site_fract_z
Si Si1 0.915979 0.403812 0.783500
Si Si2 0.063696 0.617235 0.524838
Si Si3 0.882871 0.090519 0.803468
Si Si4 0.256221 0.951732 0.897549
Si Si5 0.304207 0.721903 0.664419
Si Si6 0.000000 0.144734 0.250000
O O1 0.955408 0.487652 0.856984
O O2 0.944824 0.438828 0.611448
O O3 0.926329 0.232820 0.805975
O O4 0.833301 0.443937 0.880808
O O5 0.145527 0.668795 0.466887
O O6 0.013444 0.754985 0.613414
O O7 0.862466 0.120716 0.679457
O O8 0.805463 0.079771 0.942556
O O9 0.930837 0.949594 0.782053
O O10 0.251412 0.825475 0.797407
O O11 0.247366 0.118100 0.860190
#
# Coordination Sequence:
#
# PCOD8142371 Si02
#       6
#     8   8   8   8   8   4
#     4  10  24  43  70  99 141 169 230 278 351 387
#     4  10  24  45  66 103 132 184 221 278 329 413
#     4  10  23  41  65  97 136 184 216 285 332 405
#     4  10  21  38  67  98 135 173 218 284 341 405
#     4  10  22  39  65 101 134 169 227 275 347 392
#     4  12  24  46  68  94 140 176 240 266 332 406
#
# _framework density 24.074079000000001
#
# number of rings (size 3 to 8) (size 9 to 14) (size 15 to 20)
#    0.000    2.182    1.818    2.182   10.182    6.545 
#    0.000    0.000    0.000    0.000    0.000    0.000 
#    0.000    0.000    0.000    0.000    0.000    0.000 
#
# Total GULP energy -272604.170920 kJ/mol
# GULP energy per Si atom -12391.098678 kJ/mol
# Density = 2.401929 g / cm^3
# Si number density = 24.074079 Si / 1000 Ang^3
#
#
#
# Elastic Constant Matrix: (Units=GPa)
#
#
# Indices 1 2 3 4 5 6 
#
# 1 74.9263 39.6924 54.1182 0.0000 -1.5600 0.0000
# 2 39.6924 114.3688 59.4722 0.0000 30.3041 0.0000
# 3 54.1182 59.4722 149.9998 0.0000 -9.9093 0.0000
# 4 0.0000 0.0000 0.0000 38.9084 0.0000 12.4608
# 5 -1.5600 30.3041 -9.9093 0.0000 21.3958 0.0000
# 6 0.0000 0.0000 0.0000 12.4608 0.0000 16.9920
#
#
#
# Elastic Compliance Matrix: (Units=1/GPa)
#
#
# Indices 1 2 3 4 5 6 
#
# 1 0.020525 -0.008925 -0.003025 0.000000 0.012736 0.000000
# 2 -0.008925 0.033045 -0.013428 0.000000 -0.053674 0.000000
# 3 -0.003025 -0.013428 0.014776 0.000000 0.025641 0.000000
# 4 0.000000 0.000000 0.000000 0.033590 0.000000 -0.024633
# 5 0.012736 -0.053674 0.025641 0.000000 0.135563 0.000000
# 6 0.000000 0.000000 0.000000 -0.024633 0.000000 0.076916
#
#
# Mechanical properties :
#
#
# Convention : Reuss Voigt Hill
#
# Bulk Modulus (GPa) = 56.84883 71.76230 64.30556
# Shear Modulus (GPa) = 13.47587 27.86004 20.66796
#
# Velocity S-wave (km/s) = 2.36851 3.40555 2.93322
# Velocity P-wave (km/s) = 5.58078 6.73330 6.18395
#
# Compressibility (1/GPa) = 0.01759051
#
# Stress axis : x y z
#
# Youngs Moduli (GPa) = 48.72213 30.26158 67.67789
#
# Poissons Ratio (x) = 0.27008 0.20474
# Poissons Ratio (y) = 0.43483 0.90876
# Poissons Ratio (z) = 0.14739 0.40634
#
# Static dielectric constant tensor:
#      x y z
#    x 4.019180 0.000000 -0.152350 
#    y 0.000000 4.657980 0.000000 
#    z -0.152350 0.000000 4.534800 
# 
# 
# High freq. dielectric constant tensor:
#      x y z
#    x 1.945290 0.000000 -0.024170 
#    y 0.000000 1.965100 0.000000 
#    z -0.024170 0.000000 1.972990 
# 
# From -- ./inp_files/121767.got.cif
#   From: 2010.06.25/outbox.cif.g09.slc.cpg/sg15_61_cif.got.tgz:121767.got - 2010.06.28 07:06:18.
