data_PCOD8142126
_publ_section_title
;
Structure prediction by ZEFSAII (Michael W. Deem and Ramdas Pophale) SiO2 
 PCOD8142126
Probable space group: C 2/C
;
_chemical_formula_sum "Si O2"
_cell_formula_units_Z 60
_cell_length_a 24.669119
_cell_length_b 8.368765
_cell_length_c 20.078233
_cell_angle_alpha 90.000000
_cell_angle_beta 135.355069
_cell_angle_gamma 90.000000
_cell_volume 2912.845032
_symmetry_space_group_name_H-M "C 2/C"
_symmetry_group_IT_number 15
_symmetry_cell_setting 'monoclinic'
loop_
_space_group_symop_operation_xyz
x,y,z
-x,y,1/2-z
-x,-y,-z
x,-y,1/2+z
1/2+x,1/2+y,z
1/2-x,1/2+y,1/2-z
1/2-x,1/2-y,-z
1/2+x,1/2-y,1/2+z
loop_
_atom_site_type_symbol
_atom_site_label
_atom_site_fract_x
_atom_site_fract_y
_atom_site_fract_z
Si Si1 0.637020 0.708527 0.644914
Si Si2 0.708837 0.949569 0.232457
Si Si3 0.251347 0.976191 0.093973
Si Si4 0.093939 0.194465 0.460330
Si Si5 0.160075 0.271915 0.061097
Si Si6 0.000000 0.714022 0.250000
Si Si7 0.369079 0.998476 0.080547
Si Si8 0.997420 0.891608 0.114682
O O1 0.698382 0.562185 0.698089
O O2 0.600446 0.750070 0.541966
O O3 0.569678 0.644506 0.632177
O O4 0.678809 0.869889 0.704230
O O5 0.666558 0.834515 0.142871
O O6 0.700136 0.893161 0.302662
O O7 0.229878 0.154879 0.100983
O O8 0.298593 0.963797 0.067667
O O9 0.172519 0.889270 0.006289
O O10 0.082986 0.343347 0.401058
O O11 0.019501 0.079440 0.389794
O O12 0.165401 0.420713 0.015699
O O13 0.077582 0.187244 0.984150
O O14 0.925528 0.609917 0.170882
O O15 0.020121 0.823276 0.205557
#
# Coordination Sequence:
#
# PCOD8142126 Si02
#       8
#     8   8   8   8   8   4   8   8
#     4  11  22  41  63  93 130 168 212 270 323 377
#     4  11  21  38  62  96 127 164 224 272 310 387
#     4  10  21  38  62  90 130 166 208 268 332 373
#     4  10  22  40  62  92 125 160 218 270 309 395
#     4  10  21  39  63  91 123 171 221 264 315 400
#     4  10  24  40  60  90 124 166 214 260 314 400
#     4  11  21  41  62  91 123 166 216 271 322 375
#     4  10  23  44  63  87 129 175 210 256 338 383
#
# _framework density 20.598417999999999
#
# number of rings (size 3 to 8) (size 9 to 14) (size 15 to 20)
#    0.000    1.600    2.667    2.000    0.000    1.067 
#    2.400    1.333    0.000    0.000    0.000    0.000 
#    0.000    0.000    0.000    0.000    0.000    0.000 
#
# Total GULP energy -371875.870174 kJ/mol
# GULP energy per Si atom -12395.862339 kJ/mol
# Density = 2.055154 g / cm^3
# Si number density = 20.598418 Si / 1000 Ang^3
#
#
#
# Elastic Constant Matrix: (Units=GPa)
#
#
# Indices 1 2 3 4 5 6 
#
# 1 108.4921 36.2835 25.3630 0.0000 11.0503 0.0000
# 2 36.2835 88.0797 32.4117 0.0000 -4.1191 0.0000
# 3 25.3630 32.4117 89.0380 0.0000 -8.9755 0.0000
# 4 0.0000 0.0000 0.0000 -7.7678 0.0000 9.9611
# 5 11.0503 -4.1191 -8.9755 0.0000 14.1863 0.0000
# 6 0.0000 0.0000 0.0000 9.9611 0.0000 10.6607
#
#
#
# Elastic Compliance Matrix: (Units=1/GPa)
#
#
# Indices 1 2 3 4 5 6 
#
# 1 0.012971 -0.004751 -0.003335 0.000000 -0.013593 0.000000
# 2 -0.004751 0.014859 -0.003469 0.000000 0.005821 0.000000
# 3 -0.003335 -0.003469 0.014531 0.000000 0.010784 0.000000
# 4 0.000000 0.000000 0.000000 -0.058565 0.000000 0.054721
# 5 -0.013593 0.005821 0.010784 0.000000 0.089592 0.000000
# 6 0.000000 0.000000 0.000000 0.054721 0.000000 0.042672
#
#
# Mechanical properties :
#
#
# Convention : Reuss Voigt Hill
#
# Bulk Modulus (GPa) = 51.94885 52.63624 52.29255
# Shear Modulus (GPa) = 34.34344 16.18597 25.26470
#
# Velocity S-wave (km/s) = 4.08767 2.80623 3.50599
# Velocity P-wave (km/s) = 6.89589 6.00907 6.46770
#
# Compressibility (1/GPa) = 0.01924970
#
# Stress axis : x y z
#
# Youngs Moduli (GPa) = 77.09779 67.29774 68.81777
#
# Poissons Ratio (x) = 0.31976 0.22953
# Poissons Ratio (y) = 0.36632 0.23872
# Poissons Ratio (z) = 0.25715 0.23345
#
# Static dielectric constant tensor:
#      x y z
#    x 3.711120 0.000000 -0.248000 
#    y 0.000000 3.836220 0.000000 
#    z -0.248000 0.000000 3.894830 
# 
# 
# High freq. dielectric constant tensor:
#      x y z
#    x 1.802970 0.000000 -0.014060 
#    y 0.000000 1.804490 0.000000 
#    z -0.014060 0.000000 1.812810 
# 
# From -- ./inp_files/255210.got.cif
#   From: 2010.06.25/outbox.cif.g09.slc.cpg/sg15_128_cif.got.tgz:255210.got - 2010.06.28 07:06:18.
