data_PCOD8142087
_publ_section_title
;
Structure prediction by ZEFSAII (Michael W. Deem and Ramdas Pophale) SiO2 
 PCOD8142087
Probable space group: C 2/C
;
_chemical_formula_sum "Si O2"
_cell_formula_units_Z 56
_cell_length_a 9.241562
_cell_length_b 17.043051
_cell_length_c 17.448024
_cell_angle_alpha 90.000000
_cell_angle_beta 68.670153
_cell_angle_gamma 90.000000
_cell_volume 2559.898275
_symmetry_space_group_name_H-M "C 2/C"
_symmetry_group_IT_number 15
_symmetry_cell_setting 'monoclinic'
loop_
_space_group_symop_operation_xyz
x,y,z
-x,y,1/2-z
-x,-y,-z
x,-y,1/2+z
1/2+x,1/2+y,z
1/2-x,1/2+y,1/2-z
1/2-x,1/2-y,-z
1/2+x,1/2-y,1/2+z
loop_
_atom_site_type_symbol
_atom_site_label
_atom_site_fract_x
_atom_site_fract_y
_atom_site_fract_z
Si Si1 0.950389 0.190594 0.111753
Si Si2 0.835926 0.933903 0.751926
Si Si3 0.845366 0.418076 0.233548
Si Si4 0.207665 0.336557 0.902377
Si Si5 0.168754 0.166050 0.522791
Si Si6 0.079242 0.794198 0.314053
Si Si7 0.566055 0.863174 0.436535
O O1 0.858769 0.145198 0.196926
O O2 0.890040 0.279147 0.112306
O O3 0.132360 0.196790 0.094501
O O4 0.915861 0.142082 0.040027
O O5 0.738038 0.913016 0.846010
O O6 0.000000 0.968038 0.750000
O O7 0.742890 0.001758 0.724994
O O8 0.730087 0.345586 0.267771
O O9 0.907803 0.426773 0.134566
O O10 0.000000 0.402359 0.250000
O O11 0.120799 0.275226 0.864511
O O12 0.105927 0.360092 0.995686
O O13 0.250000 0.250000 0.500000
O O14 0.314997 0.111789 0.518140
O O15 0.047977 0.155670 0.615608
O O16 0.000000 0.763457 0.250000
#
# Coordination Sequence:
#
# PCOD8142087 Si02
#       7
#     8   8   8   8   8   8   8
#     4  10  21  42  67  96 131 164 216 267 326 381
#     4  10  25  46  62  90 131 177 215 262 328 389
#     4  12  27  43  65  93 129 174 222 267 319 390
#     4  11  23  39  70  98 128 167 211 275 322 382
#     4  10  21  38  62 102 128 162 208 263 325 380
#     4  12  23  40  68  98 132 172 212 266 328 379
#     4  11  22  40  66 100 128 161 215 272 321 385
#
# _framework density 21.875869999999999
#
# number of rings (size 3 to 8) (size 9 to 14) (size 15 to 20)
#    0.000    1.143    4.286    2.571    4.000    3.429 
#    0.000    0.714    0.000    0.000    0.000    0.000 
#    0.000    0.000    0.000    0.000    0.000    0.000 
#
# Total GULP energy -346996.213825 kJ/mol
# GULP energy per Si atom -12392.721922 kJ/mol
# Density = 2.182608 g / cm^3
# Si number density = 21.875870 Si / 1000 Ang^3
#
#
#
# Elastic Constant Matrix: (Units=GPa)
#
#
# Indices 1 2 3 4 5 6 
#
# 1 134.1099 19.1013 37.0503 0.0000 9.9012 0.0000
# 2 19.1013 39.2048 18.9556 0.0000 -13.4351 0.0000
# 3 37.0503 18.9556 122.0637 0.0000 -11.1230 0.0000
# 4 0.0000 0.0000 0.0000 13.6166 0.0000 -0.2572
# 5 9.9012 -13.4351 -11.1230 0.0000 45.5217 0.0000
# 6 0.0000 0.0000 0.0000 -0.2572 0.0000 15.5810
#
#
#
# Elastic Compliance Matrix: (Units=1/GPa)
#
#
# Indices 1 2 3 4 5 6 
#
# 1 0.009062 -0.004599 -0.002393 0.000000 -0.003913 0.000000
# 2 -0.004599 0.032471 -0.002743 0.000000 0.009913 0.000000
# 3 -0.002393 -0.002743 0.009531 0.000000 0.002040 0.000000
# 4 0.000000 0.000000 0.000000 0.073463 0.000000 0.001213
# 5 -0.003913 0.009913 0.002040 0.000000 0.026243 0.000000
# 6 0.000000 0.000000 0.000000 0.001213 0.000000 0.064201
#
#
# Mechanical properties :
#
#
# Convention : Reuss Voigt Hill
#
# Bulk Modulus (GPa) = 31.65219 49.51033 40.58126
# Shear Modulus (GPa) = 20.41055 29.62859 25.01957
#
# Velocity S-wave (km/s) = 3.05785 3.68420 3.38554
# Velocity P-wave (km/s) = 5.19304 6.38587 5.82009
#
# Compressibility (1/GPa) = 0.03159339
#
# Stress axis : x y z
#
# Youngs Moduli (GPa) = 110.35632 30.79638 104.92495
#
# Poissons Ratio (x) = 0.14163 0.25107
# Poissons Ratio (y) = 0.50752 0.28784
# Poissons Ratio (z) = 0.26407 0.08448
#
# Static dielectric constant tensor:
#      x y z
#    x 4.548170 0.000000 0.321940 
#    y 0.000000 3.460520 0.000000 
#    z 0.321940 0.000000 4.469000 
# 
# 
# High freq. dielectric constant tensor:
#      x y z
#    x 1.882800 0.000000 -0.001130 
#    y 0.000000 1.813580 0.000000 
#    z -0.001130 0.000000 1.873970 
# 
# From -- ./inp_files/190888.got.cif
#   From: 2010.06.25/outbox.cif.g09.slc.cpg/sg15_96_cif.got.tgz:190888.got - 2010.06.28 07:06:18.
