data_PCOD8142760
_publ_section_title
;
Structure prediction by ZEFSAII (Michael W. Deem and Ramdas Pophale) SiO2 
 PCOD8142760
Probable space group: C 2/C
;
_chemical_formula_sum "Si O2"
_cell_formula_units_Z 60
_cell_length_a 8.567673
_cell_length_b 28.003093
_cell_length_c 11.340375
_cell_angle_alpha 90.000000
_cell_angle_beta 89.623148
_cell_angle_gamma 90.000000
_cell_volume 2720.739157
_symmetry_space_group_name_H-M "C 2/C"
_symmetry_group_IT_number 15
_symmetry_cell_setting 'monoclinic'
loop_
_space_group_symop_operation_xyz
x,y,z
-x,y,1/2-z
-x,-y,-z
x,-y,1/2+z
1/2+x,1/2+y,z
1/2-x,1/2+y,1/2-z
1/2-x,1/2-y,-z
1/2+x,1/2-y,1/2+z
loop_
_atom_site_type_symbol
_atom_site_label
_atom_site_fract_x
_atom_site_fract_y
_atom_site_fract_z
Si Si1 0.418413 0.040505 0.367823
Si Si2 0.131778 0.798556 0.667209
Si Si3 0.276672 0.156677 0.581017
Si Si4 0.319115 0.944266 0.448812
Si Si5 0.167835 0.214821 0.778802
Si Si6 0.500000 0.898952 0.250000
Si Si7 0.843959 0.358054 0.821991
Si Si8 0.429611 0.363873 0.050862
O O1 0.500000 0.018743 0.250000
O O2 0.552851 0.063738 0.450512
O O3 0.311532 0.085434 0.335821
O O4 0.306652 0.002328 0.435876
O O5 0.246223 0.753915 0.640570
O O6 0.203356 0.840452 0.744557
O O7 0.072545 0.823458 0.549753
O O8 0.000000 0.775485 0.750000
O O9 0.249728 0.206278 0.651214
O O10 0.413110 0.130141 0.649250
O O11 0.341926 0.167550 0.449969
O O12 0.112464 0.126341 0.577004
O O13 0.373579 0.930187 0.318563
O O14 0.160750 0.913909 0.478273
O O15 0.157684 0.162437 0.839997
O O16 0.000000 0.236931 0.750000
O O17 0.000000 0.346347 0.750000
#
# Coordination Sequence:
#
# PCOD8142760 Si02
#       8
#     8   8   8   8   8   4   8   8
#     4  10  21  39  65 103 134 174 233 272 323 401
#     4  12  25  43  66  96 135 176 220 279 343 402
#     4  11  24  43  67  97 135 172 231 278 340 399
#     4  11  22  38  71  97 133 180 222 277 332 396
#     4  10  24  43  66  97 132 178 226 277 333 407
#     4  12  22  40  68 100 128 176 230 282 326 406
#     4  11  23  43  67  94 135 182 222 276 336 401
#     4  11  23  46  66  97 141 177 218 285 341 401
#
# _framework density 22.05283
#
# number of rings (size 3 to 8) (size 9 to 14) (size 15 to 20)
#    0.000    1.067    4.667    2.400    0.933    0.533 
#    2.400    0.667    2.933    0.000    0.000    0.000 
#    0.000    0.000    0.000    0.000    0.000    0.000 
#
# Total GULP energy -371734.031908 kJ/mol
# GULP energy per Si atom -12391.134397 kJ/mol
# Density = 2.200264 g / cm^3
# Si number density = 22.052830 Si / 1000 Ang^3
#
#
#
# Elastic Constant Matrix: (Units=GPa)
#
#
# Indices 1 2 3 4 5 6 
#
# 1 83.8093 37.0291 22.1450 0.0000 6.2894 0.0000
# 2 37.0291 88.6096 14.0599 0.0000 6.7464 0.0000
# 3 22.1450 14.0599 96.7801 0.0000 -8.6180 0.0000
# 4 0.0000 0.0000 0.0000 54.6302 0.0000 -19.9544
# 5 6.2894 6.7464 -8.6180 0.0000 43.0716 0.0000
# 6 0.0000 0.0000 0.0000 -19.9544 0.0000 46.4218
#
#
#
# Elastic Compliance Matrix: (Units=1/GPa)
#
#
# Indices 1 2 3 4 5 6 
#
# 1 0.015408 -0.005842 -0.002847 0.000000 -0.001904 0.000000
# 2 -0.005842 0.013972 -0.000827 0.000000 -0.001501 0.000000
# 3 -0.002847 -0.000827 0.011355 0.000000 0.002817 0.000000
# 4 0.000000 0.000000 0.000000 0.021714 0.000000 0.009334
# 5 -0.001904 -0.001501 0.002817 0.000000 0.024294 0.000000
# 6 0.000000 0.000000 0.000000 0.009334 0.000000 0.025554
#
#
# Mechanical properties :
#
#
# Convention : Reuss Voigt Hill
#
# Bulk Modulus (GPa) = 46.07325 46.18524 46.12925
# Shear Modulus (GPa) = 36.08461 41.88905 38.98683
#
# Velocity S-wave (km/s) = 4.04948 4.36304 4.20918
# Velocity P-wave (km/s) = 6.54232 6.80955 6.67727
#
# Compressibility (1/GPa) = 0.02170457
#
# Stress axis : x y z
#
# Youngs Moduli (GPa) = 64.90060 71.56997 88.06700
#
# Poissons Ratio (x) = 0.41813 0.25068
# Poissons Ratio (y) = 0.37917 0.07280
# Poissons Ratio (z) = 0.18474 0.05917
#
# Static dielectric constant tensor:
#      x y z
#    x 4.379520 0.000000 -0.298490 
#    y 0.000000 3.797440 0.000000 
#    z -0.298490 0.000000 4.394860 
# 
# 
# High freq. dielectric constant tensor:
#      x y z
#    x 1.849830 0.000000 -0.000450 
#    y 0.000000 1.855480 0.000000 
#    z -0.000450 0.000000 1.887850 
# 
# From -- ./inp_files/82260.got.cif
#   From: 2010.06.25/outbox.cif.g09.slc.cpg/sg15_42_cif.got.tgz:82260.got - 2010.06.28 07:06:18.
