data_PCOD8142208
_publ_section_title
;
Structure prediction by ZEFSAII (Michael W. Deem and Ramdas Pophale) SiO2 
 PCOD8142208
Probable space group: C 2/C
;
_chemical_formula_sum "Si O2"
_cell_formula_units_Z 52
_cell_length_a 25.166836
_cell_length_b 12.659882
_cell_length_c 11.475783
_cell_angle_alpha 90.000000
_cell_angle_beta 42.286534
_cell_angle_gamma 90.000000
_cell_volume 2460.093100
_symmetry_space_group_name_H-M "C 2/C"
_symmetry_group_IT_number 15
_symmetry_cell_setting 'monoclinic'
loop_
_space_group_symop_operation_xyz
x,y,z
-x,y,1/2-z
-x,-y,-z
x,-y,1/2+z
1/2+x,1/2+y,z
1/2-x,1/2+y,1/2-z
1/2-x,1/2-y,-z
1/2+x,1/2-y,1/2+z
loop_
_atom_site_type_symbol
_atom_site_label
_atom_site_fract_x
_atom_site_fract_y
_atom_site_fract_z
Si Si1 0.227523 0.636477 0.220791
Si Si2 0.640610 0.465155 0.138874
Si Si3 0.500000 0.584862 0.250000
Si Si4 0.883770 0.529758 0.708604
Si Si5 0.404394 0.693238 0.607081
Si Si6 0.752053 0.635679 0.048297
Si Si7 0.506142 0.146348 0.376309
O O1 0.169243 0.539176 0.292377
O O2 0.177095 0.744418 0.288833
O O3 0.264238 0.633284 0.288864
O O4 0.304990 0.624392 0.013150
O O5 0.562911 0.501591 0.197542
O O6 0.618643 0.418227 0.299841
O O7 0.686840 0.572612 0.083335
O O8 0.458013 0.665789 0.408314
O O9 0.945569 0.460474 0.680385
O O10 0.920384 0.622411 0.569372
O O11 0.836865 0.584570 0.888544
O O12 0.455536 0.755737 0.619310
O O13 0.750000 0.750000 0.000000
O O14 0.500000 0.173881 0.250000
#
# Coordination Sequence:
#
# PCOD8142208 Si02
#       7
#     8   8   4   8   8   8   8
#     4  10  22  43  67  94 129 172 218 283 322 398
#     4  11  25  45  66  95 134 177 223 269 337 403
#     4  12  26  46  68  96 144 176 220 282 336 406
#     4   9  21  39  60  93 128 167 217 267 332 382
#     4  11  25  41  68  98 132 176 222 269 343 392
#     4  11  23  38  65  93 126 167 222 265 330 390
#     4  10  21  38  63  94 129 169 217 271 328 397
#
# _framework density 21.137412000000001
#
# number of rings (size 3 to 8) (size 9 to 14) (size 15 to 20)
#    0.000    1.538    0.000    3.692    5.385    2.462 
#    2.769    0.000    0.000    0.000    0.000    0.000 
#    0.000    0.000    0.000    0.000    0.000    0.000 
#
# Total GULP energy -322371.436280 kJ/mol
# GULP energy per Si atom -12398.901395 kJ/mol
# Density = 2.108930 g / cm^3
# Si number density = 21.137412 Si / 1000 Ang^3
#
#
#
# Elastic Constant Matrix: (Units=GPa)
#
#
# Indices 1 2 3 4 5 6 
#
# 1 98.0603 27.7808 54.6581 0.0000 -0.0713 0.0000
# 2 27.7808 97.6124 50.2114 0.0000 -2.8649 0.0000
# 3 54.6581 50.2114 132.9946 0.0000 8.0452 0.0000
# 4 0.0000 0.0000 0.0000 24.3260 0.0000 -6.6629
# 5 -0.0713 -2.8649 8.0452 0.0000 38.6629 0.0000
# 6 0.0000 0.0000 0.0000 -6.6629 0.0000 19.7038
#
#
#
# Elastic Compliance Matrix: (Units=1/GPa)
#
#
# Indices 1 2 3 4 5 6 
#
# 1 0.013381 -0.001140 -0.005130 0.000000 0.001008 0.000000
# 2 -0.001140 0.012960 -0.004540 0.000000 0.001903 0.000000
# 3 -0.005130 -0.004540 0.011507 0.000000 -0.002740 0.000000
# 4 0.000000 0.000000 0.000000 0.045304 0.000000 0.015320
# 5 0.001008 0.001903 -0.002740 0.000000 0.026578 0.000000
# 6 0.000000 0.000000 0.000000 0.015320 0.000000 0.055932
#
#
# Mechanical properties :
#
#
# Convention : Reuss Voigt Hill
#
# Bulk Modulus (GPa) = 61.61743 65.99644 63.80693
# Shear Modulus (GPa) = 25.94837 29.60634 27.77736
#
# Velocity S-wave (km/s) = 3.50752 3.74660 3.62903
# Velocity P-wave (km/s) = 6.75409 7.07152 6.91463
#
# Compressibility (1/GPa) = 0.01622917
#
# Stress axis : x y z
#
# Youngs Moduli (GPa) = 74.73391 77.16032 86.90331
#
# Poissons Ratio (x) = 0.08795 0.44580
# Poissons Ratio (y) = 0.08519 0.39451
# Poissons Ratio (z) = 0.38337 0.35028
#
# Static dielectric constant tensor:
#      x y z
#    x 3.870330 0.000000 -0.132640 
#    y 0.000000 3.759090 0.000000 
#    z -0.132640 0.000000 4.098630 
# 
# 
# High freq. dielectric constant tensor:
#      x y z
#    x 1.831730 0.000000 -0.004140 
#    y 0.000000 1.831610 0.000000 
#    z -0.004140 0.000000 1.841720 
# 
# From -- ./inp_files/126421.got.cif
#   From: 2010.06.25/outbox.cif.g09.slc.cpg/sg15_64_cif.got.tgz:126421.got - 2010.06.28 07:06:18.
