data_PCOD8142011
_publ_section_title
;
Structure prediction by ZEFSAII (Michael W. Deem and Ramdas Pophale) SiO2 
 PCOD8142011
Probable space group: C 2/C
;
_chemical_formula_sum "Si O2"
_cell_formula_units_Z 28
_cell_length_a 9.932711
_cell_length_b 24.666400
_cell_length_c 9.918101
_cell_angle_alpha 90.000000
_cell_angle_beta 30.432348
_cell_angle_gamma 90.000000
_cell_volume 1230.833317
_symmetry_space_group_name_H-M "C 2/C"
_symmetry_group_IT_number 15
_symmetry_cell_setting 'monoclinic'
loop_
_space_group_symop_operation_xyz
x,y,z
-x,y,1/2-z
-x,-y,-z
x,-y,1/2+z
1/2+x,1/2+y,z
1/2-x,1/2+y,1/2-z
1/2-x,1/2-y,-z
1/2+x,1/2-y,1/2+z
loop_
_atom_site_type_symbol
_atom_site_label
_atom_site_fract_x
_atom_site_fract_y
_atom_site_fract_z
Si Si1 0.479168 0.274729 0.614177
Si Si2 0.500000 0.476615 0.750000
Si Si3 0.716699 0.080356 0.952561
Si Si4 0.743786 0.886414 0.137566
O O1 0.500000 0.253082 0.750000
O O2 0.669546 0.239327 0.349347
O O3 0.542524 0.338144 0.547714
O O4 0.255649 0.514719 0.911014
O O5 0.596305 0.439934 0.543030
O O6 0.623922 0.103706 0.889182
O O7 0.000000 0.107070 0.750000
O O8 0.500000 0.096642 0.250000
O O9 0.500000 0.872275 0.250000
#
# Coordination Sequence:
#
# PCOD8142011 Si02
#       4
#     8   4   8   8
#     4  10  21  38  60  96 130 155 203 273 324 364
#     4  10  24  40  66  96 130 168 214 266 308 384
#     4  10  26  45  61  90 140 172 207 259 319 380
#     4  12  24  39  71  97 126 169 219 261 320 377
#
# _framework density 22.748816000000001
#
# number of rings (size 3 to 8) (size 9 to 14) (size 15 to 20)
#    0.857    0.571    1.429    4.286    4.000    2.286 
#    0.000    0.000    0.000    5.143    0.000    0.000 
#    0.000    0.000    0.000    0.000    0.000    0.000 
#
# Total GULP energy -173528.965502 kJ/mol
# GULP energy per Si atom -12394.926107 kJ/mol
# Density = 2.269704 g / cm^3
# Si number density = 22.748816 Si / 1000 Ang^3
#
#
#
# Elastic Constant Matrix: (Units=GPa)
#
#
# Indices 1 2 3 4 5 6 
#
# 1 83.3412 37.6340 60.8186 -0.0001 19.0647 0.0000
# 2 37.6340 95.0107 47.8908 0.0000 2.8961 0.0000
# 3 60.8186 47.8908 209.8906 -0.0001 4.7875 0.0000
# 4 -0.0001 0.0000 -0.0001 0.5700 0.0001 -14.0044
# 5 19.0647 2.8961 4.7875 0.0001 34.6873 0.0000
# 6 0.0000 0.0000 0.0000 -14.0044 0.0000 -1.6056
#
#
#
# Elastic Compliance Matrix: (Units=1/GPa)
#
#
# Indices 1 2 3 4 5 6 
#
# 1 0.019813 -0.005387 -0.004287 0.000000 -0.009848 0.000000
# 2 -0.005387 0.013371 -0.001537 0.000000 0.002056 0.000000
# 3 -0.004287 -0.001537 0.006321 0.000000 0.001612 0.000000
# 4 0.000000 0.000000 0.000000 0.008148 0.000000 -0.071075
# 5 -0.009848 0.002056 0.001612 0.000000 0.033847 0.000000
# 6 0.000000 0.000000 0.000000 -0.071075 0.000000 -0.002893
#
#
# Mechanical properties :
#
#
# Convention : Reuss Voigt Hill
#
# Bulk Modulus (GPa) = 58.53957 75.65882 67.09919
# Shear Modulus (GPa) = 46.85030 22.85695 34.85363
#
# Velocity S-wave (km/s) = 4.54305 3.17322 3.91846
# Velocity P-wave (km/s) = 7.30123 6.83786 7.07334
#
# Compressibility (1/GPa) = 0.01708246
#
# Stress axis : x y z
#
# Youngs Moduli (GPa) = 50.47256 74.78997 158.21327
#
# Poissons Ratio (x) = 0.40287 0.67831
# Poissons Ratio (y) = 0.27188 0.24315
# Poissons Ratio (z) = 0.21639 0.11494
#
# Static dielectric constant tensor:
#      x y z
#    x 3.540390 0.000000 -0.170320 
#    y 0.000000 3.852580 0.000000 
#    z -0.170320 0.000000 4.481140 
# 
# 
# High freq. dielectric constant tensor:
#      x y z
#    x 1.839040 0.000000 -0.010050 
#    y 0.000000 1.889460 0.000000 
#    z -0.010050 0.000000 1.922070 
# 
# From -- ./inp_files/24811.got.cif
#   From: 2010.06.25/outbox.cif.g09.slc.cpg/sg15_13_cif.got.tgz:24811.got - 2010.06.28 07:06:18.
