data_PCOD8142643
_publ_section_title
;
Structure prediction by ZEFSAII (Michael W. Deem and Ramdas Pophale) SiO2 
 PCOD8142643
Probable space group: C 2/C
;
_chemical_formula_sum "Si O2"
_cell_formula_units_Z 44
_cell_length_a 21.081824
_cell_length_b 11.019175
_cell_length_c 13.561207
_cell_angle_alpha 90.000000
_cell_angle_beta 135.822283
_cell_angle_gamma 90.000000
_cell_volume 2195.419388
_symmetry_space_group_name_H-M "C 2/C"
_symmetry_group_IT_number 15
_symmetry_cell_setting 'monoclinic'
loop_
_space_group_symop_operation_xyz
x,y,z
-x,y,1/2-z
-x,-y,-z
x,-y,1/2+z
1/2+x,1/2+y,z
1/2-x,1/2+y,1/2-z
1/2-x,1/2-y,-z
1/2+x,1/2-y,1/2+z
loop_
_atom_site_type_symbol
_atom_site_label
_atom_site_fract_x
_atom_site_fract_y
_atom_site_fract_z
Si Si1 0.695880 0.997596 0.838626
Si Si2 0.864706 0.044926 0.159067
Si Si3 0.339576 0.812503 0.556179
Si Si4 0.602232 0.182290 0.854508
Si Si5 0.000000 0.139067 0.750000
Si Si6 0.711528 0.029797 0.127180
O O1 0.629041 0.901777 0.819637
O O2 0.702568 0.960253 0.733479
O O3 0.651458 0.129254 0.810892
O O4 0.795070 0.989503 0.000349
O O5 0.896893 0.173402 0.153149
O O6 0.815820 0.053959 0.210739
O O7 0.949400 0.952455 0.269760
O O8 0.250000 0.750000 0.500000
O O9 0.421118 0.722809 0.614917
O O10 0.317592 0.893675 0.435795
O O11 0.500000 0.135353 0.750000
O O12 0.652665 0.135161 0.009221
#
# Coordination Sequence:
#
# PCOD8142643 Si02
#       6
#     8   8   8   8   4   8
#     4  10  22  40  62  87 117 159 199 241 299 354
#     4  10  21  42  63  82 119 159 197 244 293 353
#     4  10  21  39  63  88 122 158 195 246 302 352
#     4  10  21  40  62  88 117 157 198 246 297 353
#     4  12  20  42  64  86 122 154 202 250 300 344
#     4  10  22  40  62  87 117 159 199 241 299 354
#
# _framework density 20.041729
#
# number of rings (size 3 to 8) (size 9 to 14) (size 15 to 20)
#    0.000    2.182    4.545    2.182    5.091    3.636 
#    0.000    0.909    0.000    0.000    0.000    0.000 
#    0.000    0.000    0.000    0.000    0.000    0.000 
#
# Total GULP energy -272537.641551 kJ/mol
# GULP energy per Si atom -12388.074616 kJ/mol
# Density = 1.999611 g / cm^3
# Si number density = 20.041729 Si / 1000 Ang^3
#
#
#
# Elastic Constant Matrix: (Units=GPa)
#
#
# Indices 1 2 3 4 5 6 
#
# 1 115.5868 27.5424 61.9925 0.0000 -2.9038 0.0000
# 2 27.5424 111.0659 26.4964 0.0000 10.7692 0.0000
# 3 61.9925 26.4964 50.6154 0.0000 -0.6896 0.0000
# 4 0.0000 0.0000 0.0000 16.9436 0.0000 16.0108
# 5 -2.9038 10.7692 -0.6896 0.0000 50.6395 0.0000
# 6 0.0000 0.0000 0.0000 16.0108 0.0000 35.3934
#
#
#
# Elastic Compliance Matrix: (Units=1/GPa)
#
#
# Indices 1 2 3 4 5 6 
#
# 1 0.025402 0.001195 -0.031727 0.000000 0.000770 0.000000
# 2 0.001195 0.010610 -0.007049 0.000000 -0.002284 0.000000
# 3 -0.031727 -0.007049 0.062313 0.000000 0.000528 0.000000
# 4 0.000000 0.000000 0.000000 0.103084 0.000000 -0.046632
# 5 0.000770 -0.002284 0.000528 0.000000 0.020285 0.000000
# 6 0.000000 0.000000 0.000000 -0.046632 0.000000 0.049349
#
#
# Mechanical properties :
#
#
# Convention : Reuss Voigt Hill
#
# Bulk Modulus (GPa) = 43.17236 56.59230 49.88233
# Shear Modulus (GPa) = 14.12721 31.34442 22.73581
#
# Velocity S-wave (km/s) = 2.65786 3.95898 3.37177
# Velocity P-wave (km/s) = 5.56839 7.01403 6.33259
#
# Compressibility (1/GPa) = 0.02316297
#
# Stress axis : x y z
#
# Youngs Moduli (GPa) = 39.36636 94.24677 16.04803
#
# Poissons Ratio (x) = -0.11262 0.50916
# Poissons Ratio (y) = -0.04704 0.11312
# Poissons Ratio (z) = 1.24899 0.66435
#
# Static dielectric constant tensor:
#      x y z
#    x 3.683260 0.000000 0.318580 
#    y 0.000000 4.138630 0.000000 
#    z 0.318580 0.000000 3.287270 
# 
# 
# High freq. dielectric constant tensor:
#      x y z
#    x 1.780820 0.000000 0.026550 
#    y 0.000000 1.808890 0.000000 
#    z 0.026550 0.000000 1.738430 
# 
# From -- ./inp_files/173033.got.cif
#   From: 2010.06.25/outbox.cif.g09.slc.cpg/sg15_87_cif.got.tgz:173033.got - 2010.06.28 07:06:18.
