data_PCOD8142639
_publ_section_title
;
Structure prediction by ZEFSAII (Michael W. Deem and Ramdas Pophale) SiO2 
 PCOD8142639
Probable space group: C 2/C
;
_chemical_formula_sum "Si O2"
_cell_formula_units_Z 56
_cell_length_a 16.135659
_cell_length_b 9.670511
_cell_length_c 23.750894
_cell_angle_alpha 90.000000
_cell_angle_beta 45.110734
_cell_angle_gamma 90.000000
_cell_volume 2625.662026
_symmetry_space_group_name_H-M "C 2/C"
_symmetry_group_IT_number 15
_symmetry_cell_setting 'monoclinic'
loop_
_space_group_symop_operation_xyz
x,y,z
-x,y,1/2-z
-x,-y,-z
x,-y,1/2+z
1/2+x,1/2+y,z
1/2-x,1/2+y,1/2-z
1/2-x,1/2-y,-z
1/2+x,1/2-y,1/2+z
loop_
_atom_site_type_symbol
_atom_site_label
_atom_site_fract_x
_atom_site_fract_y
_atom_site_fract_z
Si Si1 0.713209 0.285601 0.939969
Si Si2 0.274714 0.993553 0.201642
Si Si3 0.759317 0.042594 0.495027
Si Si4 0.099869 0.260796 0.014766
Si Si5 0.369836 0.456469 0.335323
Si Si6 0.515125 0.876696 0.949105
Si Si7 0.653541 0.313958 0.844650
O O1 0.828476 0.197734 0.871004
O O2 0.672562 0.353973 0.900931
O O3 0.747817 0.393584 0.971769
O O4 0.608770 0.184626 0.013158
O O5 0.401853 0.069512 0.141183
O O6 0.198444 0.054954 0.288476
O O7 0.213551 0.025952 0.171379
O O8 0.281785 0.827800 0.205034
O O9 0.795177 0.154065 0.524643
O O10 0.635723 0.089387 0.525550
O O11 0.857620 0.044484 0.398491
O O12 0.983075 0.208000 0.101629
O O13 0.081155 0.262844 0.956322
O O14 0.500000 0.452142 0.250000
O O15 0.500000 0.000000 0.000000
#
# Coordination Sequence:
#
# PCOD8142639 Si02
#       7
#     8   8   8   8   8   8   8
#     4  10  23  39  63  94 121 164 218 261 317 379
#     4  11  22  40  66  90 126 166 212 259 326 376
#     4  11  22  39  63  94 125 166 212 254 323 388
#     4  10  21  39  63  87 125 164 206 262 309 386
#     4  11  22  39  61  89 129 163 202 260 321 380
#     4  11  18  40  68  84 116 167 212 256 308 379
#     4  10  23  41  62  94 128 163 216 266 318 378
#
# _framework density 21.327953999999998
#
# number of rings (size 3 to 8) (size 9 to 14) (size 15 to 20)
#    0.000    1.429    5.714    1.286    0.000    6.857 
#    5.143    0.000    0.000    0.000    0.000    0.000 
#    0.000    0.000    0.000    0.000    0.000    0.000 
#
# Total GULP energy -347077.915131 kJ/mol
# GULP energy per Si atom -12395.639826 kJ/mol
# Density = 2.127941 g / cm^3
# Si number density = 21.327954 Si / 1000 Ang^3
#
#
#
# Elastic Constant Matrix: (Units=GPa)
#
#
# Indices 1 2 3 4 5 6 
#
# 1 52.8878 5.7339 19.5907 0.0000 -0.3827 0.0000
# 2 5.7339 40.7854 2.2126 0.0000 -1.8515 0.0001
# 3 19.5907 2.2126 89.5661 0.0000 -11.1723 0.0000
# 4 0.0000 0.0000 0.0000 38.9765 0.0000 5.5547
# 5 -0.3827 -1.8515 -11.1723 0.0000 31.2974 0.0000
# 6 0.0000 0.0001 0.0000 5.5547 0.0000 32.5767
#
#
#
# Elastic Compliance Matrix: (Units=1/GPa)
#
#
# Indices 1 2 3 4 5 6 
#
# 1 0.020941 -0.002761 -0.004710 0.000000 -0.001589 0.000000
# 2 -0.002761 0.024966 0.000175 0.000000 0.001506 0.000000
# 3 -0.004710 0.000175 0.012753 0.000000 0.004505 0.000000
# 4 0.000000 0.000000 0.000000 0.026296 0.000000 -0.004484
# 5 -0.001589 0.001506 0.004505 0.000000 0.033629 0.000000
# 6 0.000000 0.000000 0.000000 -0.004484 0.000000 0.031461
#
#
# Mechanical properties :
#
#
# Convention : Reuss Voigt Hill
#
# Bulk Modulus (GPa) = 22.69269 26.47927 24.58598
# Shear Modulus (GPa) = 27.88219 30.95026 29.41622
#
# Velocity S-wave (km/s) = 3.61959 3.81354 3.71783
# Velocity P-wave (km/s) = 5.30392 5.64208 5.47561
#
# Compressibility (1/GPa) = 0.04406705
#
# Stress axis : x y z
#
# Youngs Moduli (GPa) = 47.75427 40.05524 78.41377
#
# Poissons Ratio (x) = 0.11057 0.36935
# Poissons Ratio (y) = 0.13183 -0.01371
# Poissons Ratio (z) = 0.22494 -0.00701
#
# Static dielectric constant tensor:
#      x y z
#    x 3.436880 0.000000 -0.731360 
#    y 0.000000 3.404170 0.000000 
#    z -0.731360 0.000000 2.924510 
# 
# 
# High freq. dielectric constant tensor:
#      x y z
#    x 1.848410 0.000000 -0.006130 
#    y 0.000000 1.831440 0.000000 
#    z -0.006130 0.000000 1.815800 
# 
# From -- ./inp_files/298502.got.cif
#   From: 2010.06.25/outbox.cif.g09.slc.cpg/sg15_150_cif.got.tgz:298502.got - 2010.06.28 07:06:18.
