data_PCOD8142231
_publ_section_title
;
Structure prediction by ZEFSAII (Michael W. Deem and Ramdas Pophale) SiO2 
 PCOD8142231
Probable space group: C 2/C
;
_chemical_formula_sum "Si O2"
_cell_formula_units_Z 56
_cell_length_a 25.101516
_cell_length_b 15.686179
_cell_length_c 9.548377
_cell_angle_alpha 90.000000
_cell_angle_beta 48.811503
_cell_angle_gamma 90.000000
_cell_volume 2829.309013
_symmetry_space_group_name_H-M "C 2/C"
_symmetry_group_IT_number 15
_symmetry_cell_setting 'monoclinic'
loop_
_space_group_symop_operation_xyz
x,y,z
-x,y,1/2-z
-x,-y,-z
x,-y,1/2+z
1/2+x,1/2+y,z
1/2-x,1/2+y,1/2-z
1/2-x,1/2-y,-z
1/2+x,1/2-y,1/2+z
loop_
_atom_site_type_symbol
_atom_site_label
_atom_site_fract_x
_atom_site_fract_y
_atom_site_fract_z
Si Si1 0.075756 0.237412 0.184369
Si Si2 0.000000 0.308600 0.750000
Si Si3 0.060385 0.453720 0.475561
Si Si4 0.500000 0.464598 0.250000
Si Si5 0.138818 0.064751 0.041144
Si Si6 0.585741 0.322097 0.978340
Si Si7 0.205500 0.940409 0.719793
Si Si8 0.630999 0.923296 0.075844
O O1 0.128828 0.165534 0.032043
O O2 0.072349 0.228579 0.357935
O O3 0.102876 0.329588 0.087548
O O4 0.000000 0.221407 0.250000
O O5 0.019042 0.366992 0.585726
O O6 0.067854 0.242932 0.639058
O O7 0.123796 0.438506 0.255470
O O8 0.087528 0.505299 0.564034
O O9 0.000000 0.500000 0.500000
O O10 0.562334 0.522531 0.206890
O O11 0.533773 0.404570 0.070548
O O12 0.190070 0.049454 0.083317
O O13 0.177886 0.026384 0.839761
O O14 0.666016 0.356498 0.851216
O O15 0.287768 0.929125 0.607368
#
# Coordination Sequence:
#
# PCOD8142231 Si02
#       8
#     8   4   8   4   8   8   8   8
#     4  11  22  35  60  94 116 149 203 261 294 340
#     4  11  20  40  61  90 114 152 211 250 304 345
#     4  12  23  41  66  89 116 160 206 261 300 349
#     4   9  18  36  61  90 122 156 195 252 300 351
#     4  10  21  38  64  88 122 160 205 244 297 363
#     4   9  21  36  61  87 122 159 193 248 299 363
#     4  10  23  42  59  89 124 169 195 234 309 375
#     4  12  25  42  62  89 129 158 202 249 307 368
#
# _framework density 19.792819999999999
#
# number of rings (size 3 to 8) (size 9 to 14) (size 15 to 20)
#    0.000    1.429    3.571    1.714    2.000    4.000 
#    2.571    0.000    0.000    2.571    0.000    0.000 
#    0.000    0.000    0.000    0.000    0.000    0.000 
#
# Total GULP energy -346934.772166 kJ/mol
# GULP energy per Si atom -12390.527577 kJ/mol
# Density = 1.974777 g / cm^3
# Si number density = 19.792820 Si / 1000 Ang^3
#
#
#
# Elastic Constant Matrix: (Units=GPa)
#
#
# Indices 1 2 3 4 5 6 
#
# 1 79.9391 21.2040 25.2940 0.0000 -5.2433 0.0000
# 2 21.2040 115.1671 45.7507 0.0000 4.7392 0.0000
# 3 25.2940 45.7507 94.9141 0.0000 -10.0193 0.0000
# 4 0.0000 0.0000 0.0000 36.6694 0.0000 5.9031
# 5 -5.2433 4.7392 -10.0193 0.0000 25.3037 0.0000
# 6 0.0000 0.0000 0.0000 5.9031 0.0000 12.6307
#
#
#
# Elastic Compliance Matrix: (Units=1/GPa)
#
#
# Indices 1 2 3 4 5 6 
#
# 1 0.013928 -0.001563 -0.002737 0.000000 0.002095 0.000000
# 2 -0.001563 0.011369 -0.005555 0.000000 -0.004653 0.000000
# 3 -0.002737 -0.005555 0.014603 0.000000 0.006255 0.000000
# 4 0.000000 0.000000 0.000000 0.029489 0.000000 -0.013782
# 5 0.002095 -0.004653 0.006255 0.000000 0.043302 0.000000
# 6 0.000000 0.000000 0.000000 -0.013782 0.000000 0.085614
#
#
# Mechanical properties :
#
#
# Convention : Reuss Voigt Hill
#
# Bulk Modulus (GPa) = 49.52962 52.72416 51.12689
# Shear Modulus (GPa) = 22.24748 28.10553 25.17651
#
# Velocity S-wave (km/s) = 3.35627 3.77236 3.57038
# Velocity P-wave (km/s) = 6.33228 6.75797 6.54858
#
# Compressibility (1/GPa) = 0.02018994
#
# Stress axis : x y z
#
# Youngs Moduli (GPa) = 71.79987 87.95923 68.47908
#
# Poissons Ratio (x) = 0.13750 0.18742
# Poissons Ratio (y) = 0.11224 0.38037
# Poissons Ratio (z) = 0.19651 0.48858
#
# Static dielectric constant tensor:
#      x y z
#    x 3.365750 0.000000 0.077050 
#    y 0.000000 4.430880 0.000000 
#    z 0.077050 0.000000 4.075550 
# 
# 
# High freq. dielectric constant tensor:
#      x y z
#    x 1.741750 0.000000 -0.007880 
#    y 0.000000 1.790790 0.000000 
#    z -0.007880 0.000000 1.778320 
# 
# From -- ./inp_files/56552.got.cif
#   From: 2010.06.25/outbox.cif.g09.slc.cpg/sg15_29_cif.got.tgz:56552.got - 2010.06.28 07:06:18.
