data_PCOD8142383
_publ_section_title
;
Structure prediction by ZEFSAII (Michael W. Deem and Ramdas Pophale) SiO2 
 PCOD8142383
Probable space group: C 2/C
;
_chemical_formula_sum "Si O2"
_cell_formula_units_Z 52
_cell_length_a 15.993380
_cell_length_b 30.009152
_cell_length_c 8.989315
_cell_angle_alpha 90.000000
_cell_angle_beta 36.084688
_cell_angle_gamma 90.000000
_cell_volume 2541.098062
_symmetry_space_group_name_H-M "C 2/C"
_symmetry_group_IT_number 15
_symmetry_cell_setting 'monoclinic'
loop_
_space_group_symop_operation_xyz
x,y,z
-x,y,1/2-z
-x,-y,-z
x,-y,1/2+z
1/2+x,1/2+y,z
1/2-x,1/2+y,1/2-z
1/2-x,1/2-y,-z
1/2+x,1/2-y,1/2+z
loop_
_atom_site_type_symbol
_atom_site_label
_atom_site_fract_x
_atom_site_fract_y
_atom_site_fract_z
Si Si1 0.793452 0.529438 0.719229
Si Si2 0.551387 0.940169 0.017335
Si Si3 0.129651 0.931762 0.221076
Si Si4 0.772948 0.869817 0.673019
Si Si5 0.000000 0.994093 0.750000
Si Si6 0.492972 0.647739 0.436115
Si Si7 0.641404 0.709922 0.637725
O O1 0.833472 0.477816 0.691382
O O2 0.776513 0.545447 0.571268
O O3 0.914783 0.561646 0.608154
O O4 0.639464 0.536085 0.020780
O O5 0.500000 0.955803 0.250000
O O6 0.618336 0.890603 0.925935
O O7 0.085898 0.898258 0.415647
O O8 0.020704 0.972850 0.362181
O O9 0.141121 0.906557 0.046556
O O10 0.763839 0.825709 0.587778
O O11 0.850510 0.857906 0.716259
O O12 0.500000 0.656656 0.250000
O O13 0.409010 0.689286 0.632049
O O14 0.500000 0.724001 0.750000
O O15 0.750000 0.750000 0.500000
#
# Coordination Sequence:
#
# PCOD8142383 Si02
#       7
#     8   8   8   8   4   8   8
#     4  11  25  35  59  83 121 172 227 275 322 384
#     4  11  24  41  54  84 129 168 217 277 333 364
#     4  11  20  37  59  86 117 165 223 266 319 375
#     4  10  21  43  64  86 130 171 208 263 327 394
#     4  12  20  40  58  86 114 170 226 278 328 378
#     4  10  21  38  68  96 125 165 215 265 313 384
#     4   9  20  44  71 100 131 168 206 260 327 404
#
# _framework density 20.463594000000001
#
# number of rings (size 3 to 8) (size 9 to 14) (size 15 to 20)
#    0.000    1.538    3.077    2.308    5.385    0.000 
#    5.538    3.846    0.000    0.000    0.000    0.000 
#    0.000    0.000    0.000    0.000    0.000    0.000 
#
# Total GULP energy -322162.118682 kJ/mol
# GULP energy per Si atom -12390.850719 kJ/mol
# Density = 2.041702 g / cm^3
# Si number density = 20.463594 Si / 1000 Ang^3
#
#
#
# Elastic Constant Matrix: (Units=GPa)
#
#
# Indices 1 2 3 4 5 6 
#
# 1 145.0308 61.6588 55.9160 0.0000 1.9491 0.0000
# 2 61.6588 101.3752 40.9568 0.0000 -10.2771 0.0000
# 3 55.9160 40.9568 93.3888 0.0000 -6.8409 0.0000
# 4 0.0000 0.0000 0.0000 1055.8034 0.0000-1058.7564
# 5 1.9491 -10.2771 -6.8409 0.0000 41.2410 0.0000
# 6 0.0000 0.0000 0.0000-1058.7564 0.0000 1101.8923
#
#
#
# Elastic Compliance Matrix: (Units=1/GPa)
#
#
# Indices 1 2 3 4 5 6 
#
# 1 0.010768 -0.005011 -0.004432 0.000000 -0.002493 0.000000
# 2 -0.005011 0.014511 -0.003119 0.000000 0.003335 0.000000
# 3 -0.004432 -0.003119 0.014868 0.000000 0.001899 0.000000
# 4 0.000000 0.000000 0.000000 0.025978 0.000000 0.024961
# 5 -0.002493 0.003335 0.001899 0.000000 0.025512 0.000000
# 6 0.000000 0.000000 0.000000 0.024961 0.000000 0.024891
#
#
# Mechanical properties :
#
#
# Convention : Reuss Voigt Hill
#
# Bulk Modulus (GPa) = 66.56767 72.98420 69.77594
# Shear Modulus (GPa) = 34.09247 451.87157 242.98202
#
# Velocity S-wave (km/s) = 4.08610 14.87604 10.90855
# Velocity P-wave (km/s) = 7.40689 18.18805 13.88645
#
# Compressibility (1/GPa) = 0.01502231
#
# Stress axis : x y z
#
# Youngs Moduli (GPa) = 92.86851 68.91495 67.25638
#
# Poissons Ratio (x) = 0.34536 0.29808
# Poissons Ratio (y) = 0.46540 0.20977
# Poissons Ratio (z) = 0.41159 0.21494
#
# Static dielectric constant tensor:
#      x y z
#    x 3.914300 0.000000 -0.092630 
#    y 0.000000 3.511400 0.000000 
#    z -0.092630 0.000000 3.579000 
# 
# 
# High freq. dielectric constant tensor:
#      x y z
#    x 1.815910 0.000000 0.000110 
#    y 0.000000 1.773070 0.000000 
#    z 0.000110 0.000000 1.786200 
# 
# From -- ./inp_files/44767.got.cif
#   From: 2010.06.25/outbox.cif.g09.slc.cpg/sg15_23_cif.got.tgz:44767.got - 2010.06.28 07:06:18.
