data_PCOD8142291
_publ_section_title
;
Structure prediction by ZEFSAII (Michael W. Deem and Ramdas Pophale) SiO2 
 PCOD8142291
Probable space group: C 2/C
;
_chemical_formula_sum "Si O2"
_cell_formula_units_Z 56
_cell_length_a 5.090391
_cell_length_b 19.513639
_cell_length_c 29.407645
_cell_angle_alpha 90.000000
_cell_angle_beta 117.425516
_cell_angle_gamma 90.000000
_cell_volume 2592.817891
_symmetry_space_group_name_H-M "C 2/C"
_symmetry_group_IT_number 15
_symmetry_cell_setting 'monoclinic'
loop_
_space_group_symop_operation_xyz
x,y,z
-x,y,1/2-z
-x,-y,-z
x,-y,1/2+z
1/2+x,1/2+y,z
1/2-x,1/2+y,1/2-z
1/2-x,1/2-y,-z
1/2+x,1/2-y,1/2+z
loop_
_atom_site_type_symbol
_atom_site_label
_atom_site_fract_x
_atom_site_fract_y
_atom_site_fract_z
Si Si1 0.359528 0.765255 0.945536
Si Si2 0.403078 0.467297 0.102150
Si Si3 0.174656 0.550509 0.426632
Si Si4 0.311314 0.635963 0.520799
Si Si5 0.814841 0.694479 0.114475
Si Si6 0.170441 0.081737 0.715890
Si Si7 0.828377 0.763694 0.282237
O O1 0.413759 0.687985 0.968502
O O2 0.539156 0.761247 0.913158
O O3 0.024263 0.783371 0.908863
O O4 0.502684 0.822329 0.990026
O O5 0.656570 0.492885 0.088112
O O6 0.305905 0.395209 0.071360
O O7 0.513882 0.459396 0.162683
O O8 0.140264 0.521832 0.082351
O O9 0.341875 0.575282 0.485802
O O10 0.136643 0.614430 0.389913
O O11 0.982018 0.710934 0.173847
O O12 0.500000 0.052467 0.750000
O O13 0.191412 0.159666 0.698960
O O14 0.000000 0.073045 0.750000
O O15 0.500000 0.732942 0.250000
O O16 0.000000 0.771706 0.250000
#
# Coordination Sequence:
#
# PCOD8142291 Si02
#       7
#     8   8   8   8   8   8   8
#     4  10  23  38  64  91 123 166 201 260 321 366
#     4  12  24  41  64  89 123 173 208 248 313 368
#     4  11  25  40  60  90 129 168 208 249 296 376
#     4  10  23  41  63  94 127 162 214 258 307 376
#     4  11  22  42  60  89 128 161 206 255 315 383
#     4  10  22  42  64  90 119 150 205 266 311 366
#     4  10  21  38  65  93 116 150 201 269 327 364
#
# _framework density 21.598123000000001
#
# number of rings (size 3 to 8) (size 9 to 14) (size 15 to 20)
#    0.000    1.429    0.000    5.143    0.000   13.143 
#    0.000    4.286    0.000    0.000    0.000    0.000 
#    0.000    0.000    0.000    0.000    0.000    0.000 
#
# Total GULP energy -347174.426614 kJ/mol
# GULP energy per Si atom -12399.086665 kJ/mol
# Density = 2.154896 g / cm^3
# Si number density = 21.598123 Si / 1000 Ang^3
#
#
#
# Elastic Constant Matrix: (Units=GPa)
#
#
# Indices 1 2 3 4 5 6 
#
# 1 139.0227 31.3751 36.9449 0.0000 0.8251 0.0000
# 2 31.3751 87.5730 57.3731 0.0000 9.8108 0.0000
# 3 36.9449 57.3731 128.8816 0.0000 8.0226 0.0000
# 4 0.0000 0.0000 0.0000 39.3851 0.0000 -7.3009
# 5 0.8251 9.8108 8.0226 0.0000 47.7862 0.0000
# 6 0.0000 0.0000 0.0000 -7.3009 0.0000 19.9744
#
#
#
# Elastic Compliance Matrix: (Units=1/GPa)
#
#
# Indices 1 2 3 4 5 6 
#
# 1 0.008022 -0.001982 -0.001449 0.000000 0.000512 0.000000
# 2 -0.001982 0.016827 -0.006781 0.000000 -0.002282 0.000000
# 3 -0.001449 -0.006781 0.011222 0.000000 -0.000467 0.000000
# 4 0.000000 0.000000 0.000000 0.027236 0.000000 0.009955
# 5 0.000512 -0.002282 -0.000467 0.000000 0.021465 0.000000
# 6 0.000000 0.000000 0.000000 0.009955 0.000000 0.053703
#
#
# Mechanical properties :
#
#
# Convention : Reuss Voigt Hill
#
# Bulk Modulus (GPa) = 63.90652 67.42927 65.66790
# Shear Modulus (GPa) = 30.46655 36.74806 33.60730
#
# Velocity S-wave (km/s) = 3.75988 4.12933 3.94893
# Velocity P-wave (km/s) = 6.96435 7.35003 7.15979
#
# Compressibility (1/GPa) = 0.01564785
#
# Stress axis : x y z
#
# Youngs Moduli (GPa) = 124.64958 59.42792 89.11084
#
# Poissons Ratio (x) = 0.11779 0.12914
# Poissons Ratio (y) = 0.24707 0.60422
# Poissons Ratio (z) = 0.18064 0.40295
#
# Static dielectric constant tensor:
#      x y z
#    x 3.834320 0.000000 -0.015870 
#    y 0.000000 3.853530 0.000000 
#    z -0.015870 0.000000 3.845780 
# 
# 
# High freq. dielectric constant tensor:
#      x y z
#    x 1.856730 0.000000 -0.001620 
#    y 0.000000 1.845100 0.000000 
#    z -0.001620 0.000000 1.850060 
# 
# From -- ./inp_files/305839.got.cif
#   From: 2010.06.25/outbox.cif.g09.slc.cpg/sg15_153_cif.got.tgz:305839.got - 2010.06.28 07:06:18.
