data_PCOD8142053
_publ_section_title
;
Structure prediction by ZEFSAII (Michael W. Deem and Ramdas Pophale) SiO2 
 PCOD8142053
Probable space group: C 2/C
;
_chemical_formula_sum "Si O2"
_cell_formula_units_Z 32
_cell_length_a 4.975794
_cell_length_b 37.157156
_cell_length_c 9.656769
_cell_angle_alpha 90.000000
_cell_angle_beta 61.052240
_cell_angle_gamma 90.000000
_cell_volume 1562.338786
_symmetry_space_group_name_H-M "C 2/C"
_symmetry_group_IT_number 15
_symmetry_cell_setting 'monoclinic'
loop_
_space_group_symop_operation_xyz
x,y,z
-x,y,1/2-z
-x,-y,-z
x,-y,1/2+z
1/2+x,1/2+y,z
1/2-x,1/2+y,1/2-z
1/2-x,1/2-y,-z
1/2+x,1/2-y,1/2+z
loop_
_atom_site_type_symbol
_atom_site_label
_atom_site_fract_x
_atom_site_fract_y
_atom_site_fract_z
Si Si1 0.137704 0.472925 0.857280
Si Si2 0.647486 0.892972 0.856770
Si Si3 0.816193 0.669851 0.936818
Si Si4 0.320005 0.209897 0.438123
O O1 0.500000 0.475273 0.750000
O O2 0.010382 0.432496 0.924078
O O3 0.000000 0.486650 0.750000
O O4 0.000000 0.500000 0.000000
O O5 0.500000 0.877033 0.750000
O O6 0.000000 0.899772 0.750000
O O7 0.619745 0.866730 0.994331
O O8 0.000000 0.665591 0.750000
O O9 0.463492 0.681445 0.995023
O O10 0.949376 0.701194 0.996285
O O11 0.500000 0.208436 0.250000
O O12 0.250000 0.250000 0.500000
#
# Coordination Sequence:
#
# PCOD8142053 Si02
#       4
#     8   8   8   8
#     4  10  21  38  61  89 122 160 203 251 302 360
#     4  10  21  39  61  86 120 162 203 245 302 363
#     4  12  24  40  62  91 120 154 200 250 299 355
#     4  12  25  43  64  88 120 158 197 244 299 360
#
# _framework density 20.482112999999998
#
# number of rings (size 3 to 8) (size 9 to 14) (size 15 to 20)
#    0.000    1.000    0.000    8.250    0.000    1.000 
#    0.000    2.500    0.000    0.000    0.000    0.000 
#    0.000    0.000    0.000    0.000    0.000    0.000 
#
# Total GULP energy -198254.527605 kJ/mol
# GULP energy per Si atom -12390.907975 kJ/mol
# Density = 2.043550 g / cm^3
# Si number density = 20.482113 Si / 1000 Ang^3
#
#
#
# Elastic Constant Matrix: (Units=GPa)
#
#
# Indices 1 2 3 4 5 6 
#
# 1 95.5926 9.8268 38.1278 0.0000 5.1543 0.0000
# 2 9.8268 114.3838 77.1420 0.0000 -1.2954 0.0000
# 3 38.1278 77.1420 176.0004 0.0000 0.8271 0.0000
# 4 0.0000 0.0000 0.0000 233.3157 0.0000 -1.5405
# 5 5.1543 -1.2954 0.8271 0.0000 36.6177 0.0000
# 6 0.0000 0.0000 0.0000 -1.5405 0.0000 36.2131
#
#
#
# Elastic Compliance Matrix: (Units=1/GPa)
#
#
# Indices 1 2 3 4 5 6 
#
# 1 0.011614 0.000961 -0.002930 0.000000 -0.001535 0.000000
# 2 0.000961 0.012502 -0.005690 0.000000 0.000436 0.000000
# 3 -0.002930 -0.005690 0.008810 0.000000 0.000012 0.000000
# 4 0.000000 0.000000 0.000000 0.004287 0.000000 0.000182
# 5 -0.001535 0.000436 0.000012 0.000000 0.027540 0.000000
# 6 0.000000 0.000000 0.000000 0.000182 0.000000 0.027622
#
#
# Mechanical properties :
#
#
# Convention : Reuss Voigt Hill
#
# Bulk Modulus (GPa) = 56.79156 70.68557 63.73856
# Shear Modulus (GPa) = 44.02822 78.62132 61.32477
#
# Velocity S-wave (km/s) = 4.64140 6.20231 5.47774
# Velocity P-wave (km/s) = 7.51738 9.26700 8.43767
#
# Compressibility (1/GPa) = 0.01760825
#
# Stress axis : x y z
#
# Youngs Moduli (GPa) = 86.10584 79.98517 113.50191
#
# Poissons Ratio (x) = -0.07685 0.33254
# Poissons Ratio (y) = -0.08273 0.64583
# Poissons Ratio (z) = 0.25228 0.45512
#
# Static dielectric constant tensor:
#      x y z
#    x 4.154990 0.000000 0.159990 
#    y 0.000000 4.027700 0.000000 
#    z 0.159990 0.000000 3.653750 
# 
# 
# High freq. dielectric constant tensor:
#      x y z
#    x 1.822340 0.000000 0.013830 
#    y 0.000000 1.816750 0.000000 
#    z 0.013830 0.000000 1.797130 
# 
# From -- ./inp_files/20140.got.cif
#   From: 2010.06.25/outbox.cif.g09.slc.cpg/sg15_11_cif.got.tgz:20140.got - 2010.06.28 07:06:18.
