data_PCOD8142201
_publ_section_title
;
Structure prediction by ZEFSAII (Michael W. Deem and Ramdas Pophale) SiO2 
 PCOD8142201
Probable space group: C 2/C
;
_chemical_formula_sum "Si O2"
_cell_formula_units_Z 48
_cell_length_a 14.421409
_cell_length_b 26.589750
_cell_length_c 8.521118
_cell_angle_alpha 90.000000
_cell_angle_beta 140.763205
_cell_angle_gamma 90.000000
_cell_volume 2066.795389
_symmetry_space_group_name_H-M "C 2/C"
_symmetry_group_IT_number 15
_symmetry_cell_setting 'monoclinic'
loop_
_space_group_symop_operation_xyz
x,y,z
-x,y,1/2-z
-x,-y,-z
x,-y,1/2+z
1/2+x,1/2+y,z
1/2-x,1/2+y,1/2-z
1/2-x,1/2-y,-z
1/2+x,1/2-y,1/2+z
loop_
_atom_site_type_symbol
_atom_site_label
_atom_site_fract_x
_atom_site_fract_y
_atom_site_fract_z
Si Si1 0.940860 0.132573 0.007780
Si Si2 0.319478 0.195691 0.714010
Si Si3 0.195349 0.197913 0.214563
Si Si4 0.596150 0.537090 0.731618
Si Si5 0.575712 0.854802 0.679927
Si Si6 0.899682 0.465006 0.760038
O O1 0.000000 0.110350 0.250000
O O2 0.070224 0.156156 0.073189
O O3 0.826731 0.176385 0.892670
O O4 0.862540 0.086791 0.813246
O O5 0.300075 0.203228 0.503513
O O6 0.370364 0.245577 0.878803
O O7 0.446487 0.154568 0.887708
O O8 0.288437 0.182934 0.180897
O O9 0.500000 0.554984 0.750000
O O10 0.500000 0.500000 0.500000
O O11 0.746385 0.510668 0.994971
O O12 0.500000 0.846047 0.750000
O O13 0.636964 0.910473 0.715594
O O14 0.000000 0.449811 0.750000
O O15 0.000000 0.500000 0.000000
#
# Coordination Sequence:
#
# PCOD8142201 Si02
#       6
#     8   8   8   8   8   8
#     4  10  21  38  63  93 126 165 211 263 317 372
#     4  10  21  39  63  90 123 165 214 259 304 370
#     4  10  21  39  63  91 123 165 214 259 305 368
#     4  12  25  43  67  94 128 167 213 266 323 386
#     4  11  23  39  60  90 127 163 203 258 318 376
#     4  11  25  44  65  92 127 165 211 263 318 382
#
# _framework density 23.224359
#
# number of rings (size 3 to 8) (size 9 to 14) (size 15 to 20)
#    0.000    1.333    0.000    6.000    0.000    7.333 
#    0.000    3.333    0.000    0.000    0.000    0.000 
#    0.000    0.000    0.000    0.000    0.000    0.000 
#
# Total GULP energy -297425.416654 kJ/mol
# GULP energy per Si atom -12392.725694 kJ/mol
# Density = 2.317150 g / cm^3
# Si number density = 23.224359 Si / 1000 Ang^3
#
#
#
# Elastic Constant Matrix: (Units=GPa)
#
#
# Indices 1 2 3 4 5 6 
#
# 1 115.4425 26.5971 16.9627 0.0000 4.3072 0.0000
# 2 26.5971 105.4733 45.9360 0.0000 -14.7144 0.0000
# 3 16.9627 45.9360 132.3819 0.0000 15.4886 0.0000
# 4 0.0000 0.0000 0.0000 -145.9192 0.0000 181.9397
# 5 4.3072 -14.7144 15.4886 0.0000 28.3119 0.0000
# 6 0.0000 0.0000 0.0000 181.9397 0.0000 -157.5663
#
#
#
# Elastic Compliance Matrix: (Units=1/GPa)
#
#
# Indices 1 2 3 4 5 6 
#
# 1 0.009410 -0.002846 0.000131 0.000000 -0.002982 0.000000
# 2 -0.002846 0.014319 -0.005903 0.000000 0.011104 0.000000
# 3 0.000131 -0.005903 0.010627 0.000000 -0.008902 0.000000
# 4 0.000000 0.000000 0.000000 0.015585 0.000000 0.017996
# 5 -0.002982 0.011104 -0.008902 0.000000 0.046415 0.000000
# 6 0.000000 0.000000 0.000000 0.017996 0.000000 0.014433
#
#
# Mechanical properties :
#
#
# Convention : Reuss Voigt Hill
#
# Bulk Modulus (GPa) = 58.41383 59.14323 58.77853
# Shear Modulus (GPa) = 37.38817 -37.44792 -0.02987
#
# Velocity S-wave (km/s) = 4.01667 -4.01988 -0.11354
# Velocity P-wave (km/s) = 6.83506 1.99385 5.03456
#
# Compressibility (1/GPa) = 0.01711923
#
# Stress axis : x y z
#
# Youngs Moduli (GPa) = 106.26941 69.83842 94.10002
#
# Poissons Ratio (x) = 0.19875 -0.01229
# Poissons Ratio (y) = 0.30243 0.55548
# Poissons Ratio (z) = -0.01388 0.41226
#
# Static dielectric constant tensor:
#      x y z
#    x 4.176730 0.000000 -0.011460 
#    y 0.000000 4.172530 0.000000 
#    z -0.011460 0.000000 4.436920 
# 
# 
# High freq. dielectric constant tensor:
#      x y z
#    x 1.922720 0.000000 0.007390 
#    y 0.000000 1.915630 0.000000 
#    z 0.007390 0.000000 1.917160 
# 
# From -- ./inp_files/43937.got.cif
#   From: 2010.06.25/outbox.cif.g09.slc.cpg/sg15_22_cif.got.tgz:43937.got - 2010.06.28 07:06:18.
