data_PCOD8142055
_publ_section_title
;
Structure prediction by ZEFSAII (Michael W. Deem and Ramdas Pophale) SiO2 
 PCOD8142055
Probable space group: C 2/C
;
_chemical_formula_sum "Si O2"
_cell_formula_units_Z 40
_cell_length_a 16.603344
_cell_length_b 6.002914
_cell_length_c 17.237260
_cell_angle_alpha 90.000000
_cell_angle_beta 89.389086
_cell_angle_gamma 90.000000
_cell_volume 1717.913262
_symmetry_space_group_name_H-M "C 2/C"
_symmetry_group_IT_number 15
_symmetry_cell_setting 'monoclinic'
loop_
_space_group_symop_operation_xyz
x,y,z
-x,y,1/2-z
-x,-y,-z
x,-y,1/2+z
1/2+x,1/2+y,z
1/2-x,1/2+y,1/2-z
1/2-x,1/2-y,-z
1/2+x,1/2-y,1/2+z
loop_
_atom_site_type_symbol
_atom_site_label
_atom_site_fract_x
_atom_site_fract_y
_atom_site_fract_z
Si Si1 0.539919 0.107354 0.614567
Si Si2 0.287807 0.069752 0.655348
Si Si3 0.894482 0.674858 0.046668
Si Si4 0.860107 0.278996 0.782753
Si Si5 0.083537 0.948371 0.838585
O O1 0.601881 0.182392 0.546491
O O2 0.503214 0.326166 0.656218
O O3 0.468112 0.964892 0.580308
O O4 0.585899 0.964964 0.677846
O O5 0.194293 0.145539 0.653697
O O6 0.343929 0.278666 0.673028
O O7 0.311929 0.949171 0.574037
O O8 0.297860 0.891197 0.723900
O O9 0.900892 0.923303 0.080348
O O10 0.918733 0.115895 0.734266
#
# Coordination Sequence:
#
# PCOD8142055 Si02
#       5
#     8   8   8   8   8
#     4  10  22  39  62  95 125 167 217 267 321 382
#     4  10  21  38  61  89 127 171 215 262 315 387
#     4   9  21  40  62  90 129 166 214 269 321 380
#     4  11  22  38  63  92 129 170 217 263 325 384
#     4  10  21  40  63  86 129 165 211 267 321 375
#
# _framework density 23.284063
#
# number of rings (size 3 to 8) (size 9 to 14) (size 15 to 20)
#    0.000    2.000    2.000    0.600    0.000   11.200 
#    0.000    1.000    0.000    0.000    0.000    0.000 
#    0.000    0.000    0.000    0.000    0.000    0.000 
#
# Total GULP energy -248043.329398 kJ/mol
# GULP energy per Si atom -12402.166470 kJ/mol
# Density = 2.323107 g / cm^3
# Si number density = 23.284063 Si / 1000 Ang^3
#
#
#
# Elastic Constant Matrix: (Units=GPa)
#
#
# Indices 1 2 3 4 5 6 
#
# 1 60.8076 55.4731 57.9509 0.0000 -26.7147 0.0000
# 2 55.4731 124.6529 60.1352 0.0000 -23.1254 0.0000
# 3 57.9509 60.1352 130.0401 0.0000 -37.9278 0.0000
# 4 0.0000 0.0000 0.0000 25.1574 0.0000 -4.2709
# 5 -26.7147 -23.1254 -37.9278 0.0000 32.5606 0.0000
# 6 0.0000 0.0000 0.0000 -4.2709 0.0000 42.7107
#
#
#
# Elastic Compliance Matrix: (Units=1/GPa)
#
#
# Indices 1 2 3 4 5 6 
#
# 1 0.042828 -0.011729 -0.008849 0.000000 0.016500 0.000000
# 2 -0.011729 0.013695 -0.001630 0.000000 -0.001795 0.000000
# 3 -0.008849 -0.001630 0.015042 0.000000 0.009104 0.000000
# 4 0.000000 0.000000 0.000000 0.040436 0.000000 0.004043
# 5 0.016500 -0.001795 0.009104 0.000000 0.053580 0.000000
# 6 0.000000 0.000000 0.000000 0.004043 0.000000 0.023818
#
#
# Mechanical properties :
#
#
# Convention : Reuss Voigt Hill
#
# Bulk Modulus (GPa) = 36.83313 73.62433 55.22873
# Shear Modulus (GPa) = 20.58747 29.54851 25.06799
#
# Velocity S-wave (km/s) = 2.97675 3.56623 3.28474
# Velocity P-wave (km/s) = 5.26005 6.97467 6.17714
#
# Compressibility (1/GPa) = 0.02714947
#
# Stress axis : x y z
#
# Youngs Moduli (GPa) = 23.34899 73.01824 66.47838
#
# Poissons Ratio (x) = 0.85645 0.58829
# Poissons Ratio (y) = 0.27387 0.10834
# Poissons Ratio (z) = 0.20662 0.11900
#
# Static dielectric constant tensor:
#      x y z
#    x 3.918130 0.000000 -0.547980 
#    y 0.000000 4.451180 0.000000 
#    z -0.547980 0.000000 4.342560 
# 
# 
# High freq. dielectric constant tensor:
#      x y z
#    x 1.902700 0.000000 -0.034850 
#    y 0.000000 1.936770 0.000000 
#    z -0.034850 0.000000 1.914690 
# 
# From -- ./inp_files/207974.got.cif
#   From: 2010.06.25/outbox.cif.g09.slc.cpg/sg15_104_cif.got.tgz:207974.got - 2010.06.28 07:06:18.
