data_PCOD8142553
_publ_section_title
;
Structure prediction by ZEFSAII (Michael W. Deem and Ramdas Pophale) SiO2 
 PCOD8142553
Probable space group: C 2/C
;
_chemical_formula_sum "Si O2"
_cell_formula_units_Z 56
_cell_length_a 15.212322
_cell_length_b 23.808646
_cell_length_c 8.283180
_cell_angle_alpha 90.000000
_cell_angle_beta 57.888586
_cell_angle_gamma 90.000000
_cell_volume 2541.083539
_symmetry_space_group_name_H-M "C 2/C"
_symmetry_group_IT_number 15
_symmetry_cell_setting 'monoclinic'
loop_
_space_group_symop_operation_xyz
x,y,z
-x,y,1/2-z
-x,-y,-z
x,-y,1/2+z
1/2+x,1/2+y,z
1/2-x,1/2+y,1/2-z
1/2-x,1/2-y,-z
1/2+x,1/2-y,1/2+z
loop_
_atom_site_type_symbol
_atom_site_label
_atom_site_fract_x
_atom_site_fract_y
_atom_site_fract_z
Si Si1 0.602314 0.325709 0.464570
Si Si2 0.000000 0.480845 0.250000
Si Si3 0.594860 0.459474 0.029485
Si Si4 0.374934 0.347739 0.695380
Si Si5 0.695568 0.776425 0.706557
Si Si6 0.000000 0.663832 0.250000
Si Si7 0.328405 0.436430 0.232343
Si Si8 0.600296 0.069190 0.952416
O O1 0.479576 0.310179 0.571324
O O2 0.641785 0.350802 0.596363
O O3 0.672785 0.271933 0.358915
O O4 0.618728 0.375372 0.319453
O O5 0.907921 0.521425 0.401629
O O6 0.972450 0.441276 0.128767
O O7 0.500000 0.453567 0.250000
O O8 0.690627 0.454248 0.061487
O O9 0.603045 0.410578 0.888947
O O10 0.596973 0.519428 0.935841
O O11 0.274022 0.321675 0.707657
O O12 0.750000 0.750000 0.500000
O O13 0.583429 0.800576 0.768607
O O14 0.932145 0.628544 0.442658
O O15 0.215171 0.431274 0.266192
#
# Coordination Sequence:
#
# PCOD8142553 Si02
#       8
#     8   4   8   8   8   4   8   8
#     4  11  25  44  66  96 132 174 224 280 336 406
#     4   9  20  38  62  88 134 170 218 269 328 388
#     4  12  24  40  66  98 140 175 219 272 344 415
#     4  11  25  44  68  96 137 174 221 281 342 406
#     4  12  25  44  70  96 129 175 229 283 347 402
#     4  11  24  42  68  94 130 172 228 279 334 404
#     4  12  24  39  66  97 134 175 220 271 339 409
#     4  10  21  39  61  94 129 174 221 272 328 396
#
# _framework density 22.037842000000001
#
# number of rings (size 3 to 8) (size 9 to 14) (size 15 to 20)
#    0.000    0.857    1.429    6.000    2.000    3.429 
#    0.000    2.857    0.000    0.000    0.000    0.000 
#    0.000    0.000    0.000    0.000    0.000    0.000 
#
# Total GULP energy -347106.947437 kJ/mol
# GULP energy per Si atom -12396.676694 kJ/mol
# Density = 2.198768 g / cm^3
# Si number density = 22.037842 Si / 1000 Ang^3
#
#
#
# Elastic Constant Matrix: (Units=GPa)
#
#
# Indices 1 2 3 4 5 6 
#
# 1 106.8868 35.8022 30.5850 0.0000 -6.5831 0.0000
# 2 35.8022 119.3015 46.9348 0.0000 -0.4851 0.0000
# 3 30.5850 46.9348 101.6419 0.0000 2.3663 0.0000
# 4 0.0000 0.0000 0.0000 44.6862 0.0000 5.7471
# 5 -6.5831 -0.4851 2.3663 0.0000 44.7434 0.0000
# 6 0.0000 0.0000 0.0000 5.7471 0.0000 28.8305
#
#
#
# Elastic Compliance Matrix: (Units=1/GPa)
#
#
# Indices 1 2 3 4 5 6 
#
# 1 0.010894 -0.002392 -0.002213 0.000000 0.001694 0.000000
# 2 -0.002392 0.010774 -0.004255 0.000000 -0.000010 0.000000
# 3 -0.002213 -0.004255 0.012493 0.000000 -0.001032 0.000000
# 4 0.000000 0.000000 0.000000 0.022967 0.000000 -0.004578
# 5 0.001694 -0.000010 -0.001032 0.000000 0.022653 0.000000
# 6 0.000000 0.000000 0.000000 -0.004578 0.000000 0.035598
#
#
# Mechanical properties :
#
#
# Convention : Reuss Voigt Hill
#
# Bulk Modulus (GPa) = 60.82184 61.60826 61.21505
# Shear Modulus (GPa) = 36.07999 37.95256 37.01628
#
# Velocity S-wave (km/s) = 4.05060 4.15439 4.10282
# Velocity P-wave (km/s) = 7.03813 7.14341 7.09096
#
# Compressibility (1/GPa) = 0.01644146
#
# Stress axis : x y z
#
# Youngs Moduli (GPa) = 91.78964 92.81728 80.04279
#
# Poissons Ratio (x) = 0.22200 0.17715
# Poissons Ratio (y) = 0.21954 0.34059
# Poissons Ratio (z) = 0.20315 0.39494
#
# Static dielectric constant tensor:
#      x y z
#    x 4.587100 0.000000 0.242210 
#    y 0.000000 3.875650 0.000000 
#    z 0.242210 0.000000 4.291050 
# 
# 
# High freq. dielectric constant tensor:
#      x y z
#    x 1.882250 0.000000 0.002350 
#    y 0.000000 1.860740 0.000000 
#    z 0.002350 0.000000 1.874620 
# 
# From -- ./inp_files/43491.got.cif
#   From: 2010.06.25/outbox.cif.g09.slc.cpg/sg15_22_cif.got.tgz:43491.got - 2010.06.28 07:06:18.
