data_PCOD8142169
_publ_section_title
;
Structure prediction by ZEFSAII (Michael W. Deem and Ramdas Pophale) SiO2 
 PCOD8142169
Probable space group: C 2/C
;
_chemical_formula_sum "Si O2"
_cell_formula_units_Z 52
_cell_length_a 13.371091
_cell_length_b 6.464057
_cell_length_c 29.836302
_cell_angle_alpha 90.000000
_cell_angle_beta 75.286352
_cell_angle_gamma 90.000000
_cell_volume 2494.230427
_symmetry_space_group_name_H-M "C 2/C"
_symmetry_group_IT_number 15
_symmetry_cell_setting 'monoclinic'
loop_
_space_group_symop_operation_xyz
x,y,z
-x,y,1/2-z
-x,-y,-z
x,-y,1/2+z
1/2+x,1/2+y,z
1/2-x,1/2+y,1/2-z
1/2-x,1/2-y,-z
1/2+x,1/2-y,1/2+z
loop_
_atom_site_type_symbol
_atom_site_label
_atom_site_fract_x
_atom_site_fract_y
_atom_site_fract_z
Si Si1 0.500000 0.967273 0.750000
Si Si2 0.029327 0.220232 0.553827
Si Si3 0.852469 0.950428 0.022084
Si Si4 0.117992 0.191528 0.290419
Si Si5 0.067803 0.046479 0.133789
Si Si6 0.165757 0.865919 0.206976
Si Si7 0.626802 0.873426 0.059643
O O1 0.414479 0.823009 0.782633
O O2 0.446406 0.111410 0.719201
O O3 0.035008 0.467181 0.558437
O O4 0.913224 0.139522 0.558261
O O5 0.098633 0.162491 0.502175
O O6 0.070624 0.125697 0.595203
O O7 0.735892 0.993930 0.050923
O O8 0.864257 0.789842 0.980632
O O9 0.219646 0.273512 0.303659
O O10 0.047488 0.064422 0.333067
O O11 0.147490 0.033870 0.247732
O O12 0.102059 0.266474 0.109651
O O13 0.151395 0.983823 0.161721
#
# Coordination Sequence:
#
# PCOD8142169 Si02
#       7
#     4   8   8   8   8   8   8
#     4  12  22  44  72  84 124 172 210 268 314 396
#     4  10  21  38  63  88 125 168 200 264 316 372
#     4   9  20  40  61  90 121 162 224 242 307 398
#     4  12  25  44  68  94 125 173 218 262 330 390
#     4  11  25  40  57 100 130 148 220 266 312 396
#     4  12  25  44  68  94 125 173 218 262 330 390
#     4  10  21  38  63  88 125 168 200 264 316 372
#
# _framework density 20.848112
#
# number of rings (size 3 to 8) (size 9 to 14) (size 15 to 20)
#    0.000    1.231    4.615    0.923    2.154    2.462 
#    2.769    3.077    0.000    0.000    0.000    0.000 
#    0.000    0.000    0.000    0.000    0.000    0.000 
#
# Total GULP energy -322456.049170 kJ/mol
# GULP energy per Si atom -12402.155737 kJ/mol
# Density = 2.080066 g / cm^3
# Si number density = 20.848112 Si / 1000 Ang^3
#
#
#
# Elastic Constant Matrix: (Units=GPa)
#
#
# Indices 1 2 3 4 5 6 
#
# 1 115.1201 17.4689 28.6159 -0.0001 6.7945 -0.0002
# 2 17.4689 68.0279 6.1470 -0.0002 1.1731 -0.0003
# 3 28.6159 6.1470 75.8700 -0.0001 6.1858 -0.0001
# 4 -0.0001 -0.0002 -0.0001 22.8677 -0.0001 -1.6372
# 5 6.7945 1.1731 6.1858 -0.0001 16.4214 -0.0001
# 6 -0.0002 -0.0003 -0.0001 -1.6372 -0.0001 40.4817
#
#
#
# Elastic Compliance Matrix: (Units=1/GPa)
#
#
# Indices 1 2 3 4 5 6 
#
# 1 0.010024 -0.002222 -0.003379 0.000000 -0.002716 0.000000
# 2 -0.002222 0.015307 -0.000400 0.000000 -0.000023 0.000000
# 3 -0.003379 -0.000400 0.014826 0.000000 -0.004158 0.000000
# 4 0.000000 0.000000 0.000000 0.043857 0.000000 0.001774
# 5 -0.002716 -0.000023 -0.004158 0.000000 0.063588 0.000000
# 6 0.000000 0.000000 0.000000 0.001774 0.000000 0.024774
#
#
# Mechanical properties :
#
#
# Convention : Reuss Voigt Hill
#
# Bulk Modulus (GPa) = 35.51815 40.38683 37.95249
# Shear Modulus (GPa) = 25.80459 29.73991 27.77225
#
# Velocity S-wave (km/s) = 3.52197 3.78101 3.65379
# Velocity P-wave (km/s) = 5.79764 6.20285 6.00367
#
# Compressibility (1/GPa) = 0.02815462
#
# Stress axis : x y z
#
# Youngs Moduli (GPa) = 99.76018 65.32964 67.44693
#
# Poissons Ratio (x) = 0.14516 0.22792
# Poissons Ratio (y) = 0.22166 0.02699
# Poissons Ratio (z) = 0.33712 0.02615
#
# Static dielectric constant tensor:
#      x y z
#    x 3.978400 0.000000 -0.014880 
#    y 0.000000 3.848360 0.000000 
#    z -0.014880 0.000000 3.692910 
# 
# 
# High freq. dielectric constant tensor:
#      x y z
#    x 1.822050 0.000000 0.005710 
#    y 0.000000 1.823640 0.000000 
#    z 0.005710 0.000000 1.807840 
# 
# From -- ./inp_files/305349.got.cif
#   From: 2010.06.25/outbox.cif.g09.slc.cpg/sg15_153_cif.got.tgz:305349.got - 2010.06.28 07:06:18.
