data_PCOD8142946
_publ_section_title
;
Structure prediction by ZEFSAII (Michael W. Deem and Ramdas Pophale) SiO2 
 PCOD8142946
Probable space group: C 2/C
;
_chemical_formula_sum "Si O2"
_cell_formula_units_Z 48
_cell_length_a 24.833529
_cell_length_b 10.972459
_cell_length_c 21.150319
_cell_angle_alpha 90.000000
_cell_angle_beta 22.016877
_cell_angle_gamma 90.000000
_cell_volume 2160.484914
_symmetry_space_group_name_H-M "C 2/C"
_symmetry_group_IT_number 15
_symmetry_cell_setting 'monoclinic'
loop_
_space_group_symop_operation_xyz
x,y,z
-x,y,1/2-z
-x,-y,-z
x,-y,1/2+z
1/2+x,1/2+y,z
1/2-x,1/2+y,1/2-z
1/2-x,1/2-y,-z
1/2+x,1/2-y,1/2+z
loop_
_atom_site_type_symbol
_atom_site_label
_atom_site_fract_x
_atom_site_fract_y
_atom_site_fract_z
Si Si1 0.614224 0.068394 0.982960
Si Si2 0.135119 0.076424 0.880414
Si Si3 0.178443 0.310286 0.138404
Si Si4 0.357150 0.756017 0.940059
Si Si5 0.208858 0.552913 0.174628
Si Si6 0.385676 0.211587 0.007715
O O1 0.631209 0.112250 0.037656
O O2 0.452687 0.104498 0.136020
O O3 0.629427 0.925607 0.953548
O O4 0.748099 0.123212 0.798152
O O5 0.222162 0.999317 0.837268
O O6 0.074653 0.200673 0.976938
O O7 0.000000 0.000000 0.000000
O O8 0.202521 0.455532 0.122818
O O9 0.009979 0.279784 0.319077
O O10 0.250000 0.250000 0.000000
O O11 0.236786 0.248193 0.138332
O O12 0.500000 0.715904 0.750000
O O13 0.250000 0.750000 0.000000
O O14 0.315310 0.660367 0.039410
#
# Coordination Sequence:
#
# PCOD8142946 Si02
#       6
#     8   8   8   8   8   8
#     4  11  25  46  71  95 144 191 232 298 363 436
#     4  11  25  44  73 106 141 182 242 300 359 429
#     4  10  21  39  68  96 134 172 220 284 350 418
#     4  12  27  47  73 104 141 188 246 300 369 445
#     4  10  25  46  67 102 138 189 234 293 363 435
#     4  10  23  42  65 101 131 177 232 278 354 423
#
# _framework density 22.217234000000001
#
# number of rings (size 3 to 8) (size 9 to 14) (size 15 to 20)
#    0.000    1.333    1.667    2.000    7.000    2.667 
#    0.000    0.000    0.000    0.000    0.000    0.000 
#    0.000    0.000    0.000    0.000    0.000    0.000 
#
# Total GULP energy -297447.012533 kJ/mol
# GULP energy per Si atom -12393.625522 kJ/mol
# Density = 2.216667 g / cm^3
# Si number density = 22.217234 Si / 1000 Ang^3
#
#
#
# Elastic Constant Matrix: (Units=GPa)
#
#
# Indices 1 2 3 4 5 6 
#
# 1 117.8362 33.6394 34.6736 -0.0001 -10.6758 0.0001
# 2 33.6394 93.9382 41.0754 0.0004 1.4864 0.0000
# 3 34.6736 41.0754 144.8042 -0.0008 -0.5742 0.0007
# 4 -0.0001 0.0004 -0.0008 35.6290 0.0007 7.0480
# 5 -10.6758 1.4864 -0.5742 0.0007 36.1247 -0.0006
# 6 0.0001 0.0000 0.0007 7.0480 -0.0006 36.4505
#
#
#
# Elastic Compliance Matrix: (Units=1/GPa)
#
#
# Indices 1 2 3 4 5 6 
#
# 1 0.010072 -0.002975 -0.001556 0.000000 0.003074 0.000000
# 2 -0.002975 0.013043 -0.002993 0.000000 -0.001463 0.000000
# 3 -0.001556 -0.002993 0.008127 0.000000 -0.000207 0.000000
# 4 0.000000 0.000000 0.000000 0.029183 -0.000001 -0.005643
# 5 0.003074 -0.001463 -0.000207 -0.000001 0.028647 0.000001
# 6 0.000000 0.000000 0.000000 -0.005643 0.000001 0.028526
#
#
# Mechanical properties :
#
#
# Convention : Reuss Voigt Hill
#
# Bulk Modulus (GPa) = 61.75368 63.92837 62.84102
# Shear Modulus (GPa) = 36.22061 38.12017 37.17039
#
# Velocity S-wave (km/s) = 4.04207 4.14671 4.09472
# Velocity P-wave (km/s) = 7.04558 7.19469 7.12053
#
# Compressibility (1/GPa) = 0.01619337
#
# Stress axis : x y z
#
# Youngs Moduli (GPa) = 99.28537 76.67157 123.05320
#
# Poissons Ratio (x) = 0.22812 0.19142
# Poissons Ratio (y) = 0.29540 0.36831
# Poissons Ratio (z) = 0.15445 0.22948
#
# Static dielectric constant tensor:
#      x y z
#    x 3.945240 0.000000 -0.058880 
#    y 0.000000 3.619250 0.000020 
#    z -0.058880 0.000020 4.432990 
# 
# 
# High freq. dielectric constant tensor:
#      x y z
#    x 1.874400 0.000000 -0.008390 
#    y 0.000000 1.872240 0.000000 
#    z -0.008390 0.000000 1.892520 
# 
# From -- ./inp_files/257585.got.cif
#   From: 2010.06.25/outbox.cif.g09.slc.cpg/sg15_129_cif.got.tgz:257585.got - 2010.06.28 07:06:18.
