data_PCOD8142795
_publ_section_title
;
Structure prediction by ZEFSAII (Michael W. Deem and Ramdas Pophale) SiO2 
 PCOD8142795
Probable space group: C 2/C
;
_chemical_formula_sum "Si O2"
_cell_formula_units_Z 64
_cell_length_a 21.511411
_cell_length_b 5.351247
_cell_length_c 27.862834
_cell_angle_alpha 90.000000
_cell_angle_beta 99.477772
_cell_angle_gamma 90.000000
_cell_volume 3163.588857
_symmetry_space_group_name_H-M "C 2/C"
_symmetry_group_IT_number 15
_symmetry_cell_setting 'monoclinic'
loop_
_space_group_symop_operation_xyz
x,y,z
-x,y,1/2-z
-x,-y,-z
x,-y,1/2+z
1/2+x,1/2+y,z
1/2-x,1/2+y,1/2-z
1/2-x,1/2-y,-z
1/2+x,1/2-y,1/2+z
loop_
_atom_site_type_symbol
_atom_site_label
_atom_site_fract_x
_atom_site_fract_y
_atom_site_fract_z
Si Si1 0.127205 0.922052 0.516182
Si Si2 0.214842 0.683281 0.688935
Si Si3 0.741549 0.715790 0.554941
Si Si4 0.127978 0.339452 0.375521
Si Si5 0.356967 0.039520 0.908177
Si Si6 0.206138 0.317675 0.296927
Si Si7 0.467448 0.798787 0.960757
Si Si8 0.415828 0.660094 0.585666
O O1 0.105360 0.695407 0.546197
O O2 0.140069 0.847083 0.461957
O O3 0.191257 0.993691 0.552192
O O4 0.070702 0.122617 0.507179
O O5 0.156609 0.671907 0.644384
O O6 0.186219 0.676506 0.738792
O O7 0.258291 0.440154 0.686151
O O8 0.251046 0.942581 0.684533
O O9 0.750000 0.750000 0.500000
O O10 0.806426 0.646368 0.587872
O O11 0.709790 0.948931 0.578309
O O12 0.142886 0.332453 0.320585
O O13 0.089479 0.591115 0.382583
O O14 0.088282 0.091015 0.382924
O O15 0.414890 0.847471 0.911584
O O16 0.520188 0.660217 0.936379
O O17 0.500000 0.000000 0.000000
#
# Coordination Sequence:
#
# PCOD8142795 Si02
#       8
#     8   8   8   8   8   8   8   8
#     4  11  23  37  60  84 121 164 206 258 294 360
#     4  10  21  39  65  94 122 160 197 254 314 365
#     4  11  22  34  53  88 128 157 190 239 309 376
#     4  12  24  38  61  89 127 161 198 247 311 382
#     4  11  23  37  62  88 121 162 205 261 299 358
#     4  10  21  40  63  93 128 154 198 250 312 388
#     4  11  24  42  58  85 121 168 223 258 289 352
#     4  12  25  39  59  86 121 172 206 243 303 358
#
# _framework density 20.230188999999999
#
# number of rings (size 3 to 8) (size 9 to 14) (size 15 to 20)
#    0.000    1.000    3.750    3.375    5.250    1.000 
#    0.000    0.000    0.000    0.750    0.000    0.000 
#    0.000    0.000    0.000    0.000    0.000    0.000 
#
# Total GULP energy -396433.257412 kJ/mol
# GULP energy per Si atom -12388.539294 kJ/mol
# Density = 2.018414 g / cm^3
# Si number density = 20.230189 Si / 1000 Ang^3
#
#
#
# Elastic Constant Matrix: (Units=GPa)
#
#
# Indices 1 2 3 4 5 6 
#
# 1 54.4741 7.4940 6.1408 0.0000 -9.4996 0.0000
# 2 7.4940 102.8437 15.8830 0.0000 -12.1145 0.0000
# 3 6.1408 15.8830 101.9678 0.0000 -13.3826 0.0000
# 4 0.0000 0.0000 0.0000 21.9123 0.0000 -5.6027
# 5 -9.4996 -12.1145 -13.3826 0.0000 22.1125 0.0000
# 6 0.0000 0.0000 0.0000 -5.6027 0.0000 10.1943
#
#
#
# Elastic Compliance Matrix: (Units=1/GPa)
#
#
# Indices 1 2 3 4 5 6 
#
# 1 0.019866 -0.000469 -0.000040 0.000000 0.008253 0.000000
# 2 -0.000469 0.010490 -0.000954 0.000000 0.004968 0.000000
# 3 -0.000040 -0.000954 0.010740 0.000000 0.005960 0.000000
# 4 0.000000 0.000000 0.000000 0.053098 0.000000 0.029182
# 5 0.008253 0.004968 0.005960 0.000000 0.055098 0.000000
# 6 0.000000 0.000000 0.000000 0.029182 0.000000 0.114133
#
#
# Mechanical properties :
#
#
# Convention : Reuss Voigt Hill
#
# Bulk Modulus (GPa) = 26.19856 35.36902 30.78379
# Shear Modulus (GPa) = 17.91639 26.16167 22.03903
#
# Velocity S-wave (km/s) = 2.97918 3.60001 3.30421
# Velocity P-wave (km/s) = 4.98120 5.89927 5.45956
#
# Compressibility (1/GPa) = 0.03817004
#
# Stress axis : x y z
#
# Youngs Moduli (GPa) = 50.33816 95.32692 93.10777
#
# Poissons Ratio (x) = 0.04473 0.00374
# Poissons Ratio (y) = 0.02362 0.08880
# Poissons Ratio (z) = 0.00202 0.09091
#
# Static dielectric constant tensor:
#      x y z
#    x 3.301140 0.000000 -0.737150 
#    y 0.000000 3.881010 0.000000 
#    z -0.737150 0.000000 2.917690 
# 
# 
# High freq. dielectric constant tensor:
#      x y z
#    x 1.771060 0.000000 -0.012090 
#    y 0.000000 1.806270 0.000000 
#    z -0.012090 0.000000 1.780130 
# 
# From -- ./inp_files/299931.got.cif
#   From: 2010.06.25/outbox.cif.g09.slc.cpg/sg15_150_cif.got.tgz:299931.got - 2010.06.28 07:06:18.
