data_PCOD8142782
_publ_section_title
;
Structure prediction by ZEFSAII (Michael W. Deem and Ramdas Pophale) SiO2 
 PCOD8142782
Probable space group: C 2/C
;
_chemical_formula_sum "Si O2"
_cell_formula_units_Z 60
_cell_length_a 11.526141
_cell_length_b 14.084708
_cell_length_c 17.744066
_cell_angle_alpha 90.000000
_cell_angle_beta 109.786561
_cell_angle_gamma 90.000000
_cell_volume 2710.542195
_symmetry_space_group_name_H-M "C 2/C"
_symmetry_group_IT_number 15
_symmetry_cell_setting 'monoclinic'
loop_
_space_group_symop_operation_xyz
x,y,z
-x,y,1/2-z
-x,-y,-z
x,-y,1/2+z
1/2+x,1/2+y,z
1/2-x,1/2+y,1/2-z
1/2-x,1/2-y,-z
1/2+x,1/2-y,1/2+z
loop_
_atom_site_type_symbol
_atom_site_label
_atom_site_fract_x
_atom_site_fract_y
_atom_site_fract_z
Si Si1 0.328091 0.174448 0.809610
Si Si2 0.390946 0.366971 0.336392
Si Si3 0.704740 0.667455 0.077007
Si Si4 0.000275 0.935625 0.885736
Si Si5 0.279543 0.353898 0.472631
Si Si6 0.021747 0.407586 0.457938
Si Si7 0.440916 0.777688 0.569248
Si Si8 0.000000 0.202421 0.250000
O O1 0.204552 0.121699 0.753815
O O2 0.288385 0.241655 0.868221
O O3 0.425480 0.100581 0.867306
O O4 0.387280 0.231585 0.752255
O O5 0.485677 0.456012 0.355954
O O6 0.310660 0.350309 0.392597
O O7 0.471460 0.269775 0.348047
O O8 0.633271 0.584496 0.105115
O O9 0.848339 0.644903 0.087400
O O10 0.636372 0.690320 0.983590
O O11 0.037970 0.865060 0.826926
O O12 0.110316 0.916329 0.967479
O O13 0.250000 0.250000 0.500000
O O14 0.156587 0.415364 0.452603
O O15 0.000000 0.500000 0.500000
O O16 0.017224 0.320070 0.515805
#
# Coordination Sequence:
#
# PCOD8142782 Si02
#       8
#     8   8   8   8   8   8   8   4
#     4  10  22  44  64  92 131 181 216 279 344 406
#     4  12  24  39  68 101 135 170 227 286 351 396
#     4   9  20  41  62  86 131 164 216 258 342 403
#     4  11  24  39  67 105 128 173 225 291 335 405
#     4  12  22  42  69  98 135 178 235 274 339 423
#     4  11  25  42  67  98 132 182 236 278 336 414
#     4  10  21  39  65  92 126 179 211 273 339 404
#     4  10  22  44  68  92 138 182 224 272 352 416
#
# _framework density 22.135791999999999
#
# number of rings (size 3 to 8) (size 9 to 14) (size 15 to 20)
#    0.000    1.333    2.667    3.600    1.867    4.800 
#    2.400    0.000    0.000    0.000    0.000    0.000 
#    0.000    0.000    0.000    0.000    0.000    0.000 
#
# Total GULP energy -371808.753480 kJ/mol
# GULP energy per Si atom -12393.625116 kJ/mol
# Density = 2.208541 g / cm^3
# Si number density = 22.135792 Si / 1000 Ang^3
#
#
#
# Elastic Constant Matrix: (Units=GPa)
#
#
# Indices 1 2 3 4 5 6 
#
# 1 113.4971 17.6043 39.0684 0.0000 19.0357 0.0000
# 2 17.6043 73.8712 30.4820 0.0000 26.1301 0.0000
# 3 39.0684 30.4820 109.6506 0.0000 26.9580 0.0000
# 4 0.0000 0.0000 0.0000 27.6553 0.0000 3.3820
# 5 19.0357 26.1301 26.9580 0.0000 36.1166 0.0000
# 6 0.0000 0.0000 0.0000 3.3820 0.0000 17.0561
#
#
#
# Elastic Compliance Matrix: (Units=1/GPa)
#
#
# Indices 1 2 3 4 5 6 
#
# 1 0.010357 -0.000151 -0.002857 0.000000 -0.003217 0.000000
# 2 -0.000151 0.018652 -0.002245 0.000000 -0.011739 0.000000
# 3 -0.002857 -0.002245 0.012238 0.000000 -0.006005 0.000000
# 4 0.000000 0.000000 0.000000 0.037058 0.000000 -0.007348
# 5 -0.003217 -0.011739 -0.006005 0.000000 0.042358 0.000000
# 6 0.000000 0.000000 0.000000 -0.007348 0.000000 0.060087
#
#
# Mechanical properties :
#
#
# Convention : Reuss Voigt Hill
#
# Bulk Modulus (GPa) = 32.53110 52.36980 42.45045
# Shear Modulus (GPa) = 24.81323 30.15655 27.48489
#
# Velocity S-wave (km/s) = 3.35170 3.69500 3.52753
# Velocity P-wave (km/s) = 5.45037 6.47409 5.98416
#
# Compressibility (1/GPa) = 0.03073982
#
# Stress axis : x y z
#
# Youngs Moduli (GPa) = 96.54967 53.61384 81.71051
#
# Poissons Ratio (x) = 0.00812 0.23348
# Poissons Ratio (y) = 0.01462 0.18345
# Poissons Ratio (z) = 0.27588 0.12037
#
# Static dielectric constant tensor:
#      x y z
#    x 5.193210 0.000000 -0.248890 
#    y 0.000000 3.918810 0.000000 
#    z -0.248890 0.000000 3.746000 
# 
# 
# High freq. dielectric constant tensor:
#      x y z
#    x 1.887160 0.000000 -0.006940 
#    y 0.000000 1.849160 0.000000 
#    z -0.006940 0.000000 1.865170 
# 
# From -- ./inp_files/198383.got.cif
#   From: 2010.06.25/outbox.cif.g09.slc.cpg/sg15_100_cif.got.tgz:198383.got - 2010.06.28 07:06:18.
