data_PCOD8142790
_publ_section_title
;
Structure prediction by ZEFSAII (Michael W. Deem and Ramdas Pophale) SiO2 
 PCOD8142790
Probable space group: C 2/C
;
_chemical_formula_sum "Si O2"
_cell_formula_units_Z 64
_cell_length_a 29.330621
_cell_length_b 8.764060
_cell_length_c 17.867532
_cell_angle_alpha 90.000000
_cell_angle_beta 41.676738
_cell_angle_gamma 90.000000
_cell_volume 3053.973368
_symmetry_space_group_name_H-M "C 2/C"
_symmetry_group_IT_number 15
_symmetry_cell_setting 'monoclinic'
loop_
_space_group_symop_operation_xyz
x,y,z
-x,y,1/2-z
-x,-y,-z
x,-y,1/2+z
1/2+x,1/2+y,z
1/2-x,1/2+y,1/2-z
1/2-x,1/2-y,-z
1/2+x,1/2-y,1/2+z
loop_
_atom_site_type_symbol
_atom_site_label
_atom_site_fract_x
_atom_site_fract_y
_atom_site_fract_z
Si Si1 0.046770 0.181013 0.023137
Si Si2 0.007818 0.109559 0.657885
Si Si3 0.895374 0.782843 0.674868
Si Si4 0.882758 0.868073 0.214601
Si Si5 0.733787 0.140000 0.168560
Si Si6 0.127413 0.297240 0.466335
Si Si7 0.266126 0.181875 0.899434
Si Si8 0.329628 0.127403 0.091261
O O1 0.969988 0.244950 0.118762
O O2 0.043959 0.007745 0.056123
O O3 0.072000 0.196259 0.907935
O O4 0.100273 0.277320 0.005890
O O5 0.058698 0.254680 0.597027
O O6 0.000000 0.038274 0.750000
O O7 0.930358 0.151475 0.728998
O O8 0.891582 0.710727 0.597569
O O9 0.847277 0.689832 0.789201
O O10 0.868053 0.956729 0.711839
O O11 0.811756 0.774941 0.313809
O O12 0.810729 0.185734 0.091686
O O13 0.696032 0.099394 0.292507
O O14 0.747059 0.998189 0.096007
O O15 0.152377 0.462536 0.463283
O O16 0.228513 0.283748 0.882942
O O17 0.250000 0.250000 0.000000
#
# Coordination Sequence:
#
# PCOD8142790 Si02
#       8
#     8   8   8   8   8   8   8   8
#     4  10  21  39  65  93 124 164 215 264 322 391
#     4  11  23  40  62  93 131 168 208 268 333 390
#     4  11  20  39  66  95 126 170 216 267 321 393
#     4  10  21  39  65  95 124 162 220 269 316 386
#     4  11  23  39  69  95 127 171 219 272 323 389
#     4  12  22  39  67  96 123 170 222 269 321 384
#     4  12  27  44  63  96 138 173 216 277 338 388
#     4  11  23  40  66  98 128 169 222 271 320 392
#
# _framework density 20.956306000000001
#
# number of rings (size 3 to 8) (size 9 to 14) (size 15 to 20)
#    0.000    1.000    5.000    2.250    1.750    6.500 
#    0.000    2.500    0.000    0.000    0.000    0.000 
#    0.000    0.000    0.000    0.000    0.000    0.000 
#
# Total GULP energy -396672.833026 kJ/mol
# GULP energy per Si atom -12396.026032 kJ/mol
# Density = 2.090861 g / cm^3
# Si number density = 20.956306 Si / 1000 Ang^3
#
#
#
# Elastic Constant Matrix: (Units=GPa)
#
#
# Indices 1 2 3 4 5 6 
#
# 1 92.1955 13.1678 35.1961 -0.0265 -7.9551 0.0232
# 2 13.1678 69.1901 -0.9363 -0.0290 -2.8141 0.0129
# 3 35.1961 -0.9363 52.0135 0.0225 0.1289 0.0344
# 4 -0.0265 -0.0290 0.0225 32.6881 -0.0225 -10.9935
# 5 -7.9551 -2.8141 0.1289 -0.0225 31.9690 -0.0105
# 6 0.0232 0.0129 0.0344 -10.9935 -0.0105 29.5847
#
#
#
# Elastic Compliance Matrix: (Units=1/GPa)
#
#
# Indices 1 2 3 4 5 6 
#
# 1 0.015657 -0.002974 -0.010657 0.000024 0.003677 0.000012
# 2 -0.002974 0.015073 0.002283 0.000009 0.000577 -0.000004
# 3 -0.010657 0.002283 0.026485 -0.000040 -0.002558 -0.000039
# 4 0.000024 0.000009 -0.000040 0.034961 0.000036 0.012992
# 5 0.003677 0.000577 -0.002558 0.000036 0.032257 0.000025
# 6 0.000012 -0.000004 -0.000039 0.012992 0.000025 0.038629
#
#
# Mechanical properties :
#
#
# Convention : Reuss Voigt Hill
#
# Bulk Modulus (GPa) = 28.97131 34.25048 31.61089
# Shear Modulus (GPa) = 25.34643 29.91313 27.62978
#
# Velocity S-wave (km/s) = 3.48154 3.78220 3.63498
# Velocity P-wave (km/s) = 5.47870 5.95421 5.72140
#
# Compressibility (1/GPa) = 0.03451691
#
# Stress axis : x y z
#
# Youngs Moduli (GPa) = 63.86849 66.34206 37.75743
#
# Poissons Ratio (x) = 0.19733 0.40240
# Poissons Ratio (y) = 0.18997 -0.08619
# Poissons Ratio (z) = 0.68068 -0.15143
#
# Static dielectric constant tensor:
#      x y z
#    x 3.896890 -0.000110 -0.317230 
#    y -0.000110 3.893070 0.001690 
#    z -0.317230 0.001690 4.175980 
# 
# 
# High freq. dielectric constant tensor:
#      x y z
#    x 1.825240 0.000000 -0.025040 
#    y 0.000000 1.815210 0.000010 
#    z -0.025040 0.000010 1.811740 
# 
# From -- ./inp_files/224601.got.cif
#   From: 2010.06.25/outbox.cif.g09.slc.cpg/sg15_113_cif.got.tgz:224601.got - 2010.06.28 07:06:18.
