data_PCOD8142141
_publ_section_title
;
Structure prediction by ZEFSAII (Michael W. Deem and Ramdas Pophale) SiO2 
 PCOD8142141
Probable space group: C 2/C
;
_chemical_formula_sum "Si O2"
_cell_formula_units_Z 48
_cell_length_a 15.288358
_cell_length_b 18.094897
_cell_length_c 17.232707
_cell_angle_alpha 90.000000
_cell_angle_beta 150.706406
_cell_angle_gamma 90.000000
_cell_volume 2332.557279
_symmetry_space_group_name_H-M "C 2/C"
_symmetry_group_IT_number 15
_symmetry_cell_setting 'monoclinic'
loop_
_space_group_symop_operation_xyz
x,y,z
-x,y,1/2-z
-x,-y,-z
x,-y,1/2+z
1/2+x,1/2+y,z
1/2-x,1/2+y,1/2-z
1/2-x,1/2-y,-z
1/2+x,1/2-y,1/2+z
loop_
_atom_site_type_symbol
_atom_site_label
_atom_site_fract_x
_atom_site_fract_y
_atom_site_fract_z
Si Si1 0.505268 0.061792 0.845421
Si Si2 0.215184 0.348695 0.211104
Si Si3 0.509289 0.472290 0.095250
Si Si4 0.640934 0.604223 0.299144
Si Si5 0.638792 0.909425 0.791415
Si Si6 0.134897 0.306433 0.646320
O O1 0.500000 0.073032 0.750000
O O2 0.379451 0.124864 0.783375
O O3 0.433678 0.980365 0.812422
O O4 0.703145 0.066334 0.031381
O O5 0.329973 0.415433 0.264940
O O6 0.346142 0.281341 0.332467
O O7 0.066665 0.324911 0.033980
O O8 0.535430 0.542353 0.169932
O O9 0.500000 0.500000 0.000000
O O10 0.325042 0.431951 0.976225
O O11 0.500000 0.641413 0.250000
O O12 0.717972 0.666163 0.301525
O O13 0.500000 0.883785 0.750000
O O14 0.672765 0.842996 0.758583
#
# Coordination Sequence:
#
# PCOD8142141 Si02
#       6
#     8   8   8   8   8   8
#     4  10  21  38  62  93 126 161 215 264 314 372
#     4  11  24  40  64  89 124 173 207 261 320 375
#     4  12  22  40  67  92 127 164 213 257 310 371
#     4  11  23  38  64  97 127 167 210 261 316 378
#     4  11  22  40  66  92 125 166 209 265 313 369
#     4  11  24  42  61  91 132 166 212 258 320 379
#
# _framework density 20.578272999999999
#
# number of rings (size 3 to 8) (size 9 to 14) (size 15 to 20)
#    0.000    1.000    3.333    4.000    0.000    3.333 
#    0.000    7.500    0.000    0.000    0.000    0.000 
#    0.000    0.000    0.000    0.000    0.000    0.000 
#
# Total GULP energy -297709.759437 kJ/mol
# GULP energy per Si atom -12404.573310 kJ/mol
# Density = 2.053144 g / cm^3
# Si number density = 20.578273 Si / 1000 Ang^3
#
#
#
# Elastic Constant Matrix: (Units=GPa)
#
#
# Indices 1 2 3 4 5 6 
#
# 1 85.4813 11.8811 23.9855 0.0303 5.1478 0.0141
# 2 11.8811 68.4491 1.0076 -0.0190 -0.8169 -0.0014
# 3 23.9855 1.0076 77.6718 -0.0412 11.9144 -0.0150
# 4 0.0303 -0.0190 -0.0412 37.8748 -0.0153 6.9319
# 5 5.1478 -0.8169 11.9144 -0.0153 36.1660 -0.0013
# 6 0.0141 -0.0014 -0.0150 6.9319 -0.0013 14.1495
#
#
#
# Elastic Compliance Matrix: (Units=1/GPa)
#
#
# Indices 1 2 3 4 5 6 
#
# 1 0.013151 -0.002232 -0.003936 -0.000014 -0.000626 -0.000011
# 2 -0.002232 0.014997 0.000415 0.000010 0.000520 -0.000001
# 3 -0.003936 0.000415 0.014742 0.000016 -0.004287 0.000012
# 4 -0.000014 0.000010 0.000016 0.029003 0.000009 -0.014209
# 5 -0.000626 0.000520 -0.004287 0.000009 0.029163 -0.000005
# 6 -0.000011 -0.000001 0.000012 -0.014209 -0.000005 0.077635
#
#
# Mechanical properties :
#
#
# Convention : Reuss Voigt Hill
#
# Bulk Modulus (GPa) = 31.86374 33.92783 32.89578
# Shear Modulus (GPa) = 24.91782 30.61994 27.76888
#
# Velocity S-wave (km/s) = 3.48354 3.86161 3.67744
# Velocity P-wave (km/s) = 5.63009 6.03372 5.83539
#
# Compressibility (1/GPa) = 0.03138364
#
# Stress axis : x y z
#
# Youngs Moduli (GPa) = 76.04063 66.68026 67.83150
#
# Poissons Ratio (x) = 0.14884 0.26699
# Poissons Ratio (y) = 0.16974 -0.02815
# Poissons Ratio (z) = 0.29931 -0.02768
#
# Static dielectric constant tensor:
#      x y z
#    x 3.881560 -0.000040 0.052400 
#    y -0.000040 3.659560 -0.000040 
#    z 0.052400 -0.000040 4.037080 
# 
# 
# High freq. dielectric constant tensor:
#      x y z
#    x 1.804110 0.000000 0.011360 
#    y 0.000000 1.793850 -0.000010 
#    z 0.011360 -0.000010 1.822370 
# 
# From -- ./inp_files/206372.got.cif
#   From: 2010.06.25/outbox.cif.g09.slc.cpg/sg15_104_cif.got.tgz:206372.got - 2010.06.28 07:06:18.
