data_PCOD8142322
_publ_section_title
;
Structure prediction by ZEFSAII (Michael W. Deem and Ramdas Pophale) SiO2 
 PCOD8142322
Probable space group: C 2/C
;
_chemical_formula_sum "Si O2"
_cell_formula_units_Z 48
_cell_length_a 14.321127
_cell_length_b 11.469201
_cell_length_c 21.579252
_cell_angle_alpha 90.000000
_cell_angle_beta 139.663295
_cell_angle_gamma 90.000000
_cell_volume 2294.234187
_symmetry_space_group_name_H-M "C 2/C"
_symmetry_group_IT_number 15
_symmetry_cell_setting 'monoclinic'
loop_
_space_group_symop_operation_xyz
x,y,z
-x,y,1/2-z
-x,-y,-z
x,-y,1/2+z
1/2+x,1/2+y,z
1/2-x,1/2+y,1/2-z
1/2-x,1/2-y,-z
1/2+x,1/2-y,1/2+z
loop_
_atom_site_type_symbol
_atom_site_label
_atom_site_fract_x
_atom_site_fract_y
_atom_site_fract_z
Si Si1 0.416557 0.575008 0.148383
Si Si2 0.280775 0.220581 0.653655
Si Si3 0.915846 0.518445 0.262797
Si Si4 0.507339 0.192219 0.516482
Si Si5 0.619435 0.024235 0.482010
Si Si6 0.659251 0.338624 0.690614
O O1 0.500000 0.518609 0.250000
O O2 0.362710 0.704638 0.141865
O O3 0.519628 0.587278 0.140685
O O4 0.291525 0.489487 0.060271
O O5 0.268720 0.290624 0.711415
O O6 0.111036 0.204271 0.551046
O O7 0.364646 0.101499 0.705259
O O8 0.773816 0.582261 0.213495
O O9 0.000000 0.586799 0.250000
O O10 0.031413 0.500306 0.375281
O O11 0.420200 0.076527 0.489981
O O12 0.620488 0.231967 0.625523
O O13 0.589942 0.153813 0.495062
#
# Coordination Sequence:
#
# PCOD8142322 Si02
#       6
#     8   8   8   8   8   8
#     4   9  21  38  62  96 122 156 205 255 298 356
#     4  10  21  40  63  93 124 155 206 255 303 354
#     4  12  25  41  63  92 125 161 202 257 307 358
#     4  10  21  38  66  91 121 166 201 249 300 369
#     4  10  21  40  66  90 120 163 212 240 301 367
#     4  11  22  40  62  92 124 157 205 256 304 355
#
# _framework density 20.922014000000001
#
# number of rings (size 3 to 8) (size 9 to 14) (size 15 to 20)
#    0.000    1.667    3.333    1.500    4.667    2.000 
#    0.000    3.333    0.000    0.000    0.000    0.000 
#    0.000    0.000    0.000    0.000    0.000    0.000 
#
# Total GULP energy -297465.339810 kJ/mol
# GULP energy per Si atom -12394.389159 kJ/mol
# Density = 2.087439 g / cm^3
# Si number density = 20.922014 Si / 1000 Ang^3
#
#
#
# Elastic Constant Matrix: (Units=GPa)
#
#
# Indices 1 2 3 4 5 6 
#
# 1 156.1841 46.4333 42.8020 0.0000 11.5203 0.0000
# 2 46.4333 33.3236 30.8196 0.0000 9.1317 0.0000
# 3 42.8020 30.8196 102.4663 0.0000 11.8392 0.0000
# 4 0.0000 0.0000 0.0000 20.5238 0.0000 -9.5987
# 5 11.5203 9.1317 11.8392 0.0000 31.3924 0.0000
# 6 0.0000 0.0000 0.0000 -9.5987 0.0000 16.3188
#
#
#
# Elastic Compliance Matrix: (Units=1/GPa)
#
#
# Indices 1 2 3 4 5 6 
#
# 1 0.010937 -0.015365 0.000000 0.000000 0.000456 0.000000
# 2 -0.015365 0.065025 -0.012135 0.000000 -0.008700 0.000000
# 3 0.000000 -0.012135 0.013594 0.000000 -0.001597 0.000000
# 4 0.000000 0.000000 0.000000 0.067214 0.000000 0.039535
# 5 0.000456 -0.008700 -0.001597 0.000000 0.034821 0.000000
# 6 0.000000 0.000000 0.000000 0.039535 0.000000 0.084533
#
#
# Mechanical properties :
#
#
# Convention : Reuss Voigt Hill
#
# Bulk Modulus (GPa) = 28.93773 59.12044 44.02908
# Shear Modulus (GPa) = 14.59257 25.10828 19.85042
#
# Velocity S-wave (km/s) = 2.64384 3.46799 3.08357
# Velocity P-wave (km/s) = 4.81468 6.65994 5.81102
#
# Compressibility (1/GPa) = 0.03455696
#
# Stress axis : x y z
#
# Youngs Moduli (GPa) = 91.43349 15.37877 73.56400
#
# Poissons Ratio (x) = 0.23629 -0.00001
# Poissons Ratio (y) = 1.40483 0.89268
# Poissons Ratio (z) = -0.00001 0.18662
#
# Static dielectric constant tensor:
#      x y z
#    x 3.958730 0.000000 0.130780 
#    y 0.000000 3.361320 0.000000 
#    z 0.130780 0.000000 3.940680 
# 
# 
# High freq. dielectric constant tensor:
#      x y z
#    x 1.823330 0.000000 0.006620 
#    y 0.000000 1.770960 0.000000 
#    z 0.006620 0.000000 1.837310 
# 
# From -- ./inp_files/243922.got.cif
#   From: 2010.06.25/outbox.cif.g09.slc.cpg/sg15_122_cif.got.tgz:243922.got - 2010.06.28 07:06:18.
