data_PCOD8142333
_publ_section_title
;
Structure prediction by ZEFSAII (Michael W. Deem and Ramdas Pophale) SiO2 
 PCOD8142333
Probable space group: C 2/C
;
_chemical_formula_sum "Si O2"
_cell_formula_units_Z 48
_cell_length_a 9.817817
_cell_length_b 15.183724
_cell_length_c 26.664893
_cell_angle_alpha 90.000000
_cell_angle_beta 37.999679
_cell_angle_gamma 90.000000
_cell_volume 2447.213971
_symmetry_space_group_name_H-M "C 2/C"
_symmetry_group_IT_number 15
_symmetry_cell_setting 'monoclinic'
loop_
_space_group_symop_operation_xyz
x,y,z
-x,y,1/2-z
-x,-y,-z
x,-y,1/2+z
1/2+x,1/2+y,z
1/2-x,1/2+y,1/2-z
1/2-x,1/2-y,-z
1/2+x,1/2-y,1/2+z
loop_
_atom_site_type_symbol
_atom_site_label
_atom_site_fract_x
_atom_site_fract_y
_atom_site_fract_z
Si Si1 0.166639 0.823052 0.061901
Si Si2 0.756270 0.059388 0.800122
Si Si3 0.595762 0.417378 0.920364
Si Si4 0.758279 0.579374 0.810758
Si Si5 0.225872 0.238851 0.658136
Si Si6 0.684802 0.970454 0.544716
O O1 0.194549 0.796840 0.111150
O O2 0.908126 0.842219 0.126331
O O3 0.250000 0.750000 0.000000
O O4 0.297274 0.914350 0.011973
O O5 0.775559 0.048200 0.735729
O O6 0.677868 0.158171 0.837276
O O7 0.000000 0.036856 0.750000
O O8 0.572745 0.992124 0.873852
O O9 0.727064 0.493299 0.853507
O O10 0.611470 0.322759 0.888477
O O11 0.715438 0.409402 0.939686
O O12 0.335277 0.441032 0.999399
O O13 0.000000 0.618904 0.750000
O O14 0.000000 0.270299 0.750000
#
# Coordination Sequence:
#
# PCOD8142333 Si02
#       6
#     8   8   8   8   8   8
#     4  11  22  40  65  92 129 164 210 260 319 368
#     4  11  23  42  63  92 133 168 204 259 326 374
#     4  10  21  38  66  95 118 165 220 258 303 379
#     4  11  21  40  67  91 125 168 213 259 309 379
#     4  11  22  39  64  91 131 171 205 257 321 376
#     4  10  22  39  65  93 124 164 214 260 312 374
#
# _framework density 19.614141
#
# number of rings (size 3 to 8) (size 9 to 14) (size 15 to 20)
#    0.000    1.333    6.667    0.500    0.000    1.333 
#    0.000    0.833    0.000    0.000    0.000    0.000 
#    0.000    0.000    0.000    0.000    0.000    0.000 
#
# Total GULP energy -297542.784129 kJ/mol
# GULP energy per Si atom -12397.616005 kJ/mol
# Density = 1.956950 g / cm^3
# Si number density = 19.614141 Si / 1000 Ang^3
#
#
#
# Elastic Constant Matrix: (Units=GPa)
#
#
# Indices 1 2 3 4 5 6 
#
# 1 68.8351 13.5529 44.8785 0.0059 -0.8078 0.0024
# 2 13.5529 66.8462 39.8296 0.0243 -6.1831 0.0069
# 3 44.8785 39.8296 138.0448 0.0240 -10.3311 0.0062
# 4 0.0059 0.0243 0.0240 74.2603 0.0107 11.9617
# 5 -0.8078 -6.1831 -10.3311 0.0107 42.1318 0.0012
# 6 0.0024 0.0069 0.0062 11.9617 0.0012 25.2818
#
#
#
# Elastic Compliance Matrix: (Units=1/GPa)
#
#
# Indices 1 2 3 4 5 6 
#
# 1 0.018492 -0.000269 -0.006021 0.000001 -0.001161 -0.000001
# 2 -0.000269 0.018151 -0.005043 -0.000004 0.001422 -0.000002
# 3 -0.006021 -0.005043 0.010791 -0.000002 0.001790 0.000000
# 4 0.000001 -0.000004 -0.000002 0.014577 -0.000005 -0.006897
# 5 -0.001161 0.001422 0.001790 -0.000005 0.024360 0.000000
# 6 -0.000001 -0.000002 0.000000 -0.006897 0.000000 0.042817
#
#
# Mechanical properties :
#
#
# Convention : Reuss Voigt Hill
#
# Bulk Modulus (GPa) = 40.37625 52.24979 46.31302
# Shear Modulus (GPa) = 31.22836 40.03245 35.63041
#
# Velocity S-wave (km/s) = 3.99449 4.52264 4.26674
# Velocity P-wave (km/s) = 6.47337 7.34636 6.92364
#
# Compressibility (1/GPa) = 0.02476704
#
# Stress axis : x y z
#
# Youngs Moduli (GPa) = 54.07613 55.09446 92.67353
#
# Poissons Ratio (x) = 0.01482 0.55801
# Poissons Ratio (y) = 0.01455 0.46736
# Poissons Ratio (z) = 0.32560 0.27784
#
# Static dielectric constant tensor:
#      x y z
#    x 8.667290 0.000080 -2.035300 
#    y 0.000080 3.545190 -0.000040 
#    z -2.035300 -0.000040 4.913850 
# 
# 
# High freq. dielectric constant tensor:
#      x y z
#    x 1.746930 0.000000 0.017870 
#    y 0.000000 1.753260 0.000000 
#    z 0.017870 0.000000 1.788140 
# 
# From -- ./inp_files/189226.got.cif
#   From: 2010.06.25/outbox.cif.g09.slc.cpg/sg15_95_cif.got.tgz:189226.got - 2010.06.28 07:06:18.
