data_PCOD8142429
_publ_section_title
;
Structure prediction by ZEFSAII (Michael W. Deem and Ramdas Pophale) SiO2 
 PCOD8142429
Probable space group: C 2/C
;
_chemical_formula_sum "Si O2"
_cell_formula_units_Z 52
_cell_length_a 30.358345
_cell_length_b 13.982891
_cell_length_c 20.946880
_cell_angle_alpha 90.000000
_cell_angle_beta 162.507471
_cell_angle_gamma 90.000000
_cell_volume 2672.739102
_symmetry_space_group_name_H-M "C 2/C"
_symmetry_group_IT_number 15
_symmetry_cell_setting 'monoclinic'
loop_
_space_group_symop_operation_xyz
x,y,z
-x,y,1/2-z
-x,-y,-z
x,-y,1/2+z
1/2+x,1/2+y,z
1/2-x,1/2+y,1/2-z
1/2-x,1/2-y,-z
1/2+x,1/2-y,1/2+z
loop_
_atom_site_type_symbol
_atom_site_label
_atom_site_fract_x
_atom_site_fract_y
_atom_site_fract_z
Si Si1 0.994513 0.850418 0.532089
Si Si2 0.500000 0.052658 0.750000
Si Si3 0.185778 0.356306 0.401087
Si Si4 0.977788 0.360192 0.456933
Si Si5 0.724720 0.506384 0.303392
Si Si6 0.005500 0.899206 0.687209
Si Si7 0.770095 0.505885 0.222426
O O1 0.962600 0.835312 0.564612
O O2 0.002846 0.752195 0.504388
O O3 0.145938 0.908604 0.733752
O O4 0.866276 0.908795 0.320217
O O5 0.420034 0.123385 0.687312
O O6 0.382162 0.984934 0.552333
O O7 0.250000 0.250000 0.500000
O O8 0.090128 0.373075 0.206535
O O9 0.324639 0.429438 0.588521
O O10 0.863598 0.406519 0.349374
O O11 0.135931 0.412100 0.683281
O O12 0.745600 0.541233 0.260148
O O13 0.000000 0.846905 0.750000
O O14 0.891515 0.988624 0.532213
#
# Coordination Sequence:
#
# PCOD8142429 Si02
#       7
#     8   4   8   8   8   8   8
#     4  10  22  38  60  87 122 158 196 245 298 363
#     4  12  22  38  60  82 122 156 198 254 288 362
#     4  12  23  34  59  95 120 152 192 249 313 362
#     4  11  21  39  57  90 121 156 201 241 301 362
#     4  10  21  39  58  85 114 160 202 242 304 344
#     4  11  21  36  58  90 127 157 188 242 301 361
#     4  10  23  36  58  84 123 163 194 243 300 357
#
# _framework density 19.455696
#
# number of rings (size 3 to 8) (size 9 to 14) (size 15 to 20)
#    0.000    1.231    6.154    0.000    1.077    3.692 
#    0.000    0.000    1.692    0.923    0.000    0.000 
#    0.000    0.000    0.000    0.000    0.000    0.000 
#
# Total GULP energy -322129.392215 kJ/mol
# GULP energy per Si atom -12389.592008 kJ/mol
# Density = 1.941141 g / cm^3
# Si number density = 19.455696 Si / 1000 Ang^3
#
#
#
# Elastic Constant Matrix: (Units=GPa)
#
#
# Indices 1 2 3 4 5 6 
#
# 1 102.8243 28.5349 29.5268 -0.0001 13.1022 -0.0001
# 2 28.5349 97.7660 46.3822 -0.0001 5.2655 -0.0001
# 3 29.5268 46.3822 144.2258 -0.0001 17.7219 -0.0001
# 4 -0.0001 -0.0001 -0.0001 17.7133 -0.0001 1.8321
# 5 13.1022 5.2655 17.7219 -0.0001 29.8651 -0.0001
# 6 -0.0001 -0.0001 -0.0001 1.8321 -0.0001 16.7200
#
#
#
# Elastic Compliance Matrix: (Units=1/GPa)
#
#
# Indices 1 2 3 4 5 6 
#
# 1 0.011224 -0.002600 -0.000985 0.000000 -0.003881 0.000000
# 2 -0.002600 0.012673 -0.003677 0.000000 0.001088 0.000000
# 3 -0.000985 -0.003677 0.008829 0.000000 -0.004159 0.000000
# 4 0.000000 0.000000 0.000000 0.057102 0.000000 -0.006257
# 5 -0.003881 0.001088 -0.004159 0.000000 0.037463 0.000000
# 6 0.000000 0.000000 0.000000 -0.006257 0.000000 0.060494
#
#
# Mechanical properties :
#
#
# Convention : Reuss Voigt Hill
#
# Bulk Modulus (GPa) = 54.93692 61.52265 58.22979
# Shear Modulus (GPa) = 23.99512 28.88449 26.43981
#
# Velocity S-wave (km/s) = 3.51568 3.85727 3.69043
# Velocity P-wave (km/s) = 6.69165 7.17834 6.93927
#
# Compressibility (1/GPa) = 0.01820270
#
# Stress axis : x y z
#
# Youngs Moduli (GPa) = 89.09339 78.90688 113.26653
#
# Poissons Ratio (x) = 0.20513 0.11156
# Poissons Ratio (y) = 0.23162 0.41649
# Poissons Ratio (z) = 0.08775 0.29015
#
# Static dielectric constant tensor:
#      x y z
#    x 3.786320 0.000000 0.206910 
#    y 0.000000 3.282380 0.000000 
#    z 0.206910 0.000000 3.983460 
# 
# 
# High freq. dielectric constant tensor:
#      x y z
#    x 1.769830 0.000000 0.018130 
#    y 0.000000 1.706960 0.000000 
#    z 0.018130 0.000000 1.772490 
# 
# From -- ./inp_files/248868.got.cif
#   From: 2010.06.25/outbox.cif.g09.slc.cpg/sg15_125_cif.got.tgz:248868.got - 2010.06.28 07:06:18.
