data_PCOD8142500
_publ_section_title
;
Structure prediction by ZEFSAII (Michael W. Deem and Ramdas Pophale) SiO2 
 PCOD8142500
Probable space group: C 2/C
;
_chemical_formula_sum "Si O2"
_cell_formula_units_Z 44
_cell_length_a 19.913834
_cell_length_b 8.199916
_cell_length_c 13.271080
_cell_angle_alpha 90.000000
_cell_angle_beta 79.209300
_cell_angle_gamma 90.000000
_cell_volume 2128.739417
_symmetry_space_group_name_H-M "C 2/C"
_symmetry_group_IT_number 15
_symmetry_cell_setting 'monoclinic'
loop_
_space_group_symop_operation_xyz
x,y,z
-x,y,1/2-z
-x,-y,-z
x,-y,1/2+z
1/2+x,1/2+y,z
1/2-x,1/2+y,1/2-z
1/2-x,1/2-y,-z
1/2+x,1/2-y,1/2+z
loop_
_atom_site_type_symbol
_atom_site_label
_atom_site_fract_x
_atom_site_fract_y
_atom_site_fract_z
Si Si1 0.056510 0.950649 0.564494
Si Si2 0.133740 0.547734 0.714707
Si Si3 0.653411 0.283179 0.097717
Si Si4 0.500000 0.213953 0.750000
Si Si5 0.297282 0.905434 0.107203
Si Si6 0.671464 0.218076 0.503187
O O1 0.123003 0.871362 0.488265
O O2 0.022294 0.827667 0.651796
O O3 0.084213 0.110861 0.615040
O O4 0.000000 0.000000 0.500000
O O5 0.145888 0.358089 0.683806
O O6 0.186890 0.625263 0.780029
O O7 0.140692 0.650091 0.613107
O O8 0.057871 0.589834 0.775135
O O9 0.715850 0.400090 0.113832
O O10 0.667275 0.219315 0.980421
O O11 0.331085 0.083453 0.083333
O O12 0.750000 0.250000 0.500000
#
# Coordination Sequence:
#
# PCOD8142500 Si02
#       6
#     8   8   8   4   8   8
#     4  11  23  41  64  90 123 166 207 253 311 371
#     4  10  23  39  62  86 127 163 197 253 317 364
#     4  10  22  38  62  92 121 155 215 254 297 384
#     4  10  24  42  56  88 130 160 204 250 304 388
#     4  10  21  39  60  92 121 160 199 261 315 357
#     4  10  21  40  60  90 126 155 204 260 306 370
#
# _framework density 20.669508
#
# number of rings (size 3 to 8) (size 9 to 14) (size 15 to 20)
#    0.000    1.818    1.818    1.091    2.545    3.636 
#    0.000    5.455    0.000    0.000    0.000    0.000 
#    0.000    0.000    0.000    0.000    0.000    0.000 
#
# Total GULP energy -272667.630606 kJ/mol
# GULP energy per Si atom -12393.983209 kJ/mol
# Density = 2.062246 g / cm^3
# Si number density = 20.669508 Si / 1000 Ang^3
#
#
#
# Elastic Constant Matrix: (Units=GPa)
#
#
# Indices 1 2 3 4 5 6 
#
# 1 149.9752 56.7144 36.4356 0.0000 6.7647 0.0000
# 2 56.7144 95.5463 31.9815 0.0000 2.3765 0.0000
# 3 36.4356 31.9815 53.7458 0.0000 8.5772 0.0000
# 4 0.0000 0.0000 0.0000 15.6807 0.0000 -10.3313
# 5 6.7647 2.3765 8.5772 0.0000 33.9184 0.0000
# 6 0.0000 0.0000 0.0000 -10.3313 0.0000 44.2197
#
#
#
# Elastic Compliance Matrix: (Units=1/GPa)
#
#
# Indices 1 2 3 4 5 6 
#
# 1 0.009167 -0.004219 -0.003605 0.000000 -0.000621 0.000000
# 2 -0.004219 0.015050 -0.006316 0.000000 0.001384 0.000000
# 3 -0.003605 -0.006316 0.025658 0.000000 -0.005327 0.000000
# 4 0.000000 0.000000 0.000000 0.075375 0.000000 0.017610
# 5 -0.000621 0.001384 -0.005327 0.000000 0.030856 0.000000
# 6 0.000000 0.000000 0.000000 0.017610 0.000000 0.026729
#
#
# Mechanical properties :
#
#
# Convention : Reuss Voigt Hill
#
# Bulk Modulus (GPa) = 46.30651 61.05894 53.68272
# Shear Modulus (GPa) = 22.90259 30.37282 26.63770
#
# Velocity S-wave (km/s) = 3.33233 3.83750 3.59380
# Velocity P-wave (km/s) = 6.10392 7.01712 6.57639
#
# Compressibility (1/GPa) = 0.02159524
#
# Stress axis : x y z
#
# Youngs Moduli (GPa) = 109.08530 66.44324 38.97347
#
# Poissons Ratio (x) = 0.28035 0.14049
# Poissons Ratio (y) = 0.46027 0.24617
# Poissons Ratio (z) = 0.39323 0.41967
#
# Static dielectric constant tensor:
#      x y z
#    x 3.841500 0.000000 -0.126580 
#    y 0.000000 3.974430 0.000000 
#    z -0.126580 0.000000 3.629540 
# 
# 
# High freq. dielectric constant tensor:
#      x y z
#    x 1.817110 0.000000 -0.002150 
#    y 0.000000 1.813770 0.000000 
#    z -0.002150 0.000000 1.797040 
# 
# From -- ./inp_files/159268.got.cif
#   From: 2010.06.25/outbox.cif.g09.slc.cpg/sg15_80_cif.got.tgz:159268.got - 2010.06.28 07:06:18.
