data_PCOD8142103
_publ_section_title
;
Structure prediction by ZEFSAII (Michael W. Deem and Ramdas Pophale) SiO2 
 PCOD8142103
Probable space group: C 2/C
;
_chemical_formula_sum "Si O2"
_cell_formula_units_Z 48
_cell_length_a 23.916391
_cell_length_b 14.343621
_cell_length_c 14.047491
_cell_angle_alpha 90.000000
_cell_angle_beta 31.650033
_cell_angle_gamma 90.000000
_cell_volume 2528.649664
_symmetry_space_group_name_H-M "C 2/C"
_symmetry_group_IT_number 15
_symmetry_cell_setting 'monoclinic'
loop_
_space_group_symop_operation_xyz
x,y,z
-x,y,1/2-z
-x,-y,-z
x,-y,1/2+z
1/2+x,1/2+y,z
1/2-x,1/2+y,1/2-z
1/2-x,1/2-y,-z
1/2+x,1/2-y,1/2+z
loop_
_atom_site_type_symbol
_atom_site_label
_atom_site_fract_x
_atom_site_fract_y
_atom_site_fract_z
Si Si1 0.726039 0.708034 0.888424
Si Si2 0.595948 0.890908 0.798355
Si Si3 0.086498 0.196110 0.907951
Si Si4 0.755551 0.053891 0.907950
Si Si5 0.864463 0.458033 0.111577
Si Si6 0.144303 0.859093 0.701645
O O1 0.649365 0.725585 0.911117
O O2 0.809044 0.625001 0.749999
O O3 0.790887 0.802642 0.812322
O O4 0.653847 0.687622 0.084672
O O5 0.566976 0.786969 0.872657
O O6 0.679969 0.892676 0.591225
O O7 0.646792 0.947359 0.812320
O O8 0.488519 0.937623 0.915328
O O9 0.151705 0.125001 0.750000
O O10 0.978805 0.142677 0.091225
O O11 0.689519 0.024415 0.911115
O O12 0.810368 0.963032 0.872656
#
# Coordination Sequence:
#
# PCOD8142103 Si02
#       6
#     8   8   8   8   8   8
#     4  10  21  38  62  88 120 160 206 257 298 358
#     4  11  21  40  60  90 121 163 208 248 304 357
#     4  11  23  38  62  88 126 163 200 251 304 367
#     4  11  23  38  62  88 126 163 200 251 304 367
#     4  10  21  38  62  88 120 160 206 257 298 358
#     4  11  21  40  60  90 121 163 208 248 304 357
#
# _framework density 18.982462999999999
#
# number of rings (size 3 to 8) (size 9 to 14) (size 15 to 20)
#    0.000    1.333    3.333    3.000    0.000    0.000 
#    0.000    3.333    0.000    0.000    0.000    0.000 
#    0.000    0.000    0.000    0.000    0.000    0.000 
#
# Total GULP energy -297716.486959 kJ/mol
# GULP energy per Si atom -12404.853623 kJ/mol
# Density = 1.893926 g / cm^3
# Si number density = 18.982463 Si / 1000 Ang^3
#
#
#
# Elastic Constant Matrix: (Units=GPa)
#
#
# Indices 1 2 3 4 5 6 
#
# 1 34.8623 9.0901 26.8504 0.0000 -0.4552 0.0000
# 2 9.0901 58.1743 9.8476 0.0000 -0.0244 0.0000
# 3 26.8504 9.8476 128.2545 0.0000 -2.5552 0.0000
# 4 0.0000 0.0000 0.0000 30.9931 0.0000 -0.3920
# 5 -0.4552 -0.0244 -2.5552 0.0000 11.1352 0.0000
# 6 0.0000 0.0000 0.0000 -0.3920 0.0000 18.8376
#
#
#
# Elastic Compliance Matrix: (Units=1/GPa)
#
#
# Indices 1 2 3 4 5 6 
#
# 1 0.035235 -0.004313 -0.007049 0.000000 -0.000187 0.000000
# 2 -0.004313 0.017945 -0.000480 0.000000 -0.000247 0.000000
# 3 -0.007049 -0.000480 0.009347 0.000000 0.001856 0.000000
# 4 0.000000 0.000000 0.000000 0.032274 0.000000 0.000672
# 5 -0.000187 -0.000247 0.001856 0.000000 0.090223 0.000000
# 6 0.000000 0.000000 0.000000 0.000672 0.000000 0.053099
#
#
# Mechanical properties :
#
#
# Convention : Reuss Voigt Hill
#
# Bulk Modulus (GPa) = 25.74441 34.76305 30.25373
# Shear Modulus (GPa) = 18.19808 23.89337 21.04572
#
# Velocity S-wave (km/s) = 3.09961 3.55168 3.33332
# Velocity P-wave (km/s) = 5.13827 5.93062 5.54860
#
# Compressibility (1/GPa) = 0.03884339
#
# Stress axis : x y z
#
# Youngs Moduli (GPa) = 28.38048 55.72665 106.99086
#
# Poissons Ratio (x) = 0.24032 0.75420
# Poissons Ratio (y) = 0.12239 0.05135
# Poissons Ratio (z) = 0.20006 0.02674
#
# Static dielectric constant tensor:
#      x y z
#    x 3.410620 0.000000 -0.003700 
#    y 0.000000 3.479350 0.000000 
#    z -0.003700 0.000000 3.525440 
# 
# 
# High freq. dielectric constant tensor:
#      x y z
#    x 1.737990 0.000000 -0.000450 
#    y 0.000000 1.742100 0.000000 
#    z -0.000450 0.000000 1.751990 
# 
# From -- ./inp_files/97163.got.cif
#   From: 2010.06.25/outbox.cif.g09.slc.cpg/sg15_49_cif.got.tgz:97163.got - 2010.06.28 07:06:18.
