data_PCOD8142482
_publ_section_title
;
Structure prediction by ZEFSAII (Michael W. Deem and Ramdas Pophale) SiO2 
 PCOD8142482
Probable space group: C 2/C
;
_chemical_formula_sum "Si O2"
_cell_formula_units_Z 60
_cell_length_a 16.940750
_cell_length_b 15.434506
_cell_length_c 12.689185
_cell_angle_alpha 90.000000
_cell_angle_beta 116.821595
_cell_angle_gamma 90.000000
_cell_volume 2960.917834
_symmetry_space_group_name_H-M "C 2/C"
_symmetry_group_IT_number 15
_symmetry_cell_setting 'monoclinic'
loop_
_space_group_symop_operation_xyz
x,y,z
-x,y,1/2-z
-x,-y,-z
x,-y,1/2+z
1/2+x,1/2+y,z
1/2-x,1/2+y,1/2-z
1/2-x,1/2-y,-z
1/2+x,1/2-y,1/2+z
loop_
_atom_site_type_symbol
_atom_site_label
_atom_site_fract_x
_atom_site_fract_y
_atom_site_fract_z
Si Si1 0.088494 0.312029 0.744278
Si Si2 0.163978 0.264825 0.378821
Si Si3 0.500000 0.504884 0.750000
Si Si4 0.745344 0.580465 0.112689
Si Si5 0.160444 0.873158 0.352371
Si Si6 0.407916 0.364649 0.826596
Si Si7 0.435966 0.263677 0.491987
Si Si8 0.279787 0.609459 0.841030
O O1 0.157327 0.390602 0.792962
O O2 0.129064 0.224948 0.818015
O O3 0.064806 0.299052 0.607878
O O4 0.000000 0.340322 0.750000
O O5 0.250000 0.250000 0.500000
O O6 0.127159 0.178581 0.301631
O O7 0.088485 0.292299 0.417807
O O8 0.189926 0.334591 0.305215
O O9 0.421673 0.566805 0.662747
O O10 0.465598 0.448237 0.827847
O O11 0.676570 0.613763 0.156420
O O12 0.736650 0.477233 0.102667
O O13 0.729913 0.622050 0.988859
O O14 0.208587 0.908603 0.276239
O O15 0.466614 0.301947 0.934332
O O16 0.366931 0.342869 0.437022
#
# Coordination Sequence:
#
# PCOD8142482 Si02
#       8
#     8   8   4   8   8   8   8   8
#     4  11  24  44  60  87 126 173 214 254 310 374
#     4  10  21  39  60  87 126 163 202 255 311 373
#     4  12  22  36  66 100 134 148 200 266 330 378
#     4  12  25  38  65  89 126 171 213 254 311 382
#     4  11  23  40  61  94 131 162 201 261 326 382
#     4  12  22  38  62 100 125 159 206 259 334 381
#     4  10  21  39  66  89 124 161 202 269 326 376
#     4  10  23  39  60  92 124 161 212 259 308 370
#
# _framework density 20.263987
#
# number of rings (size 3 to 8) (size 9 to 14) (size 15 to 20)
#    0.000    1.067    3.333    4.400    3.733    3.200 
#    0.000    1.333    0.000    2.400    0.000    0.000 
#    0.000    0.000    0.000    0.000    0.000    0.000 
#
# Total GULP energy -372026.133369 kJ/mol
# GULP energy per Si atom -12400.871112 kJ/mol
# Density = 2.021787 g / cm^3
# Si number density = 20.263987 Si / 1000 Ang^3
#
#
#
# Elastic Constant Matrix: (Units=GPa)
#
#
# Indices 1 2 3 4 5 6 
#
# 1 124.8750 49.9159 29.4955 0.0000 -16.4089 0.0000
# 2 49.9159 46.4111 27.6287 0.0000 0.5628 0.0000
# 3 29.4955 27.6287 88.8961 0.0000 -12.8419 0.0000
# 4 0.0000 0.0000 0.0000 21.9530 0.0000 0.8289
# 5 -16.4089 0.5628 -12.8419 0.0000 34.5635 0.0000
# 6 0.0000 0.0000 0.0000 0.8289 0.0000 26.7509
#
#
#
# Elastic Compliance Matrix: (Units=1/GPa)
#
#
# Indices 1 2 3 4 5 6 
#
# 1 0.016091 -0.018363 0.001601 0.000000 0.008533 0.000000
# 2 -0.018363 0.047844 -0.010725 0.000000 -0.013482 0.000000
# 3 0.001601 -0.010725 0.014991 0.000000 0.006504 0.000000
# 4 0.000000 0.000000 0.000000 0.045605 0.000000 -0.001413
# 5 0.008533 -0.013482 0.006504 0.000000 0.035619 0.000000
# 6 0.000000 0.000000 0.000000 -0.001413 0.000000 0.037426
#
#
# Mechanical properties :
#
#
# Convention : Reuss Voigt Hill
#
# Bulk Modulus (GPa) = 41.74900 52.69584 47.22242
# Shear Modulus (GPa) = 19.19134 26.86296 23.02715
#
# Velocity S-wave (km/s) = 3.08078 3.64490 3.37465
# Velocity P-wave (km/s) = 5.77081 6.61626 6.20794
#
# Compressibility (1/GPa) = 0.02395267
#
# Stress axis : x y z
#
# Youngs Moduli (GPa) = 62.14525 20.90125 66.70786
#
# Poissons Ratio (x) = 0.38381 -0.10678
# Poissons Ratio (y) = 1.14117 0.71541
# Poissons Ratio (z) = -0.09948 0.22416
#
# Static dielectric constant tensor:
#      x y z
#    x 4.026880 0.000000 -0.264470 
#    y 0.000000 3.668070 0.000000 
#    z -0.264470 0.000000 3.802540 
# 
# 
# High freq. dielectric constant tensor:
#      x y z
#    x 1.800340 0.000000 -0.014550 
#    y 0.000000 1.767170 0.000000 
#    z -0.014550 0.000000 1.797330 
# 
# From -- ./inp_files/105753.got.cif
#   From: 2010.06.25/outbox.cif.g09.slc.cpg/sg15_53_cif.got.tgz:105753.got - 2010.06.28 07:06:18.
