data_PCOD8142624
_publ_section_title
;
Structure prediction by ZEFSAII (Michael W. Deem and Ramdas Pophale) SiO2 
 PCOD8142624
Probable space group: C 2/C
;
_chemical_formula_sum "Si O2"
_cell_formula_units_Z 56
_cell_length_a 21.637808
_cell_length_b 16.647341
_cell_length_c 21.595251
_cell_angle_alpha 90.000000
_cell_angle_beta 159.800871
_cell_angle_gamma 90.000000
_cell_volume 2685.918085
_symmetry_space_group_name_H-M "C 2/C"
_symmetry_group_IT_number 15
_symmetry_cell_setting 'monoclinic'
loop_
_space_group_symop_operation_xyz
x,y,z
-x,y,1/2-z
-x,-y,-z
x,-y,1/2+z
1/2+x,1/2+y,z
1/2-x,1/2+y,1/2-z
1/2-x,1/2-y,-z
1/2+x,1/2-y,1/2+z
loop_
_atom_site_type_symbol
_atom_site_label
_atom_site_fract_x
_atom_site_fract_y
_atom_site_fract_z
Si Si1 0.690741 0.423520 0.629379
Si Si2 0.416712 0.442260 0.838001
Si Si3 0.096371 0.815863 0.775024
Si Si4 0.275357 0.853526 0.471030
Si Si5 0.053869 0.509295 0.441423
Si Si6 0.505044 0.141240 0.825428
Si Si7 0.106944 0.819724 0.438792
O O1 0.607886 0.401036 0.618007
O O2 0.575868 0.493765 0.489117
O O3 0.677444 0.346535 0.572213
O O4 0.899934 0.446718 0.836576
O O5 0.485376 0.373849 0.854549
O O6 0.227491 0.484854 0.644274
O O7 0.000000 0.826951 0.750000
O O8 0.104894 0.722296 0.763567
O O9 0.294494 0.842948 0.968125
O O10 0.382099 0.933635 0.554300
O O11 0.238587 0.855385 0.509935
O O12 0.396578 0.776708 0.567962
O O13 0.092686 0.851130 0.260147
O O14 0.945475 0.433184 0.311352
O O15 0.500000 0.115227 0.750000
#
# Coordination Sequence:
#
# PCOD8142624 Si02
#       7
#     8   8   8   8   8   8   8
#     4  11  23  40  66  85 129 167 204 257 316 365
#     4  10  24  43  59  93 121 165 214 254 307 377
#     4  10  21  39  63  85 126 153 207 259 306 362
#     4  10  21  39  62  97 129 160 212 259 309 376
#     4  11  23  39  65  91 130 160 211 255 313 375
#     4  10  22  36  60  96 120 158 201 252 313 367
#     4  10  21  39  64  93 130 165 205 262 312 365
#
# _framework density 20.849481000000001
#
# number of rings (size 3 to 8) (size 9 to 14) (size 15 to 20)
#    0.000    1.714    1.429    3.000    6.000    2.286 
#    0.000    7.143    0.000    0.000    0.000    0.000 
#    0.000    0.000    0.000    0.000    0.000    0.000 
#
# Total GULP energy -347150.043568 kJ/mol
# GULP energy per Si atom -12398.215842 kJ/mol
# Density = 2.080203 g / cm^3
# Si number density = 20.849481 Si / 1000 Ang^3
#
#
#
# Elastic Constant Matrix: (Units=GPa)
#
#
# Indices 1 2 3 4 5 6 
#
# 1 95.2477 51.9599 15.7369 0.1154 -11.3946 -0.0158
# 2 51.9599 91.7260 17.5967 0.2448 -5.3380 0.0560
# 3 15.7369 17.5967 51.9774 0.1463 -4.4348 0.0817
# 4 0.1154 0.2448 0.1463 62.9996 0.0406 -6.7908
# 5 -11.3946 -5.3380 -4.4348 0.0406 27.4915 -0.0037
# 6 -0.0158 0.0560 0.0817 -6.7908 -0.0037 22.8937
#
#
#
# Elastic Compliance Matrix: (Units=1/GPa)
#
#
# Indices 1 2 3 4 5 6 
#
# 1 0.015930 -0.008451 -0.001560 0.000009 0.004710 0.000041
# 2 -0.008451 0.016216 -0.003003 -0.000045 -0.000838 -0.000048
# 3 -0.001560 -0.003003 0.020911 -0.000044 0.002144 -0.000081
# 4 0.000009 -0.000045 -0.000044 0.016398 -0.000036 0.004864
# 5 0.004710 -0.000838 0.002144 -0.000036 0.038510 -0.000007
# 6 0.000041 -0.000048 -0.000081 0.004864 -0.000007 0.045124
#
#
# Mechanical properties :
#
#
# Convention : Reuss Voigt Hill
#
# Bulk Modulus (GPa) = 36.99534 45.50423 41.24979
# Shear Modulus (GPa) = 26.57780 32.92080 29.74930
#
# Velocity S-wave (km/s) = 3.57423 3.97794 3.78148
# Velocity P-wave (km/s) = 5.90051 6.55524 6.23648
#
# Compressibility (1/GPa) = 0.02703043
#
# Stress axis : x y z
#
# Youngs Moduli (GPa) = 62.77392 61.66588 47.82104
#
# Poissons Ratio (x) = 0.52111 0.07462
# Poissons Ratio (y) = 0.53047 0.14360
# Poissons Ratio (z) = 0.09795 0.18517
#
# Static dielectric constant tensor:
#      x y z
#    x 3.529330 0.000010 -0.070680 
#    y 0.000010 3.183620 -0.000150 
#    z -0.070680 -0.000150 3.866180 
# 
# 
# High freq. dielectric constant tensor:
#      x y z
#    x 1.801130 0.000000 -0.000220 
#    y 0.000000 1.813650 -0.000020 
#    z -0.000220 -0.000020 1.831130 
# 
# From -- ./inp_files/253378.got.cif
#   From: 2010.06.25/outbox.cif.g09.slc.cpg/sg15_127_cif.got.tgz:253378.got - 2010.06.28 07:06:18.
