data_PCOD8142136
_publ_section_title
;
Structure prediction by ZEFSAII (Michael W. Deem and Ramdas Pophale) SiO2 
 PCOD8142136
Probable space group: C 2/C
;
_chemical_formula_sum "Si O2"
_cell_formula_units_Z 48
_cell_length_a 8.791769
_cell_length_b 15.606094
_cell_length_c 15.644884
_cell_angle_alpha 90.000000
_cell_angle_beta 90.000000
_cell_angle_gamma 90.000000
_cell_volume 2146.559023
_symmetry_space_group_name_H-M "C 2/C"
_symmetry_group_IT_number 15
_symmetry_cell_setting 'monoclinic'
loop_
_space_group_symop_operation_xyz
x,y,z
-x,y,1/2-z
-x,-y,-z
x,-y,1/2+z
1/2+x,1/2+y,z
1/2-x,1/2+y,1/2-z
1/2-x,1/2-y,-z
1/2+x,1/2-y,1/2+z
loop_
_atom_site_type_symbol
_atom_site_label
_atom_site_fract_x
_atom_site_fract_y
_atom_site_fract_z
Si Si1 0.564202 0.587322 0.844871
Si Si2 0.935799 0.912678 0.844871
Si Si3 0.099979 0.416870 0.899238
Si Si4 0.083995 0.256477 0.402463
Si Si5 0.416005 0.756477 0.902463
Si Si6 0.099979 0.416870 0.100762
O O1 0.500000 0.598141 0.750000
O O2 0.500000 0.500000 0.886918
O O3 0.509153 0.668498 0.898768
O O4 0.745588 0.579896 0.845312
O O5 0.754412 0.920104 0.845312
O O6 0.000000 0.901860 0.750000
O O7 0.990848 0.831502 0.898768
O O8 0.011232 0.334276 0.861971
O O9 0.000000 0.500000 0.879163
O O10 0.138137 0.409499 0.000000
O O11 0.250000 0.250000 0.357048
O O12 0.111527 0.282633 0.500000
O O13 0.988768 0.334276 0.361970
#
# Coordination Sequence:
#
# PCOD8142136 Si02
#       6
#     8   8   8   8   8   8
#     4  11  24  40  57  86 124 164 204 243 301 367
#     4  11  24  40  57  86 124 164 204 243 301 367
#     4  10  21  40  67  94 120 155 203 259 310 358
#     4  10  21  38  62  92 121 153 199 251 302 357
#     4  10  21  38  62  92 121 153 199 251 302 357
#     4  10  21  40  67  94 120 155 203 259 310 358
#
# _framework density 22.361370000000001
#
# number of rings (size 3 to 8) (size 9 to 14) (size 15 to 20)
#    0.000    1.667    0.000    4.000    0.000   10.667 
#    0.000   10.000    0.000    0.000    0.000    0.000 
#    0.000    0.000    0.000    0.000    0.000    0.000 
#
# Total GULP energy -297640.991582 kJ/mol
# GULP energy per Si atom -12401.707983 kJ/mol
# Density = 2.231047 g / cm^3
# Si number density = 22.361370 Si / 1000 Ang^3
#
#
#
# Elastic Constant Matrix: (Units=GPa)
#
#
# Indices 1 2 3 4 5 6 
#
# 1 234.1215 95.4336 38.4545 0.0000 -0.0002 0.0000
# 2 95.4336 207.2805 7.2298 0.0000 -0.0002 0.0000
# 3 38.4545 7.2298 44.6213 0.0000 -0.0001 0.0000
# 4 0.0000 0.0000 0.0000 14.1886 0.0000 0.0000
# 5 -0.0002 -0.0002 -0.0001 0.0000 31.8408 0.0000
# 6 0.0000 0.0000 0.0000 0.0000 0.0000 51.2951
#
#
#
# Elastic Compliance Matrix: (Units=1/GPa)
#
#
# Indices 1 2 3 4 5 6 
#
# 1 0.006159 -0.002665 -0.004876 0.000000 0.000000 0.000000
# 2 -0.002665 0.006005 0.001324 0.000000 0.000000 0.000000
# 3 -0.004876 0.001324 0.026398 0.000000 0.000000 0.000000
# 4 0.000000 0.000000 0.000000 0.070479 0.000000 0.000000
# 5 0.000000 0.000000 0.000000 0.000000 0.031406 0.000000
# 6 0.000000 0.000000 0.000000 0.000000 0.000000 0.019495
#
#
# Mechanical properties :
#
#
# Convention : Reuss Voigt Hill
#
# Bulk Modulus (GPa) = 38.27307 85.36214 61.81760
# Shear Modulus (GPa) = 27.61125 42.45860 35.03493
#
# Velocity S-wave (km/s) = 3.51775 4.36219 3.96253
# Velocity P-wave (km/s) = 5.80106 7.97674 6.97426
#
# Compressibility (1/GPa) = 0.02612803
#
# Stress axis : x y z
#
# Youngs Moduli (GPa) = 162.37498 166.51747 37.88162
#
# Poissons Ratio (x) = 0.44384 0.18469
# Poissons Ratio (y) = 0.43280 -0.05016
# Poissons Ratio (z) = 0.79167 -0.22047
#
# Static dielectric constant tensor:
#      x y z
#    x 4.209310 0.000000 0.000000 
#    y 0.000000 4.319990 0.000000 
#    z 0.000000 0.000000 3.527290 
# 
# 
# High freq. dielectric constant tensor:
#      x y z
#    x 1.898750 0.000000 0.000000 
#    y 0.000000 1.901440 0.000000 
#    z 0.000000 0.000000 1.846970 
# 
# From -- ./inp_files/189255.got.cif
#   From: 2010.06.25/outbox.cif.g09.slc.cpg/sg15_95_cif.got.tgz:189255.got - 2010.06.28 07:06:18.
