data_PCOD8142914
_publ_section_title
;
Structure prediction by ZEFSAII (Michael W. Deem and Ramdas Pophale) SiO2 
 PCOD8142914
Probable space group: C 2/C
;
_chemical_formula_sum "Si O2"
_cell_formula_units_Z 56
_cell_length_a 7.730038
_cell_length_b 33.725714
_cell_length_c 11.184928
_cell_angle_alpha 90.000000
_cell_angle_beta 63.096055
_cell_angle_gamma 90.000000
_cell_volume 2600.321625
_symmetry_space_group_name_H-M "C 2/C"
_symmetry_group_IT_number 15
_symmetry_cell_setting 'monoclinic'
loop_
_space_group_symop_operation_xyz
x,y,z
-x,y,1/2-z
-x,-y,-z
x,-y,1/2+z
1/2+x,1/2+y,z
1/2-x,1/2+y,1/2-z
1/2-x,1/2-y,-z
1/2+x,1/2-y,1/2+z
loop_
_atom_site_type_symbol
_atom_site_label
_atom_site_fract_x
_atom_site_fract_y
_atom_site_fract_z
Si Si1 0.290843 0.108543 0.256889
Si Si2 0.000000 0.178680 0.750000
Si Si3 0.489902 0.450304 0.117731
Si Si4 0.500000 0.275398 0.750000
Si Si5 0.040965 0.867677 0.471092
Si Si6 0.725468 0.024864 0.162259
Si Si7 0.154636 0.726388 0.916537
Si Si8 0.685292 0.830683 0.941756
O O1 0.500000 0.111438 0.250000
O O2 0.227475 0.062449 0.267072
O O3 0.312592 0.125831 0.118207
O O4 0.131610 0.134207 0.378246
O O5 0.958065 0.151684 0.877312
O O6 0.178404 0.208016 0.717387
O O7 0.500000 0.435595 0.250000
O O8 0.400035 0.413463 0.071596
O O9 0.345899 0.487195 0.164474
O O10 0.701180 0.462561 0.995163
O O11 0.522558 0.252036 0.868300
O O12 0.309297 0.301157 0.822552
O O13 0.222519 0.840518 0.457245
O O14 0.500000 0.014047 0.250000
O O15 0.250000 0.750000 0.000000
O O16 0.026460 0.688508 0.994983
#
# Coordination Sequence:
#
# PCOD8142914 Si02
#       8
#     8   4   8   4   8   8   8   8
#     4  10  21  39  67  97 130 173 228 276 335 400
#     4  12  24  44  66  85 134 168 218 271 320 412
#     4  10  21  40  65  95 139 182 223 284 345 402
#     4  12  24  44  66 101 136 168 218 287 340 418
#     4  11  22  42  63  98 132 177 222 280 334 401
#     4   9  21  40  63  97 135 176 233 278 339 408
#     4  12  27  45  68  98 132 176 222 276 349 412
#     4  12  24  42  71  97 133 172 226 282 336 410
#
# _framework density 21.535796999999999
#
# number of rings (size 3 to 8) (size 9 to 14) (size 15 to 20)
#    0.000    1.143    2.143    3.857    2.000    4.000 
#    2.571    0.000    0.000    0.000    0.000    0.000 
#    0.000    0.000    0.000    0.000    0.000    0.000 
#
# Total GULP energy -347023.611349 kJ/mol
# GULP energy per Si atom -12393.700405 kJ/mol
# Density = 2.148678 g / cm^3
# Si number density = 21.535797 Si / 1000 Ang^3
#
#
#
# Elastic Constant Matrix: (Units=GPa)
#
#
# Indices 1 2 3 4 5 6 
#
# 1 96.5147 46.4667 42.0863 0.0000 -8.0537 0.0000
# 2 46.4667 114.9796 44.0554 0.0000 -2.7433 0.0000
# 3 42.0863 44.0554 93.6353 0.0000 -5.7418 0.0000
# 4 0.0000 0.0000 0.0000 -6.9435 0.0000 16.2247
# 5 -8.0537 -2.7433 -5.7418 0.0000 48.5558 0.0000
# 6 0.0000 0.0000 0.0000 16.2247 0.0000 23.7473
#
#
#
# Elastic Compliance Matrix: (Units=1/GPa)
#
#
# Indices 1 2 3 4 5 6 
#
# 1 0.014402 -0.004074 -0.004456 0.000000 0.001632 0.000000
# 2 -0.004074 0.011762 -0.003731 0.000000 -0.000452 0.000000
# 3 -0.004456 -0.003731 0.014485 0.000000 0.000763 0.000000
# 4 0.000000 0.000000 0.000000 -0.055467 0.000000 0.037897
# 5 0.001632 -0.000452 0.000763 0.000000 0.020930 0.000000
# 6 0.000000 0.000000 0.000000 0.037897 0.000000 0.016218
#
#
# Mechanical properties :
#
#
# Convention : Reuss Voigt Hill
#
# Bulk Modulus (GPa) = 62.00815 63.37182 62.68998
# Shear Modulus (GPa) = 95.73462 24.57334 60.15398
#
# Velocity S-wave (km/s) = 6.67460 3.38160 5.29082
# Velocity P-wave (km/s) = 9.39446 6.68858 8.15454
#
# Compressibility (1/GPa) = 0.01612691
#
# Stress axis : x y z
#
# Youngs Moduli (GPa) = 69.43544 85.01793 69.03735
#
# Poissons Ratio (x) = 0.34634 0.30766
# Poissons Ratio (y) = 0.28286 0.25757
# Poissons Ratio (z) = 0.30944 0.31719
#
# Static dielectric constant tensor:
#      x y z
#    x 3.703740 0.000000 -0.117730 
#    y 0.000000 4.162260 0.000000 
#    z -0.117730 0.000000 4.156460 
# 
# 
# High freq. dielectric constant tensor:
#      x y z
#    x 1.830120 0.000000 -0.008660 
#    y 0.000000 1.864230 0.000000 
#    z -0.008660 0.000000 1.850200 
# 
# From -- ./inp_files/82533.got.cif
#   From: 2010.06.25/outbox.cif.g09.slc.cpg/sg15_42_cif.got.tgz:82533.got - 2010.06.28 07:06:18.
