data_PCOD8142461
_publ_section_title
;
Structure prediction by ZEFSAII (Michael W. Deem and Ramdas Pophale) SiO2 
 PCOD8142461
Probable space group: C 2/C
;
_chemical_formula_sum "Si O2"
_cell_formula_units_Z 56
_cell_length_a 8.972392
_cell_length_b 12.375053
_cell_length_c 28.580170
_cell_angle_alpha 90.000000
_cell_angle_beta 118.388026
_cell_angle_gamma 90.000000
_cell_volume 2791.761922
_symmetry_space_group_name_H-M "C 2/C"
_symmetry_group_IT_number 15
_symmetry_cell_setting 'monoclinic'
loop_
_space_group_symop_operation_xyz
x,y,z
-x,y,1/2-z
-x,-y,-z
x,-y,1/2+z
1/2+x,1/2+y,z
1/2-x,1/2+y,1/2-z
1/2-x,1/2-y,-z
1/2+x,1/2-y,1/2+z
loop_
_atom_site_type_symbol
_atom_site_label
_atom_site_fract_x
_atom_site_fract_y
_atom_site_fract_z
Si Si1 0.345838 0.493117 0.812404
Si Si2 0.110354 0.670557 0.580436
Si Si3 0.154646 0.739008 0.687965
Si Si4 0.421190 0.402744 0.081775
Si Si5 0.000000 0.886660 0.250000
Si Si6 0.200894 0.577224 0.001079
Si Si7 0.500000 0.118667 0.750000
Si Si8 0.422070 0.720273 0.975705
O O1 0.327685 0.366282 0.804091
O O2 0.433159 0.521888 0.875149
O O3 0.464110 0.536847 0.788714
O O4 0.160025 0.543773 0.784355
O O5 0.065558 0.708528 0.625825
O O6 0.310660 0.646801 0.607513
O O7 0.992350 0.565466 0.548288
O O8 0.068597 0.765921 0.537013
O O9 0.340529 0.689246 0.717406
O O10 0.034100 0.694560 0.710686
O O11 0.282957 0.466609 0.030043
O O12 0.500262 0.304852 0.063491
O O13 0.194795 0.670313 0.041250
O O14 0.310567 0.617868 0.973533
#
# Coordination Sequence:
#
# PCOD8142461 Si02
#       8
#     8   8   8   8   4   8   4   8
#     4  11  24  39  69  92 116 166 208 253 324 374
#     4  10  21  39  59  90 128 167 195 258 304 361
#     4  11  22  44  66  89 128 156 208 266 316 362
#     4  12  21  37  61  92 122 166 209 243 305 376
#     4  10  22  46  62  90 122 154 208 270 316 362
#     4   9  21  37  56  84 125 166 200 246 294 362
#     4  10  26  44  66  92 120 158 212 270 310 382
#     4   9  21  37  57  84 128 161 205 245 297 355
#
# _framework density 20.059017000000001
#
# number of rings (size 3 to 8) (size 9 to 14) (size 15 to 20)
#    0.857    0.857    1.429    3.000    2.000    0.000 
#    0.000    0.000    0.000    0.000    0.000    0.000 
#    0.000    0.000    0.000    0.000    0.000    0.000 
#
# Total GULP energy -347017.578055 kJ/mol
# GULP energy per Si atom -12393.484931 kJ/mol
# Density = 2.001336 g / cm^3
# Si number density = 20.059017 Si / 1000 Ang^3
#
#
#
# Elastic Constant Matrix: (Units=GPa)
#
#
# Indices 1 2 3 4 5 6 
#
# 1 117.5361 36.7075 37.5511 0.0000 -8.6509 0.0000
# 2 36.7075 83.6372 33.4629 0.0000 -14.1596 0.0000
# 3 37.5511 33.4629 91.4753 0.0000 -10.2880 0.0000
# 4 0.0000 0.0000 0.0000 28.6594 0.0000 5.2615
# 5 -8.6509 -14.1596 -10.2880 0.0000 27.6141 0.0000
# 6 0.0000 0.0000 0.0000 5.2615 0.0000 17.0636
#
#
#
# Elastic Compliance Matrix: (Units=1/GPa)
#
#
# Indices 1 2 3 4 5 6 
#
# 1 0.010561 -0.003331 -0.003065 0.000000 0.000458 0.000000
# 2 -0.003331 0.015907 -0.003811 0.000000 0.005693 0.000000
# 3 -0.003065 -0.003811 0.013836 0.000000 0.002240 0.000000
# 4 0.000000 0.000000 0.000000 0.036986 0.000000 -0.011404
# 5 0.000458 0.005693 0.002240 0.000000 0.040111 0.000000
# 6 0.000000 0.000000 0.000000 -0.011404 0.000000 0.062121
#
#
# Mechanical properties :
#
#
# Convention : Reuss Voigt Hill
#
# Bulk Modulus (GPa) = 50.27826 56.45462 53.36644
# Shear Modulus (GPa) = 24.20506 26.99591 25.60048
#
# Velocity S-wave (km/s) = 3.47752 3.67253 3.57635
# Velocity P-wave (km/s) = 6.42213 6.79622 6.61182
#
# Compressibility (1/GPa) = 0.01988931
#
# Stress axis : x y z
#
# Youngs Moduli (GPa) = 94.68363 62.86481 72.27293
#
# Poissons Ratio (x) = 0.20942 0.22154
# Poissons Ratio (y) = 0.31542 0.27545
# Poissons Ratio (z) = 0.29024 0.23959
#
# Static dielectric constant tensor:
#      x y z
#    x 3.817810 0.000000 -0.001810 
#    y 0.000000 3.354270 0.000000 
#    z -0.001810 0.000000 3.509410 
# 
# 
# High freq. dielectric constant tensor:
#      x y z
#    x 1.800370 0.000000 0.003170 
#    y 0.000000 1.766450 0.000000 
#    z 0.003170 0.000000 1.773300 
# 
# From -- ./inp_files/307588.got.cif
#   From: 2010.06.25/outbox.cif.g09.slc.cpg/sg15_154_cif.got.tgz:307588.got - 2010.06.28 07:06:18.
