data_PCOD8142104
_publ_section_title
;
Structure prediction by ZEFSAII (Michael W. Deem and Ramdas Pophale) SiO2 
 PCOD8142104
Probable space group: C 2/C
;
_chemical_formula_sum "Si O2"
_cell_formula_units_Z 44
_cell_length_a 22.129342
_cell_length_b 15.876307
_cell_length_c 14.857032
_cell_angle_alpha 90.000000
_cell_angle_beta 156.252632
_cell_angle_gamma 90.000000
_cell_volume 2102.019227
_symmetry_space_group_name_H-M "C 2/C"
_symmetry_group_IT_number 15
_symmetry_cell_setting 'monoclinic'
loop_
_space_group_symop_operation_xyz
x,y,z
-x,y,1/2-z
-x,-y,-z
x,-y,1/2+z
1/2+x,1/2+y,z
1/2-x,1/2+y,1/2-z
1/2-x,1/2-y,-z
1/2+x,1/2-y,1/2+z
loop_
_atom_site_type_symbol
_atom_site_label
_atom_site_fract_x
_atom_site_fract_y
_atom_site_fract_z
Si Si1 0.012765 0.477033 0.868368
Si Si2 0.784588 0.529492 0.206170
Si Si3 0.144852 0.275587 0.684531
Si Si4 0.000000 0.938711 0.750000
Si Si5 0.078790 0.225011 0.270955
Si Si6 0.034161 0.281978 0.892395
O O1 0.000000 0.517628 0.750000
O O2 0.886078 0.511955 0.764817
O O3 0.170604 0.496201 0.132927
O O4 0.987826 0.378441 0.824853
O O5 0.799201 0.629522 0.228229
O O6 0.616858 0.500326 0.957649
O O7 0.287976 0.223326 0.844391
O O8 0.006702 0.265093 0.429286
O O9 0.074944 0.239286 0.682528
O O10 0.067871 0.877319 0.764368
O O11 0.250000 0.250000 0.500000
O O12 0.000000 0.267587 0.250000
O O13 0.000000 0.237720 0.750000
#
# Coordination Sequence:
#
# PCOD8142104 Si02
#       6
#     8   8   8   4   8   8
#     4   9  20  40  63  85 122 168 213 251 326 384
#     4  10  22  39  65  90 129 168 207 267 323 381
#     4  11  22  39  64  93 126 166 217 262 318 380
#     4  10  24  44  64  92 140 162 214 270 328 372
#     4  10  23  40  67  93 127 171 215 261 316 385
#     4  10  21  38  62  88 122 166 210 262 314 386
#
# _framework density 20.932252999999999
#
# number of rings (size 3 to 8) (size 9 to 14) (size 15 to 20)
#    0.545    1.455    0.000    2.727    8.909    0.727 
#    3.273    0.909    0.000    0.000    0.000    0.000 
#    0.000    0.000    0.000    0.000    0.000    0.000 
#
# Total GULP energy -272620.516432 kJ/mol
# GULP energy per Si atom -12391.841656 kJ/mol
# Density = 2.088461 g / cm^3
# Si number density = 20.932253 Si / 1000 Ang^3
#
#
#
# Elastic Constant Matrix: (Units=GPa)
#
#
# Indices 1 2 3 4 5 6 
#
# 1 129.8149 29.1335 53.9766 0.0000 -11.3946 0.0000
# 2 29.1335 57.1904 45.9152 0.0000 -4.8565 0.0000
# 3 53.9766 45.9152 174.4346 0.0000 -3.7272 0.0000
# 4 0.0000 0.0000 0.0000 33.7601 0.0000 -0.0235
# 5 -11.3946 -4.8565 -3.7272 0.0000 40.6656 0.0000
# 6 0.0000 0.0000 0.0000 -0.0235 0.0000 15.7851
#
#
#
# Elastic Compliance Matrix: (Units=1/GPa)
#
#
# Indices 1 2 3 4 5 6 
#
# 1 0.009418 -0.002936 -0.002097 0.000000 0.002096 0.000000
# 2 -0.002936 0.023270 -0.005185 0.000000 0.001481 0.000000
# 3 -0.002097 -0.005185 0.007736 0.000000 -0.000498 0.000000
# 4 0.000000 0.000000 0.000000 0.029621 0.000000 0.000044
# 5 0.002096 0.001481 -0.000498 0.000000 0.025309 0.000000
# 6 0.000000 0.000000 0.000000 0.000044 0.000000 0.063351
#
#
# Mechanical properties :
#
#
# Convention : Reuss Voigt Hill
#
# Bulk Modulus (GPa) = 50.03060 68.83227 59.43143
# Shear Modulus (GPa) = 26.91026 33.53646 30.22336
#
# Velocity S-wave (km/s) = 3.58940 4.00702 3.80395
# Velocity P-wave (km/s) = 6.41338 7.37313 6.90994
#
# Compressibility (1/GPa) = 0.01998777
#
# Stress axis : x y z
#
# Youngs Moduli (GPa) = 106.17955 42.97427 129.27080
#
# Poissons Ratio (x) = 0.12619 0.27102
# Poissons Ratio (y) = 0.31179 0.67025
# Poissons Ratio (z) = 0.22261 0.22281
#
# Static dielectric constant tensor:
#      x y z
#    x 4.258580 0.000000 -0.159300 
#    y 0.000000 3.460600 0.000000 
#    z -0.159300 0.000000 3.769700 
# 
# 
# High freq. dielectric constant tensor:
#      x y z
#    x 1.821690 0.000000 -0.006490 
#    y 0.000000 1.797170 0.000000 
#    z -0.006490 0.000000 1.828090 
# 
# From -- ./inp_files/145430.got.cif
#   From: 2010.06.25/outbox.cif.g09.slc.cpg/sg15_73_cif.got.tgz:145430.got - 2010.06.28 07:06:18.
