data_PCOD8142886
_publ_section_title
;
Structure prediction by ZEFSAII (Michael W. Deem and Ramdas Pophale) SiO2 
 PCOD8142886
Probable space group: C 2/C
;
_chemical_formula_sum "Si O2"
_cell_formula_units_Z 56
_cell_length_a 11.511027
_cell_length_b 13.289747
_cell_length_c 19.643662
_cell_angle_alpha 90.000000
_cell_angle_beta 66.567207
_cell_angle_gamma 90.000000
_cell_volume 2757.224773
_symmetry_space_group_name_H-M "C 2/C"
_symmetry_group_IT_number 15
_symmetry_cell_setting 'monoclinic'
loop_
_space_group_symop_operation_xyz
x,y,z
-x,y,1/2-z
-x,-y,-z
x,-y,1/2+z
1/2+x,1/2+y,z
1/2-x,1/2+y,1/2-z
1/2-x,1/2-y,-z
1/2+x,1/2-y,1/2+z
loop_
_atom_site_type_symbol
_atom_site_label
_atom_site_fract_x
_atom_site_fract_y
_atom_site_fract_z
Si Si1 0.427744 0.433368 0.869041
Si Si2 0.660565 0.358555 0.746015
Si Si3 0.100566 0.659845 0.833589
Si Si4 0.428076 0.935888 0.699828
Si Si5 0.712999 0.358166 0.089889
Si Si6 0.558401 0.188797 0.057924
Si Si7 0.599517 0.740428 0.029095
O O1 0.568385 0.440332 0.804096
O O2 0.341274 0.372026 0.835121
O O3 0.367606 0.540785 0.896829
O O4 0.435369 0.372280 0.938223
O O5 0.615693 0.245981 0.773552
O O6 0.798418 0.377800 0.741200
O O7 0.089320 0.555083 0.797734
O O8 0.227370 0.658118 0.849853
O O9 0.972811 0.678627 0.906655
O O10 0.500000 0.903045 0.750000
O O11 0.494668 0.900644 0.614969
O O12 0.615772 0.269151 0.096801
O O13 0.828240 0.362743 0.009953
O O14 0.452946 0.243201 0.035105
O O15 0.750000 0.750000 0.000000
#
# Coordination Sequence:
#
# PCOD8142886 Si02
#       7
#     8   8   8   8   8   8   8
#     4  10  21  39  67  89 124 170 212 262 315 377
#     4  10  22  42  59  92 129 166 217 256 314 381
#     4  10  23  40  66  89 128 168 209 266 315 375
#     4  12  25  41  64  94 127 170 209 260 321 387
#     4  10  21  44  68  92 125 167 215 265 321 369
#     4  10  24  42  64  94 129 166 213 267 314 382
#     4  10  22  38  62  94 128 161 207 266 318 379
#
# _framework density 20.310276000000002
#
# number of rings (size 3 to 8) (size 9 to 14) (size 15 to 20)
#    0.000    1.714    1.429    1.714    6.000    4.000 
#    5.143    0.000    0.000    0.000    0.000    0.000 
#    0.000    0.000    0.000    0.000    0.000    0.000 
#
# Total GULP energy -347212.010991 kJ/mol
# GULP energy per Si atom -12400.428964 kJ/mol
# Density = 2.026405 g / cm^3
# Si number density = 20.310276 Si / 1000 Ang^3
#
#
#
# Elastic Constant Matrix: (Units=GPa)
#
#
# Indices 1 2 3 4 5 6 
#
# 1 122.2636 29.7348 35.1283 0.0000 -3.6030 0.0000
# 2 29.7348 109.9498 41.7738 0.0000 -6.0901 0.0000
# 3 35.1283 41.7738 62.7067 0.0000 3.4078 0.0000
# 4 0.0000 0.0000 0.0000 30.1589 0.0000 3.2750
# 5 -3.6030 -6.0901 3.4078 0.0000 33.7574 0.0000
# 6 0.0000 0.0000 0.0000 3.2750 0.0000 19.6250
#
#
#
# Elastic Compliance Matrix: (Units=1/GPa)
#
#
# Indices 1 2 3 4 5 6 
#
# 1 0.009865 -0.000611 -0.005199 0.000000 0.001467 0.000000
# 2 -0.000611 0.012532 -0.008170 0.000000 0.003020 0.000000
# 3 -0.005199 -0.008170 0.024547 0.000000 -0.004507 0.000000
# 4 0.000000 0.000000 0.000000 0.033770 0.000000 -0.005635
# 5 0.001467 0.003020 -0.004507 0.000000 0.030780 0.000000
# 6 0.000000 0.000000 0.000000 -0.005635 0.000000 0.051896
#
#
# Mechanical properties :
#
#
# Convention : Reuss Voigt Hill
#
# Bulk Modulus (GPa) = 52.67739 56.46600 54.57169
# Shear Modulus (GPa) = 25.29384 29.26047 27.27715
#
# Velocity S-wave (km/s) = 3.53281 3.79974 3.66870
# Velocity P-wave (km/s) = 6.52944 6.86387 6.69874
#
# Compressibility (1/GPa) = 0.01898348
#
# Stress axis : x y z
#
# Youngs Moduli (GPa) = 101.37234 79.79713 40.73793
#
# Poissons Ratio (x) = 0.04879 0.21178
# Poissons Ratio (y) = 0.06198 0.33283
# Poissons Ratio (z) = 0.52700 0.65195
#
# Static dielectric constant tensor:
#      x y z
#    x 3.900040 0.000000 0.015140 
#    y 0.000000 3.527140 0.000000 
#    z 0.015140 0.000000 3.651550 
# 
# 
# High freq. dielectric constant tensor:
#      x y z
#    x 1.810190 0.000000 -0.000070 
#    y 0.000000 1.786370 0.000000 
#    z -0.000070 0.000000 1.791050 
# 
# From -- ./inp_files/198220.got.cif
#   From: 2010.06.25/outbox.cif.g09.slc.cpg/sg15_100_cif.got.tgz:198220.got - 2010.06.28 07:06:18.
