data_PCOD8142486
_publ_section_title
;
Structure prediction by ZEFSAII (Michael W. Deem and Ramdas Pophale) SiO2 
 PCOD8142486
Probable space group: C 2/C
;
_chemical_formula_sum "Si O2"
_cell_formula_units_Z 56
_cell_length_a 18.464974
_cell_length_b 25.966719
_cell_length_c 9.281289
_cell_angle_alpha 90.000000
_cell_angle_beta 140.998299
_cell_angle_gamma 90.000000
_cell_volume 2800.669101
_symmetry_space_group_name_H-M "C 2/C"
_symmetry_group_IT_number 15
_symmetry_cell_setting 'monoclinic'
loop_
_space_group_symop_operation_xyz
x,y,z
-x,y,1/2-z
-x,-y,-z
x,-y,1/2+z
1/2+x,1/2+y,z
1/2-x,1/2+y,1/2-z
1/2-x,1/2-y,-z
1/2+x,1/2-y,1/2+z
loop_
_atom_site_type_symbol
_atom_site_label
_atom_site_fract_x
_atom_site_fract_y
_atom_site_fract_z
Si Si1 0.206356 0.191250 0.917166
Si Si2 0.892172 0.351812 0.502977
Si Si3 0.265591 0.349891 0.726884
Si Si4 0.980552 0.186198 0.380204
Si Si5 0.103972 0.464017 0.104457
Si Si6 0.359677 0.214186 0.670822
Si Si7 0.137437 0.447682 0.461789
O O1 0.289801 0.153602 0.958246
O O2 0.086382 0.182908 0.651865
O O3 0.250000 0.250000 0.000000
O O4 0.191965 0.170462 0.055435
O O5 0.928555 0.410365 0.521722
O O6 0.859420 0.321987 0.308870
O O7 0.000000 0.325585 0.750000
O O8 0.370910 0.343351 0.777759
O O9 0.151536 0.320039 0.491009
O O10 0.219668 0.407794 0.671288
O O11 0.000000 0.162186 0.250000
O O12 0.967613 0.247931 0.339640
O O13 0.180765 0.451125 0.363171
O O14 0.167444 0.497907 0.082536
O O15 0.000000 0.500000 0.000000
O O16 0.250000 0.250000 0.500000
O O17 0.000000 0.433556 0.250000
#
# Coordination Sequence:
#
# PCOD8142486 Si02
#       7
#     8   8   8   8   8   8   8
#     4  12  25  39  62  96 131 175 221 268 322 388
#     4  12  24  39  65  95 133 172 215 266 337 393
#     4  11  23  40  64  92 127 173 216 266 328 384
#     4  11  23  42  62  88 131 171 222 265 314 387
#     4  10  22  41  62  96 133 163 212 271 335 391
#     4  10  21  39  60  88 126 168 213 260 317 386
#     4  10  22  38  66  95 131 161 209 266 334 390
#
# _framework density 19.995221999999998
#
# number of rings (size 3 to 8) (size 9 to 14) (size 15 to 20)
#    0.000    1.143    1.429    6.857    6.000    1.714 
#    0.000    0.000    0.000    0.857    0.000    0.000 
#    0.000    0.000    0.000    0.000    0.000    0.000 
#
# Total GULP energy -346945.297087 kJ/mol
# GULP energy per Si atom -12390.903467 kJ/mol
# Density = 1.994971 g / cm^3
# Si number density = 19.995222 Si / 1000 Ang^3
#
#
#
# Elastic Constant Matrix: (Units=GPa)
#
#
# Indices 1 2 3 4 5 6 
#
# 1 98.9696 36.2768 49.9351 0.0000 -19.4940 0.0000
# 2 36.2768 104.6830 46.8428 0.0000 -3.5899 0.0000
# 3 49.9351 46.8428 147.7859 0.0000 -22.8048 0.0000
# 4 0.0000 0.0000 0.0000 23.7029 0.0000 -5.3460
# 5 -19.4940 -3.5899 -22.8048 0.0000 39.6467 0.0000
# 6 0.0000 0.0000 0.0000 -5.3460 0.0000 32.1886
#
#
#
# Elastic Compliance Matrix: (Units=1/GPa)
#
#
# Indices 1 2 3 4 5 6 
#
# 1 0.013695 -0.003312 -0.002837 0.000000 0.004802 0.000000
# 2 -0.003312 0.011978 -0.003030 0.000000 -0.002287 0.000000
# 3 -0.002837 -0.003030 0.009249 0.000000 0.003651 0.000000
# 4 0.000000 0.000000 0.000000 0.043831 0.000000 0.007280
# 5 0.004802 -0.002287 0.003651 0.000000 0.029477 0.000000
# 6 0.000000 0.000000 0.000000 0.007280 0.000000 0.032276
#
#
# Mechanical properties :
#
#
# Convention : Reuss Voigt Hill
#
# Bulk Modulus (GPa) = 60.37156 68.61644 64.49400
# Shear Modulus (GPa) = 30.41639 33.66656 32.04148
#
# Velocity S-wave (km/s) = 3.90447 4.10778 4.00741
# Velocity P-wave (km/s) = 7.11231 7.54251 7.33057
#
# Compressibility (1/GPa) = 0.01656409
#
# Stress axis : x y z
#
# Youngs Moduli (GPa) = 73.01813 83.48660 108.12089
#
# Poissons Ratio (x) = 0.27650 0.30670
# Poissons Ratio (y) = 0.24183 0.32765
# Poissons Ratio (z) = 0.20713 0.25300
#
# Static dielectric constant tensor:
#      x y z
#    x 3.763470 0.000000 -0.316630 
#    y 0.000000 3.895280 0.000000 
#    z -0.316630 0.000000 4.060210 
# 
# 
# High freq. dielectric constant tensor:
#      x y z
#    x 1.776480 0.000000 -0.030640 
#    y 0.000000 1.773090 0.000000 
#    z -0.030640 0.000000 1.788230 
# 
# From -- ./inp_files/34201.got.cif
#   From: 2010.06.25/outbox.cif.g09.slc.cpg/sg15_18_cif.got.tgz:34201.got - 2010.06.28 07:06:18.
