data_PCOD8142874
_publ_section_title
;
Structure prediction by ZEFSAII (Michael W. Deem and Ramdas Pophale) SiO2 
 PCOD8142874
Probable space group: C 2/C
;
_chemical_formula_sum "Si O2"
_cell_formula_units_Z 56
_cell_length_a 16.486193
_cell_length_b 9.391816
_cell_length_c 18.375452
_cell_angle_alpha 90.000000
_cell_angle_beta 113.277723
_cell_angle_gamma 90.000000
_cell_volume 2613.572041
_symmetry_space_group_name_H-M "C 2/C"
_symmetry_group_IT_number 15
_symmetry_cell_setting 'monoclinic'
loop_
_space_group_symop_operation_xyz
x,y,z
-x,y,1/2-z
-x,-y,-z
x,-y,1/2+z
1/2+x,1/2+y,z
1/2-x,1/2+y,1/2-z
1/2-x,1/2-y,-z
1/2+x,1/2-y,1/2+z
loop_
_atom_site_type_symbol
_atom_site_label
_atom_site_fract_x
_atom_site_fract_y
_atom_site_fract_z
Si Si1 0.346069 0.684241 0.750230
Si Si2 0.575100 0.655758 0.334287
Si Si3 0.052908 0.326526 0.116488
Si Si4 0.814155 0.147519 0.257279
Si Si5 0.015430 0.401452 0.674058
Si Si6 0.124877 0.654518 0.490580
Si Si7 0.816828 0.102396 0.581052
O O1 0.284709 0.800705 0.767355
O O2 0.324814 0.523346 0.766242
O O3 0.442502 0.741714 0.809759
O O4 0.337378 0.696738 0.660106
O O5 0.500000 0.599859 0.250000
O O6 0.538672 0.772334 0.378491
O O7 0.652766 0.711795 0.308606
O O8 0.617639 0.531365 0.397371
O O9 0.129131 0.212466 0.157380
O O10 0.078441 0.479393 0.159627
O O11 0.051160 0.340622 0.028428
O O12 0.000000 0.456087 0.750000
O O13 0.924033 0.407595 0.597124
O O14 0.160930 0.811595 0.484307
O O15 0.211858 0.560865 0.543193
#
# Coordination Sequence:
#
# PCOD8142874 Si02
#       7
#     8   8   8   8   8   8   8
#     4  11  22  40  70  97 127 176 219 272 320 393
#     4   9  21  39  69  94 129 173 220 270 319 381
#     4  11  23  43  64  97 135 172 211 280 327 385
#     4  10  21  39  66  99 131 166 226 269 326 379
#     4  12  25  41  68  95 128 172 226 263 323 396
#     4  11  24  42  64  92 136 171 213 270 334 390
#     4  10  22  42  65  95 128 172 213 269 327 394
#
# _framework density 21.426614000000001
#
# number of rings (size 3 to 8) (size 9 to 14) (size 15 to 20)
#    0.000    1.429    2.857    2.571    8.000    0.571 
#    0.000    0.714    0.000    0.000    0.000    0.000 
#    0.000    0.000    0.000    0.000    0.000    0.000 
#
# Total GULP energy -346970.272245 kJ/mol
# GULP energy per Si atom -12391.795437 kJ/mol
# Density = 2.137785 g / cm^3
# Si number density = 21.426614 Si / 1000 Ang^3
#
#
#
# Elastic Constant Matrix: (Units=GPa)
#
#
# Indices 1 2 3 4 5 6 
#
# 1 82.2925 41.9537 42.0529 0.0000 -11.0295 0.0000
# 2 41.9537 96.9271 38.4069 0.0000 0.8244 0.0000
# 3 42.0529 38.4069 114.9962 0.0000 -2.3973 0.0000
# 4 0.0000 0.0000 0.0000 15.9489 0.0000 1.4813
# 5 -11.0295 0.8244 -2.3973 0.0000 40.3366 0.0000
# 6 0.0000 0.0000 0.0000 1.4813 0.0000 36.7537
#
#
#
# Elastic Compliance Matrix: (Units=1/GPa)
#
#
# Indices 1 2 3 4 5 6 
#
# 1 0.018244 -0.006148 -0.004517 0.000000 0.004846 0.000000
# 2 -0.006148 0.013972 -0.002462 0.000000 -0.002113 0.000000
# 3 -0.004517 -0.002462 0.011159 0.000000 -0.000522 0.000000
# 4 0.000000 0.000000 0.000000 0.062936 0.000000 -0.002537
# 5 0.004846 -0.002113 -0.000522 0.000000 0.026129 0.000000
# 6 0.000000 0.000000 0.000000 -0.002537 0.000000 0.027310
#
#
# Mechanical properties :
#
#
# Convention : Reuss Voigt Hill
#
# Bulk Modulus (GPa) = 58.41047 59.89365 59.15206
# Shear Modulus (GPa) = 26.08090 30.06133 28.07112
#
# Velocity S-wave (km/s) = 3.49265 3.74971 3.62346
# Velocity P-wave (km/s) = 6.60187 6.83818 6.72107
#
# Compressibility (1/GPa) = 0.01712022
#
# Stress axis : x y z
#
# Youngs Moduli (GPa) = 54.81275 71.57342 89.61136
#
# Poissons Ratio (x) = 0.44003 0.40480
# Poissons Ratio (y) = 0.33698 0.22064
# Poissons Ratio (z) = 0.24760 0.17622
#
# Static dielectric constant tensor:
#      x y z
#    x 4.113460 0.000000 -0.076250 
#    y 0.000000 3.764940 0.000000 
#    z -0.076250 0.000000 3.769760 
# 
# 
# High freq. dielectric constant tensor:
#      x y z
#    x 1.850890 0.000000 -0.007280 
#    y 0.000000 1.826420 0.000000 
#    z -0.007280 0.000000 1.829970 
# 
# From -- ./inp_files/209621.got.cif
#   From: 2010.06.25/outbox.cif.g09.slc.cpg/sg15_105_cif.got.tgz:209621.got - 2010.06.28 07:06:18.
