data_PCOD8142513
_publ_section_title
;
Structure prediction by ZEFSAII (Michael W. Deem and Ramdas Pophale) SiO2 
 PCOD8142513
Probable space group: C 2/C
;
_chemical_formula_sum "Si O2"
_cell_formula_units_Z 56
_cell_length_a 16.171004
_cell_length_b 11.723662
_cell_length_c 16.209203
_cell_angle_alpha 90.000000
_cell_angle_beta 117.620129
_cell_angle_gamma 90.000000
_cell_volume 2722.799336
_symmetry_space_group_name_H-M "C 2/C"
_symmetry_group_IT_number 15
_symmetry_cell_setting 'monoclinic'
loop_
_space_group_symop_operation_xyz
x,y,z
-x,y,1/2-z
-x,-y,-z
x,-y,1/2+z
1/2+x,1/2+y,z
1/2-x,1/2+y,1/2-z
1/2-x,1/2-y,-z
1/2+x,1/2-y,1/2+z
loop_
_atom_site_type_symbol
_atom_site_label
_atom_site_fract_x
_atom_site_fract_y
_atom_site_fract_z
Si Si1 0.185791 0.633628 0.876340
Si Si2 0.000000 0.973295 0.750000
Si Si3 0.516611 0.383851 0.411520
Si Si4 0.000000 0.486095 0.250000
Si Si5 0.353946 0.935612 0.966107
Si Si6 0.652480 0.518689 0.108966
Si Si7 0.188893 0.131077 0.290181
Si Si8 0.514596 0.877045 0.917672
O O1 0.262950 0.535909 0.901816
O O2 0.216576 0.744141 0.837675
O O3 0.087817 0.595295 0.795817
O O4 0.172433 0.648627 0.969269
O O5 0.918179 0.890162 0.739059
O O6 0.954740 0.049508 0.657435
O O7 0.408290 0.416769 0.378091
O O8 0.584223 0.413585 0.517595
O O9 0.532880 0.251995 0.401561
O O10 0.022287 0.561611 0.180764
O O11 0.262632 0.954581 0.867411
O O12 0.438123 0.877273 0.954811
O O13 0.388992 0.060824 0.010737
O O14 0.695629 0.609170 0.194899
#
# Coordination Sequence:
#
# PCOD8142513 Si02
#       8
#     8   4   8   4   8   8   8   8
#     4  11  22  39  60  86 120 154 191 247 294 341
#     4  10  22  38  60  86 114 152 200 236 288 362
#     4  10  21  40  59  83 118 153 190 243 295 343
#     4  10  22  38  60  90 118 150 198 236 290 356
#     4  10  22  37  60  89 116 151 202 238 286 355
#     4  10  23  37  58  88 116 151 198 238 289 358
#     4  11  22  38  60  86 118 156 194 243 293 345
#     4  10  21  39  61  86 118 155 191 244 292 343
#
# _framework density 20.567067000000002
#
# number of rings (size 3 to 8) (size 9 to 14) (size 15 to 20)
#    0.000    1.714    0.000    3.857    0.000    8.000 
#    0.000    9.286    0.000    0.000    0.000    0.000 
#    0.000    0.000    0.000    0.000    0.000    0.000 
#
# Total GULP energy -347138.119638 kJ/mol
# GULP energy per Si atom -12397.789987 kJ/mol
# Density = 2.052026 g / cm^3
# Si number density = 20.567067 Si / 1000 Ang^3
#
#
#
# Elastic Constant Matrix: (Units=GPa)
#
#
# Indices 1 2 3 4 5 6 
#
# 1 81.7354 7.8101 27.9395 0.0000 -1.5471 0.0000
# 2 7.8101 62.9564 22.2982 0.0000 -4.0101 0.0000
# 3 27.9395 22.2982 143.0918 0.0000 -2.5387 0.0000
# 4 0.0000 0.0000 0.0000 17.2131 0.0000 -2.2985
# 5 -1.5471 -4.0101 -2.5387 0.0000 42.6788 0.0000
# 6 0.0000 0.0000 0.0000 -2.2985 0.0000 20.7299
#
#
#
# Elastic Compliance Matrix: (Units=1/GPa)
#
#
# Indices 1 2 3 4 5 6 
#
# 1 0.013147 -0.000748 -0.002446 0.000000 0.000261 0.000000
# 2 -0.000748 0.016942 -0.002469 0.000000 0.001418 0.000000
# 3 -0.002446 -0.002469 0.007853 0.000000 0.000147 0.000000
# 4 0.000000 0.000000 0.000000 0.058968 0.000000 0.006538
# 5 0.000261 0.001418 0.000147 0.000000 0.023582 0.000000
# 6 0.000000 0.000000 0.000000 0.006538 0.000000 0.048964
#
#
# Mechanical properties :
#
#
# Convention : Reuss Voigt Hill
#
# Bulk Modulus (GPa) = 37.57059 44.87548 41.22303
# Shear Modulus (GPa) = 26.36368 31.44007 28.90187
#
# Velocity S-wave (km/s) = 3.58416 3.91405 3.75273
# Velocity P-wave (km/s) = 5.95276 6.50330 6.23411
#
# Compressibility (1/GPa) = 0.02661656
#
# Stress axis : x y z
#
# Youngs Moduli (GPa) = 76.06249 59.02653 127.33336
#
# Poissons Ratio (x) = 0.04416 0.31144
# Poissons Ratio (y) = 0.05690 0.31436
# Poissons Ratio (z) = 0.18604 0.14572
#
# Static dielectric constant tensor:
#      x y z
#    x 3.863450 0.000000 -0.066110 
#    y 0.000000 3.494520 0.000000 
#    z -0.066110 0.000000 3.958330 
# 
# 
# High freq. dielectric constant tensor:
#      x y z
#    x 1.808870 0.000000 0.001620 
#    y 0.000000 1.787040 0.000000 
#    z 0.001620 0.000000 1.823270 
# 
# From -- ./inp_files/161447.got.cif
#   From: 2010.06.25/outbox.cif.g09.slc.cpg/sg15_81_cif.got.tgz:161447.got - 2010.06.28 07:06:18.
