data_PCOD8142614
_publ_section_title
;
Structure prediction by ZEFSAII (Michael W. Deem and Ramdas Pophale) SiO2 
 PCOD8142614
Probable space group: C 2/C
;
_chemical_formula_sum "Si O2"
_cell_formula_units_Z 56
_cell_length_a 11.423806
_cell_length_b 28.697198
_cell_length_c 14.918613
_cell_angle_alpha 90.000000
_cell_angle_beta 34.613458
_cell_angle_gamma 90.000000
_cell_volume 2778.148412
_symmetry_space_group_name_H-M "C 2/C"
_symmetry_group_IT_number 15
_symmetry_cell_setting 'monoclinic'
loop_
_space_group_symop_operation_xyz
x,y,z
-x,y,1/2-z
-x,-y,-z
x,-y,1/2+z
1/2+x,1/2+y,z
1/2-x,1/2+y,1/2-z
1/2-x,1/2-y,-z
1/2+x,1/2-y,1/2+z
loop_
_atom_site_type_symbol
_atom_site_label
_atom_site_fract_x
_atom_site_fract_y
_atom_site_fract_z
Si Si1 0.407353 0.107800 0.585594
Si Si2 0.267346 0.784598 0.858931
Si Si3 0.143392 0.443923 0.076014
Si Si4 0.937403 0.043298 0.101877
Si Si5 0.894518 0.190685 0.724739
Si Si6 0.132904 0.379021 0.756914
Si Si7 0.219840 0.013950 0.647119
O O1 0.576720 0.100940 0.557883
O O2 0.244246 0.147096 0.720686
O O3 0.495515 0.116761 0.431649
O O4 0.303082 0.057748 0.647386
O O5 0.500000 0.781050 0.750000
O O6 0.234691 0.734375 0.832729
O O7 0.258801 0.828730 0.798074
O O8 0.085779 0.793618 0.043470
O O9 0.000000 0.453749 0.250000
O O10 0.366997 0.432341 0.975079
O O11 0.143211 0.492707 0.019783
O O12 0.807943 0.082125 0.130712
O O13 0.789752 0.027307 0.274899
O O14 0.000000 0.000000 0.000000
O O15 0.000000 0.174566 0.750000
O O16 0.000000 0.379708 0.750000
O O17 0.000000 0.029551 0.750000
#
# Coordination Sequence:
#
# PCOD8142614 Si02
#       7
#     8   8   8   8   8   8   8
#     4  12  24  39  63  95 129 169 217 268 325 386
#     4  10  21  39  62  94 130 167 208 265 338 389
#     4  11  25  42  62  86 128 175 223 264 319 380
#     4  11  25  40  63  88 128 174 219 265 324 381
#     4  11  21  38  65  93 132 165 210 270 330 399
#     4  11  25  39  63  97 131 167 214 265 330 392
#     4  10  23  39  57  88 124 167 214 262 315 377
#
# _framework density 20.157312000000001
#
# number of rings (size 3 to 8) (size 9 to 14) (size 15 to 20)
#    0.000    1.143    1.429    6.000   10.000    0.000 
#    0.000    0.000    0.000    0.857    0.000    0.000 
#    0.000    0.000    0.000    0.000    0.000    0.000 
#
# Total GULP energy -346997.048320 kJ/mol
# GULP energy per Si atom -12392.751726 kJ/mol
# Density = 2.011143 g / cm^3
# Si number density = 20.157312 Si / 1000 Ang^3
#
#
#
# Elastic Constant Matrix: (Units=GPa)
#
#
# Indices 1 2 3 4 5 6 
#
# 1 98.8281 49.1765 39.3770 0.0000 -4.5359 0.0000
# 2 49.1765 98.6062 47.5880 0.0000 -20.1066 0.0000
# 3 39.3770 47.5880 135.4104 0.0000 7.9247 0.0000
# 4 0.0000 0.0000 0.0000 76.3482 0.0000 -2.0266
# 5 -4.5359 -20.1066 7.9247 0.0000 27.3014 0.0000
# 6 0.0000 0.0000 0.0000 -2.0266 0.0000 25.7829
#
#
#
# Elastic Compliance Matrix: (Units=1/GPa)
#
#
# Indices 1 2 3 4 5 6 
#
# 1 0.013952 -0.006601 -0.001616 0.000000 -0.002075 0.000000
# 2 -0.006601 0.019160 -0.005672 0.000000 0.014661 0.000000
# 3 -0.001616 -0.005672 0.010283 0.000000 -0.007431 0.000000
# 4 0.000000 0.000000 0.000000 0.013125 0.000000 0.001032
# 5 -0.002075 0.014661 -0.007431 0.000000 0.049237 0.000000
# 6 0.000000 0.000000 0.000000 0.001032 0.000000 0.038866
#
#
# Mechanical properties :
#
#
# Convention : Reuss Voigt Hill
#
# Bulk Modulus (GPa) = 64.03250 67.23643 65.63446
# Shear Modulus (GPa) = 28.15187 39.00004 33.57596
#
# Velocity S-wave (km/s) = 3.74118 4.40339 4.08572
# Velocity P-wave (km/s) = 7.10614 7.69944 7.40873
#
# Compressibility (1/GPa) = 0.01561707
#
# Stress axis : x y z
#
# Youngs Moduli (GPa) = 71.67463 52.19148 97.24759
#
# Poissons Ratio (x) = 0.34453 0.15714
# Poissons Ratio (y) = 0.47314 0.55158
# Poissons Ratio (z) = 0.11582 0.29603
#
# Static dielectric constant tensor:
#      x y z
#    x 3.558360 0.000000 0.283210 
#    y 0.000000 4.066850 0.000000 
#    z 0.283210 0.000000 3.108030 
# 
# 
# High freq. dielectric constant tensor:
#      x y z
#    x 1.763390 0.000000 0.001180 
#    y 0.000000 1.787510 0.000000 
#    z 0.001180 0.000000 1.807180 
# 
# From -- ./inp_files/149274.got.cif
#   From: 2010.06.25/outbox.cif.g09.slc.cpg/sg15_75_cif.got.tgz:149274.got - 2010.06.28 07:06:18.
