data_PCOD8142628
_publ_section_title
;
Structure prediction by ZEFSAII (Michael W. Deem and Ramdas Pophale) SiO2 
 PCOD8142628
Probable space group: C 2/C
;
_chemical_formula_sum "Si O2"
_cell_formula_units_Z 56
_cell_length_a 19.867805
_cell_length_b 11.170230
_cell_length_c 11.851849
_cell_angle_alpha 90.000000
_cell_angle_beta 101.254663
_cell_angle_gamma 90.000000
_cell_volume 2579.675157
_symmetry_space_group_name_H-M "C 2/C"
_symmetry_group_IT_number 15
_symmetry_cell_setting 'monoclinic'
loop_
_space_group_symop_operation_xyz
x,y,z
-x,y,1/2-z
-x,-y,-z
x,-y,1/2+z
1/2+x,1/2+y,z
1/2-x,1/2+y,1/2-z
1/2-x,1/2-y,-z
1/2+x,1/2-y,1/2+z
loop_
_atom_site_type_symbol
_atom_site_label
_atom_site_fract_x
_atom_site_fract_y
_atom_site_fract_z
Si Si1 0.078957 0.715858 0.491183
Si Si2 0.281754 0.366489 0.376270
Si Si3 0.928678 0.490829 0.168483
Si Si4 0.665107 0.142699 0.013568
Si Si5 0.497205 0.640064 0.119862
Si Si6 0.394236 0.471740 0.985973
Si Si7 0.176182 0.568319 0.674915
O O1 0.063800 0.621379 0.387518
O O2 0.107732 0.842580 0.449994
O O3 0.134605 0.672714 0.600420
O O4 0.009513 0.745004 0.540991
O O5 0.338130 0.259350 0.405908
O O6 0.216884 0.331128 0.429906
O O7 0.318056 0.490717 0.422830
O O8 0.249232 0.379973 0.241286
O O9 0.868530 0.494491 0.240993
O O10 0.000000 0.455102 0.250000
O O11 0.908997 0.392059 0.065870
O O12 0.695559 0.032538 0.092284
O O13 0.500000 0.682344 0.250000
O O14 0.423858 0.577012 0.075552
O O15 0.557136 0.542651 0.109732
#
# Coordination Sequence:
#
# PCOD8142628 Si02
#       7
#     8   8   8   8   8   8   8
#     4   9  21  41  60  88 128 150 211 254 305 371
#     4  10  21  39  63  81 127 159 200 258 303 358
#     4  10  22  41  62  87 123 163 200 257 311 365
#     4   9  22  41  57  92 120 157 214 245 299 388
#     4   9  20  39  62  91 124 156 203 253 313 366
#     4   9  21  39  59  95 117 157 209 255 301 371
#     4  10  22  39  59  90 120 164 204 248 312 371
#
# _framework density 21.708161
#
# number of rings (size 3 to 8) (size 9 to 14) (size 15 to 20)
#    0.857    1.714    0.000    0.000    2.000   10.286 
#    5.143    2.143    0.000    0.000    0.000    0.000 
#    0.000    0.000    0.000    0.000    0.000    0.000 
#
# Total GULP energy -346915.477371 kJ/mol
# GULP energy per Si atom -12389.838478 kJ/mol
# Density = 2.165875 g / cm^3
# Si number density = 21.708161 Si / 1000 Ang^3
#
#
#
# Elastic Constant Matrix: (Units=GPa)
#
#
# Indices 1 2 3 4 5 6 
#
# 1 44.5147 31.3235 27.5101 0.0000 30.0537 0.0000
# 2 31.3235 108.7507 44.3951 0.0000 29.5519 0.0000
# 3 27.5101 44.3951 105.0479 0.0000 36.6101 0.0000
# 4 0.0000 0.0000 0.0000 21.1015 0.0000 4.8469
# 5 30.0537 29.5519 36.6101 0.0000 33.8981 0.0000
# 6 0.0000 0.0000 0.0000 4.8469 0.0000 22.5662
#
#
#
# Elastic Compliance Matrix: (Units=1/GPa)
#
#
# Indices 1 2 3 4 5 6 
#
# 1 0.058688 -0.004416 0.005274 0.000000 -0.053878 0.000000
# 2 -0.004416 0.012738 -0.002760 0.000000 -0.004209 0.000000
# 3 0.005274 -0.002760 0.016189 0.000000 -0.019754 0.000000
# 4 0.000000 0.000000 0.000000 0.049849 0.000000 -0.010707
# 5 -0.053878 -0.004209 -0.019754 0.000000 0.102271 0.000000
# 6 0.000000 0.000000 0.000000 -0.010707 0.000000 0.046614
#
#
# Mechanical properties :
#
#
# Convention : Reuss Voigt Hill
#
# Bulk Modulus (GPa) = 11.93167 51.64119 31.78643
# Shear Modulus (GPa) = 15.71883 25.85213 20.78548
#
# Velocity S-wave (km/s) = 2.69383 3.45468 3.09770
# Velocity P-wave (km/s) = 3.89666 6.30504 5.24106
#
# Compressibility (1/GPa) = 0.08381057
#
# Stress axis : x y z
#
# Youngs Moduli (GPa) = 17.03932 78.50769 61.76959
#
# Poissons Ratio (x) = 0.34669 -0.32577
# Poissons Ratio (y) = 0.07525 0.17048
# Poissons Ratio (z) = -0.08986 0.21668
#
# Static dielectric constant tensor:
#      x y z
#    x 3.623370 0.000000 0.219210 
#    y 0.000000 3.979110 0.000000 
#    z 0.219210 0.000000 3.901060 
# 
# 
# High freq. dielectric constant tensor:
#      x y z
#    x 1.832710 0.000000 0.018230 
#    y 0.000000 1.857650 0.000000 
#    z 0.018230 0.000000 1.842520 
# 
# From -- ./inp_files/111688.got.cif
#   From: 2010.06.25/outbox.cif.g09.slc.cpg/sg15_56_cif.got.tgz:111688.got - 2010.06.28 07:06:18.
