data_PCOD8142640
_publ_section_title
;
Structure prediction by ZEFSAII (Michael W. Deem and Ramdas Pophale) SiO2 
 PCOD8142640
Probable space group: C 2/C
;
_chemical_formula_sum "Si O2"
_cell_formula_units_Z 56
_cell_length_a 11.889181
_cell_length_b 16.345949
_cell_length_c 18.407937
_cell_angle_alpha 90.000000
_cell_angle_beta 129.287053
_cell_angle_gamma 90.000000
_cell_volume 2768.845962
_symmetry_space_group_name_H-M "C 2/C"
_symmetry_group_IT_number 15
_symmetry_cell_setting 'monoclinic'
loop_
_space_group_symop_operation_xyz
x,y,z
-x,y,1/2-z
-x,-y,-z
x,-y,1/2+z
1/2+x,1/2+y,z
1/2-x,1/2+y,1/2-z
1/2-x,1/2-y,-z
1/2+x,1/2-y,1/2+z
loop_
_atom_site_type_symbol
_atom_site_label
_atom_site_fract_x
_atom_site_fract_y
_atom_site_fract_z
Si Si1 0.000000 0.929375 0.750000
Si Si2 0.178895 0.354307 0.994388
Si Si3 0.344970 0.660970 0.317844
Si Si4 0.568503 0.063814 0.176872
Si Si5 0.239923 0.462459 0.147956
Si Si6 0.563719 0.317229 0.486401
Si Si7 0.757240 0.165586 0.783703
Si Si8 0.000000 0.577264 0.750000
O O1 0.055614 0.873778 0.706223
O O2 0.122710 0.990732 0.829184
O O3 0.157570 0.265412 0.019378
O O4 0.052578 0.367229 0.883481
O O5 0.157354 0.414306 0.052431
O O6 0.335477 0.375334 0.022344
O O7 0.202613 0.604771 0.275817
O O8 0.440643 0.658156 0.430572
O O9 0.297905 0.752737 0.278252
O O10 0.630376 0.034001 0.125776
O O11 0.489011 0.984718 0.178173
O O12 0.284776 0.404450 0.234752
O O13 0.402594 0.314301 0.388248
O O14 0.640477 0.134828 0.795924
#
# Coordination Sequence:
#
# PCOD8142640 Si02
#       8
#     4   8   8   8   8   8   8   4
#     4  10  23  40  63  92 124 170 202 258 319 362
#     4  11  21  39  60  97 122 162 211 255 312 364
#     4  11  22  43  64  91 129 163 211 259 309 375
#     4  10  21  39  63  87 126 166 207 257 314 371
#     4  10  21  39  63  87 126 166 207 257 314 371
#     4  11  24  37  65  96 122 160 211 262 305 365
#     4  11  22  43  64  91 129 163 211 259 309 375
#     4  10  23  40  63  92 124 170 202 258 319 362
#
# _framework density 20.225033
#
# number of rings (size 3 to 8) (size 9 to 14) (size 15 to 20)
#    0.000    1.429    2.857    2.571    0.000    1.143 
#    0.000   12.143    0.000    0.000    0.000    0.000 
#    0.000    0.000    0.000    0.000    0.000    0.000 
#
# Total GULP energy -346989.683788 kJ/mol
# GULP energy per Si atom -12392.488707 kJ/mol
# Density = 2.017900 g / cm^3
# Si number density = 20.225033 Si / 1000 Ang^3
#
#
#
# Elastic Constant Matrix: (Units=GPa)
#
#
# Indices 1 2 3 4 5 6 
#
# 1 109.1984 30.7877 37.8273 0.0000 4.2118 0.0000
# 2 30.7877 74.5672 16.0617 0.0000 -0.4544 0.0000
# 3 37.8273 16.0617 96.8319 0.0000 0.9367 0.0000
# 4 0.0000 0.0000 0.0000 31.4176 0.0000 6.0499
# 5 4.2118 -0.4544 0.9367 0.0000 23.4523 0.0000
# 6 0.0000 0.0000 0.0000 6.0499 0.0000 25.9787
#
#
#
# Elastic Compliance Matrix: (Units=1/GPa)
#
#
# Indices 1 2 3 4 5 6 
#
# 1 0.011715 -0.004011 -0.003891 0.000000 -0.002026 0.000000
# 2 -0.004011 0.015284 -0.000979 0.000000 0.001056 0.000000
# 3 -0.003891 -0.000979 0.012008 0.000000 0.000200 0.000000
# 4 0.000000 0.000000 0.000000 0.033324 0.000000 -0.007760
# 5 -0.002026 0.001056 0.000200 0.000000 0.043016 0.000000
# 6 0.000000 0.000000 0.000000 -0.007760 0.000000 0.040300
#
#
# Mechanical properties :
#
#
# Convention : Reuss Voigt Hill
#
# Bulk Modulus (GPa) = 47.07080 49.99454 48.53267
# Shear Modulus (GPa) = 27.70244 29.23113 28.46679
#
# Velocity S-wave (km/s) = 3.70498 3.80583 3.75574
# Velocity P-wave (km/s) = 6.45186 6.63967 6.54644
#
# Compressibility (1/GPa) = 0.02124459
#
# Stress axis : x y z
#
# Youngs Moduli (GPa) = 85.36303 65.42799 83.27967
#
# Poissons Ratio (x) = 0.26243 0.32408
# Poissons Ratio (y) = 0.34239 0.08149
# Poissons Ratio (z) = 0.33218 0.06402
#
# Static dielectric constant tensor:
#      x y z
#    x 4.094230 0.000000 0.054600 
#    y 0.000000 3.814010 0.000000 
#    z 0.054600 0.000000 3.449160 
# 
# 
# High freq. dielectric constant tensor:
#      x y z
#    x 1.803030 0.000000 -0.001890 
#    y 0.000000 1.799080 0.000000 
#    z -0.001890 0.000000 1.775070 
# 
# From -- ./inp_files/144280.got.cif
#   From: 2010.06.25/outbox.cif.g09.slc.cpg/sg15_73_cif.got.tgz:144280.got - 2010.06.28 07:06:18.
