data_PCOD8142373
_publ_section_title
;
Structure prediction by ZEFSAII (Michael W. Deem and Ramdas Pophale) SiO2 
 PCOD8142373
Probable space group: C 2/C
;
_chemical_formula_sum "Si O2"
_cell_formula_units_Z 48
_cell_length_a 7.597928
_cell_length_b 17.029582
_cell_length_c 20.419297
_cell_angle_alpha 90.000000
_cell_angle_beta 60.252131
_cell_angle_gamma 90.000000
_cell_volume 2293.867710
_symmetry_space_group_name_H-M "C 2/C"
_symmetry_group_IT_number 15
_symmetry_cell_setting 'monoclinic'
loop_
_space_group_symop_operation_xyz
x,y,z
-x,y,1/2-z
-x,-y,-z
x,-y,1/2+z
1/2+x,1/2+y,z
1/2-x,1/2+y,1/2-z
1/2-x,1/2-y,-z
1/2+x,1/2-y,1/2+z
loop_
_atom_site_type_symbol
_atom_site_label
_atom_site_fract_x
_atom_site_fract_y
_atom_site_fract_z
Si Si1 0.017683 0.091556 0.998570
Si Si2 0.595221 0.262660 0.298251
Si Si3 0.599492 0.429607 0.343429
Si Si4 0.180050 0.921364 0.605145
Si Si5 0.500000 0.975142 0.750000
Si Si6 0.939590 0.621648 0.394075
Si Si7 0.500000 0.687840 0.250000
O O1 0.791376 0.125296 0.041189
O O2 0.144060 0.117065 0.039706
O O3 0.132124 0.110832 0.909492
O O4 0.000000 0.000000 0.000000
O O5 0.500000 0.228156 0.250000
O O6 0.546772 0.355146 0.308710
O O7 0.502348 0.212878 0.375750
O O8 0.833622 0.246562 0.252415
O O9 0.411942 0.490609 0.375594
O O10 0.801694 0.471082 0.280145
O O11 0.420922 0.921393 0.576540
O O12 0.069938 0.868120 0.678737
O O13 0.523619 0.922426 0.681314
#
# Coordination Sequence:
#
# PCOD8142373 Si02
#       7
#     8   8   8   8   4   8   4
#     4  10  21  42  59  91 127 157 199 260 296 355
#     4  11  23  38  59  91 125 157 196 258 308 352
#     4  11  24  39  60  93 128 152 200 260 306 348
#     4  10  21  38  68  88 114 163 211 242 292 370
#     4  12  21  40  63  90 116 164 202 250 297 366
#     4  11  22  40  67  86 117 165 208 239 308 364
#     4  10  21  42  61  90 120 162 208 246 297 368
#
# _framework density 20.925357000000002
#
# number of rings (size 3 to 8) (size 9 to 14) (size 15 to 20)
#    0.000    1.333    4.167    3.500    3.500    3.333 
#    0.000    3.333    0.000    0.000    0.000    0.000 
#    0.000    0.000    0.000    0.000    0.000    0.000 
#
# Total GULP energy -297469.672664 kJ/mol
# GULP energy per Si atom -12394.569694 kJ/mol
# Density = 2.087773 g / cm^3
# Si number density = 20.925357 Si / 1000 Ang^3
#
#
#
# Elastic Constant Matrix: (Units=GPa)
#
#
# Indices 1 2 3 4 5 6 
#
# 1 112.3938 22.5796 1.3459 0.0000 13.4409 0.0000
# 2 22.5796 91.3055 -1.0890 0.0000 -0.5021 0.0000
# 3 1.3459 -1.0890 60.3102 0.0000 12.6281 0.0000
# 4 0.0000 0.0000 0.0000 13.6064 0.0000 5.1457
# 5 13.4409 -0.5021 12.6281 0.0000 33.7939 0.0000
# 6 0.0000 0.0000 0.0000 5.1457 0.0000 25.6432
#
#
#
# Elastic Compliance Matrix: (Units=1/GPa)
#
#
# Indices 1 2 3 4 5 6 
#
# 1 0.009886 -0.002461 0.000614 0.000000 -0.004198 0.000000
# 2 -0.002461 0.011567 0.000025 0.000000 0.001141 0.000000
# 3 0.000614 0.000025 0.018029 0.000000 -0.006981 0.000000
# 4 0.000000 0.000000 0.000000 0.079530 0.000000 -0.015959
# 5 -0.004198 0.001141 -0.006981 0.000000 0.033886 0.000000
# 6 0.000000 0.000000 0.000000 -0.015959 0.000000 0.042199
#
#
# Mechanical properties :
#
#
# Convention : Reuss Voigt Hill
#
# Bulk Modulus (GPa) = 27.90228 34.40916 31.15572
# Shear Modulus (GPa) = 23.73168 30.68690 27.20929
#
# Velocity S-wave (km/s) = 3.37131 3.83364 3.60988
# Velocity P-wave (km/s) = 5.34017 6.00626 5.68298
#
# Compressibility (1/GPa) = 0.03583936
#
# Stress axis : x y z
#
# Youngs Moduli (GPa) = 101.15002 86.45043 55.46487
#
# Poissons Ratio (x) = 0.21272 -0.03405
# Poissons Ratio (y) = 0.24889 -0.00138
# Poissons Ratio (z) = -0.06210 -0.00215
#
# Static dielectric constant tensor:
#      x y z
#    x 3.100650 0.000000 -1.451320 
#    y 0.000000 3.672290 0.000000 
#    z -1.451320 0.000000 1.118560 
# 
# 
# High freq. dielectric constant tensor:
#      x y z
#    x 1.826070 0.000000 0.009840 
#    y 0.000000 1.810730 0.000000 
#    z 0.009840 0.000000 1.816070 
# 
# From -- ./inp_files/232037.got.cif
#   From: 2010.06.25/outbox.cif.g09.slc.cpg/sg15_117_cif.got.tgz:232037.got - 2010.06.28 07:06:18.
