data_PCOD8142512
_publ_section_title
;
Structure prediction by ZEFSAII (Michael W. Deem and Ramdas Pophale) SiO2 
 PCOD8142512
Probable space group: C 2/C
;
_chemical_formula_sum "Si O2"
_cell_formula_units_Z 56
_cell_length_a 16.313406
_cell_length_b 9.406802
_cell_length_c 20.154671
_cell_angle_alpha 90.000000
_cell_angle_beta 117.800393
_cell_angle_gamma 90.000000
_cell_volume 2735.888444
_symmetry_space_group_name_H-M "C 2/C"
_symmetry_group_IT_number 15
_symmetry_cell_setting 'monoclinic'
loop_
_space_group_symop_operation_xyz
x,y,z
-x,y,1/2-z
-x,-y,-z
x,-y,1/2+z
1/2+x,1/2+y,z
1/2-x,1/2+y,1/2-z
1/2-x,1/2-y,-z
1/2+x,1/2-y,1/2+z
loop_
_atom_site_type_symbol
_atom_site_label
_atom_site_fract_x
_atom_site_fract_y
_atom_site_fract_z
Si Si1 0.652849 0.820936 0.600464
Si Si2 0.406801 0.062156 0.562410
Si Si3 0.615638 0.914461 0.173620
Si Si4 0.306757 0.090851 0.659561
Si Si5 0.142518 0.752514 0.478182
Si Si6 0.659009 0.355823 0.627644
Si Si7 0.983598 0.925418 0.424254
O O1 0.643113 0.875076 0.521173
O O2 0.744999 0.730097 0.645621
O O3 0.564653 0.726664 0.585056
O O4 0.661748 0.951613 0.654675
O O5 0.512781 0.112602 0.607038
O O6 0.354400 0.115784 0.607388
O O7 0.404825 0.892496 0.561606
O O8 0.617251 0.930814 0.253798
O O9 0.679245 0.774351 0.184671
O O10 0.247494 0.945954 0.638585
O O11 0.250000 0.750000 0.500000
O O12 0.123580 0.774506 0.548659
O O13 0.081527 0.885770 0.423644
O O14 0.583949 0.460108 0.636709
O O15 0.000000 0.000000 0.500000
#
# Coordination Sequence:
#
# PCOD8142512 Si02
#       7
#     8   8   8   8   8   8   8
#     4  11  22  40  66  92 119 164 218 251 304 378
#     4  12  22  39  64  94 124 160 211 263 309 367
#     4  12  23  41  64  91 126 166 211 258 316 376
#     4  11  25  41  60  93 129 168 200 264 322 368
#     4  11  19  35  61  93 119 150 202 258 307 359
#     4  10  21  39  61  85 123 161 205 248 302 376
#     4   9  19  35  58  91 119 155 200 254 304 357
#
# _framework density 20.468672000000002
#
# number of rings (size 3 to 8) (size 9 to 14) (size 15 to 20)
#    0.000    1.143    4.286    3.857    0.000    0.000 
#    2.571    0.000    0.000    0.000    3.714    0.000 
#    0.000    0.000    0.000    0.000    0.000    0.000 
#
# Total GULP energy -346915.650639 kJ/mol
# GULP energy per Si atom -12389.844666 kJ/mol
# Density = 2.042208 g / cm^3
# Si number density = 20.468672 Si / 1000 Ang^3
#
#
#
# Elastic Constant Matrix: (Units=GPa)
#
#
# Indices 1 2 3 4 5 6 
#
# 1 104.6550 45.2231 17.2578 0.0000 -4.7973 0.0000
# 2 45.2231 123.2446 23.8051 0.0000 -4.5085 0.0000
# 3 17.2578 23.8051 95.6527 0.0000 -11.8168 0.0000
# 4 0.0000 0.0000 0.0000 18.2471 0.0000 0.4607
# 5 -4.7973 -4.5085 -11.8168 0.0000 22.5829 0.0000
# 6 0.0000 0.0000 0.0000 0.4607 0.0000 28.8286
#
#
#
# Elastic Compliance Matrix: (Units=1/GPa)
#
#
# Indices 1 2 3 4 5 6 
#
# 1 0.011488 -0.003992 -0.000937 0.000000 0.001153 0.000000
# 2 -0.003992 0.009919 -0.001720 0.000000 0.000232 0.000000
# 3 -0.000937 -0.001720 0.011744 0.000000 0.005603 0.000000
# 4 0.000000 0.000000 0.000000 0.054825 0.000000 -0.000876
# 5 0.001153 0.000232 0.005603 0.000000 0.047504 0.000000
# 6 0.000000 0.000000 0.000000 -0.000876 0.000000 0.034702
#
#
# Mechanical properties :
#
#
# Convention : Reuss Voigt Hill
#
# Bulk Modulus (GPa) = 50.36818 55.12490 52.74654
# Shear Modulus (GPa) = 26.30237 29.74948 28.02593
#
# Velocity S-wave (km/s) = 3.58859 3.81650 3.70430
# Velocity P-wave (km/s) = 6.46773 6.81254 6.64237
#
# Compressibility (1/GPa) = 0.01985381
#
# Stress axis : x y z
#
# Youngs Moduli (GPa) = 87.05057 100.81185 85.15278
#
# Poissons Ratio (x) = 0.40245 0.07976
# Poissons Ratio (y) = 0.34752 0.14643
# Poissons Ratio (z) = 0.08153 0.17336
#
# Static dielectric constant tensor:
#      x y z
#    x 3.784330 0.000000 0.142290 
#    y 0.000000 4.102540 0.000000 
#    z 0.142290 0.000000 3.584420 
# 
# 
# High freq. dielectric constant tensor:
#      x y z
#    x 1.790750 0.000000 0.015420 
#    y 0.000000 1.819670 0.000000 
#    z 0.015420 0.000000 1.782010 
# 
# From -- ./inp_files/247593.got.cif
#   From: 2010.06.25/outbox.cif.g09.slc.cpg/sg15_124_cif.got.tgz:247593.got - 2010.06.28 07:06:18.
