data_PCOD8142955
_publ_section_title
;
Structure prediction by ZEFSAII (Michael W. Deem and Ramdas Pophale) SiO2 
 PCOD8142955
Probable space group: C 2/C
;
_chemical_formula_sum "Si O2"
_cell_formula_units_Z 64
_cell_length_a 23.810001
_cell_length_b 11.246704
_cell_length_c 12.100899
_cell_angle_alpha 90.000000
_cell_angle_beta 109.950016
_cell_angle_gamma 90.000000
_cell_volume 3045.971549
_symmetry_space_group_name_H-M "C 2/C"
_symmetry_group_IT_number 15
_symmetry_cell_setting 'monoclinic'
loop_
_space_group_symop_operation_xyz
x,y,z
-x,y,1/2-z
-x,-y,-z
x,-y,1/2+z
1/2+x,1/2+y,z
1/2-x,1/2+y,1/2-z
1/2-x,1/2-y,-z
1/2+x,1/2-y,1/2+z
loop_
_atom_site_type_symbol
_atom_site_label
_atom_site_fract_x
_atom_site_fract_y
_atom_site_fract_z
Si Si1 0.105526 0.312647 0.964227
Si Si2 0.013599 0.084860 0.141586
Si Si3 0.512545 0.321854 0.096264
Si Si4 0.158262 0.456577 0.566963
Si Si5 0.267044 0.564210 0.749538
Si Si6 0.300375 0.186385 0.603661
Si Si7 0.644414 0.354958 0.682595
Si Si8 0.639862 0.232052 0.246364
O O1 0.036347 0.275687 0.900289
O O2 0.141865 0.313971 0.873457
O O3 0.106638 0.444373 0.018200
O O4 0.139508 0.225494 0.070943
O O5 0.083617 0.076285 0.165524
O O6 0.000000 0.143277 0.250000
O O7 0.981354 0.171689 0.032547
O O8 0.987920 0.950543 0.119879
O O9 0.576298 0.295140 0.189958
O O10 0.222115 0.523548 0.622176
O O11 0.156812 0.379286 0.454487
O O12 0.145278 0.377666 0.666128
O O13 0.229190 0.594209 0.832347
O O14 0.306727 0.453115 0.811314
O O15 0.305928 0.676564 0.736152
O O16 0.250000 0.250000 0.500000
O O17 0.339399 0.280464 0.697768
#
# Coordination Sequence:
#
# PCOD8142955 Si02
#       8
#     8   8   8   8   8   8   8   8
#     4  11  26  45  70  97 140 175 224 284 330 415
#     4  10  21  39  69 101 135 167 219 287 337 396
#     4  10  23  44  66 104 132 171 227 274 342 400
#     4  12  27  45  67 100 135 182 229 274 338 405
#     4  12  24  43  66 104 132 180 224 280 341 400
#     4  12  24  43  64  97 144 175 226 280 332 404
#     4  11  24  42  69 105 133 178 223 281 343 396
#     4  12  25  45  72  97 133 182 226 273 345 400
#
# _framework density 21.011358000000001
#
# number of rings (size 3 to 8) (size 9 to 14) (size 15 to 20)
#    0.000    0.750    5.000    1.875    3.500    1.000 
#    0.000    0.000    0.000    0.000    0.000    0.000 
#    0.000    0.000    0.000    0.000    0.000    0.000 
#
# Total GULP energy -396886.226469 kJ/mol
# GULP energy per Si atom -12402.694577 kJ/mol
# Density = 2.096354 g / cm^3
# Si number density = 21.011358 Si / 1000 Ang^3
#
#
#
# Elastic Constant Matrix: (Units=GPa)
#
#
# Indices 1 2 3 4 5 6 
#
# 1 37.9708 27.6822 19.9918 0.0000 -6.1963 0.0000
# 2 27.6822 108.5817 28.7804 0.0000 -10.5736 0.0000
# 3 19.9918 28.7804 116.6658 0.0000 -21.0875 0.0000
# 4 0.0000 0.0000 0.0000 30.4051 0.0000 0.5713
# 5 -6.1963 -10.5736 -21.0875 0.0000 42.9805 0.0000
# 6 0.0000 0.0000 0.0000 0.5713 0.0000 24.0471
#
#
#
# Elastic Compliance Matrix: (Units=1/GPa)
#
#
# Indices 1 2 3 4 5 6 
#
# 1 0.034018 -0.007562 -0.003746 0.000000 0.001206 0.000000
# 2 -0.007562 0.011607 -0.001370 0.000000 0.001093 0.000000
# 3 -0.003746 -0.001370 0.010307 0.000000 0.004180 0.000000
# 4 0.000000 0.000000 0.000000 0.032904 0.000000 -0.000782
# 5 0.001206 0.001093 0.004180 0.000000 0.025760 0.000000
# 6 0.000000 0.000000 0.000000 -0.000782 0.000000 0.041604
#
#
# Mechanical properties :
#
#
# Convention : Reuss Voigt Hill
#
# Bulk Modulus (GPa) = 32.70533 46.23635 39.47084
# Shear Modulus (GPa) = 26.07588 31.93748 29.00668
#
# Velocity S-wave (km/s) = 3.52666 3.90296 3.71957
# Velocity P-wave (km/s) = 5.67296 6.50876 6.10518
#
# Compressibility (1/GPa) = 0.03057605
#
# Stress axis : x y z
#
# Youngs Moduli (GPa) = 29.39589 86.15344 97.02314
#
# Poissons Ratio (x) = 0.65153 0.36343
# Poissons Ratio (y) = 0.22231 0.13291
# Poissons Ratio (z) = 0.11011 0.11802
#
# Static dielectric constant tensor:
#      x y z
#    x 3.680530 0.000000 -0.008110 
#    y 0.000000 3.906080 0.000000 
#    z -0.008110 0.000000 4.209490 
# 
# 
# High freq. dielectric constant tensor:
#      x y z
#    x 1.812620 0.000000 -0.000340 
#    y 0.000000 1.825990 0.000000 
#    z -0.000340 0.000000 1.843770 
# 
# From -- ./inp_files/118027.got.cif
#   From: 2010.06.25/outbox.cif.g09.slc.cpg/sg15_60_cif.got.tgz:118027.got - 2010.06.28 07:06:18.
