data_PCOD8142808
_publ_section_title
;
Structure prediction by ZEFSAII (Michael W. Deem and Ramdas Pophale) SiO2 
 PCOD8142808
Probable space group: C 2/C
;
_chemical_formula_sum "Si O2"
_cell_formula_units_Z 64
_cell_length_a 8.654582
_cell_length_b 27.380786
_cell_length_c 21.773259
_cell_angle_alpha 90.000000
_cell_angle_beta 34.628499
_cell_angle_gamma 90.000000
_cell_volume 2931.954750
_symmetry_space_group_name_H-M "C 2/C"
_symmetry_group_IT_number 15
_symmetry_cell_setting 'monoclinic'
loop_
_space_group_symop_operation_xyz
x,y,z
-x,y,1/2-z
-x,-y,-z
x,-y,1/2+z
1/2+x,1/2+y,z
1/2-x,1/2+y,1/2-z
1/2-x,1/2-y,-z
1/2+x,1/2-y,1/2+z
loop_
_atom_site_type_symbol
_atom_site_label
_atom_site_fract_x
_atom_site_fract_y
_atom_site_fract_z
Si Si1 0.140949 0.084921 0.767151
Si Si2 0.111599 0.939649 0.031221
Si Si3 0.081179 0.363481 0.637200
Si Si4 0.778734 0.545625 0.949564
Si Si5 0.540702 0.380803 0.872862
Si Si6 0.386883 0.200185 0.970764
Si Si7 0.161822 0.682534 0.758549
Si Si8 0.654960 0.250393 0.099783
O O1 0.407391 0.057873 0.658026
O O2 0.178468 0.132005 0.799019
O O3 0.000000 0.100598 0.750000
O O4 0.965015 0.052173 0.871832
O O5 0.849359 0.935651 0.072704
O O6 0.301594 0.891071 0.961417
O O7 0.273997 0.987508 0.957184
O O8 0.264225 0.381377 0.632649
O O9 0.130915 0.305590 0.626686
O O10 0.760786 0.379251 0.745273
O O11 0.641704 0.570718 0.055260
O O12 0.334170 0.335950 0.926990
O O13 0.468250 0.174723 0.880388
O O14 0.642080 0.213734 0.929854
O O15 0.250000 0.250000 0.000000
O O16 0.356027 0.728241 0.706662
O O17 0.000000 0.693995 0.750000
O O18 0.750000 0.250000 0.000000
#
# Coordination Sequence:
#
# PCOD8142808 Si02
#       8
#     8   8   8   8   8   8   8   8
#     4  12  25  43  70  99 136 179 227 282 349 414
#     4  10  23  42  73 100 135 174 232 284 341 408
#     4  10  22  41  64  99 133 178 222 280 339 409
#     4  10  22  42  70 103 131 175 227 288 342 408
#     4  10  21  39  65  96 134 172 222 276 343 409
#     4  12  22  39  66  93 132 181 223 279 345 405
#     4  12  26  42  65  97 132 175 231 289 341 412
#     4  12  25  40  64  95 138 179 231 279 342 416
#
# _framework density 21.828440000000001
#
# number of rings (size 3 to 8) (size 9 to 14) (size 15 to 20)
#    0.000    1.000    2.500    4.500    5.250    0.500 
#    0.000    0.000    0.000    0.000    0.000    0.000 
#    0.000    0.000    0.000    0.000    0.000    0.000 
#
# Total GULP energy -396564.805392 kJ/mol
# GULP energy per Si atom -12392.650169 kJ/mol
# Density = 2.177876 g / cm^3
# Si number density = 21.828440 Si / 1000 Ang^3
#
#
#
# Elastic Constant Matrix: (Units=GPa)
#
#
# Indices 1 2 3 4 5 6 
#
# 1 95.0139 21.3142 40.6565 0.0005 -5.7892 0.0000
# 2 21.3142 85.8644 28.7714 -0.0005 -15.6084 0.0004
# 3 40.6565 28.7714 139.0409 -0.0015 -4.2919 0.0016
# 4 0.0005 -0.0005 -0.0015 28.4967 0.0005 1.6023
# 5 -5.7892 -15.6084 -4.2919 0.0005 32.0082 -0.0001
# 6 0.0000 0.0004 0.0016 1.6023 -0.0001 18.4336
#
#
#
# Elastic Compliance Matrix: (Units=1/GPa)
#
#
# Indices 1 2 3 4 5 6 
#
# 1 0.012364 -0.001828 -0.003209 0.000000 0.000915 0.000000
# 2 -0.001828 0.013948 -0.002161 0.000000 0.006181 0.000000
# 3 -0.003209 -0.002161 0.008563 0.000001 -0.000486 -0.000001
# 4 0.000000 0.000000 0.000001 0.035264 0.000000 -0.003065
# 5 0.000915 0.006181 -0.000486 0.000000 0.034356 0.000000
# 6 0.000000 0.000000 -0.000001 -0.003065 0.000000 0.054515
#
#
# Mechanical properties :
#
#
# Convention : Reuss Voigt Hill
#
# Bulk Modulus (GPa) = 48.83019 55.71149 52.27084
# Shear Modulus (GPa) = 27.74227 31.06617 29.40422
#
# Velocity S-wave (km/s) = 3.56887 3.77662 3.67421
# Velocity P-wave (km/s) = 6.27702 6.67795 6.48059
#
# Compressibility (1/GPa) = 0.02047914
#
# Stress axis : x y z
#
# Youngs Moduli (GPa) = 80.88318 71.69682 116.78762
#
# Poissons Ratio (x) = 0.13103 0.37474
# Poissons Ratio (y) = 0.14782 0.25237
# Poissons Ratio (z) = 0.25954 0.15493
#
# Static dielectric constant tensor:
#      x y z
#    x 2.687660 0.000330 0.230710 
#    y 0.000330 4.342170 -0.000080 
#    z 0.230710 -0.000080 4.136200 
# 
# 
# High freq. dielectric constant tensor:
#      x y z
#    x 1.834550 0.000000 -0.004120 
#    y 0.000000 1.864990 0.000000 
#    z -0.004120 0.000000 1.874600 
# 
# From -- ./inp_files/266733.got.cif
#   From: 2010.06.25/outbox.cif.g09.slc.cpg/sg15_134_cif.got.tgz:266733.got - 2010.06.28 07:06:18.
