data_PCOD8142101
_publ_section_title
;
Structure prediction by ZEFSAII (Michael W. Deem and Ramdas Pophale) SiO2 
 PCOD8142101
Probable space group: C 2/C
;
_chemical_formula_sum "Si O2"
_cell_formula_units_Z 56
_cell_length_a 10.983875
_cell_length_b 33.914168
_cell_length_c 8.355199
_cell_angle_alpha 90.000000
_cell_angle_beta 115.240366
_cell_angle_gamma 90.000000
_cell_volume 2815.237340
_symmetry_space_group_name_H-M "C 2/C"
_symmetry_group_IT_number 15
_symmetry_cell_setting 'monoclinic'
loop_
_space_group_symop_operation_xyz
x,y,z
-x,y,1/2-z
-x,-y,-z
x,-y,1/2+z
1/2+x,1/2+y,z
1/2-x,1/2+y,1/2-z
1/2-x,1/2-y,-z
1/2+x,1/2-y,1/2+z
loop_
_atom_site_type_symbol
_atom_site_label
_atom_site_fract_x
_atom_site_fract_y
_atom_site_fract_z
Si Si1 0.354386 0.896563 0.335212
Si Si2 0.640895 0.553305 0.874595
Si Si3 0.110442 0.687998 0.538343
Si Si4 0.863246 0.030069 0.264787
Si Si5 0.317651 0.174737 0.281553
Si Si6 0.155034 0.756280 0.795063
Si Si7 0.840422 0.592641 0.467366
O O1 0.256863 0.914263 0.416499
O O2 0.364562 0.849576 0.337376
O O3 0.500176 0.914935 0.454401
O O4 0.296945 0.904917 0.127594
O O5 0.500000 0.573964 0.750000
O O6 0.670110 0.515863 0.777596
O O7 0.622144 0.536932 0.040431
O O8 0.174029 0.676186 0.404754
O O9 0.182592 0.724823 0.666774
O O10 0.950241 0.695379 0.431513
O O11 0.000000 0.042905 0.250000
O O12 0.734810 0.054763 0.139281
O O13 0.186090 0.199936 0.250585
O O14 0.298801 0.130653 0.338080
O O15 0.000000 0.752856 0.750000
O O16 0.250000 0.750000 0.000000
#
# Coordination Sequence:
#
# PCOD8142101 Si02
#       7
#     8   8   8   8   8   8   8
#     4  10  21  38  62  88 118 160 200 248 301 360
#     4  11  22  39  61  87 120 157 202 246 302 359
#     4  10  21  39  62  85 120 156 201 249 306 359
#     4  11  22  38  61  86 121 160 197 249 303 356
#     4  10  21  39  61  88 119 159 198 249 303 365
#     4  12  23  39  62  88 120 158 203 250 305 365
#     4  10  21  38  62  89 121 157 202 245 302 361
#
# _framework density 19.891750999999999
#
# number of rings (size 3 to 8) (size 9 to 14) (size 15 to 20)
#    0.000    1.429    1.429    5.571    2.000    2.857 
#    0.000    4.286    0.000    0.000    0.000    0.000 
#    0.000    0.000    0.000    0.000    0.000    0.000 
#
# Total GULP energy -347162.259868 kJ/mol
# GULP energy per Si atom -12398.652138 kJ/mol
# Density = 1.984648 g / cm^3
# Si number density = 19.891751 Si / 1000 Ang^3
#
#
#
# Elastic Constant Matrix: (Units=GPa)
#
#
# Indices 1 2 3 4 5 6 
#
# 1 89.6033 34.4576 28.1192 0.0000 -3.9799 0.0000
# 2 34.4576 61.0007 22.2455 0.0000 7.2726 0.0000
# 3 28.1192 22.2455 95.5882 0.0000 -0.9214 0.0000
# 4 0.0000 0.0000 0.0000 39.9674 0.0000 -2.5661
# 5 -3.9799 7.2726 -0.9214 0.0000 28.7890 0.0000
# 6 0.0000 0.0000 0.0000 -2.5661 0.0000 37.5183
#
#
#
# Elastic Compliance Matrix: (Units=1/GPa)
#
#
# Indices 1 2 3 4 5 6 
#
# 1 0.015297 -0.008199 -0.002552 0.000000 0.004104 0.000000
# 2 -0.008199 0.022956 -0.002998 0.000000 -0.007029 0.000000
# 3 -0.002552 -0.002998 0.011918 0.000000 0.000786 0.000000
# 4 0.000000 0.000000 0.000000 0.025131 0.000000 0.001719
# 5 0.004104 -0.007029 0.000786 0.000000 0.037104 0.000000
# 6 0.000000 0.000000 0.000000 0.001719 0.000000 0.026771
#
#
# Mechanical properties :
#
#
# Convention : Reuss Voigt Hill
#
# Bulk Modulus (GPa) = 44.10866 46.20408 45.15637
# Shear Modulus (GPa) = 28.69738 32.01294 30.35516
#
# Velocity S-wave (km/s) = 3.80238 4.01603 3.91067
# Velocity P-wave (km/s) = 6.44204 6.69200 6.56821
#
# Compressibility (1/GPa) = 0.02267128
#
# Stress axis : x y z
#
# Youngs Moduli (GPa) = 65.37405 43.56135 83.90951
#
# Poissons Ratio (x) = 0.35717 0.21414
# Poissons Ratio (y) = 0.53602 0.25157
# Poissons Ratio (z) = 0.16684 0.13060
#
# Static dielectric constant tensor:
#      x y z
#    x 3.688230 0.000000 -0.046420 
#    y 0.000000 3.557270 0.000000 
#    z -0.046420 0.000000 3.795740 
# 
# 
# High freq. dielectric constant tensor:
#      x y z
#    x 1.771740 0.000000 -0.010530 
#    y 0.000000 1.770340 0.000000 
#    z -0.010530 0.000000 1.792990 
# 
# From -- ./inp_files/35768.got.cif
#   From: 2010.06.25/outbox.cif.g09.slc.cpg/sg15_18_cif.got.tgz:35768.got - 2010.06.28 07:06:18.
