data_PCOD8142917
_publ_section_title
;
Structure prediction by ZEFSAII (Michael W. Deem and Ramdas Pophale) SiO2 
 PCOD8142917
Probable space group: C 2/C
;
_chemical_formula_sum "Si O2"
_cell_formula_units_Z 40
_cell_length_a 25.124834
_cell_length_b 5.745164
_cell_length_c 13.206744
_cell_angle_alpha 90.000000
_cell_angle_beta 109.301011
_cell_angle_gamma 90.000000
_cell_volume 1799.198657
_symmetry_space_group_name_H-M "C 2/C"
_symmetry_group_IT_number 15
_symmetry_cell_setting 'monoclinic'
loop_
_space_group_symop_operation_xyz
x,y,z
-x,y,1/2-z
-x,-y,-z
x,-y,1/2+z
1/2+x,1/2+y,z
1/2-x,1/2+y,1/2-z
1/2-x,1/2-y,-z
1/2+x,1/2-y,1/2+z
loop_
_atom_site_type_symbol
_atom_site_label
_atom_site_fract_x
_atom_site_fract_y
_atom_site_fract_z
Si Si1 0.031287 0.748353 0.003359
Si Si2 0.187311 0.602357 0.376219
Si Si3 0.893982 0.220455 0.135040
Si Si4 0.689112 0.440255 0.551895
Si Si5 0.625442 0.579187 0.697145
O O1 0.083598 0.743696 0.113654
O O2 0.050988 0.742549 0.898840
O O3 0.000000 0.500000 0.000000
O O4 0.000000 0.000000 0.000000
O O5 0.130327 0.454078 0.331718
O O6 0.246431 0.474668 0.387753
O O7 0.190529 0.696162 0.493610
O O8 0.178016 0.796850 0.284735
O O9 0.910573 0.056927 0.240109
O O10 0.841930 0.129288 0.035858
O O11 0.654452 0.404989 0.634194
#
# Coordination Sequence:
#
# PCOD8142917 Si02
#       5
#     8   8   8   8   8
#     4  11  28  50  73  97 137 182 232 300 354 394
#     4  10  21  39  67  97 138 181 217 276 339 422
#     4  10  23  42  69  97 134 174 230 280 340 419
#     4   9  21  40  62 100 142 174 217 271 346 410
#     4  10  24  41  66 103 131 176 232 281 337 420
#
# _framework density 22.232122
#
# number of rings (size 3 to 8) (size 9 to 14) (size 15 to 20)
#    0.000    2.000    0.000    0.600   14.000    2.400 
#    3.600    0.000    0.000    0.000    0.000    0.000 
#    0.000    0.000    0.000    0.000    0.000    0.000 
#
# Total GULP energy -247819.520314 kJ/mol
# GULP energy per Si atom -12390.976016 kJ/mol
# Density = 2.218152 g / cm^3
# Si number density = 22.232122 Si / 1000 Ang^3
#
#
#
# Elastic Constant Matrix: (Units=GPa)
#
#
# Indices 1 2 3 4 5 6 
#
# 1 124.5221 47.5561 55.2008 0.0000 -25.9643 0.0000
# 2 47.5561 94.7698 30.9484 0.0000 -14.2743 0.0000
# 3 55.2008 30.9484 131.9845 0.0000 -27.4132 0.0000
# 4 0.0000 0.0000 0.0000 17.1139 0.0000 -2.8471
# 5 -25.9643 -14.2743 -27.4132 0.0000 32.8431 0.0000
# 6 0.0000 0.0000 0.0000 -2.8471 0.0000 42.6046
#
#
#
# Elastic Compliance Matrix: (Units=1/GPa)
#
#
# Indices 1 2 3 4 5 6 
#
# 1 0.012072 -0.004308 -0.002958 0.000000 0.005202 0.000000
# 2 -0.004308 0.013268 -0.000991 0.000000 0.001534 0.000000
# 3 -0.002958 -0.000991 0.010248 0.000000 0.005784 0.000000
# 4 0.000000 0.000000 0.000000 0.059089 0.000000 0.003949
# 5 0.005202 0.001534 0.005784 0.000000 0.040055 0.000000
# 6 0.000000 0.000000 0.000000 0.003949 0.000000 0.023735
#
#
# Mechanical properties :
#
#
# Convention : Reuss Voigt Hill
#
# Bulk Modulus (GPa) = 52.42915 68.74300 60.58607
# Shear Modulus (GPa) = 27.57251 33.01706 30.29478
#
# Velocity S-wave (km/s) = 3.52548 3.85789 3.69542
# Velocity P-wave (km/s) = 6.34081 7.12966 6.74677
#
# Compressibility (1/GPa) = 0.01907336
#
# Stress axis : x y z
#
# Youngs Moduli (GPa) = 82.83493 75.36716 97.58366
#
# Poissons Ratio (x) = 0.32470 0.28869
# Poissons Ratio (y) = 0.35688 0.09668
# Poissons Ratio (z) = 0.24506 0.07467
#
# Static dielectric constant tensor:
#      x y z
#    x 4.013010 0.000000 -0.133890 
#    y 0.000000 3.762490 0.000000 
#    z -0.133890 0.000000 4.193540 
# 
# 
# High freq. dielectric constant tensor:
#      x y z
#    x 1.873110 0.000000 -0.005780 
#    y 0.000000 1.856290 0.000000 
#    z -0.005780 0.000000 1.890130 
# 
# From -- ./inp_files/120712.got.cif
#   From: 2010.06.25/outbox.cif.g09.slc.cpg/sg15_61_cif.got.tgz:120712.got - 2010.06.28 07:06:18.
