data_PCOD8142623
_publ_section_title
;
Structure prediction by ZEFSAII (Michael W. Deem and Ramdas Pophale) SiO2 
 PCOD8142623
Probable space group: C 2/C
;
_chemical_formula_sum "Si O2"
_cell_formula_units_Z 48
_cell_length_a 14.640421
_cell_length_b 19.682976
_cell_length_c 13.620299
_cell_angle_alpha 90.000000
_cell_angle_beta 143.961721
_cell_angle_gamma 90.000000
_cell_volume 2309.131851
_symmetry_space_group_name_H-M "C 2/C"
_symmetry_group_IT_number 15
_symmetry_cell_setting 'monoclinic'
loop_
_space_group_symop_operation_xyz
x,y,z
-x,y,1/2-z
-x,-y,-z
x,-y,1/2+z
1/2+x,1/2+y,z
1/2-x,1/2+y,1/2-z
1/2-x,1/2-y,-z
1/2+x,1/2-y,1/2+z
loop_
_atom_site_type_symbol
_atom_site_label
_atom_site_fract_x
_atom_site_fract_y
_atom_site_fract_z
Si Si1 0.870716 0.665282 0.921422
Si Si2 0.556242 0.549457 0.409460
Si Si3 0.972422 0.215780 0.838932
Si Si4 0.471972 0.050964 0.339282
Si Si5 0.101075 0.403045 0.248677
Si Si6 0.874453 0.089276 0.435766
O O1 0.701825 0.691818 0.799199
O O2 0.889836 0.657724 0.821289
O O3 0.001037 0.715818 0.075962
O O4 0.890863 0.589902 0.984619
O O5 0.500000 0.559676 0.250000
O O6 0.730250 0.576572 0.566383
O O7 0.447928 0.591341 0.390515
O O8 0.548939 0.470377 0.432703
O O9 0.000000 0.233325 0.750000
O O10 0.092684 0.159285 0.980096
O O11 0.500000 0.065011 0.250000
O O12 0.308910 0.081067 0.233852
O O13 0.481808 0.970303 0.369380
O O14 0.000000 0.373981 0.250000
#
# Coordination Sequence:
#
# PCOD8142623 Si02
#       6
#     8   8   8   8   8   8
#     4  12  24  42  62  93 127 166 214 259 309 379
#     4  10  21  39  65  95 127 163 206 257 315 373
#     4  12  24  41  65  91 128 169 208 257 314 380
#     4  10  21  39  64  96 127 163 205 256 321 373
#     4  10  23  42  63  94 125 166 211 260 318 366
#     4  10  21  39  62  97 127 161 207 254 314 372
#
# _framework density 20.787034999999999
#
# number of rings (size 3 to 8) (size 9 to 14) (size 15 to 20)
#    0.000    1.333    1.667    4.000    2.333    2.667 
#    0.000    1.667    0.000    0.000    0.000    0.000 
#    0.000    0.000    0.000    0.000    0.000    0.000 
#
# Total GULP energy -297723.599676 kJ/mol
# GULP energy per Si atom -12405.149986 kJ/mol
# Density = 2.073972 g / cm^3
# Si number density = 20.787035 Si / 1000 Ang^3
#
#
#
# Elastic Constant Matrix: (Units=GPa)
#
#
# Indices 1 2 3 4 5 6 
#
# 1 154.3123 39.9184 57.0982 0.0000 -4.5269 0.0000
# 2 39.9184 73.6456 49.7080 0.0000 -14.7660 0.0000
# 3 57.0982 49.7080 98.5796 0.0000 -17.6640 0.0000
# 4 0.0000 0.0000 0.0000 36.0664 0.0000 -11.3573
# 5 -4.5269 -14.7660 -17.6640 0.0000 37.4296 0.0000
# 6 0.0000 0.0000 0.0000 -11.3573 0.0000 0.0797
#
#
#
# Elastic Compliance Matrix: (Units=1/GPa)
#
#
# Indices 1 2 3 4 5 6 
#
# 1 0.008532 -0.002170 -0.004168 0.000000 -0.001791 0.000000
# 2 -0.002170 0.021570 -0.008894 0.000000 0.004050 0.000000
# 3 -0.004168 -0.008894 0.017832 0.000000 0.004403 0.000000
# 4 0.000000 0.000000 0.000000 -0.000632 0.000000 -0.090055
# 5 -0.001791 0.004050 0.004403 0.000000 0.030175 0.000000
# 6 0.000000 0.000000 0.000000 -0.090055 0.000000 -0.285981
#
#
# Mechanical properties :
#
#
# Convention : Reuss Voigt Hill
#
# Bulk Modulus (GPa) = 57.24492 68.88744 63.06618
# Shear Modulus (GPa) = -29.03316 26.70265 -1.16525
#
# Velocity S-wave (km/s) = -3.74129 3.58799 -0.74952
# Velocity P-wave (km/s) = 2.98923 7.09764 5.44573
#
# Compressibility (1/GPa) = 0.01746880
#
# Stress axis : x y z
#
# Youngs Moduli (GPa) = 117.21236 46.36115 56.07933
#
# Poissons Ratio (x) = 0.10061 0.23375
# Poissons Ratio (y) = 0.25437 0.49876
# Poissons Ratio (z) = 0.48857 0.41233
#
# Static dielectric constant tensor:
#      x y z
#    x 4.035190 0.000000 -0.182060 
#    y 0.000000 3.812220 0.000000 
#    z -0.182060 0.000000 3.977620 
# 
# 
# High freq. dielectric constant tensor:
#      x y z
#    x 1.829500 0.000000 0.002060 
#    y 0.000000 1.799960 0.000000 
#    z 0.002060 0.000000 1.814050 
# 
# From -- ./inp_files/89382.got.cif
#   From: 2010.06.25/outbox.cif.g09.slc.cpg/sg15_45_cif.got.tgz:89382.got - 2010.06.28 07:06:18.
