data_PCOD8142178
_publ_section_title
;
Structure prediction by ZEFSAII (Michael W. Deem and Ramdas Pophale) SiO2 
 PCOD8142178
Probable space group: C 2/C
;
_chemical_formula_sum "Si O2"
_cell_formula_units_Z 56
_cell_length_a 24.035746
_cell_length_b 13.557686
_cell_length_c 8.809698
_cell_angle_alpha 90.000000
_cell_angle_beta 73.238109
_cell_angle_gamma 90.000000
_cell_volume 2748.832075
_symmetry_space_group_name_H-M "C 2/C"
_symmetry_group_IT_number 15
_symmetry_cell_setting 'monoclinic'
loop_
_space_group_symop_operation_xyz
x,y,z
-x,y,1/2-z
-x,-y,-z
x,-y,1/2+z
1/2+x,1/2+y,z
1/2-x,1/2+y,1/2-z
1/2-x,1/2-y,-z
1/2+x,1/2-y,1/2+z
loop_
_atom_site_type_symbol
_atom_site_label
_atom_site_fract_x
_atom_site_fract_y
_atom_site_fract_z
Si Si1 0.427715 0.756371 0.170444
Si Si2 0.162383 0.403971 0.899819
Si Si3 0.938188 0.047531 0.007592
Si Si4 0.319258 0.114083 0.761253
Si Si5 0.552818 0.212994 0.504032
Si Si6 0.601789 0.383768 0.277337
Si Si7 0.281229 0.275002 0.319921
O O1 0.426543 0.648873 0.101984
O O2 0.372299 0.818486 0.160737
O O3 0.427001 0.741291 0.351593
O O4 0.484939 0.816080 0.067016
O O5 0.175607 0.510248 0.824885
O O6 0.199064 0.324310 0.778044
O O7 0.181478 0.400967 0.058851
O O8 0.093205 0.381799 0.937104
O O9 0.890264 0.967895 0.100408
O O10 0.931828 0.065256 0.834666
O O11 0.000000 0.000000 0.000000
O O12 0.259735 0.165973 0.762185
O O13 0.561018 0.295410 0.369029
O O14 0.664398 0.343719 0.180843
O O15 0.250000 0.250000 0.500000
#
# Coordination Sequence:
#
# PCOD8142178 Si02
#       7
#     8   8   8   8   8   8   8
#     4  10  21  38  63  90 127 164 212 258 322 376
#     4  10  23  42  65  92 127 166 216 263 327 378
#     4  12  23  36  60  93 127 163 209 256 322 391
#     4  11  23  41  66  95 124 170 212 272 316 383
#     4   9  20  40  61  88 125 167 207 261 313 386
#     4  11  24  39  59  90 127 170 206 260 323 382
#     4  11  24  44  66  91 127 166 218 272 321 387
#
# _framework density 20.372288999999999
#
# number of rings (size 3 to 8) (size 9 to 14) (size 15 to 20)
#    0.000    1.429    1.429    3.429    2.000    5.143 
#    0.000    0.000    0.000    0.000    0.000    0.000 
#    0.000    0.000    0.000    0.000    0.000    0.000 
#
# Total GULP energy -347248.628988 kJ/mol
# GULP energy per Si atom -12401.736750 kJ/mol
# Density = 2.032592 g / cm^3
# Si number density = 20.372289 Si / 1000 Ang^3
#
#
#
# Elastic Constant Matrix: (Units=GPa)
#
#
# Indices 1 2 3 4 5 6 
#
# 1 116.0708 57.8977 52.3057 0.0000 -8.7642 0.0000
# 2 57.8977 123.8915 45.8464 0.0000 -8.7202 0.0000
# 3 52.3057 45.8464 114.2093 0.0000 -7.8154 0.0000
# 4 0.0000 0.0000 0.0000 35.1691 0.0000 -1.2695
# 5 -8.7642 -8.7202 -7.8154 0.0000 33.9962 0.0000
# 6 0.0000 0.0000 0.0000 -1.2695 0.0000 30.5879
#
#
#
# Elastic Compliance Matrix: (Units=1/GPa)
#
#
# Indices 1 2 3 4 5 6 
#
# 1 0.012675 -0.004369 -0.003967 0.000000 0.001235 0.000000
# 2 -0.004369 0.011070 -0.002363 0.000000 0.001170 0.000000
# 3 -0.003967 -0.002363 0.011592 0.000000 0.001036 0.000000
# 4 0.000000 0.000000 0.000000 0.028477 0.000000 0.001182
# 5 0.001235 0.001170 0.001036 0.000000 0.030272 0.000000
# 6 0.000000 0.000000 0.000000 0.001182 0.000000 0.032742
#
#
# Mechanical properties :
#
#
# Convention : Reuss Voigt Hill
#
# Bulk Modulus (GPa) = 71.73352 74.03012 72.88182
# Shear Modulus (GPa) = 32.70721 33.15877 32.93299
#
# Velocity S-wave (km/s) = 4.01119 4.03878 4.02501
# Velocity P-wave (km/s) = 7.53263 7.62670 7.57981
#
# Compressibility (1/GPa) = 0.01394048
#
# Stress axis : x y z
#
# Youngs Moduli (GPa) = 78.89239 90.33484 86.26599
#
# Poissons Ratio (x) = 0.39464 0.34221
# Poissons Ratio (y) = 0.34466 0.20384
# Poissons Ratio (z) = 0.31296 0.21345
#
# Static dielectric constant tensor:
#      x y z
#    x 3.867920 0.000000 -0.131410 
#    y 0.000000 3.748270 0.000000 
#    z -0.131410 0.000000 3.927200 
# 
# 
# High freq. dielectric constant tensor:
#      x y z
#    x 1.795290 0.000000 -0.006900 
#    y 0.000000 1.796920 0.000000 
#    z -0.006900 0.000000 1.814320 
# 
# From -- ./inp_files/65443.got.cif
#   From: 2010.06.25/outbox.cif.g09.slc.cpg/sg15_33_cif.got.tgz:65443.got - 2010.06.28 07:06:18.
