data_PCOD8142352
_publ_section_title
;
Structure prediction by ZEFSAII (Michael W. Deem and Ramdas Pophale) SiO2 
 PCOD8142352
Probable space group: C 2/C
;
_chemical_formula_sum "Si O2"
_cell_formula_units_Z 64
_cell_length_a 9.000897
_cell_length_b 19.334482
_cell_length_c 29.164634
_cell_angle_alpha 90.000000
_cell_angle_beta 35.967449
_cell_angle_gamma 90.000000
_cell_volume 2980.943525
_symmetry_space_group_name_H-M "C 2/C"
_symmetry_group_IT_number 15
_symmetry_cell_setting 'monoclinic'
loop_
_space_group_symop_operation_xyz
x,y,z
-x,y,1/2-z
-x,-y,-z
x,-y,1/2+z
1/2+x,1/2+y,z
1/2-x,1/2+y,1/2-z
1/2-x,1/2-y,-z
1/2+x,1/2-y,1/2+z
loop_
_atom_site_type_symbol
_atom_site_label
_atom_site_fract_x
_atom_site_fract_y
_atom_site_fract_z
Si Si1 0.774952 0.646362 0.665881
Si Si2 0.293192 0.361693 0.423470
Si Si3 0.277865 0.469580 0.163315
Si Si4 0.398633 0.263389 0.703371
Si Si5 0.467066 0.988542 0.365162
Si Si6 0.045402 0.406460 0.913900
Si Si7 0.894587 0.259972 0.633047
Si Si8 0.114260 0.923719 0.793785
O O1 0.500000 0.622217 0.750000
O O2 0.794819 0.653025 0.606176
O O3 0.839978 0.720645 0.672100
O O4 0.961921 0.588481 0.637836
O O5 0.533969 0.411347 0.365719
O O6 0.366384 0.290925 0.431976
O O7 0.056290 0.394362 0.509436
O O8 0.367967 0.543078 0.160408
O O9 0.000000 0.447082 0.250000
O O10 0.267281 0.479079 0.111090
O O11 0.694737 0.253398 0.641227
O O12 0.231223 0.236587 0.787511
O O13 0.322481 0.343205 0.715488
O O14 0.382731 0.031978 0.431064
O O15 0.694214 0.034073 0.286411
O O16 0.014488 0.339148 0.889354
O O17 0.334838 0.431613 0.842918
#
# Coordination Sequence:
#
# PCOD8142352 Si02
#       8
#     8   8   8   8   8   8   8   8
#     4  12  23  37  61  94 123 160 209 259 306 367
#     4  12  25  40  61  94 131 166 204 255 312 374
#     4  10  23  39  62  90 126 162 210 265 306 358
#     4  10  21  38  67  92 118 159 210 262 310 359
#     4  11  22  40  64  92 126 164 215 260 305 363
#     4  11  23  41  64  91 129 170 204 250 316 376
#     4  10  21  40  62  90 122 161 208 257 307 373
#     4  10  21  41  64  94 123 162 211 259 312 364
#
# _framework density 21.469712000000001
#
# number of rings (size 3 to 8) (size 9 to 14) (size 15 to 20)
#    0.000    1.250    2.500    4.500    1.750    5.000 
#    0.000    3.750    0.000    0.000    0.000    0.000 
#    0.000    0.000    0.000    0.000    0.000    0.000 
#
# Total GULP energy -396800.980326 kJ/mol
# GULP energy per Si atom -12400.030635 kJ/mol
# Density = 2.142085 g / cm^3
# Si number density = 21.469712 Si / 1000 Ang^3
#
#
#
# Elastic Constant Matrix: (Units=GPa)
#
#
# Indices 1 2 3 4 5 6 
#
# 1 122.2288 60.1591 15.6119 0.1228 22.2214 -0.0067
# 2 60.1591 115.4915 15.8503 0.2384 4.6454 -0.0170
# 3 15.6119 15.8503 34.8045 0.1408 14.3587 -0.0172
# 4 0.1228 0.2384 0.1408 18.6845 -0.0041 0.9842
# 5 22.2214 4.6454 14.3587 -0.0041 28.3857 0.0033
# 6 -0.0067 -0.0170 -0.0172 0.9842 0.0033 41.2419
#
#
#
# Elastic Compliance Matrix: (Units=1/GPa)
#
#
# Indices 1 2 3 4 5 6 
#
# 1 0.013023 -0.006550 0.001144 -0.000013 -0.009702 0.000001
# 2 -0.006550 0.012544 -0.005109 -0.000077 0.005659 0.000003
# 3 0.001144 -0.005109 0.038633 -0.000239 -0.019602 0.000021
# 4 -0.000013 -0.000077 -0.000239 0.053591 0.000151 -0.001279
# 5 -0.009702 0.005659 -0.019602 0.000151 0.051813 -0.000015
# 6 0.000001 0.000003 0.000021 -0.001279 -0.000015 0.024278
#
#
# Mechanical properties :
#
#
# Convention : Reuss Voigt Hill
#
# Bulk Modulus (GPa) = 23.16437 50.64082 36.90260
# Shear Modulus (GPa) = 21.80522 29.72266 25.76394
#
# Velocity S-wave (km/s) = 3.19035 3.72479 3.46788
# Velocity P-wave (km/s) = 4.93800 6.49130 5.76719
#
# Compressibility (1/GPa) = 0.04316975
#
# Stress axis : x y z
#
# Youngs Moduli (GPa) = 76.78693 79.71662 25.88443
#
# Poissons Ratio (x) = 0.52218 -0.02961
# Poissons Ratio (y) = 0.50299 0.13225
# Poissons Ratio (z) = -0.08784 0.40728
#
# Static dielectric constant tensor:
#      x y z
#    x 4.040380 -0.000190 0.100120 
#    y -0.000190 4.016150 0.000110 
#    z 0.100120 0.000110 3.645210 
# 
# 
# High freq. dielectric constant tensor:
#      x y z
#    x 1.847190 0.000000 0.007210 
#    y 0.000000 1.856120 0.000000 
#    z 0.007210 0.000000 1.815550 
# 
# From -- ./inp_files/308768.got.cif
#   From: 2010.06.25/outbox.cif.g09.slc.cpg/sg15_155_cif.got.tgz:308768.got - 2010.06.28 07:06:18.
