data_PCOD8142452
_publ_section_title
;
Structure prediction by ZEFSAII (Michael W. Deem and Ramdas Pophale) SiO2 
 PCOD8142452
Probable space group: C 2/C
;
_chemical_formula_sum "Si O2"
_cell_formula_units_Z 40
_cell_length_a 9.556768
_cell_length_b 9.482110
_cell_length_c 21.934442
_cell_angle_alpha 90.000000
_cell_angle_beta 87.572029
_cell_angle_gamma 90.000000
_cell_volume 1985.878015
_symmetry_space_group_name_H-M "C 2/C"
_symmetry_group_IT_number 15
_symmetry_cell_setting 'monoclinic'
loop_
_space_group_symop_operation_xyz
x,y,z
-x,y,1/2-z
-x,-y,-z
x,-y,1/2+z
1/2+x,1/2+y,z
1/2-x,1/2+y,1/2-z
1/2-x,1/2-y,-z
1/2+x,1/2-y,1/2+z
loop_
_atom_site_type_symbol
_atom_site_label
_atom_site_fract_x
_atom_site_fract_y
_atom_site_fract_z
Si Si1 0.779411 0.854159 0.624160
Si Si2 0.901855 0.793015 0.872804
Si Si3 0.569672 0.968052 0.062580
Si Si4 0.145681 0.449302 0.223553
Si Si5 0.795915 0.545333 0.643500
O O1 0.705725 0.932641 0.568348
O O2 0.740389 0.690391 0.614808
O O3 0.946730 0.867127 0.627082
O O4 0.721216 0.927385 0.685651
O O5 0.880917 0.694639 0.933203
O O6 0.873719 0.698742 0.812498
O O7 0.789768 0.915342 0.880565
O O8 0.458545 0.984054 0.121236
O O9 0.500000 0.000000 0.000000
O O10 0.231161 0.425960 0.284478
O O11 0.000000 0.511041 0.250000
#
# Coordination Sequence:
#
# PCOD8142452 Si02
#       5
#     8   8   8   8   8
#     4  10  21  39  59  86 118 154 193 238 293 344
#     4  10  23  39  59  89 120 150 196 241 288 350
#     4  10  23  43  62  81 117 158 197 247 296 339
#     4  11  19  39  58  86 125 154 183 235 292 350
#     4  11  22  37  61  88 119 154 195 237 290 350
#
# _framework density 20.142223000000001
#
# number of rings (size 3 to 8) (size 9 to 14) (size 15 to 20)
#    0.000    1.600    6.000    1.200    0.000    7.200 
#    3.600    2.000    0.000    0.000    0.000    0.000 
#    0.000    0.000    0.000    0.000    0.000    0.000 
#
# Total GULP energy -247787.460751 kJ/mol
# GULP energy per Si atom -12389.373038 kJ/mol
# Density = 2.009638 g / cm^3
# Si number density = 20.142223 Si / 1000 Ang^3
#
#
#
# Elastic Constant Matrix: (Units=GPa)
#
#
# Indices 1 2 3 4 5 6 
#
# 1 87.6322 70.9959 2.5876 0.0000 16.4354 0.0000
# 2 70.9959 116.7886 -2.0664 0.0000 5.7964 0.0000
# 3 2.5876 -2.0664 57.6918 0.0000 17.1648 0.0000
# 4 0.0000 0.0000 0.0000 18.2035 0.0000 9.7004
# 5 16.4354 5.7964 17.1648 0.0000 25.2207 0.0000
# 6 0.0000 0.0000 0.0000 9.7004 0.0000 47.5752
#
#
#
# Elastic Compliance Matrix: (Units=1/GPa)
#
#
# Indices 1 2 3 4 5 6 
#
# 1 0.026868 -0.015487 0.002998 0.000000 -0.015990 0.000000
# 2 -0.015487 0.017647 -0.000588 0.000000 0.006437 0.000000
# 3 0.002998 -0.000588 0.022218 0.000000 -0.016939 0.000000
# 4 0.000000 0.000000 0.000000 0.061631 0.000000 -0.012566
# 5 -0.015990 0.006437 -0.016939 0.000000 0.060120 0.000000
# 6 0.000000 0.000000 0.000000 -0.012566 0.000000 0.023582
#
#
# Mechanical properties :
#
#
# Convention : Reuss Voigt Hill
#
# Bulk Modulus (GPa) = 24.64366 45.01631 34.82998
# Shear Modulus (GPa) = 19.86123 30.90623 25.38373
#
# Velocity S-wave (km/s) = 3.14355 3.92139 3.55382
# Velocity P-wave (km/s) = 5.04354 6.54987 5.84543
#
# Compressibility (1/GPa) = 0.04057839
#
# Stress axis : x y z
#
# Youngs Moduli (GPa) = 37.21833 56.66683 45.00873
#
# Poissons Ratio (x) = 0.87758 -0.13492
# Poissons Ratio (y) = 0.57639 0.02649
# Poissons Ratio (z) = -0.11157 0.03335
#
# Static dielectric constant tensor:
#      x y z
#    x 3.631360 0.000000 0.124190 
#    y 0.000000 3.723700 0.000000 
#    z 0.124190 0.000000 3.640540 
# 
# 
# High freq. dielectric constant tensor:
#      x y z
#    x 1.782130 0.000000 0.015290 
#    y 0.000000 1.789720 0.000000 
#    z 0.015290 0.000000 1.776980 
# 
# From -- ./inp_files/262517.got.cif
#   From: 2010.06.25/outbox.cif.g09.slc.cpg/sg15_132_cif.got.tgz:262517.got - 2010.06.28 07:06:18.
