data_PCOD8142788
_publ_section_title
;
Structure prediction by ZEFSAII (Michael W. Deem and Ramdas Pophale) SiO2 
 PCOD8142788
Probable space group: C 2/C
;
_chemical_formula_sum "Si O2"
_cell_formula_units_Z 52
_cell_length_a 9.511551
_cell_length_b 16.602998
_cell_length_c 27.984288
_cell_angle_alpha 90.000000
_cell_angle_beta 37.251993
_cell_angle_gamma 90.000000
_cell_volume 2675.089669
_symmetry_space_group_name_H-M "C 2/C"
_symmetry_group_IT_number 15
_symmetry_cell_setting 'monoclinic'
loop_
_space_group_symop_operation_xyz
x,y,z
-x,y,1/2-z
-x,-y,-z
x,-y,1/2+z
1/2+x,1/2+y,z
1/2-x,1/2+y,1/2-z
1/2-x,1/2-y,-z
1/2+x,1/2-y,1/2+z
loop_
_atom_site_type_symbol
_atom_site_label
_atom_site_fract_x
_atom_site_fract_y
_atom_site_fract_z
Si Si1 0.916688 0.262422 0.025050
Si Si2 0.500000 0.884331 0.250000
Si Si3 0.253861 0.915134 0.669761
Si Si4 0.029303 0.099931 0.037062
Si Si5 0.845783 0.421778 0.537098
Si Si6 0.625260 0.984534 0.125083
Si Si7 0.593094 0.741437 0.870786
O O1 0.641883 0.272859 0.094691
O O2 0.984483 0.195341 0.045926
O O3 0.003513 0.346894 0.022735
O O4 0.036222 0.240445 0.942388
O O5 0.500789 0.940821 0.203001
O O6 0.729683 0.829750 0.189856
O O7 0.251108 0.902848 0.614318
O O8 0.304507 0.825972 0.676503
O O9 0.000000 0.947362 0.750000
O O10 0.435510 0.981191 0.639405
O O11 0.129575 0.068566 0.060111
O O12 0.206808 0.077786 0.946893
O O13 0.778975 0.059163 0.100647
O O14 0.000000 0.500000 0.500000
#
# Coordination Sequence:
#
# PCOD8142788 Si02
#       7
#     8   4   8   8   8   8   8
#     4  10  21  39  66  89 129 169 214 265 316 389
#     4  12  24  40  66  98 128 170 222 276 332 382
#     4  11  23  42  62  91 129 169 207 265 326 390
#     4  11  22  43  62  96 126 165 218 265 316 391
#     4  11  24  38  65  94 124 165 215 262 321 375
#     4  11  25  39  67  90 129 164 214 270 320 381
#     4  10  21  39  65  93 121 170 220 257 322 396
#
# _framework density 19.438600999999998
#
# number of rings (size 3 to 8) (size 9 to 14) (size 15 to 20)
#    0.000    1.231    5.385    0.462    4.308    0.000 
#    0.000    0.000    0.000    1.846    0.000    0.000 
#    0.000    0.000    0.000    0.000    0.000    0.000 
#
# Total GULP energy -322417.709708 kJ/mol
# GULP energy per Si atom -12400.681143 kJ/mol
# Density = 1.939436 g / cm^3
# Si number density = 19.438601 Si / 1000 Ang^3
#
#
#
# Elastic Constant Matrix: (Units=GPa)
#
#
# Indices 1 2 3 4 5 6 
#
# 1 98.3610 28.4391 30.7094 -0.0164 -11.7521 0.0043
# 2 28.4391 113.6973 35.8567 0.0003 -6.6971 -0.0028
# 3 30.7094 35.8567 91.4427 0.0403 -16.8184 -0.0162
# 4 -0.0164 0.0003 0.0403 15.8489 -0.0088 3.3159
# 5 -11.7521 -6.6971 -16.8184 -0.0088 33.0856 -0.0009
# 6 0.0043 -0.0028 -0.0162 3.3159 -0.0009 35.2828
#
#
#
# Elastic Compliance Matrix: (Units=1/GPa)
#
#
# Indices 1 2 3 4 5 6 
#
# 1 0.011889 -0.001954 -0.002783 0.000022 0.002413 -0.000005
# 2 -0.001954 0.010358 -0.003472 0.000007 -0.000362 -0.000001
# 3 -0.002783 -0.003472 0.014253 -0.000038 0.005554 0.000010
# 4 0.000022 0.000007 -0.000038 0.064362 0.000007 -0.006049
# 5 0.002413 -0.000362 0.005554 0.000007 0.033832 0.000002
# 6 -0.000005 -0.000001 0.000010 -0.006049 0.000002 0.028911
#
#
# Mechanical properties :
#
#
# Convention : Reuss Voigt Hill
#
# Bulk Modulus (GPa) = 49.79459 54.83460 52.31460
# Shear Modulus (GPa) = 26.77880 30.74317 28.76099
#
# Velocity S-wave (km/s) = 3.71564 3.98119 3.85071
# Velocity P-wave (km/s) = 6.63927 7.02876 6.83679
#
# Compressibility (1/GPa) = 0.02008250
#
# Stress axis : x y z
#
# Youngs Moduli (GPa) = 84.11380 96.54723 70.15942
#
# Poissons Ratio (x) = 0.18866 0.19523
# Poissons Ratio (y) = 0.16436 0.24358
# Poissons Ratio (z) = 0.23406 0.33520
#
# Static dielectric constant tensor:
#      x y z
#    x 3.204430 -0.000030 -0.371530 
#    y -0.000030 3.702260 -0.000030 
#    z -0.371530 -0.000030 3.243620 
# 
# 
# High freq. dielectric constant tensor:
#      x y z
#    x 1.757160 0.000000 -0.014490 
#    y 0.000000 1.769540 0.000000 
#    z -0.014490 0.000000 1.747740 
# 
# From -- ./inp_files/190567.got.cif
#   From: 2010.06.25/outbox.cif.g09.slc.cpg/sg15_96_cif.got.tgz:190567.got - 2010.06.28 07:06:18.
