data_PCOD8142418
_publ_section_title
;
Structure prediction by ZEFSAII (Michael W. Deem and Ramdas Pophale) SiO2 
 PCOD8142418
Probable space group: C 2/C
;
_chemical_formula_sum "Si O2"
_cell_formula_units_Z 56
_cell_length_a 30.841413
_cell_length_b 9.278102
_cell_length_c 9.974784
_cell_angle_alpha 90.000000
_cell_angle_beta 96.818456
_cell_angle_gamma 90.000000
_cell_volume 2834.094769
_symmetry_space_group_name_H-M "C 2/C"
_symmetry_group_IT_number 15
_symmetry_cell_setting 'monoclinic'
loop_
_space_group_symop_operation_xyz
x,y,z
-x,y,1/2-z
-x,-y,-z
x,-y,1/2+z
1/2+x,1/2+y,z
1/2-x,1/2+y,1/2-z
1/2-x,1/2-y,-z
1/2+x,1/2-y,1/2+z
loop_
_atom_site_type_symbol
_atom_site_label
_atom_site_fract_x
_atom_site_fract_y
_atom_site_fract_z
Si Si1 0.875286 0.695026 0.878743
Si Si2 0.686386 0.622584 0.973527
Si Si3 0.539317 0.345183 0.590833
Si Si4 0.681939 0.058444 0.069509
Si Si5 0.646138 0.679248 0.412254
Si Si6 0.773295 0.381515 0.646801
Si Si7 0.552156 0.586111 0.387367
O O1 0.857096 0.802737 0.985325
O O2 0.928348 0.706567 0.900683
O O3 0.861260 0.531156 0.903472
O O4 0.855148 0.740254 0.729434
O O5 0.721234 0.613587 0.107863
O O6 0.673468 0.468122 0.908731
O O7 0.707838 0.719344 0.863609
O O8 0.545130 0.433989 0.456778
O O9 0.487923 0.304908 0.587639
O O10 0.552878 0.440515 0.726749
O O11 0.716890 0.061307 0.201817
O O12 0.668997 0.220741 0.030427
O O13 0.704858 0.985130 0.953226
O O14 0.597596 0.653398 0.451232
#
# Coordination Sequence:
#
# PCOD8142418 Si02
#       7
#     8   8   8   8   8   8   8
#     4  10  21  39  57  85 117 154 192 237 289 348
#     4  10  23  38  60  87 114 150 197 246 285 348
#     4   9  17  34  56  83 119 146 182 238 289 337
#     4  11  23  42  57  82 117 159 189 243 290 350
#     4  11  22  36  62  88 110 154 197 236 288 349
#     4  10  24  41  58  83 121 151 194 242 298 335
#     4   9  18  32  56  88 113 145 188 236 287 339
#
# _framework density 19.759395999999999
#
# number of rings (size 3 to 8) (size 9 to 14) (size 15 to 20)
#    0.000    2.000    2.857    0.000    4.000    2.857 
#    0.000    0.714    0.000    0.000    0.000    0.000 
#    0.000    0.000    0.000    0.000    0.000    0.000 
#
# Total GULP energy -347127.919123 kJ/mol
# GULP energy per Si atom -12397.425683 kJ/mol
# Density = 1.971442 g / cm^3
# Si number density = 19.759396 Si / 1000 Ang^3
#
#
#
# Elastic Constant Matrix: (Units=GPa)
#
#
# Indices 1 2 3 4 5 6 
#
# 1 85.8845 22.1772 3.0260 0.0000 16.4532 0.0000
# 2 22.1772 85.0066 12.4596 0.0000 7.8109 0.0000
# 3 3.0260 12.4596 55.8669 0.0000 5.3465 0.0000
# 4 0.0000 0.0000 0.0000 21.1946 0.0000 8.0926
# 5 16.4532 7.8109 5.3465 0.0000 25.1751 0.0000
# 6 0.0000 0.0000 0.0000 8.0926 0.0000 20.9861
#
#
#
# Elastic Compliance Matrix: (Units=1/GPa)
#
#
# Indices 1 2 3 4 5 6 
#
# 1 0.013993 -0.002985 0.000709 0.000000 -0.008369 0.000000
# 2 -0.002985 0.013067 -0.002604 0.000000 -0.001550 0.000000
# 3 0.000709 -0.002604 0.018791 0.000000 -0.003646 0.000000
# 4 0.000000 0.000000 0.000000 0.055328 0.000000 -0.021336
# 5 -0.008369 -0.001550 -0.003646 0.000000 0.046447 0.000000
# 6 0.000000 0.000000 0.000000 -0.021336 0.000000 0.055878
#
#
# Mechanical properties :
#
#
# Convention : Reuss Voigt Hill
#
# Bulk Modulus (GPa) = 27.70920 33.56485 30.63702
# Shear Modulus (GPa) = 22.19314 26.07750 24.13532
#
# Velocity S-wave (km/s) = 3.35501 3.63678 3.49873
# Velocity P-wave (km/s) = 5.39090 5.88715 5.64448
#
# Compressibility (1/GPa) = 0.03608910
#
# Stress axis : x y z
#
# Youngs Moduli (GPa) = 71.46532 76.52999 53.21692
#
# Poissons Ratio (x) = 0.22847 -0.03772
# Poissons Ratio (y) = 0.21335 0.13859
# Poissons Ratio (z) = -0.05066 0.19930
#
# Static dielectric constant tensor:
#      x y z
#    x 3.921400 0.000000 0.090990 
#    y 0.000000 3.395600 0.000000 
#    z 0.090990 0.000000 3.553080 
# 
# 
# High freq. dielectric constant tensor:
#      x y z
#    x 1.782680 0.000000 -0.000280 
#    y 0.000000 1.739450 0.000000 
#    z -0.000280 0.000000 1.771040 
# 
# From -- ./inp_files/122007.got.cif
#   From: 2010.06.25/outbox.cif.g09.slc.cpg/sg15_62_cif.got.tgz:122007.got - 2010.06.28 07:06:18.
