data_PCOD8142993
_publ_section_title
;
Structure prediction by ZEFSAII (Michael W. Deem and Ramdas Pophale) SiO2 
 PCOD8142993
Probable space group: C 2/C
;
_chemical_formula_sum "Si O2"
_cell_formula_units_Z 44
_cell_length_a 14.342859
_cell_length_b 13.985445
_cell_length_c 11.687030
_cell_angle_alpha 90.000000
_cell_angle_beta 61.635773
_cell_angle_gamma 90.000000
_cell_volume 2062.870111
_symmetry_space_group_name_H-M "C 2/C"
_symmetry_group_IT_number 15
_symmetry_cell_setting 'monoclinic'
loop_
_space_group_symop_operation_xyz
x,y,z
-x,y,1/2-z
-x,-y,-z
x,-y,1/2+z
1/2+x,1/2+y,z
1/2-x,1/2+y,1/2-z
1/2-x,1/2-y,-z
1/2+x,1/2-y,1/2+z
loop_
_atom_site_type_symbol
_atom_site_label
_atom_site_fract_x
_atom_site_fract_y
_atom_site_fract_z
Si Si1 0.500000 0.066541 0.750000
Si Si2 0.718248 0.974369 0.581119
Si Si3 0.255088 0.833422 0.734024
Si Si4 0.192885 0.310664 0.437719
Si Si5 0.669081 0.338207 0.555149
Si Si6 0.468467 0.200062 0.982517
O O1 0.503319 0.129045 0.862160
O O2 0.601256 0.999107 0.690507
O O3 0.766101 0.904812 0.649168
O O4 0.713283 0.921820 0.458983
O O5 0.790640 0.067742 0.532504
O O6 0.241656 0.723090 0.787023
O O7 0.162392 0.857018 0.695537
O O8 0.370686 0.845095 0.610021
O O9 0.250000 0.250000 0.500000
O O10 0.066959 0.287608 0.510860
O O11 0.750000 0.250000 0.500000
O O12 0.561135 0.302719 0.557889
#
# Coordination Sequence:
#
# PCOD8142993 Si02
#       6
#     4   8   8   8   8   8
#     4  12  22  36  66 104 130 158 224 280 340 386
#     4  11  23  38  66 101 132 170 226 280 332 394
#     4  10  22  41  64  94 138 176 215 275 335 400
#     4  10  24  43  63  94 132 175 224 275 333 394
#     4  10  21  40  56  98 130 171 211 260 340 397
#     4  11  23  40  65  96 135 171 217 276 336 391
#
# _framework density 21.329505000000001
#
# number of rings (size 3 to 8) (size 9 to 14) (size 15 to 20)
#    0.000    1.455    3.636    2.182    5.091    3.636 
#    0.000    3.636    0.000    8.727    0.000    0.000 
#    0.000    0.000    0.000    0.000    0.000    0.000 
#
# Total GULP energy -272654.386549 kJ/mol
# GULP energy per Si atom -12393.381207 kJ/mol
# Density = 2.128096 g / cm^3
# Si number density = 21.329505 Si / 1000 Ang^3
#
#
#
# Elastic Constant Matrix: (Units=GPa)
#
#
# Indices 1 2 3 4 5 6 
#
# 1 99.4906 36.6970 1.7174 0.0000 21.5505 0.0000
# 2 36.6970 128.0141 45.1371 0.0000 8.6176 0.0000
# 3 1.7174 45.1371 85.1770 0.0000 17.4798 0.0000
# 4 0.0000 0.0000 0.0000 39.7489 0.0000 -5.2106
# 5 21.5505 8.6176 17.4798 0.0000 25.7103 0.0000
# 6 0.0000 0.0000 0.0000 -5.2106 0.0000 26.8062
#
#
#
# Elastic Compliance Matrix: (Units=1/GPa)
#
#
# Indices 1 2 3 4 5 6 
#
# 1 0.015058 -0.005267 0.005480 0.000000 -0.014582 0.000000
# 2 -0.005267 0.011451 -0.007066 0.000000 0.005381 0.000000
# 3 0.005480 -0.007066 0.018398 0.000000 -0.014733 0.000000
# 4 0.000000 0.000000 0.000000 0.025816 0.000000 0.005018
# 5 -0.014582 0.005381 -0.014733 0.000000 0.059331 0.000000
# 6 0.000000 0.000000 0.000000 0.005018 0.000000 0.038280
#
#
# Mechanical properties :
#
#
# Convention : Reuss Voigt Hill
#
# Bulk Modulus (GPa) = 32.05116 53.30939 42.68027
# Shear Modulus (GPa) = 25.98216 33.72843 29.85529
#
# Velocity S-wave (km/s) = 3.49396 3.98088 3.74534
# Velocity P-wave (km/s) = 5.59789 6.79539 6.22550
#
# Compressibility (1/GPa) = 0.03120012
#
# Stress axis : x y z
#
# Youngs Moduli (GPa) = 66.40993 87.33027 54.35445
#
# Poissons Ratio (x) = 0.45999 -0.29787
# Poissons Ratio (y) = 0.34979 0.38407
# Poissons Ratio (z) = -0.36393 0.61708
#
# Static dielectric constant tensor:
#      x y z
#    x 4.306460 0.000000 0.385590 
#    y 0.000000 4.097360 0.000000 
#    z 0.385590 0.000000 4.131020 
# 
# 
# High freq. dielectric constant tensor:
#      x y z
#    x 1.835250 0.000000 0.021630 
#    y 0.000000 1.833630 0.000000 
#    z 0.021630 0.000000 1.834280 
# 
# From -- ./inp_files/96130.got.cif
#   From: 2010.06.25/outbox.cif.g09.slc.cpg/sg15_49_cif.got.tgz:96130.got - 2010.06.28 07:06:18.
