data_PCOD8142309
_publ_section_title
;
Structure prediction by ZEFSAII (Michael W. Deem and Ramdas Pophale) SiO2 
 PCOD8142309
Probable space group: C 2/C
;
_chemical_formula_sum "Si O2"
_cell_formula_units_Z 56
_cell_length_a 10.201871
_cell_length_b 31.396836
_cell_length_c 9.098948
_cell_angle_alpha 90.000000
_cell_angle_beta 70.986930
_cell_angle_gamma 90.000000
_cell_volume 2755.451910
_symmetry_space_group_name_H-M "C 2/C"
_symmetry_group_IT_number 15
_symmetry_cell_setting 'monoclinic'
loop_
_space_group_symop_operation_xyz
x,y,z
-x,y,1/2-z
-x,-y,-z
x,-y,1/2+z
1/2+x,1/2+y,z
1/2-x,1/2+y,1/2-z
1/2-x,1/2-y,-z
1/2+x,1/2-y,1/2+z
loop_
_atom_site_type_symbol
_atom_site_label
_atom_site_fract_x
_atom_site_fract_y
_atom_site_fract_z
Si Si1 0.838365 0.459268 0.984418
Si Si2 0.840274 0.454307 0.641281
Si Si3 0.251088 0.382288 0.308508
Si Si4 0.500000 0.679436 0.750000
Si Si5 0.397778 0.738928 0.022407
Si Si6 0.225674 0.873564 0.536642
Si Si7 0.996003 0.675589 0.917800
Si Si8 0.500000 0.313941 0.750000
O O1 0.811105 0.462182 0.822259
O O2 0.998180 0.446374 0.955371
O O3 0.794450 0.504299 0.068189
O O4 0.737959 0.425102 0.099730
O O5 0.744381 0.414378 0.633839
O O6 0.364845 0.348881 0.317246
O O7 0.102710 0.362726 0.400030
O O8 0.270635 0.392023 0.129708
O O9 0.499565 0.709557 0.609152
O O10 0.471114 0.784277 0.994839
O O11 0.399458 0.715770 0.183276
O O12 0.250000 0.750000 0.000000
O O13 0.347916 0.840595 0.522169
O O14 0.088379 0.846428 0.617377
O O15 0.000000 0.691758 0.750000
#
# Coordination Sequence:
#
# PCOD8142309 Si02
#       8
#     8   8   8   4   8   8   8   4
#     4  10  21  38  65  99 135 168 223 275 331 412
#     4  10  21  38  65  99 131 174 217 277 338 397
#     4  11  22  42  63  96 133 171 220 273 340 405
#     4  12  26  42  63  98 132 178 221 284 338 398
#     4  12  26  45  66  94 132 179 231 286 337 403
#     4  11  24  41  66  94 131 177 216 280 342 401
#     4  10  22  40  66  91 126 173 223 275 339 401
#     4  12  28  46  65  96 138 178 233 284 340 412
#
# _framework density 20.323345
#
# number of rings (size 3 to 8) (size 9 to 14) (size 15 to 20)
#    0.000    1.143    5.000    0.857    4.000    1.714 
#    0.000    0.714    0.000    3.429    0.000    0.000 
#    0.000    0.000    0.000    0.000    0.000    0.000 
#
# Total GULP energy -347128.783127 kJ/mol
# GULP energy per Si atom -12397.456540 kJ/mol
# Density = 2.027709 g / cm^3
# Si number density = 20.323345 Si / 1000 Ang^3
#
#
#
# Elastic Constant Matrix: (Units=GPa)
#
#
# Indices 1 2 3 4 5 6 
#
# 1 76.7905 41.6096 36.5468 0.0000 2.2335 0.0000
# 2 41.6096 133.1853 76.8696 0.0000 11.7768 0.0000
# 3 36.5468 76.8696 107.6324 0.0000 5.8710 0.0000
# 4 0.0000 0.0000 0.0000 59.4937 0.0000 16.7325
# 5 2.2335 11.7768 5.8710 0.0000 32.6849 0.0000
# 6 0.0000 0.0000 0.0000 16.7325 0.0000 54.1754
#
#
#
# Elastic Compliance Matrix: (Units=1/GPa)
#
#
# Indices 1 2 3 4 5 6 
#
# 1 0.016324 -0.003297 -0.003224 0.000000 0.000652 0.000000
# 2 -0.003297 0.013736 -0.008517 0.000000 -0.003194 0.000000
# 3 -0.003224 -0.008517 0.016450 0.000000 0.000334 0.000000
# 4 0.000000 0.000000 0.000000 0.018407 0.000000 -0.005685
# 5 0.000652 -0.003194 0.000334 0.000000 0.031642 0.000000
# 6 0.000000 0.000000 0.000000 -0.005685 0.000000 0.020214
#
#
# Mechanical properties :
#
#
# Convention : Reuss Voigt Hill
#
# Bulk Modulus (GPa) = 60.84347 69.74001 65.29174
# Shear Modulus (GPa) = 32.82414 40.10961 36.46688
#
# Velocity S-wave (km/s) = 4.02318 4.44731 4.24055
# Velocity P-wave (km/s) = 7.18220 7.79494 7.49484
#
# Compressibility (1/GPa) = 0.01643562
#
# Stress axis : x y z
#
# Youngs Moduli (GPa) = 61.25836 72.80019 60.79142
#
# Poissons Ratio (x) = 0.24002 0.19598
# Poissons Ratio (y) = 0.20197 0.51773
# Poissons Ratio (z) = 0.19749 0.62000
#
# Static dielectric constant tensor:
#      x y z
#    x 3.416270 0.000000 0.147360 
#    y 0.000000 3.729440 0.000000 
#    z 0.147360 0.000000 3.679330 
# 
# 
# High freq. dielectric constant tensor:
#      x y z
#    x 1.776120 0.000000 0.010030 
#    y 0.000000 1.809010 0.000000 
#    z 0.010030 0.000000 1.797740 
# 
# From -- ./inp_files/34244.got.cif
#   From: 2010.06.25/outbox.cif.g09.slc.cpg/sg15_18_cif.got.tgz:34244.got - 2010.06.28 07:06:18.
