data_PCOD8142923
_publ_section_title
;
Structure prediction by ZEFSAII (Michael W. Deem and Ramdas Pophale) SiO2 
 PCOD8142923
Probable space group: C 2/C
;
_chemical_formula_sum "Si O2"
_cell_formula_units_Z 48
_cell_length_a 9.484401
_cell_length_b 24.222231
_cell_length_c 10.103293
_cell_angle_alpha 90.000000
_cell_angle_beta 71.696344
_cell_angle_gamma 90.000000
_cell_volume 2203.630187
_symmetry_space_group_name_H-M "C 2/C"
_symmetry_group_IT_number 15
_symmetry_cell_setting 'monoclinic'
loop_
_space_group_symop_operation_xyz
x,y,z
-x,y,1/2-z
-x,-y,-z
x,-y,1/2+z
1/2+x,1/2+y,z
1/2-x,1/2+y,1/2-z
1/2-x,1/2-y,-z
1/2+x,1/2-y,1/2+z
loop_
_atom_site_type_symbol
_atom_site_label
_atom_site_fract_x
_atom_site_fract_y
_atom_site_fract_z
Si Si1 0.500000 0.858122 0.750000
Si Si2 0.663259 0.023436 0.932072
Si Si3 0.165387 0.822962 0.483038
Si Si4 0.238485 0.054572 0.326429
Si Si5 0.000000 0.885736 0.750000
Si Si6 0.025999 0.713732 0.501955
Si Si7 0.646008 0.866375 0.286397
O O1 0.641428 0.897164 0.695233
O O2 0.477018 0.817998 0.634103
O O3 0.667525 0.087428 0.891320
O O4 0.738593 0.985913 0.801826
O O5 0.757274 0.018750 0.040430
O O6 0.500000 0.000000 0.000000
O O7 0.032690 0.780312 0.480294
O O8 0.326160 0.796244 0.456949
O O9 0.203324 0.863183 0.347169
O O10 0.122697 0.851161 0.634106
O O11 0.077851 0.080317 0.345095
O O12 0.886298 0.692770 0.631304
O O13 0.500000 0.885813 0.250000
#
# Coordination Sequence:
#
# PCOD8142923 Si02
#       7
#     4   8   8   8   4   8   8
#     4  12  20  44  70 106 128 176 240 296 334 402
#     4  12  23  43  73 105 133 176 243 296 342 401
#     4  10  24  41  65  98 140 188 218 285 355 420
#     4  12  26  43  72 100 139 185 227 292 352 417
#     4  12  28  48  66  98 154 186 224 276 374 432
#     4  10  21  40  70  98 131 178 242 284 342 404
#     4  10  21  39  68 101 137 175 237 293 340 410
#
# _framework density 21.782239000000001
#
# number of rings (size 3 to 8) (size 9 to 14) (size 15 to 20)
#    0.000    1.000    5.000    1.000   10.500    0.667 
#    3.000    1.667    0.000    0.000    0.000    0.000 
#    0.000    0.000    0.000    0.000    0.000    0.000 
#
# Total GULP energy -297473.568734 kJ/mol
# GULP energy per Si atom -12394.732031 kJ/mol
# Density = 2.173266 g / cm^3
# Si number density = 21.782239 Si / 1000 Ang^3
#
#
#
# Elastic Constant Matrix: (Units=GPa)
#
#
# Indices 1 2 3 4 5 6 
#
# 1 50.0508 28.9194 11.3069 0.0000 9.7756 0.0000
# 2 28.9194 90.6534 49.1256 0.0000 4.0976 0.0000
# 3 11.3069 49.1256 140.4164 0.0000 2.0135 0.0000
# 4 0.0000 0.0000 0.0000 34.8907 0.0000 18.4131
# 5 9.7756 4.0976 2.0135 0.0000 41.3639 0.0000
# 6 0.0000 0.0000 0.0000 18.4131 0.0000 -8.4640
#
#
#
# Elastic Compliance Matrix: (Units=1/GPa)
#
#
# Indices 1 2 3 4 5 6 
#
# 1 0.025694 -0.008487 0.000976 0.000000 -0.005279 0.000000
# 2 -0.008487 0.016467 -0.005087 0.000000 0.000622 0.000000
# 3 0.000976 -0.005087 0.008825 0.000000 -0.000156 0.000000
# 4 0.000000 0.000000 0.000000 0.013343 0.000000 0.029026
# 5 -0.005279 0.000622 -0.000156 0.000000 0.025369 0.000000
# 6 0.000000 0.000000 0.000000 0.029026 0.000000 -0.055002
#
#
# Mechanical properties :
#
#
# Convention : Reuss Voigt Hill
#
# Bulk Modulus (GPa) = 38.77377 51.09161 44.93269
# Shear Modulus (GPa) = 73.00592 26.34271 49.67431
#
# Velocity S-wave (km/s) = 5.79560 3.48137 4.78063
# Velocity P-wave (km/s) = 7.91357 6.29813 7.15161
#
# Compressibility (1/GPa) = 0.02579063
#
# Stress axis : x y z
#
# Youngs Moduli (GPa) = 38.91957 60.72855 113.31595
#
# Poissons Ratio (x) = 0.51540 -0.11059
# Poissons Ratio (y) = 0.33031 0.57638
# Poissons Ratio (z) = -0.03798 0.30890
#
# Static dielectric constant tensor:
#      x y z
#    x 3.652230 0.000000 0.203630 
#    y 0.000000 4.094550 0.000000 
#    z 0.203630 0.000000 3.996000 
# 
# 
# High freq. dielectric constant tensor:
#      x y z
#    x 1.826690 0.000000 0.009400 
#    y 0.000000 1.854810 0.000000 
#    z 0.009400 0.000000 1.873830 
# 
# From -- ./inp_files/33440.got.cif
#   From: 2010.06.25/outbox.cif.g09.slc.cpg/sg15_17_cif.got.tgz:33440.got - 2010.06.28 07:06:18.
