data_PCOD8142308
_publ_section_title
;
Structure prediction by ZEFSAII (Michael W. Deem and Ramdas Pophale) SiO2 
 PCOD8142308
Probable space group: C 2/C
;
_chemical_formula_sum "Si O2"
_cell_formula_units_Z 44
_cell_length_a 14.103236
_cell_length_b 25.711444
_cell_length_c 5.393628
_cell_angle_alpha 90.000000
_cell_angle_beta 90.885710
_cell_angle_gamma 90.000000
_cell_volume 1955.574376
_symmetry_space_group_name_H-M "C 2/C"
_symmetry_group_IT_number 15
_symmetry_cell_setting 'monoclinic'
loop_
_space_group_symop_operation_xyz
x,y,z
-x,y,1/2-z
-x,-y,-z
x,-y,1/2+z
1/2+x,1/2+y,z
1/2-x,1/2+y,1/2-z
1/2-x,1/2-y,-z
1/2+x,1/2-y,1/2+z
loop_
_atom_site_type_symbol
_atom_site_label
_atom_site_fract_x
_atom_site_fract_y
_atom_site_fract_z
Si Si1 0.107977 0.342877 0.742583
Si Si2 0.648823 0.734443 0.895529
Si Si3 0.398559 0.632621 0.862061
Si Si4 0.386997 0.896601 0.252071
Si Si5 0.725383 0.469081 0.207094
Si Si6 0.500000 0.306138 0.750000
O O1 0.121803 0.281102 0.709274
O O2 0.152055 0.366840 0.494375
O O3 0.000000 0.359298 0.750000
O O4 0.150527 0.366305 0.002260
O O5 0.659009 0.678317 0.774843
O O6 0.750000 0.750000 0.000000
O O7 0.558785 0.732602 0.077101
O O8 0.500000 0.620455 0.750000
O O9 0.337395 0.581313 0.849201
O O10 0.419990 0.655480 0.134321
O O11 0.500000 0.904437 0.250000
O O12 0.336000 0.952799 0.232241
O O13 0.701297 0.493798 0.473742
#
# Coordination Sequence:
#
# PCOD8142308 Si02
#       6
#     8   8   8   8   8   4
#     4  10  21  38  65  98 139 178 220 260 331 418
#     4  11  24  39  67 102 142 188 226 277 340 420
#     4  10  25  46  67  97 136 180 229 291 345 407
#     4  10  23  42  67 100 140 177 219 281 343 420
#     4  12  28  46  72  99 130 174 239 299 355 414
#     4  10  24  42  66  96 148 178 234 278 346 410
#
# _framework density 22.499784999999999
#
# number of rings (size 3 to 8) (size 9 to 14) (size 15 to 20)
#    0.000    1.455    0.000    3.818   14.000    2.182 
#    0.000    0.000    0.000    0.000    0.000    0.000 
#    0.000    0.000    0.000    0.000    0.000    0.000 
#
# Total GULP energy -272602.346824 kJ/mol
# GULP energy per Si atom -12391.015765 kJ/mol
# Density = 2.244857 g / cm^3
# Si number density = 22.499785 Si / 1000 Ang^3
#
#
#
# Elastic Constant Matrix: (Units=GPa)
#
#
# Indices 1 2 3 4 5 6 
#
# 1 71.2773 56.7617 35.5778 0.0000 24.1732 0.0000
# 2 56.7617 104.4220 41.4109 0.0000 6.0095 0.0000
# 3 35.5778 41.4109 142.3016 0.0000 5.6478 0.0000
# 4 0.0000 0.0000 0.0000 -42.7679 0.0000 4.4435
# 5 24.1732 6.0095 5.6478 0.0000 19.5191 0.0000
# 6 0.0000 0.0000 0.0000 4.4435 0.0000 43.3641
#
#
#
# Elastic Compliance Matrix: (Units=1/GPa)
#
#
# Indices 1 2 3 4 5 6 
#
# 1 0.059154 -0.026707 -0.004488 0.000000 -0.063738 0.000000
# 2 -0.026707 0.023001 -0.001060 0.000000 0.026301 0.000000
# 3 -0.004488 -0.001060 0.008320 0.000000 0.003477 0.000000
# 4 0.000000 0.000000 0.000000 -0.023136 0.000000 0.002371
# 5 -0.063738 0.026301 0.003477 0.000000 0.121064 0.000000
# 6 0.000000 0.000000 0.000000 0.002371 0.000000 0.022818
#
#
# Mechanical properties :
#
#
# Convention : Reuss Voigt Hill
#
# Bulk Modulus (GPa) = 38.51364 65.05574 51.78469
# Shear Modulus (GPa) = 17.58172 16.30642 16.94407
#
# Velocity S-wave (km/s) = 2.79842 2.69501 2.74720
# Velocity P-wave (km/s) = 5.25319 6.21778 5.75573
#
# Compressibility (1/GPa) = 0.02596483
#
# Stress axis : x y z
#
# Youngs Moduli (GPa) = 16.90489 43.47673 120.19458
#
# Poissons Ratio (x) = 1.16114 0.53942
# Poissons Ratio (y) = 0.45148 0.12741
# Poissons Ratio (z) = 0.07587 0.04609
#
# Static dielectric constant tensor:
#      x y z
#    x 3.793590 0.000000 0.029840 
#    y 0.000000 4.122180 0.000000 
#    z 0.029840 0.000000 4.482070 
# 
# 
# High freq. dielectric constant tensor:
#      x y z
#    x 1.890380 0.000000 0.009480 
#    y 0.000000 1.882900 0.000000 
#    z 0.009480 0.000000 1.896950 
# 
# From -- ./inp_files/7570.got.cif
#   From: 2010.06.25/outbox.cif.g09.slc.cpg/sg15_4_cif.got.tgz:7570.got - 2010.06.28 07:06:18.
