data_PCOD8142738
_publ_section_title
;
Structure prediction by ZEFSAII (Michael W. Deem and Ramdas Pophale) SiO2 
 PCOD8142738
Probable space group: C 2/C
;
_chemical_formula_sum "Si O2"
_cell_formula_units_Z 44
_cell_length_a 22.853965
_cell_length_b 9.002892
_cell_length_c 15.402981
_cell_angle_alpha 90.000000
_cell_angle_beta 138.921324
_cell_angle_gamma 90.000000
_cell_volume 2082.458575
_symmetry_space_group_name_H-M "C 2/C"
_symmetry_group_IT_number 15
_symmetry_cell_setting 'monoclinic'
loop_
_space_group_symop_operation_xyz
x,y,z
-x,y,1/2-z
-x,-y,-z
x,-y,1/2+z
1/2+x,1/2+y,z
1/2-x,1/2+y,1/2-z
1/2-x,1/2-y,-z
1/2+x,1/2-y,1/2+z
loop_
_atom_site_type_symbol
_atom_site_label
_atom_site_fract_x
_atom_site_fract_y
_atom_site_fract_z
Si Si1 0.730013 0.326035 0.216456
Si Si2 0.370994 0.609192 0.396251
Si Si3 0.500000 0.752757 0.250000
Si Si4 0.966985 0.007353 0.835411
Si Si5 0.189253 0.659425 0.999735
Si Si6 0.706132 0.641888 0.882075
O O1 0.713545 0.500213 0.175868
O O2 0.834699 0.274636 0.334784
O O3 0.682793 0.233887 0.087277
O O4 0.695312 0.282503 0.274743
O O5 0.446136 0.612554 0.555310
O O6 0.417034 0.529651 0.367686
O O7 0.501040 0.647059 0.167737
O O8 0.588522 0.853573 0.350834
O O9 0.892414 0.092368 0.693652
O O10 0.228447 0.497072 0.055532
O O11 0.250000 0.750000 0.000000
O O12 0.750000 0.750000 0.000000
#
# Coordination Sequence:
#
# PCOD8142738 Si02
#       6
#     8   8   4   8   8   8
#     4  11  21  41  64  93 125 169 214 270 326 382
#     4  10  21  39  66  90 126 167 225 267 326 399
#     4  12  22  38  70  92 130 174 220 274 326 390
#     4  10  21  39  64  94 120 174 224 262 326 400
#     4  12  24  43  68  97 128 175 225 268 330 402
#     4  11  26  44  64  97 135 170 222 277 331 389
#
# _framework density 21.128871
#
# number of rings (size 3 to 8) (size 9 to 14) (size 15 to 20)
#    0.000    1.091    7.273    0.000    5.091    0.000 
#    3.273    0.000    0.000    6.545    0.000    0.000 
#    0.000    0.000    0.000    0.000    0.000    0.000 
#
# Total GULP energy -272541.624369 kJ/mol
# GULP energy per Si atom -12388.255653 kJ/mol
# Density = 2.108078 g / cm^3
# Si number density = 21.128871 Si / 1000 Ang^3
#
#
#
# Elastic Constant Matrix: (Units=GPa)
#
#
# Indices 1 2 3 4 5 6 
#
# 1 59.8241 33.7057 49.5648 0.0000 -3.3000 0.0000
# 2 33.7057 80.0218 52.2726 0.0000 9.4936 0.0000
# 3 49.5648 52.2726 165.9250 0.0000 30.9473 0.0000
# 4 0.0000 0.0000 0.0000 41.1192 0.0000 -1.0408
# 5 -3.3000 9.4936 30.9473 0.0000 47.3319 0.0000
# 6 0.0000 0.0000 0.0000 -1.0408 0.0000 19.1907
#
#
#
# Elastic Compliance Matrix: (Units=1/GPa)
#
#
# Indices 1 2 3 4 5 6 
#
# 1 0.027681 -0.007846 -0.007346 0.000000 0.008307 0.000000
# 2 -0.007846 0.017959 -0.002893 0.000000 -0.002258 0.000000
# 3 -0.007346 -0.002893 0.010387 0.000000 -0.006723 0.000000
# 4 0.000000 0.000000 0.000000 0.024353 0.000000 0.001321
# 5 0.008307 -0.002258 -0.006723 0.000000 0.026555 0.000000
# 6 0.000000 0.000000 0.000000 0.001321 0.000000 0.052180
#
#
# Mechanical properties :
#
#
# Convention : Reuss Voigt Hill
#
# Bulk Modulus (GPa) = 50.36280 64.09524 57.22902
# Shear Modulus (GPa) = 24.76420 32.87688 28.82054
#
# Velocity S-wave (km/s) = 3.42724 3.94892 3.69729
# Velocity P-wave (km/s) = 6.28881 7.15494 6.73581
#
# Compressibility (1/GPa) = 0.01985593
#
# Stress axis : x y z
#
# Youngs Moduli (GPa) = 36.12580 55.68242 96.27751
#
# Poissons Ratio (x) = 0.43689 0.70729
# Poissons Ratio (y) = 0.28345 0.27852
# Poissons Ratio (z) = 0.26539 0.16108
#
# Static dielectric constant tensor:
#      x y z
#    x 4.029890 0.000000 0.208760 
#    y 0.000000 3.728810 0.000000 
#    z 0.208760 0.000000 4.656730 
# 
# 
# High freq. dielectric constant tensor:
#      x y z
#    x 1.822930 0.000000 -0.006340 
#    y 0.000000 1.795680 0.000000 
#    z -0.006340 0.000000 1.851530 
# 
# From -- ./inp_files/213591.got.cif
#   From: 2010.06.25/outbox.cif.g09.slc.cpg/sg15_107_cif.got.tgz:213591.got - 2010.06.28 07:06:18.
