data_PCOD8142730
_publ_section_title
;
Structure prediction by ZEFSAII (Michael W. Deem and Ramdas Pophale) SiO2 
 PCOD8142730
Probable space group: C 2/C
;
_chemical_formula_sum "Si O2"
_cell_formula_units_Z 48
_cell_length_a 24.206830
_cell_length_b 14.525279
_cell_length_c 14.925976
_cell_angle_alpha 90.000000
_cell_angle_beta 21.192630
_cell_angle_gamma 90.000000
_cell_volume 1897.225792
_symmetry_space_group_name_H-M "C 2/C"
_symmetry_group_IT_number 15
_symmetry_cell_setting 'monoclinic'
loop_
_space_group_symop_operation_xyz
x,y,z
-x,y,1/2-z
-x,-y,-z
x,-y,1/2+z
1/2+x,1/2+y,z
1/2-x,1/2+y,1/2-z
1/2-x,1/2-y,-z
1/2+x,1/2-y,1/2+z
loop_
_atom_site_type_symbol
_atom_site_label
_atom_site_fract_x
_atom_site_fract_y
_atom_site_fract_z
Si Si1 0.546858 0.121135 0.366347
Si Si2 0.730468 0.520714 0.202245
Si Si3 0.805610 0.108694 0.598804
Si Si4 0.792625 0.702926 0.213133
Si Si5 0.333602 0.504032 0.898237
Si Si6 0.500000 0.885412 0.750000
Si Si7 0.000000 0.844016 0.250000
O O1 0.374076 0.090750 0.644083
O O2 0.588413 0.187625 0.386159
O O3 0.557278 0.172239 0.251456
O O4 0.658445 0.032499 0.189095
O O5 0.625955 0.470715 0.436850
O O6 0.786594 0.619233 0.152229
O O7 0.644063 0.527159 0.238269
O O8 0.869740 0.451348 0.984022
O O9 0.843894 0.209612 0.577570
O O10 0.879093 0.085795 0.390123
O O11 0.629174 0.720284 0.508528
O O12 0.432991 0.594111 0.770862
#
# Coordination Sequence:
#
# PCOD8142730 Si02
#       7
#     8   8   8   8   8   4   4
#     4   9  19  39  62  90 125 164 214 277 310 384
#     4  10  21  39  64  92 126 171 218 269 333 375
#     4  11  22  41  65  98 127 173 218 269 333 389
#     4  11  24  39  64  96 135 169 220 270 331 392
#     4  10  21  40  68  88 130 174 221 263 331 394
#     4   8  18  33  69  92 112 166 218 271 329 370
#     4  10  22  43  61  92 134 180 210 271 327 398
#
# _framework density 25.300098999999999
#
# number of rings (size 3 to 8) (size 9 to 14) (size 15 to 20)
#    0.000    2.000    3.333    0.500    4.667    6.667 
#    3.000   10.833    0.000    0.000    0.000    0.000 
#    0.000    0.000    0.000    0.000    0.000    0.000 
#
# Total GULP energy -297385.027313 kJ/mol
# GULP energy per Si atom -12391.042805 kJ/mol
# Density = 2.524252 g / cm^3
# Si number density = 25.300099 Si / 1000 Ang^3
#
#
#
# Elastic Constant Matrix: (Units=GPa)
#
#
# Indices 1 2 3 4 5 6 
#
# 1 239.7291 85.3076 31.8484 0.0031 30.2763 -0.0013
# 2 85.3076 149.4713 3.8849 0.0099 22.4366 -0.0047
# 3 31.8484 3.8849 25.6955 0.0091 21.9523 -0.0043
# 4 0.0031 0.0099 0.0091 33.8581 -0.0035 5.9974
# 5 30.2763 22.4366 21.9523 -0.0035 38.5582 0.0007
# 6 -0.0013 -0.0047 -0.0043 5.9974 0.0007 38.4410
#
#
#
# Elastic Compliance Matrix: (Units=1/GPa)
#
#
# Indices 1 2 3 4 5 6 
#
# 1 0.006507 -0.003868 -0.009809 0.000004 0.002726 -0.000002
# 2 -0.003868 0.009966 0.010995 -0.000007 -0.009022 0.000004
# 3 -0.009809 0.010995 0.094038 -0.000036 -0.052235 0.000018
# 4 0.000004 -0.000007 -0.000036 0.030374 0.000024 -0.004739
# 5 0.002726 -0.009022 -0.052235 0.000024 0.058783 -0.000012
# 6 -0.000002 0.000004 0.000018 -0.004739 -0.000012 0.026753
#
#
# Mechanical properties :
#
#
# Convention : Reuss Voigt Hill
#
# Bulk Modulus (GPa) = 9.51046 72.99753 41.25400
# Shear Modulus (GPa) = 18.73826 41.76179 30.25003
#
# Velocity S-wave (km/s) = 2.72442 4.06724 3.46157
# Velocity P-wave (km/s) = 3.69647 7.13946 5.68488
#
# Compressibility (1/GPa) = 0.10514740
#
# Stress axis : x y z
#
# Youngs Moduli (GPa) = 153.69174 100.33962 10.63399
#
# Poissons Ratio (x) = 0.38809 0.10431
# Poissons Ratio (y) = 0.59444 -0.11692
# Poissons Ratio (z) = 1.50752 -1.10321
#
# Static dielectric constant tensor:
#      x y z
#    x 4.872220 0.000000 -0.371950 
#    y 0.000000 4.185170 0.000000 
#    z -0.371950 0.000000 4.246410 
# 
# 
# High freq. dielectric constant tensor:
#      x y z
#    x 2.041240 0.000000 0.000370 
#    y 0.000000 1.985930 0.000000 
#    z 0.000370 0.000000 2.022450 
# 
# From -- ./inp_files/87509.got.cif
#   From: 2010.06.25/outbox.cif.g09.slc.cpg/sg15_44_cif.got.tgz:87509.got - 2010.06.28 07:06:18.
