data_PCOD8142355
_publ_section_title
;
Structure prediction by ZEFSAII (Michael W. Deem and Ramdas Pophale) SiO2 
 PCOD8142355
Probable space group: C 2/C
;
_chemical_formula_sum "Si O2"
_cell_formula_units_Z 56
_cell_length_a 9.740276
_cell_length_b 27.473240
_cell_length_c 13.017728
_cell_angle_alpha 90.000000
_cell_angle_beta 55.068593
_cell_angle_gamma 90.000000
_cell_volume 2855.909546
_symmetry_space_group_name_H-M "C 2/C"
_symmetry_group_IT_number 15
_symmetry_cell_setting 'monoclinic'
loop_
_space_group_symop_operation_xyz
x,y,z
-x,y,1/2-z
-x,-y,-z
x,-y,1/2+z
1/2+x,1/2+y,z
1/2-x,1/2+y,1/2-z
1/2-x,1/2-y,-z
1/2+x,1/2-y,1/2+z
loop_
_atom_site_type_symbol
_atom_site_label
_atom_site_fract_x
_atom_site_fract_y
_atom_site_fract_z
Si Si1 0.000000 0.441308 0.250000
Si Si2 0.173813 0.598613 0.220312
Si Si3 0.852122 0.507307 0.142982
Si Si4 0.306085 0.227984 0.865981
Si Si5 0.500000 0.466290 0.250000
Si Si6 0.763263 0.126100 0.540371
Si Si7 0.469548 0.556421 0.985740
Si Si8 0.305502 0.327280 0.810191
O O1 0.123456 0.474043 0.266358
O O2 0.105230 0.407274 0.130867
O O3 0.140747 0.563368 0.329983
O O4 0.273014 0.645591 0.217671
O O5 0.000000 0.617421 0.250000
O O6 0.276525 0.569515 0.089239
O O7 0.668973 0.498568 0.171457
O O8 0.000000 0.500000 0.000000
O O9 0.500000 0.220907 0.750000
O O10 0.223644 0.174252 0.891660
O O11 0.234550 0.271866 0.824675
O O12 0.250000 0.250000 0.000000
O O13 0.492037 0.433466 0.150720
O O14 0.728567 0.143230 0.439094
O O15 0.925702 0.092464 0.486243
O O16 0.500000 0.500000 0.000000
O O17 0.500000 0.322385 0.750000
#
# Coordination Sequence:
#
# PCOD8142355 Si02
#       8
#     4   8   8   8   4   8   8   8
#     4  12  22  40  56  89 121 160 202 254 304 374
#     4  12  24  41  62  90 127 165 211 264 316 381
#     4  12  26  39  58  85 122 165 211 252 312 375
#     4   9  19  37  62  99 126 159 212 275 323 372
#     4  12  26  40  60  83 127 166 206 264 306 380
#     4  11  21  38  65  94 127 161 208 265 315 375
#     4  12  25  41  61  92 129 169 212 255 320 384
#     4  10  21  38  67  93 119 160 210 260 317 370
#
# _framework density 19.608464000000001
#
# number of rings (size 3 to 8) (size 9 to 14) (size 15 to 20)
#    0.000    0.857    5.714    1.714    5.000    0.000 
#    0.000    0.000    1.571    0.857    0.000    0.000 
#    0.000    0.000    0.000    0.000    0.000    0.000 
#
# Total GULP energy -346915.491697 kJ/mol
# GULP energy per Si atom -12389.838989 kJ/mol
# Density = 1.956383 g / cm^3
# Si number density = 19.608464 Si / 1000 Ang^3
#
#
#
# Elastic Constant Matrix: (Units=GPa)
#
#
# Indices 1 2 3 4 5 6 
#
# 1 87.8090 34.0663 14.9561 0.0000 -10.5490 0.0000
# 2 34.0663 135.5263 18.5863 0.0000 1.4476 0.0000
# 3 14.9561 18.5863 96.9295 0.0000 -12.0771 0.0000
# 4 0.0000 0.0000 0.0000 27.2257 0.0000 -3.8107
# 5 -10.5490 1.4476 -12.0771 0.0000 29.1082 0.0000
# 6 0.0000 0.0000 0.0000 -3.8107 0.0000 19.6285
#
#
#
# Elastic Compliance Matrix: (Units=1/GPa)
#
#
# Indices 1 2 3 4 5 6 
#
# 1 0.013371 -0.003294 -0.000851 0.000000 0.004656 0.000000
# 2 -0.003294 0.008419 -0.001378 0.000000 -0.002184 0.000000
# 3 -0.000851 -0.001378 0.011265 0.000000 0.004434 0.000000
# 4 0.000000 0.000000 0.000000 0.037756 0.000000 0.007330
# 5 0.004656 -0.002184 0.004434 0.000000 0.037990 0.000000
# 6 0.000000 0.000000 0.000000 0.007330 0.000000 0.052369
#
#
# Mechanical properties :
#
#
# Convention : Reuss Voigt Hill
#
# Bulk Modulus (GPa) = 45.43898 50.60916 48.02407
# Shear Modulus (GPa) = 27.84695 32.03620 29.94158
#
# Velocity S-wave (km/s) = 3.77258 4.04641 3.91189
# Velocity P-wave (km/s) = 6.49614 6.90631 6.70436
#
# Compressibility (1/GPa) = 0.02200754
#
# Stress axis : x y z
#
# Youngs Moduli (GPa) = 74.79088 118.77975 88.77159
#
# Poissons Ratio (x) = 0.39124 0.07557
# Poissons Ratio (y) = 0.24635 0.12235
# Poissons Ratio (z) = 0.06367 0.16371
#
# Static dielectric constant tensor:
#      x y z
#    x 3.453720 0.000000 -0.079200 
#    y 0.000000 3.997240 0.000000 
#    z -0.079200 0.000000 4.298460 
# 
# 
# High freq. dielectric constant tensor:
#      x y z
#    x 1.729860 0.000000 -0.020120 
#    y 0.000000 1.770670 0.000000 
#    z -0.020120 0.000000 1.783920 
# 
# From -- ./inp_files/82530.got.cif
#   From: 2010.06.25/outbox.cif.g09.slc.cpg/sg15_42_cif.got.tgz:82530.got - 2010.06.28 07:06:18.
