data_PCOD8142493
_publ_section_title
;
Structure prediction by ZEFSAII (Michael W. Deem and Ramdas Pophale) SiO2 
 PCOD8142493
Probable space group: C 2/C
;
_chemical_formula_sum "Si O2"
_cell_formula_units_Z 48
_cell_length_a 15.017506
_cell_length_b 16.499946
_cell_length_c 8.624392
_cell_angle_alpha 90.000000
_cell_angle_beta 105.699364
_cell_angle_gamma 90.000000
_cell_volume 2057.299064
_symmetry_space_group_name_H-M "C 2/C"
_symmetry_group_IT_number 15
_symmetry_cell_setting 'monoclinic'
loop_
_space_group_symop_operation_xyz
x,y,z
-x,y,1/2-z
-x,-y,-z
x,-y,1/2+z
1/2+x,1/2+y,z
1/2-x,1/2+y,1/2-z
1/2-x,1/2-y,-z
1/2+x,1/2-y,1/2+z
loop_
_atom_site_type_symbol
_atom_site_label
_atom_site_fract_x
_atom_site_fract_y
_atom_site_fract_z
Si Si1 0.096027 0.608153 0.824861
Si Si2 0.795548 0.264763 0.293312
Si Si3 0.895109 0.719229 0.161174
Si Si4 0.332553 0.586499 0.274192
Si Si5 0.435509 0.466423 0.100179
Si Si6 0.130941 0.444756 0.685364
O O1 0.183666 0.663675 0.819487
O O2 0.084926 0.528378 0.713398
O O3 0.000000 0.656995 0.750000
O O4 0.098818 0.585058 0.004218
O O5 0.868061 0.274709 0.468433
O O6 0.686101 0.268759 0.285162
O O7 0.816451 0.179386 0.218366
O O8 0.891381 0.624320 0.199972
O O9 0.000000 0.751280 0.250000
O O10 0.397390 0.542885 0.180070
O O11 0.362379 0.587800 0.472324
O O12 0.239253 0.535330 0.229473
O O13 0.500000 0.414060 0.250000
O O14 0.500000 0.500000 0.000000
#
# Coordination Sequence:
#
# PCOD8142493 Si02
#       6
#     8   8   8   8   8   8
#     4  12  24  41  65  95 129 167 213 267 321 382
#     4  10  24  41  63  98 132 162 210 269 328 382
#     4  10  21  43  67  92 128 170 212 260 323 385
#     4  10  21  39  60  90 126 164 210 266 319 376
#     4   9  19  37  60  85 120 168 217 257 305 373
#     4  11  23  40  67  91 123 170 215 261 315 383
#
# _framework density 23.331562000000002
#
# number of rings (size 3 to 8) (size 9 to 14) (size 15 to 20)
#    0.000    1.667    0.000    4.000    0.000    8.000 
#    0.000   11.667    0.000    0.000    0.000    0.000 
#    0.000    0.000    0.000    0.000    0.000    0.000 
#
# Total GULP energy -297388.970789 kJ/mol
# GULP energy per Si atom -12391.207116 kJ/mol
# Density = 2.327846 g / cm^3
# Si number density = 23.331562 Si / 1000 Ang^3
#
#
#
# Elastic Constant Matrix: (Units=GPa)
#
#
# Indices 1 2 3 4 5 6 
#
# 1 125.7160 28.7979 30.2677 0.0000 17.1904 0.0000
# 2 28.7979 95.1867 8.6426 0.0000 -14.8576 0.0000
# 3 30.2677 8.6426 87.0726 0.0000 11.4075 0.0000
# 4 0.0000 0.0000 0.0000 29.6401 0.0000 -1.0042
# 5 17.1904 -14.8576 11.4075 0.0000 46.2729 0.0000
# 6 0.0000 0.0000 0.0000 -1.0042 0.0000 37.3216
#
#
#
# Elastic Compliance Matrix: (Units=1/GPa)
#
#
# Indices 1 2 3 4 5 6 
#
# 1 0.009923 -0.003417 -0.002566 0.000000 -0.004151 0.000000
# 2 -0.003417 0.012461 -0.000764 0.000000 0.005459 0.000000
# 3 -0.002566 -0.000764 0.012772 0.000000 -0.002441 0.000000
# 4 0.000000 0.000000 0.000000 0.033769 0.000000 0.000909
# 5 -0.004151 0.005459 -0.002441 0.000000 0.025507 0.000000
# 6 0.000000 0.000000 0.000000 0.000909 0.000000 0.026819
#
#
# Mechanical properties :
#
#
# Convention : Reuss Voigt Hill
#
# Bulk Modulus (GPa) = 46.16592 49.26576 47.71584
# Shear Modulus (GPa) = 35.21979 38.66474 36.94226
#
# Velocity S-wave (km/s) = 3.88949 4.07527 3.98346
# Velocity P-wave (km/s) = 6.32461 6.58066 6.45391
#
# Compressibility (1/GPa) = 0.02166100
#
# Stress axis : x y z
#
# Youngs Moduli (GPa) = 100.78037 80.25141 78.29402
#
# Poissons Ratio (x) = 0.27421 0.20093
# Poissons Ratio (y) = 0.34435 0.05984
# Poissons Ratio (z) = 0.25863 0.06133
#
# Static dielectric constant tensor:
#      x y z
#    x 4.642830 0.000000 0.767840 
#    y 0.000000 4.076090 0.000000 
#    z 0.767840 0.000000 6.787700 
# 
# 
# High freq. dielectric constant tensor:
#      x y z
#    x 1.937620 0.000000 0.008580 
#    y 0.000000 1.904120 0.000000 
#    z 0.008580 0.000000 1.933680 
# 
# From -- ./inp_files/48692.got.cif
#   From: 2010.06.25/outbox.cif.g09.slc.cpg/sg15_25_cif.got.tgz:48692.got - 2010.06.28 07:06:18.
