data_PCOD8142534
_publ_section_title
;
Structure prediction by ZEFSAII (Michael W. Deem and Ramdas Pophale) SiO2 
 PCOD8142534
Probable space group: C 2/C
;
_chemical_formula_sum "Si O2"
_cell_formula_units_Z 28
_cell_length_a 17.873479
_cell_length_b 7.216863
_cell_length_c 13.738048
_cell_angle_alpha 90.000000
_cell_angle_beta 49.555833
_cell_angle_gamma 90.000000
_cell_volume 1348.618760
_symmetry_space_group_name_H-M "C 2/C"
_symmetry_group_IT_number 15
_symmetry_cell_setting 'monoclinic'
loop_
_space_group_symop_operation_xyz
x,y,z
-x,y,1/2-z
-x,-y,-z
x,-y,1/2+z
1/2+x,1/2+y,z
1/2-x,1/2+y,1/2-z
1/2-x,1/2-y,-z
1/2+x,1/2-y,1/2+z
loop_
_atom_site_type_symbol
_atom_site_label
_atom_site_fract_x
_atom_site_fract_y
_atom_site_fract_z
Si Si1 0.000000 0.254826 0.250000
Si Si2 0.815945 0.024872 0.458272
Si Si3 0.237910 0.712483 0.865527
Si Si4 0.843893 0.432924 0.261374
O O1 0.046947 0.384150 0.294211
O O2 0.080914 0.128187 0.129810
O O3 0.831967 0.826994 0.500708
O O4 0.778209 0.975909 0.380904
O O5 0.732767 0.141026 0.589372
O O6 0.175060 0.668972 0.823662
O O7 0.330594 0.845746 0.759258
#
# Coordination Sequence:
#
# PCOD8142534 Si02
#       4
#     4   8   8   8
#     4  12  22  36  64  92 122 154 204 242 294 356
#     4   9  22  41  62  85 125 156 198 248 294 352
#     4   9  20  43  63  80 125 159 194 245 303 344
#     4  10  21  39  61  89 118 160 195 246 296 350
#
# _framework density 20.761980999999999
#
# number of rings (size 3 to 8) (size 9 to 14) (size 15 to 20)
#    1.714    0.571    0.000    2.571    0.000    2.286 
#    0.000    2.857    0.000    0.000    0.000    0.000 
#    0.000    0.000    0.000    0.000    0.000    0.000 
#
# Total GULP energy -173505.390208 kJ/mol
# GULP energy per Si atom -12393.242158 kJ/mol
# Density = 2.071473 g / cm^3
# Si number density = 20.761981 Si / 1000 Ang^3
#
#
#
# Elastic Constant Matrix: (Units=GPa)
#
#
# Indices 1 2 3 4 5 6 
#
# 1 205.1709 62.3463 51.6175 -0.0001 12.7433 0.0001
# 2 62.3463 65.3153 16.7063 -0.0005 -4.4771 0.0003
# 3 51.6175 16.7063 57.3128 -0.0004 -4.6882 0.0003
# 4 -0.0001 -0.0005 -0.0004 27.5509 0.0001 0.6179
# 5 12.7433 -4.4771 -4.6882 0.0001 33.9202 -0.0001
# 6 0.0001 0.0003 0.0003 0.6179 -0.0001 20.2087
#
#
#
# Elastic Compliance Matrix: (Units=1/GPa)
#
#
# Indices 1 2 3 4 5 6 
#
# 1 0.009059 -0.007359 -0.006444 0.000000 -0.005265 0.000000
# 2 -0.007359 0.022602 0.000516 0.000000 0.005819 0.000000
# 3 -0.006444 0.000516 0.023571 0.000000 0.005747 0.000000
# 4 0.000000 0.000000 0.000000 0.036321 0.000000 -0.001111
# 5 -0.005265 0.005819 0.005747 0.000000 0.033021 0.000000
# 6 0.000000 0.000000 0.000000 -0.001111 0.000000 0.049518
#
#
# Mechanical properties :
#
#
# Convention : Reuss Voigt Hill
#
# Bulk Modulus (GPa) = 34.89541 65.45992 50.17766
# Shear Modulus (GPa) = 23.78464 29.47790 26.63127
#
# Velocity S-wave (km/s) = 3.38832 3.77211 3.58536
# Velocity P-wave (km/s) = 5.67023 7.11119 6.43119
#
# Compressibility (1/GPa) = 0.02865706
#
# Stress axis : x y z
#
# Youngs Moduli (GPa) = 110.39340 44.24334 42.42446
#
# Poissons Ratio (x) = 0.32561 0.27337
# Poissons Ratio (y) = 0.81244 -0.02188
# Poissons Ratio (z) = 0.71135 -0.02282
#
# Static dielectric constant tensor:
#      x y z
#    x 3.537260 0.000000 0.197280 
#    y 0.000000 3.836730 0.000000 
#    z 0.197280 0.000000 3.445770 
# 
# 
# High freq. dielectric constant tensor:
#      x y z
#    x 1.809620 0.000000 0.023700 
#    y 0.000000 1.823600 0.000000 
#    z 0.023700 0.000000 1.781660 
# 
# From -- ./inp_files/92991.got.cif
#   From: 2010.06.25/outbox.cif.g09.slc.cpg/sg15_47_cif.got.tgz:92991.got - 2010.06.28 07:06:18.
