data_PCOD8142107
_publ_section_title
;
Structure prediction by ZEFSAII (Michael W. Deem and Ramdas Pophale) SiO2 
 PCOD8142107
Probable space group: C 2/C
;
_chemical_formula_sum "Si O2"
_cell_formula_units_Z 64
_cell_length_a 30.235342
_cell_length_b 22.477052
_cell_length_c 9.581641
_cell_angle_alpha 90.000000
_cell_angle_beta 27.767395
_cell_angle_gamma 90.000000
_cell_volume 3033.689741
_symmetry_space_group_name_H-M "C 2/C"
_symmetry_group_IT_number 15
_symmetry_cell_setting 'monoclinic'
loop_
_space_group_symop_operation_xyz
x,y,z
-x,y,1/2-z
-x,-y,-z
x,-y,1/2+z
1/2+x,1/2+y,z
1/2-x,1/2+y,1/2-z
1/2-x,1/2-y,-z
1/2+x,1/2-y,1/2+z
loop_
_atom_site_type_symbol
_atom_site_label
_atom_site_fract_x
_atom_site_fract_y
_atom_site_fract_z
Si Si1 0.077459 0.123562 0.142519
Si Si2 0.807700 0.820871 0.718171
Si Si3 0.336797 0.075137 0.851567
Si Si4 0.286565 0.293375 0.081129
Si Si5 0.340862 0.099252 0.549573
Si Si6 0.550590 0.414271 0.253766
Si Si7 0.500042 0.061314 0.916446
Si Si8 0.696211 0.481660 0.328855
O O1 0.000000 0.146862 0.250000
O O2 0.030645 0.089555 0.403977
O O3 0.137080 0.182080 0.020341
O O4 0.141505 0.070528 0.893523
O O5 0.751923 0.773211 0.776349
O O6 0.900536 0.848608 0.385146
O O7 0.744113 0.876763 0.930490
O O8 0.834694 0.791560 0.792494
O O9 0.394578 0.079570 0.543185
O O10 0.402408 0.091025 0.801842
O O11 0.285928 0.010501 0.997854
O O12 0.191961 0.332878 0.349755
O O13 0.247041 0.056628 0.809347
O O14 0.408196 0.097042 0.225738
O O15 0.500000 0.430364 0.250000
O O16 0.625233 0.466990 0.082701
O O17 0.500000 0.055344 0.750000
O O18 0.500000 0.000000 0.000000
#
# Coordination Sequence:
#
# PCOD8142107 Si02
#       8
#     8   8   8   8   8   8   8   8
#     4  11  23  38  57  90 125 157 191 241 302 360
#     4   9  19  40  66  88 116 155 204 252 292 344
#     4  10  21  38  62  89 117 158 200 251 301 358
#     4   9  19  41  64  88 119 155 202 248 297 346
#     4  10  21  38  62  89 118 159 202 249 299 358
#     4  11  21  38  59  90 119 155 203 240 289 357
#     4  12  24  40  58  85 121 156 202 246 299 358
#     4  10  22  33  60  86 127 157 193 238 307 361
#
# _framework density 21.096423000000001
#
# number of rings (size 3 to 8) (size 9 to 14) (size 15 to 20)
#    0.000    1.750    2.500    1.875    3.500    0.000 
#    9.000    1.250    0.000    0.000    0.000    0.000 
#    0.000    0.000    0.000    0.000    0.000    0.000 
#
# Total GULP energy -396459.993400 kJ/mol
# GULP energy per Si atom -12389.374794 kJ/mol
# Density = 2.104841 g / cm^3
# Si number density = 21.096423 Si / 1000 Ang^3
#
#
#
# Elastic Constant Matrix: (Units=GPa)
#
#
# Indices 1 2 3 4 5 6 
#
# 1 125.8809 22.4740 30.4667 0.0000 -0.0178 0.0000
# 2 22.4740 99.1952 14.8181 0.0000 -7.1727 0.0000
# 3 30.4667 14.8181 72.0478 0.0000 1.8362 0.0000
# 4 0.0000 0.0000 0.0000 20.2250 0.0000 -4.0999
# 5 -0.0178 -7.1727 1.8362 0.0000 32.9039 0.0000
# 6 0.0000 0.0000 0.0000 -4.0999 0.0000 25.0753
#
#
#
# Elastic Compliance Matrix: (Units=1/GPa)
#
#
# Indices 1 2 3 4 5 6 
#
# 1 0.009070 -0.001539 -0.003515 0.000000 -0.000135 0.000000
# 2 -0.001539 0.010853 -0.001644 0.000000 0.002457 0.000000
# 3 -0.003515 -0.001644 0.015736 0.000000 -0.001238 0.000000
# 4 0.000000 0.000000 0.000000 0.051139 0.000000 0.008361
# 5 -0.000135 0.002457 -0.001238 0.000000 0.030996 0.000000
# 6 0.000000 0.000000 0.000000 0.008361 0.000000 0.041247
#
#
# Mechanical properties :
#
#
# Convention : Reuss Voigt Hill
#
# Bulk Modulus (GPa) = 44.92038 48.07129 46.49583
# Shear Modulus (GPa) = 27.79972 30.93184 29.36578
#
# Velocity S-wave (km/s) = 3.63401 3.83327 3.73497
# Velocity P-wave (km/s) = 6.24077 6.51367 6.37868
#
# Compressibility (1/GPa) = 0.02226161
#
# Stress axis : x y z
#
# Youngs Moduli (GPa) = 110.25818 92.13942 63.54944
#
# Poissons Ratio (x) = 0.14184 0.22339
# Poissons Ratio (y) = 0.16974 0.10446
# Poissons Ratio (z) = 0.38758 0.15146
#
# Static dielectric constant tensor:
#      x y z
#    x 5.439310 0.000000 -0.773250 
#    y 0.000000 3.823420 0.000000 
#    z -0.773250 0.000000 4.196800 
# 
# 
# High freq. dielectric constant tensor:
#      x y z
#    x 1.816350 0.000000 -0.018020 
#    y 0.000000 1.815220 0.000000 
#    z -0.018020 0.000000 1.819500 
# 
# From -- ./inp_files/70970.got.cif
#   From: 2010.06.25/outbox.cif.g09.slc.cpg/sg15_36_cif.got.tgz:70970.got - 2010.06.28 07:06:18.
