data_PCOD8142295
_publ_section_title
;
Structure prediction by ZEFSAII (Michael W. Deem and Ramdas Pophale) SiO2 
 PCOD8142295
Probable space group: C 2/C
;
_chemical_formula_sum "Si O2"
_cell_formula_units_Z 56
_cell_length_a 19.906297
_cell_length_b 11.572951
_cell_length_c 22.498332
_cell_angle_alpha 90.000000
_cell_angle_beta 31.182904
_cell_angle_gamma 90.000000
_cell_volume 2683.633941
_symmetry_space_group_name_H-M "C 2/C"
_symmetry_group_IT_number 15
_symmetry_cell_setting 'monoclinic'
loop_
_space_group_symop_operation_xyz
x,y,z
-x,y,1/2-z
-x,-y,-z
x,-y,1/2+z
1/2+x,1/2+y,z
1/2-x,1/2+y,1/2-z
1/2-x,1/2-y,-z
1/2+x,1/2-y,1/2+z
loop_
_atom_site_type_symbol
_atom_site_label
_atom_site_fract_x
_atom_site_fract_y
_atom_site_fract_z
Si Si1 0.634765 0.876589 0.632014
Si Si2 0.601511 0.878992 0.215610
Si Si3 0.493264 0.120460 0.925779
Si Si4 0.948599 0.079103 0.622773
Si Si5 0.181938 0.544571 0.878888
Si Si6 0.610377 0.637908 0.966238
Si Si7 0.362931 0.229187 0.493792
O O1 0.500000 0.813750 0.750000
O O2 0.656169 0.861152 0.545345
O O3 0.744564 0.816993 0.587227
O O4 0.630404 0.008930 0.654105
O O5 0.500000 0.804728 0.250000
O O6 0.521412 0.905975 0.335855
O O7 0.743539 0.826585 0.122810
O O8 0.607747 0.051578 0.872511
O O9 0.486372 0.257759 0.943219
O O10 0.357662 0.065936 0.051330
O O11 0.834829 0.034591 0.751818
O O12 0.889013 0.114920 0.604449
O O13 0.007309 0.193966 0.608486
O O14 0.056430 0.978216 0.538023
O O15 0.137935 0.661212 0.944400
#
# Coordination Sequence:
#
# PCOD8142295 Si02
#       7
#     8   8   8   8   8   8   8
#     4  10  21  38  65  93 131 173 219 264 329 407
#     4  11  23  44  68  93 130 183 221 272 333 409
#     4  11  25  42  66  96 131 176 228 270 338 399
#     4  11  23  41  68 101 134 168 222 285 346 391
#     4  11  23  39  64 101 130 169 220 284 332 398
#     4  11  24  44  66  98 132 178 225 278 339 405
#     4  11  21  40  64 100 129 172 218 279 337 391
#
# _framework density 20.867228000000001
#
# number of rings (size 3 to 8) (size 9 to 14) (size 15 to 20)
#    0.000    1.143    4.286    2.571    2.000    0.571 
#    0.000    0.000    0.000    0.000    0.000    0.000 
#    0.000    0.000    0.000    0.000    0.000    0.000 
#
# Total GULP energy -347058.231228 kJ/mol
# GULP energy per Si atom -12394.936830 kJ/mol
# Density = 2.081973 g / cm^3
# Si number density = 20.867228 Si / 1000 Ang^3
#
#
#
# Elastic Constant Matrix: (Units=GPa)
#
#
# Indices 1 2 3 4 5 6 
#
# 1 87.3847 17.6406 26.1521 -0.0001 -5.4662 0.0000
# 2 17.6406 67.2441 20.9373 -0.0003 3.9123 0.0002
# 3 26.1521 20.9373 97.2725 -0.0004 -7.1556 0.0002
# 4 -0.0001 -0.0003 -0.0004 21.8978 0.0001 4.8495
# 5 -5.4662 3.9123 -7.1556 0.0001 35.2445 0.0000
# 6 0.0000 0.0002 0.0002 4.8495 0.0000 18.3271
#
#
#
# Elastic Compliance Matrix: (Units=1/GPa)
#
#
# Indices 1 2 3 4 5 6 
#
# 1 0.012913 -0.002623 -0.002780 0.000000 0.001729 0.000000
# 2 -0.002623 0.016693 -0.003100 0.000000 -0.002889 0.000000
# 3 -0.002780 -0.003100 0.011866 0.000000 0.002322 0.000000
# 4 0.000000 0.000000 0.000000 0.048509 0.000000 -0.012836
# 5 0.001729 -0.002889 0.002322 0.000000 0.029434 0.000000
# 6 0.000000 0.000000 0.000000 -0.012836 0.000000 0.057961
#
#
# Mechanical properties :
#
#
# Convention : Reuss Voigt Hill
#
# Bulk Modulus (GPa) = 40.87356 42.37348 41.62352
# Shear Modulus (GPa) = 24.68682 27.57195 26.12938
#
# Velocity S-wave (km/s) = 3.44327 3.63892 3.54244
# Velocity P-wave (km/s) = 5.95299 6.16490 6.05987
#
# Compressibility (1/GPa) = 0.02446570
#
# Stress axis : x y z
#
# Youngs Moduli (GPa) = 77.43961 59.90660 84.27448
#
# Poissons Ratio (x) = 0.15711 0.23429
# Poissons Ratio (y) = 0.20310 0.26129
# Poissons Ratio (z) = 0.21529 0.18573
#
# Static dielectric constant tensor:
#      x y z
#    x 4.036120 0.000000 -0.246110 
#    y 0.000000 3.581820 0.000000 
#    z -0.246110 0.000000 3.872010 
# 
# 
# High freq. dielectric constant tensor:
#      x y z
#    x 1.824710 0.000000 -0.005070 
#    y 0.000000 1.798500 0.000000 
#    z -0.005070 0.000000 1.822370 
# 
# From -- ./inp_files/279971.got.cif
#   From: 2010.06.25/outbox.cif.g09.slc.cpg/sg15_140_cif.got.tgz:279971.got - 2010.06.28 07:06:18.
