data_PCOD8142725
_publ_section_title
;
Structure prediction by ZEFSAII (Michael W. Deem and Ramdas Pophale) SiO2 
 PCOD8142725
Probable space group: C 2/C
;
_chemical_formula_sum "Si O2"
_cell_formula_units_Z 60
_cell_length_a 8.727422
_cell_length_b 12.169044
_cell_length_c 32.156430
_cell_angle_alpha 90.000000
_cell_angle_beta 59.904252
_cell_angle_gamma 90.000000
_cell_volume 2954.752246
_symmetry_space_group_name_H-M "C 2/C"
_symmetry_group_IT_number 15
_symmetry_cell_setting 'monoclinic'
loop_
_space_group_symop_operation_xyz
x,y,z
-x,y,1/2-z
-x,-y,-z
x,-y,1/2+z
1/2+x,1/2+y,z
1/2-x,1/2+y,1/2-z
1/2-x,1/2-y,-z
1/2+x,1/2-y,1/2+z
loop_
_atom_site_type_symbol
_atom_site_label
_atom_site_fract_x
_atom_site_fract_y
_atom_site_fract_z
Si Si1 0.701698 0.255106 0.178625
Si Si2 0.870540 0.572953 0.990702
Si Si3 0.833907 0.028258 0.050715
Si Si4 0.583693 0.478016 0.082257
Si Si5 0.000000 0.823637 0.750000
Si Si6 0.694546 0.323724 0.268959
Si Si7 0.828035 0.719744 0.570969
Si Si8 0.895486 0.949276 0.684990
O O1 0.747786 0.329502 0.212737
O O2 0.493739 0.264996 0.198187
O O3 0.809871 0.293018 0.123321
O O4 0.752330 0.129793 0.182823
O O5 0.836873 0.523438 0.948919
O O6 0.969799 0.689138 0.969892
O O7 0.689363 0.574728 0.042513
O O8 0.000000 0.500000 0.000000
O O9 0.791092 0.157311 0.061118
O O10 0.886786 0.971569 0.087742
O O11 0.000000 0.000000 0.000000
O O12 0.687376 0.361764 0.067246
O O13 0.555834 0.517201 0.132855
O O14 0.172644 0.749104 0.722534
O O15 0.002443 0.897363 0.790426
O O16 0.709467 0.444733 0.285223
#
# Coordination Sequence:
#
# PCOD8142725 Si02
#       8
#     8   8   8   8   4   8   8   8
#     4  10  21  40  65  90 123 169 209 254 326 375
#     4   9  22  41  62  94 124 166 212 252 315 367
#     4  10  22  41  61  92 125 166 210 257 316 363
#     4  10  21  39  64  91 127 167 211 260 313 370
#     4  10  24  40  64  96 118 160 216 248 320 384
#     4  10  22  42  62  91 124 165 201 263 323 365
#     4  11  21  42  63  91 130 168 212 263 310 379
#     4  11  21  42  62  92 130 159 209 265 304 379
#
# _framework density 20.306270999999999
#
# number of rings (size 3 to 8) (size 9 to 14) (size 15 to 20)
#    0.000    1.867    2.667    0.800    0.000    9.067 
#    9.600    4.000    0.000    0.000    0.000    0.000 
#    0.000    0.000    0.000    0.000    0.000    0.000 
#
# Total GULP energy -371773.745902 kJ/mol
# GULP energy per Si atom -12392.458197 kJ/mol
# Density = 2.026005 g / cm^3
# Si number density = 20.306271 Si / 1000 Ang^3
#
#
#
# Elastic Constant Matrix: (Units=GPa)
#
#
# Indices 1 2 3 4 5 6 
#
# 1 94.9038 38.3817 20.1046 0.0000 21.6126 0.0000
# 2 38.3817 111.0228 35.0094 0.0000 7.7930 0.0000
# 3 20.1046 35.0094 101.1762 0.0000 7.2742 0.0000
# 4 0.0000 0.0000 0.0000 23.6326 0.0000 -4.6859
# 5 21.6126 7.7930 7.2742 0.0000 24.8167 0.0000
# 6 0.0000 0.0000 0.0000 -4.6859 0.0000 28.7617
#
#
#
# Elastic Compliance Matrix: (Units=1/GPa)
#
#
# Indices 1 2 3 4 5 6 
#
# 1 0.014996 -0.004148 -0.000714 0.000000 -0.011548 0.000000
# 2 -0.004148 0.011376 -0.003182 0.000000 0.000973 0.000000
# 3 -0.000714 -0.003182 0.011247 0.000000 -0.001676 0.000000
# 4 0.000000 0.000000 0.000000 0.043727 0.000000 0.007124
# 5 -0.011548 0.000973 -0.001676 0.000000 0.050538 0.000000
# 6 0.000000 0.000000 0.000000 0.007124 0.000000 0.035929
#
#
# Mechanical properties :
#
#
# Convention : Reuss Voigt Hill
#
# Bulk Modulus (GPa) = 46.44675 54.89936 50.67305
# Shear Modulus (GPa) = 26.16715 29.68267 27.92491
#
# Velocity S-wave (km/s) = 3.59364 3.82743 3.71237
# Velocity P-wave (km/s) = 6.33575 6.82837 6.58667
#
# Compressibility (1/GPa) = 0.02153003
#
# Stress axis : x y z
#
# Youngs Moduli (GPa) = 66.68555 87.90080 88.91088
#
# Poissons Ratio (x) = 0.36465 0.06349
# Poissons Ratio (y) = 0.27664 0.28293
# Poissons Ratio (z) = 0.04762 0.27971
#
# Static dielectric constant tensor:
#      x y z
#    x 3.025680 0.000000 -0.168230 
#    y 0.000000 3.680770 0.000000 
#    z -0.168230 0.000000 3.901970 
# 
# 
# High freq. dielectric constant tensor:
#      x y z
#    x 1.794470 0.000000 0.016320 
#    y 0.000000 1.783840 0.000000 
#    z 0.016320 0.000000 1.798450 
# 
# From -- ./inp_files/307112.got.cif
#   From: 2010.06.25/outbox.cif.g09.slc.cpg/sg15_154_cif.got.tgz:307112.got - 2010.06.28 07:06:18.
