data_PCOD8142192
_publ_section_title
;
Structure prediction by ZEFSAII (Michael W. Deem and Ramdas Pophale) SiO2 
 PCOD8142192
Probable space group: C 2/C
;
_chemical_formula_sum "Si O2"
_cell_formula_units_Z 56
_cell_length_a 15.291145
_cell_length_b 8.820314
_cell_length_c 20.826587
_cell_angle_alpha 90.000000
_cell_angle_beta 94.956084
_cell_angle_gamma 90.000000
_cell_volume 2798.435993
_symmetry_space_group_name_H-M "C 2/C"
_symmetry_group_IT_number 15
_symmetry_cell_setting 'monoclinic'
loop_
_space_group_symop_operation_xyz
x,y,z
-x,y,1/2-z
-x,-y,-z
x,-y,1/2+z
1/2+x,1/2+y,z
1/2-x,1/2+y,1/2-z
1/2-x,1/2-y,-z
1/2+x,1/2-y,1/2+z
loop_
_atom_site_type_symbol
_atom_site_label
_atom_site_fract_x
_atom_site_fract_y
_atom_site_fract_z
Si Si1 0.500000 0.154065 0.750000
Si Si2 0.058888 0.922084 0.949324
Si Si3 0.438939 0.418694 0.831804
Si Si4 0.500000 0.336020 0.250000
Si Si5 0.425283 0.074663 0.535420
Si Si6 0.597611 0.912892 0.832085
Si Si7 0.754861 0.535776 0.972076
Si Si8 0.728477 0.314270 0.605599
O O1 0.455234 0.255829 0.801228
O O2 0.579316 0.050365 0.781855
O O3 0.044029 0.743396 0.949021
O O4 0.022623 0.975522 0.878167
O O5 0.161696 0.955304 0.958312
O O6 0.000000 0.000000 0.000000
O O7 0.426535 0.551974 0.777829
O O8 0.358441 0.396378 0.875010
O O9 0.460191 0.232259 0.191247
O O10 0.500000 0.000000 0.500000
O O11 0.422612 0.971458 0.598391
O O12 0.334567 0.082036 0.488518
O O13 0.698456 0.857712 0.836761
O O14 0.777353 0.633146 0.908725
O O15 0.753708 0.630137 0.037012
#
# Coordination Sequence:
#
# PCOD8142192 Si02
#       8
#     4   8   8   4   8   8   8   8
#     4  10  22  42  62  82 122 172 216 258 304 378
#     4  12  23  39  65  96 129 164 209 268 322 384
#     4  11  22  40  64  91 122 167 214 257 321 370
#     4  10  24  40  64  88 120 168 214 264 304 380
#     4  11  24  39  66  94 127 172 206 261 329 385
#     4  10  22  42  62  87 127 162 213 259 313 374
#     4  10  22  38  60  97 133 159 205 256 322 385
#     4  10  21  38  63  92 128 161 203 263 314 376
#
# _framework density 20.011178000000001
#
# number of rings (size 3 to 8) (size 9 to 14) (size 15 to 20)
#    0.000    1.429    2.857    2.143    6.000    1.143 
#    0.000    0.000    0.000    0.000    0.000    0.000 
#    0.000    0.000    0.000    0.000    0.000    0.000 
#
# Total GULP energy -346987.868420 kJ/mol
# GULP energy per Si atom -12392.423872 kJ/mol
# Density = 1.996563 g / cm^3
# Si number density = 20.011178 Si / 1000 Ang^3
#
#
#
# Elastic Constant Matrix: (Units=GPa)
#
#
# Indices 1 2 3 4 5 6 
#
# 1 113.2322 32.5105 45.2775 0.0000 12.4060 0.0000
# 2 32.5105 113.6830 44.2158 0.0000 4.8395 0.0000
# 3 45.2775 44.2158 91.0514 0.0000 14.5978 0.0000
# 4 0.0000 0.0000 0.0000 38.0674 0.0000 -0.2434
# 5 12.4060 4.8395 14.5978 0.0000 31.5061 0.0000
# 6 0.0000 0.0000 0.0000 -0.2434 0.0000 30.4055
#
#
#
# Elastic Compliance Matrix: (Units=1/GPa)
#
#
# Indices 1 2 3 4 5 6 
#
# 1 0.011298 -0.001340 -0.004631 0.000000 -0.002097 0.000000
# 2 -0.001340 0.011024 -0.004861 0.000000 0.001087 0.000000
# 3 -0.004631 -0.004861 0.016457 0.000000 -0.005055 0.000000
# 4 0.000000 0.000000 0.000000 0.026271 0.000000 0.000210
# 5 -0.002097 0.001087 -0.005055 0.000000 0.034741 0.000000
# 6 0.000000 0.000000 0.000000 0.000210 0.000000 0.032891
#
#
# Mechanical properties :
#
#
# Convention : Reuss Voigt Hill
#
# Bulk Modulus (GPa) = 58.43322 62.44157 60.43740
# Shear Modulus (GPa) = 31.24026 33.06000 32.15013
#
# Velocity S-wave (km/s) = 3.95541 4.06898 4.01260
# Velocity P-wave (km/s) = 7.07984 7.30388 7.19273
#
# Compressibility (1/GPa) = 0.01711355
#
# Stress axis : x y z
#
# Youngs Moduli (GPa) = 88.51302 90.70991 60.76559
#
# Poissons Ratio (x) = 0.12159 0.28140
# Poissons Ratio (y) = 0.11865 0.29539
# Poissons Ratio (z) = 0.40990 0.44095
#
# Static dielectric constant tensor:
#      x y z
#    x 3.653620 0.000000 0.287630 
#    y 0.000000 3.701920 0.000000 
#    z 0.287630 0.000000 3.776990 
# 
# 
# High freq. dielectric constant tensor:
#      x y z
#    x 1.774880 0.000000 0.014310 
#    y 0.000000 1.789270 0.000000 
#    z 0.014310 0.000000 1.783510 
# 
# From -- ./inp_files/242827.got.cif
#   From: 2010.06.25/outbox.cif.g09.slc.cpg/sg15_122_cif.got.tgz:242827.got - 2010.06.28 07:06:18.
