data_PCOD8142084
_publ_section_title
;
Structure prediction by ZEFSAII (Michael W. Deem and Ramdas Pophale) SiO2 
 PCOD8142084
Probable space group: C 2/C
;
_chemical_formula_sum "Si O2"
_cell_formula_units_Z 60
_cell_length_a 17.631712
_cell_length_b 20.735985
_cell_length_c 14.388837
_cell_angle_alpha 90.000000
_cell_angle_beta 31.969015
_cell_angle_gamma 90.000000
_cell_volume 2785.341626
_symmetry_space_group_name_H-M "C 2/C"
_symmetry_group_IT_number 15
_symmetry_cell_setting 'monoclinic'
loop_
_space_group_symop_operation_xyz
x,y,z
-x,y,1/2-z
-x,-y,-z
x,-y,1/2+z
1/2+x,1/2+y,z
1/2-x,1/2+y,1/2-z
1/2-x,1/2-y,-z
1/2+x,1/2-y,1/2+z
loop_
_atom_site_type_symbol
_atom_site_label
_atom_site_fract_x
_atom_site_fract_y
_atom_site_fract_z
Si Si1 0.500000 0.594432 0.750000
Si Si2 0.813470 0.115594 0.331420
Si Si3 0.961754 0.012755 0.433374
Si Si4 0.481507 0.177679 0.366522
Si Si5 0.056601 0.794895 0.508438
Si Si6 0.848767 0.195195 0.790255
Si Si7 0.051118 0.643299 0.491016
Si Si8 0.232980 0.616532 0.621179
O O1 0.562586 0.552086 0.600315
O O2 0.373810 0.639355 0.840273
O O3 0.700727 0.110969 0.364366
O O4 0.727692 0.123356 0.515965
O O5 0.919004 0.175428 0.202697
O O6 0.902185 0.049968 0.250754
O O7 0.821481 0.056407 0.569742
O O8 0.000000 0.000000 0.500000
O O9 0.500000 0.138181 0.250000
O O10 0.320153 0.201688 0.554449
O O11 0.590655 0.237155 0.236303
O O12 0.532434 0.133938 0.399707
O O13 0.066235 0.821458 0.393024
O O14 0.048884 0.718364 0.519773
O O15 0.200440 0.816591 0.411220
O O16 0.926573 0.606874 0.675496
#
# Coordination Sequence:
#
# PCOD8142084 Si02
#       8
#     4   8   8   8   8   8   8   8
#     4  12  22  42  74  94 120 180 230 264 334 384
#     4  11  23  40  65  93 134 171 220 275 320 381
#     4  11  24  44  69  91 121 171 235 282 317 381
#     4  11  24  42  64 100 144 168 207 266 335 412
#     4  10  21  38  61  99 133 170 216 257 321 415
#     4  11  24  40  69 100 135 172 212 266 336 404
#     4  11  24  37  65  94 136 175 207 263 345 389
#     4  11  21  43  62  94 133 170 218 278 317 384
#
# _framework density 21.541343000000001
#
# number of rings (size 3 to 8) (size 9 to 14) (size 15 to 20)
#    0.000    1.067    3.333    4.400    5.600    4.267 
#    0.000    0.667    2.933    0.000    0.000    0.000 
#    0.000    0.000    0.000    0.000    0.000    0.000 
#
# Total GULP energy -372049.146210 kJ/mol
# GULP energy per Si atom -12401.638207 kJ/mol
# Density = 2.149231 g / cm^3
# Si number density = 21.541343 Si / 1000 Ang^3
#
#
#
# Elastic Constant Matrix: (Units=GPa)
#
#
# Indices 1 2 3 4 5 6 
#
# 1 111.1047 24.5579 14.1613 0.0144 6.9956 -0.0064
# 2 24.5579 48.3417 11.2702 0.0131 1.1686 -0.0092
# 3 14.1613 11.2702 59.9719 0.0209 -2.0971 -0.0158
# 4 0.0144 0.0131 0.0209 9.6311 -0.0048 8.9392
# 5 6.9956 1.1686 -2.0971 -0.0048 54.0587 0.0026
# 6 -0.0064 -0.0092 -0.0158 8.9392 0.0026 33.7374
#
#
#
# Elastic Compliance Matrix: (Units=1/GPa)
#
#
# Indices 1 2 3 4 5 6 
#
# 1 0.010358 -0.004863 -0.001577 -0.000008 -0.001296 0.000002
# 2 -0.004863 0.023938 -0.003351 -0.000029 -0.000018 0.000012
# 3 -0.001577 -0.003351 0.017710 -0.000050 0.000964 0.000020
# 4 -0.000008 -0.000029 -0.000050 0.137693 0.000014 -0.036484
# 5 -0.001296 -0.000018 0.000964 0.000014 0.018704 -0.000005
# 6 0.000002 0.000012 0.000020 -0.036484 -0.000005 0.039308
#
#
# Mechanical properties :
#
#
# Convention : Reuss Voigt Hill
#
# Bulk Modulus (GPa) = 30.84106 35.48855 33.16480
# Shear Modulus (GPa) = 17.97905 30.78069 24.37987
#
# Velocity S-wave (km/s) = 2.89213 3.78420 3.36783
# Velocity P-wave (km/s) = 5.04983 5.96690 5.52742
#
# Compressibility (1/GPa) = 0.03242431
#
# Stress axis : x y z
#
# Youngs Moduli (GPa) = 96.54318 41.77439 56.46407
#
# Poissons Ratio (x) = 0.20314 0.08906
# Poissons Ratio (y) = 0.46948 0.18920
# Poissons Ratio (z) = 0.15228 0.13998
#
# Static dielectric constant tensor:
#      x y z
#    x 4.234520 0.000000 0.123050 
#    y 0.000000 3.657990 0.000030 
#    z 0.123050 0.000030 3.868760 
# 
# 
# High freq. dielectric constant tensor:
#      x y z
#    x 1.870420 0.000000 0.007780 
#    y 0.000000 1.813080 0.000000 
#    z 0.007780 0.000000 1.846370 
# 
# From -- ./inp_files/164090.got.cif
#   From: 2010.06.25/outbox.cif.g09.slc.cpg/sg15_83_cif.got.tgz:164090.got - 2010.06.28 07:06:18.
