data_PCOD8142668
_publ_section_title
;
Structure prediction by ZEFSAII (Michael W. Deem and Ramdas Pophale) SiO2 
 PCOD8142668
Probable space group: C 2/C
;
_chemical_formula_sum "Si O2"
_cell_formula_units_Z 48
_cell_length_a 18.758817
_cell_length_b 8.684998
_cell_length_c 13.917846
_cell_angle_alpha 90.000000
_cell_angle_beta 80.649096
_cell_angle_gamma 90.000000
_cell_volume 2237.368383
_symmetry_space_group_name_H-M "C 2/C"
_symmetry_group_IT_number 15
_symmetry_cell_setting 'monoclinic'
loop_
_space_group_symop_operation_xyz
x,y,z
-x,y,1/2-z
-x,-y,-z
x,-y,1/2+z
1/2+x,1/2+y,z
1/2-x,1/2+y,1/2-z
1/2-x,1/2-y,-z
1/2+x,1/2-y,1/2+z
loop_
_atom_site_type_symbol
_atom_site_label
_atom_site_fract_x
_atom_site_fract_y
_atom_site_fract_z
Si Si1 0.919007 0.799714 0.804194
Si Si2 0.920112 0.583450 0.087616
Si Si3 0.325232 0.813329 0.771337
Si Si4 0.820821 0.979942 0.686903
Si Si5 0.426346 0.972433 0.884118
Si Si6 0.926248 0.087520 0.504611
O O1 0.898677 0.625738 0.836899
O O2 0.000000 0.819534 0.750000
O O3 0.865472 0.850353 0.732550
O O4 0.904418 0.910919 0.897911
O O5 0.849215 0.602257 0.167458
O O6 0.945141 0.742281 0.035354
O O7 0.986202 0.529906 0.141910
O O8 0.904751 0.466891 0.002474
O O9 0.311742 0.633528 0.753352
O O10 0.387779 0.828902 0.839192
O O11 0.255049 0.902934 0.823696
O O12 0.860498 0.015125 0.578329
O O13 0.000000 0.000000 0.500000
#
# Coordination Sequence:
#
# PCOD8142668 Si02
#       6
#     8   8   8   8   8   8
#     4  11  21  37  64  93 120 159 205 255 305 358
#     4   9  21  39  64  90 124 160 202 252 310 361
#     4  11  23  41  60  86 127 167 205 247 309 367
#     4  11  25  41  61  91 126 167 202 254 304 367
#     4  10  21  39  64  94 121 163 203 255 303 366
#     4  10  21  39  63  92 124 153 202 260 301 358
#
# _framework density 21.453776999999999
#
# number of rings (size 3 to 8) (size 9 to 14) (size 15 to 20)
#    0.000    1.667    1.667    2.500    2.333    1.333 
#    3.000    6.667    0.000    0.000    0.000    0.000 
#    0.000    0.000    0.000    0.000    0.000    0.000 
#
# Total GULP energy -297644.202425 kJ/mol
# GULP energy per Si atom -12401.841768 kJ/mol
# Density = 2.140495 g / cm^3
# Si number density = 21.453777 Si / 1000 Ang^3
#
#
#
# Elastic Constant Matrix: (Units=GPa)
#
#
# Indices 1 2 3 4 5 6 
#
# 1 86.5627 20.3700 27.2956 0.0000 -6.4447 0.0000
# 2 20.3700 45.1926 11.6949 0.0000 -0.2630 0.0000
# 3 27.2956 11.6949 82.7194 0.0000 -0.0021 0.0000
# 4 0.0000 0.0000 0.0000 33.3569 0.0000 3.4521
# 5 -6.4447 -0.2630 -0.0021 0.0000 34.4509 0.0000
# 6 0.0000 0.0000 0.0000 3.4521 0.0000 29.6684
#
#
#
# Elastic Compliance Matrix: (Units=1/GPa)
#
#
# Indices 1 2 3 4 5 6 
#
# 1 0.014260 -0.005392 -0.003943 0.000000 0.002626 0.000000
# 2 -0.005392 0.025008 -0.001756 0.000000 -0.000818 0.000000
# 3 -0.003943 -0.001756 0.013639 0.000000 -0.000750 0.000000
# 4 0.000000 0.000000 0.000000 0.030344 0.000000 -0.003531
# 5 0.002626 -0.000818 -0.000750 0.000000 0.029512 0.000000
# 6 0.000000 0.000000 0.000000 -0.003531 0.000000 0.034117
#
#
# Mechanical properties :
#
#
# Convention : Reuss Voigt Hill
#
# Bulk Modulus (GPa) = 32.54855 37.02176 34.78515
# Shear Modulus (GPa) = 27.88579 29.83618 28.86099
#
# Velocity S-wave (km/s) = 3.60920 3.73328 3.67176
# Velocity P-wave (km/s) = 5.70726 5.98976 5.85021
#
# Compressibility (1/GPa) = 0.03072334
#
# Stress axis : x y z
#
# Youngs Moduli (GPa) = 70.12605 39.98789 73.32174
#
# Poissons Ratio (x) = 0.21561 0.28912
# Poissons Ratio (y) = 0.37811 0.12878
# Poissons Ratio (z) = 0.27652 0.07024
#
# Static dielectric constant tensor:
#      x y z
#    x 3.812330 0.000000 -0.011660 
#    y 0.000000 3.949440 0.000000 
#    z -0.011660 0.000000 4.150360 
# 
# 
# High freq. dielectric constant tensor:
#      x y z
#    x 1.828040 0.000000 -0.003870 
#    y 0.000000 1.840590 0.000000 
#    z -0.003870 0.000000 1.853930 
# 
# From -- ./inp_files/159720.got.cif
#   From: 2010.06.25/outbox.cif.g09.slc.cpg/sg15_80_cif.got.tgz:159720.got - 2010.06.28 07:06:18.
