data_PCOD8142017
_publ_section_title
;
Structure prediction by ZEFSAII (Michael W. Deem and Ramdas Pophale) SiO2 
 PCOD8142017
Probable space group: C 2/C
;
_chemical_formula_sum "Si O2"
_cell_formula_units_Z 40
_cell_length_a 29.681821
_cell_length_b 10.011151
_cell_length_c 19.715000
_cell_angle_alpha 90.000000
_cell_angle_beta 160.848753
_cell_angle_gamma 90.000000
_cell_volume 1921.890017
_symmetry_space_group_name_H-M "C 2/C"
_symmetry_group_IT_number 15
_symmetry_cell_setting 'monoclinic'
loop_
_space_group_symop_operation_xyz
x,y,z
-x,y,1/2-z
-x,-y,-z
x,-y,1/2+z
1/2+x,1/2+y,z
1/2-x,1/2+y,1/2-z
1/2-x,1/2-y,-z
1/2+x,1/2-y,1/2+z
loop_
_atom_site_type_symbol
_atom_site_label
_atom_site_fract_x
_atom_site_fract_y
_atom_site_fract_z
Si Si1 0.564274 0.898355 0.465263
Si Si2 0.261913 1.000000 0.023826
Si Si3 0.649645 0.118945 0.484581
Si Si4 0.979773 0.881055 0.644838
Si Si5 0.237703 0.898355 0.638692
O O1 0.401180 0.915161 0.227243
O O2 0.595691 0.741659 0.499353
O O3 0.623190 0.937754 0.623190
O O4 0.643932 0.986089 0.522428
O O5 0.262695 0.093421 0.958783
O O6 0.250946 0.084839 0.077009
O O7 0.129481 0.906579 0.825568
O O8 0.500000 0.166679 0.250000
O O9 0.711635 0.241659 0.615297
O O10 0.000000 0.833321 0.750000
O O11 0.886940 0.013911 0.508443
#
# Coordination Sequence:
#
# PCOD8142017 Si02
#       5
#     8   8   8   8   8
#     4  11  22  38  59  87 116 147 189 241 285 328
#     4  10  21  38  61  84 112 154 194 228 277 346
#     4  10  21  39  60  83 114 153 191 230 282 344
#     4  10  21  39  60  83 114 153 191 230 282 344
#     4  11  22  38  59  87 116 147 189 241 285 328
#
# _framework density 20.812846
#
# number of rings (size 3 to 8) (size 9 to 14) (size 15 to 20)
#    0.000    1.600    0.000    6.600    0.000    3.200 
#    0.000   12.000    0.000    0.000    0.000    0.000 
#    0.000    0.000    0.000    0.000    0.000    0.000 
#
# Total GULP energy -247974.994241 kJ/mol
# GULP energy per Si atom -12398.749712 kJ/mol
# Density = 2.076548 g / cm^3
# Si number density = 20.812846 Si / 1000 Ang^3
#
#
#
# Elastic Constant Matrix: (Units=GPa)
#
#
# Indices 1 2 3 4 5 6 
#
# 1 86.4144 52.8214 49.3812 0.0000 11.5006 0.0000
# 2 52.8214 142.9043 48.9067 0.0000 4.9029 0.0000
# 3 49.3812 48.9067 81.5485 0.0000 -5.4064 0.0000
# 4 0.0000 0.0000 0.0000 17.4515 0.0000 -0.2669
# 5 11.5006 4.9029 -5.4064 0.0000 35.0993 0.0000
# 6 0.0000 0.0000 0.0000 -0.2669 0.0000 17.2385
#
#
#
# Elastic Compliance Matrix: (Units=1/GPa)
#
#
# Indices 1 2 3 4 5 6 
#
# 1 0.021396 -0.003783 -0.011232 0.000000 -0.008212 0.000000
# 2 -0.003783 0.009624 -0.003524 0.000000 -0.000648 0.000000
# 3 -0.011232 -0.003524 0.021676 0.000000 0.007511 0.000000
# 4 0.000000 0.000000 0.000000 0.057315 0.000000 0.000887
# 5 -0.008212 -0.000648 0.007511 0.000000 0.032429 0.000000
# 6 0.000000 0.000000 0.000000 0.000887 0.000000 0.058023
#
#
# Mechanical properties :
#
#
# Convention : Reuss Voigt Hill
#
# Bulk Modulus (GPa) = 64.02940 68.12064 66.07502
# Shear Modulus (GPa) = 20.59760 24.60840 22.60300
#
# Velocity S-wave (km/s) = 3.14930 3.44228 3.29904
# Velocity P-wave (km/s) = 6.63741 6.97139 6.80645
#
# Compressibility (1/GPa) = 0.01561783
#
# Stress axis : x y z
#
# Youngs Moduli (GPa) = 46.73828 103.90437 46.13488
#
# Poissons Ratio (x) = 0.39305 0.51818
# Poissons Ratio (y) = 0.17680 0.16259
# Poissons Ratio (z) = 0.52496 0.36618
#
# Static dielectric constant tensor:
#      x y z
#    x 3.773670 0.000000 0.028200 
#    y 0.000000 3.607110 0.000000 
#    z 0.028200 0.000000 3.751140 
# 
# 
# High freq. dielectric constant tensor:
#      x y z
#    x 1.810300 0.000000 -0.003610 
#    y 0.000000 1.817330 0.000000 
#    z -0.003610 0.000000 1.813180 
# 
# From -- ./inp_files/102720.got.cif
#   From: 2010.06.25/outbox.cif.g09.slc.cpg/sg15_52_cif.got.tgz:102720.got - 2010.06.28 07:06:18.
