data_PCOD8142177
_publ_section_title
;
Structure prediction by ZEFSAII (Michael W. Deem and Ramdas Pophale) SiO2 
 PCOD8142177
Probable space group: C 2/C
;
_chemical_formula_sum "Si O2"
_cell_formula_units_Z 60
_cell_length_a 21.762331
_cell_length_b 8.938499
_cell_length_c 26.344317
_cell_angle_alpha 90.000000
_cell_angle_beta 147.225828
_cell_angle_gamma 90.000000
_cell_volume 2774.076533
_symmetry_space_group_name_H-M "C 2/C"
_symmetry_group_IT_number 15
_symmetry_cell_setting 'monoclinic'
loop_
_space_group_symop_operation_xyz
x,y,z
-x,y,1/2-z
-x,-y,-z
x,-y,1/2+z
1/2+x,1/2+y,z
1/2-x,1/2+y,1/2-z
1/2-x,1/2-y,-z
1/2+x,1/2-y,1/2+z
loop_
_atom_site_type_symbol
_atom_site_label
_atom_site_fract_x
_atom_site_fract_y
_atom_site_fract_z
Si Si1 0.153381 0.955280 0.201426
Si Si2 0.910051 0.591553 0.761957
Si Si3 0.515651 0.662970 0.988412
Si Si4 0.500000 0.672482 0.250000
Si Si5 0.575464 0.827531 0.847474
Si Si6 0.125411 0.714433 0.652299
Si Si7 0.946016 0.021192 0.622966
Si Si8 0.782411 0.941204 0.928909
O O1 0.275376 0.890532 0.300653
O O2 0.078864 0.985095 0.200171
O O3 0.170250 0.114984 0.185870
O O4 0.091584 0.824798 0.124189
O O5 0.919818 0.725062 0.728537
O O6 0.918812 0.653540 0.824810
O O7 0.785334 0.526276 0.662989
O O8 0.011364 0.472085 0.826055
O O9 0.522237 0.785154 0.038811
O O10 0.635670 0.678096 0.041793
O O11 0.500000 0.500000 0.000000
O O12 0.575485 0.570003 0.340180
O O13 0.500000 0.758716 0.750000
O O14 0.590715 0.695378 0.898331
O O15 0.697002 0.869877 0.909868
O O16 0.867796 0.954698 0.522665
#
# Coordination Sequence:
#
# PCOD8142177 Si02
#       8
#     8   8   8   4   8   8   8   8
#     4  10  23  39  63  95 123 166 210 261 315 379
#     4  11  22  41  62  90 129 164 208 256 320 379
#     4   9  20  39  62  89 121 161 212 252 313 377
#     4  12  22  40  58  92 126 164 208 260 308 376
#     4  10  21  38  63  90 124 169 209 258 312 372
#     4  11  22  40  66  92 126 170 206 259 325 368
#     4  11  23  39  65  90 129 162 216 261 312 375
#     4  10  21  40  65  89 122 169 211 258 315 377
#
# _framework density 21.628820000000001
#
# number of rings (size 3 to 8) (size 9 to 14) (size 15 to 20)
#    0.000    1.600    4.000    2.000    5.600    0.533 
#    0.000    0.667    0.000    0.000    0.000    0.000 
#    0.000    0.000    0.000    0.000    0.000    0.000 
#
# Total GULP energy -371702.884204 kJ/mol
# GULP energy per Si atom -12390.096140 kJ/mol
# Density = 2.157959 g / cm^3
# Si number density = 21.628820 Si / 1000 Ang^3
#
#
#
# Elastic Constant Matrix: (Units=GPa)
#
#
# Indices 1 2 3 4 5 6 
#
# 1 93.6401 18.3543 17.1979 0.0001 2.0681 0.0001
# 2 18.3543 74.2529 13.3758 0.0001 -1.0420 0.0001
# 3 17.1979 13.3758 50.8323 0.0002 -13.0648 0.0003
# 4 0.0001 0.0001 0.0002 25.9410 0.0000 -7.3616
# 5 2.0681 -1.0420 -13.0648 0.0000 35.4239 0.0000
# 6 0.0001 0.0001 0.0003 -7.3616 0.0000 24.7180
#
#
#
# Elastic Compliance Matrix: (Units=1/GPa)
#
#
# Indices 1 2 3 4 5 6 
#
# 1 0.011907 -0.002252 -0.004012 0.000000 -0.002241 0.000000
# 2 -0.002252 0.014599 -0.003243 0.000000 -0.000635 0.000000
# 3 -0.004012 -0.003243 0.024214 0.000000 0.009069 0.000000
# 4 0.000000 0.000000 0.000000 0.042108 0.000000 0.012541
# 5 -0.002241 -0.000635 0.009069 0.000000 0.031687 0.000000
# 6 0.000000 0.000000 0.000000 0.012541 0.000000 0.044191
#
#
# Mechanical properties :
#
#
# Convention : Reuss Voigt Hill
#
# Bulk Modulus (GPa) = 31.53886 35.17572 33.35729
# Shear Modulus (GPa) = 25.21575 28.53640 26.87607
#
# Velocity S-wave (km/s) = 3.41814 3.63625 3.52888
# Velocity P-wave (km/s) = 5.49471 5.82481 5.66217
#
# Compressibility (1/GPa) = 0.03170692
#
# Stress axis : x y z
#
# Youngs Moduli (GPa) = 83.98493 68.49584 41.29814
#
# Poissons Ratio (x) = 0.15425 0.16568
# Poissons Ratio (y) = 0.18913 0.13393
# Poissons Ratio (z) = 0.33693 0.22213
#
# Static dielectric constant tensor:
#      x y z
#    x 4.095040 0.000000 -0.197830 
#    y 0.000000 3.699170 0.000000 
#    z -0.197830 0.000000 4.106170 
# 
# 
# High freq. dielectric constant tensor:
#      x y z
#    x 1.863400 0.000000 -0.010670 
#    y 0.000000 1.818970 0.000000 
#    z -0.010670 0.000000 1.845310 
# 
# From -- ./inp_files/302100.got.cif
#   From: 2010.06.25/outbox.cif.g09.slc.cpg/sg15_152_cif.got.tgz:302100.got - 2010.06.28 07:06:18.
