data_PCOD8142930
_publ_section_title
;
Structure prediction by ZEFSAII (Michael W. Deem and Ramdas Pophale) SiO2 
 PCOD8142930
Probable space group: C 2/C
;
_chemical_formula_sum "Si O2"
_cell_formula_units_Z 56
_cell_length_a 17.698019
_cell_length_b 12.574046
_cell_length_c 13.620291
_cell_angle_alpha 90.000000
_cell_angle_beta 57.555171
_cell_angle_gamma 90.000000
_cell_volume 2557.887343
_symmetry_space_group_name_H-M "C 2/C"
_symmetry_group_IT_number 15
_symmetry_cell_setting 'monoclinic'
loop_
_space_group_symop_operation_xyz
x,y,z
-x,y,1/2-z
-x,-y,-z
x,-y,1/2+z
1/2+x,1/2+y,z
1/2-x,1/2+y,1/2-z
1/2-x,1/2-y,-z
1/2+x,1/2-y,1/2+z
loop_
_atom_site_type_symbol
_atom_site_label
_atom_site_fract_x
_atom_site_fract_y
_atom_site_fract_z
Si Si1 0.088336 0.995240 0.005789
Si Si2 0.500000 0.191093 0.250000
Si Si3 0.842332 0.771684 0.492994
Si Si4 0.396683 0.885754 0.117947
Si Si5 0.131263 0.250371 0.181717
Si Si6 0.920591 0.612660 0.116813
Si Si7 0.335692 0.277503 0.054735
Si Si8 0.500000 0.422800 0.750000
O O1 0.147694 0.887182 0.960776
O O2 0.053381 0.001263 0.140580
O O3 0.154056 0.095316 0.937161
O O4 0.000000 0.000000 0.000000
O O5 0.427341 0.260285 0.361061
O O6 0.449503 0.113951 0.209873
O O7 0.750000 0.750000 0.500000
O O8 0.839860 0.687171 0.583835
O O9 0.393858 0.849700 0.233308
O O10 0.360127 0.007395 0.141146
O O11 0.498702 0.888497 0.015614
O O12 0.236360 0.232595 0.114623
O O13 0.072777 0.149387 0.258779
O O14 0.108847 0.262387 0.080438
O O15 0.869389 0.721776 0.130191
#
# Coordination Sequence:
#
# PCOD8142930 Si02
#       8
#     8   4   8   8   8   8   8   4
#     4  11  22  42  66  94 132 177 222 277 345 418
#     4  10  23  43  64  92 138 183 219 294 350 402
#     4  11  25  42  66 100 140 179 234 281 353 430
#     4  10  22  40  63  92 125 174 220 276 340 410
#     4  10  21  40  62  94 125 166 219 276 334 398
#     4  10  22  41  64  92 127 173 226 280 341 408
#     4  10  23  39  65  95 131 167 227 286 333 401
#     4  10  21  39  68  90 126 175 219 276 338 406
#
# _framework density 21.893066000000001
#
# number of rings (size 3 to 8) (size 9 to 14) (size 15 to 20)
#    0.000    1.714    0.000    4.714    2.000    8.571 
#    2.571    0.000    0.000    0.000    0.000    0.000 
#    0.000    0.000    0.000    0.000    0.000    0.000 
#
# Total GULP energy -346946.479073 kJ/mol
# GULP energy per Si atom -12390.945681 kJ/mol
# Density = 2.184324 g / cm^3
# Si number density = 21.893066 Si / 1000 Ang^3
#
#
#
# Elastic Constant Matrix: (Units=GPa)
#
#
# Indices 1 2 3 4 5 6 
#
# 1 123.7610 71.7814 19.0383 0.0000 11.5505 0.0000
# 2 71.7814 170.3167 37.2787 0.0000 18.6634 0.0000
# 3 19.0383 37.2787 67.5875 0.0000 14.7284 0.0000
# 4 0.0000 0.0000 0.0000 22.9653 0.0000 9.8866
# 5 11.5505 18.6634 14.7284 0.0000 28.3992 0.0000
# 6 0.0000 0.0000 0.0000 9.8866 0.0000 27.8447
#
#
#
# Elastic Compliance Matrix: (Units=1/GPa)
#
#
# Indices 1 2 3 4 5 6 
#
# 1 0.010761 -0.004308 -0.000359 0.000000 -0.001360 0.000000
# 2 -0.004308 0.008605 -0.003024 0.000000 -0.002335 0.000000
# 3 -0.000359 -0.003024 0.018151 0.000000 -0.007280 0.000000
# 4 0.000000 0.000000 0.000000 0.051401 0.000000 -0.018250
# 5 -0.001360 -0.002335 -0.007280 0.000000 0.041075 0.000000
# 6 0.000000 0.000000 0.000000 -0.018250 0.000000 0.042393
#
#
# Mechanical properties :
#
#
# Convention : Reuss Voigt Hill
#
# Bulk Modulus (GPa) = 45.17622 68.65133 56.91378
# Shear Modulus (GPa) = 25.62202 31.41298 28.51750
#
# Velocity S-wave (km/s) = 3.42471 3.79203 3.61304
# Velocity P-wave (km/s) = 6.02644 7.11325 6.59228
#
# Compressibility (1/GPa) = 0.02213554
#
# Stress axis : x y z
#
# Youngs Moduli (GPa) = 92.93164 116.21743 55.09315
#
# Poissons Ratio (x) = 0.50062 0.01977
# Poissons Ratio (y) = 0.40031 0.16659
# Poissons Ratio (z) = 0.03335 0.35142
#
# Static dielectric constant tensor:
#      x y z
#    x 3.862980 0.000000 0.085620 
#    y 0.000000 4.115190 0.000000 
#    z 0.085620 0.000000 4.091330 
# 
# 
# High freq. dielectric constant tensor:
#      x y z
#    x 1.854150 0.000000 0.006950 
#    y 0.000000 1.857870 0.000000 
#    z 0.006950 0.000000 1.865180 
# 
# From -- ./inp_files/161282.got.cif
#   From: 2010.06.25/outbox.cif.g09.slc.cpg/sg15_81_cif.got.tgz:161282.got - 2010.06.28 07:06:18.
