data_PCOD8142860
_publ_section_title
;
Structure prediction by ZEFSAII (Michael W. Deem and Ramdas Pophale) SiO2 
 PCOD8142860
Probable space group: C 2/C
;
_chemical_formula_sum "Si O2"
_cell_formula_units_Z 56
_cell_length_a 8.955484
_cell_length_b 26.547194
_cell_length_c 18.206379
_cell_angle_alpha 90.000000
_cell_angle_beta 144.141506
_cell_angle_gamma 90.000000
_cell_volume 2535.536139
_symmetry_space_group_name_H-M "C 2/C"
_symmetry_group_IT_number 15
_symmetry_cell_setting 'monoclinic'
loop_
_space_group_symop_operation_xyz
x,y,z
-x,y,1/2-z
-x,-y,-z
x,-y,1/2+z
1/2+x,1/2+y,z
1/2-x,1/2+y,1/2-z
1/2-x,1/2-y,-z
1/2+x,1/2-y,1/2+z
loop_
_atom_site_type_symbol
_atom_site_label
_atom_site_fract_x
_atom_site_fract_y
_atom_site_fract_z
Si Si1 0.277776 0.412158 0.517424
Si Si2 0.112281 0.696845 0.444716
Si Si3 0.733859 0.026037 0.134622
Si Si4 0.599048 0.987234 0.869065
Si Si5 0.232382 0.886465 0.602802
Si Si6 0.536867 0.182288 0.953614
Si Si7 0.934373 0.233091 0.304124
O O1 0.318795 0.424739 0.620807
O O2 0.222240 0.463794 0.453609
O O3 0.511011 0.381401 0.574549
O O4 0.038218 0.373590 0.418334
O O5 0.250000 0.750000 0.500000
O O6 0.277808 0.658225 0.461320
O O7 0.106755 0.678106 0.526201
O O8 0.826137 0.701100 0.298631
O O9 0.000000 0.994188 0.250000
O O10 0.636877 0.036311 0.178319
O O11 0.500000 0.000000 0.000000
O O12 0.500000 0.002952 0.750000
O O13 0.804022 0.941734 0.948944
O O14 0.500000 0.885931 0.750000
O O15 0.832911 0.197911 0.079310
O O16 0.390421 0.220787 0.842421
O O17 0.000000 0.255575 0.250000
#
# Coordination Sequence:
#
# PCOD8142860 Si02
#       7
#     8   8   8   8   8   8   8
#     4  11  23  39  67  96 134 178 223 276 336 411
#     4  11  25  40  64  96 129 169 220 281 337 394
#     4  10  21  39  66  95 132 178 227 279 333 399
#     4  10  22  42  64  98 135 178 222 276 333 406
#     4  11  23  38  64  95 132 169 222 276 326 389
#     4  10  22  41  64  93 127 172 221 270 337 400
#     4   9  21  40  66  90 127 169 223 275 335 398
#
# _framework density 22.086058000000001
#
# number of rings (size 3 to 8) (size 9 to 14) (size 15 to 20)
#    0.000    1.714    0.000    3.857    8.000    3.429 
#    0.000    0.000    6.286    0.000    0.000    0.000 
#    0.000    0.000    0.000    0.000    0.000    0.000 
#
# Total GULP energy -346989.397964 kJ/mol
# GULP energy per Si atom -12392.478499 kJ/mol
# Density = 2.203579 g / cm^3
# Si number density = 22.086058 Si / 1000 Ang^3
#
#
#
# Elastic Constant Matrix: (Units=GPa)
#
#
# Indices 1 2 3 4 5 6 
#
# 1 170.7108 50.6346 31.3868 -0.0024 -16.6233 0.0027
# 2 50.6346 124.2778 16.1046 -0.0099 -17.1494 0.0066
# 3 31.3868 16.1046 62.9330 -0.0141 -9.4948 0.0348
# 4 -0.0024 -0.0099 -0.0141 21.8277 0.0035 -5.6153
# 5 -16.6233 -17.1494 -9.4948 0.0035 36.1633 -0.0008
# 6 0.0027 0.0066 0.0348 -5.6153 -0.0008 46.2868
#
#
#
# Elastic Compliance Matrix: (Units=1/GPa)
#
#
# Indices 1 2 3 4 5 6 
#
# 1 0.007215 -0.002379 -0.002769 -0.000002 0.001461 0.000002
# 2 -0.002379 0.009563 -0.000772 0.000003 0.003239 0.000000
# 3 -0.002769 -0.000772 0.017932 0.000007 0.003069 -0.000012
# 4 -0.000002 0.000003 0.000007 0.047289 -0.000002 0.005737
# 5 0.001461 0.003239 0.003069 -0.000002 0.030666 -0.000003
# 6 0.000002 0.000000 -0.000012 0.005737 -0.000003 0.022300
#
#
# Mechanical properties :
#
#
# Convention : Reuss Voigt Hill
#
# Bulk Modulus (GPa) = 43.72741 61.57484 52.65112
# Shear Modulus (GPa) = 32.37764 38.17528 35.27646
#
# Velocity S-wave (km/s) = 3.83296 4.16201 4.00087
# Velocity P-wave (km/s) = 6.27936 7.14398 6.72558
#
# Compressibility (1/GPa) = 0.02286895
#
# Stress axis : x y z
#
# Youngs Moduli (GPa) = 138.60125 104.57252 55.76771
#
# Poissons Ratio (x) = 0.24879 0.15442
# Poissons Ratio (y) = 0.32975 0.04305
# Poissons Ratio (z) = 0.38380 0.08072
#
# Static dielectric constant tensor:
#      x y z
#    x 4.779300 -0.000030 -0.177430 
#    y -0.000030 3.963060 0.000030 
#    z -0.177430 0.000030 3.749080 
# 
# 
# High freq. dielectric constant tensor:
#      x y z
#    x 1.898670 0.000000 -0.009780 
#    y 0.000000 1.861300 0.000000 
#    z -0.009780 0.000000 1.844820 
# 
# From -- ./inp_files/193906.got.cif
#   From: 2010.06.25/outbox.cif.g09.slc.cpg/sg15_97_cif.got.tgz:193906.got - 2010.06.28 07:06:18.
