data_PCOD8142662
_publ_section_title
;
Structure prediction by ZEFSAII (Michael W. Deem and Ramdas Pophale) SiO2 
 PCOD8142662
Probable space group: C 2/C
;
_chemical_formula_sum "Si O2"
_cell_formula_units_Z 56
_cell_length_a 7.770468
_cell_length_b 24.572670
_cell_length_c 15.665383
_cell_angle_alpha 90.000000
_cell_angle_beta 108.532391
_cell_angle_gamma 90.000000
_cell_volume 2836.056632
_symmetry_space_group_name_H-M "C 2/C"
_symmetry_group_IT_number 15
_symmetry_cell_setting 'monoclinic'
loop_
_space_group_symop_operation_xyz
x,y,z
-x,y,1/2-z
-x,-y,-z
x,-y,1/2+z
1/2+x,1/2+y,z
1/2-x,1/2+y,1/2-z
1/2-x,1/2-y,-z
1/2+x,1/2-y,1/2+z
loop_
_atom_site_type_symbol
_atom_site_label
_atom_site_fract_x
_atom_site_fract_y
_atom_site_fract_z
Si Si1 0.182852 0.622529 0.040038
Si Si2 0.208700 0.936941 0.786639
Si Si3 0.305808 0.050238 0.749970
Si Si4 0.291957 0.681672 0.213152
Si Si5 0.807127 0.795611 0.250110
Si Si6 0.208542 0.627229 0.600171
Si Si7 0.605006 0.374605 0.100157
O O1 0.225402 0.569055 0.104490
O O2 0.224815 0.676367 0.104172
O O3 0.322879 0.621709 0.984244
O O4 0.971120 0.621259 0.984239
O O5 0.237366 0.877364 0.745003
O O6 0.000000 0.953724 0.750000
O O7 0.315316 0.984616 0.755508
O O8 0.500000 0.072119 0.750000
O O9 0.262488 0.074042 0.836602
O O10 0.154930 0.069991 0.658569
O O11 0.500000 0.699359 0.250000
O O12 0.189815 0.730366 0.244948
O O13 0.673608 0.820042 0.156565
O O14 0.783077 0.824329 0.338467
O O15 0.000000 0.817732 0.250000
O O16 0.385858 0.633533 0.566953
#
# Coordination Sequence:
#
# PCOD8142662 Si02
#       7
#     8   8   8   8   8   8   8
#     4  10  21  41  59  90 122 151 206 245 300 346
#     4   9  21  42  56  82 124 160 201 237 295 372
#     4  11  20  38  64  87 117 161 197 243 299 357
#     4   9  21  40  58  82 121 164 194 240 299 364
#     4   9  20  38  60  87 118 157 200 240 297 358
#     4  10  21  39  63  91 120 152 201 251 292 351
#     4  10  21  39  63  91 120 153 199 252 294 345
#
# _framework density 19.745728
#
# number of rings (size 3 to 8) (size 9 to 14) (size 15 to 20)
#    0.857    1.429    1.429    2.143    2.000    1.714 
#    5.143    2.857    0.000    0.000    0.000    0.000 
#    0.000    0.000    0.000    0.000    0.000    0.000 
#
# Total GULP energy -346899.171364 kJ/mol
# GULP energy per Si atom -12389.256120 kJ/mol
# Density = 1.970079 g / cm^3
# Si number density = 19.745728 Si / 1000 Ang^3
#
#
#
# Elastic Constant Matrix: (Units=GPa)
#
#
# Indices 1 2 3 4 5 6 
#
# 1 104.1896 19.8873 43.9096 0.0000 12.9867 0.0000
# 2 19.8873 124.1935 29.3565 0.0000 -6.8975 0.0000
# 3 43.9096 29.3565 93.8037 0.0000 22.9753 0.0000
# 4 0.0000 0.0000 0.0000 17.0759 0.0000 -7.6682
# 5 12.9867 -6.8975 22.9753 0.0000 25.7289 0.0000
# 6 0.0000 0.0000 0.0000 -7.6682 0.0000 22.8098
#
#
#
# Elastic Compliance Matrix: (Units=1/GPa)
#
#
# Indices 1 2 3 4 5 6 
#
# 1 0.012074 -0.000885 -0.004894 0.000000 -0.001961 0.000000
# 2 -0.000885 0.009577 -0.004251 0.000000 0.006810 0.000000
# 3 -0.004894 -0.004251 0.017863 0.000000 -0.014620 0.000000
# 4 0.000000 0.000000 0.000000 0.068975 0.000000 0.023188
# 5 -0.001961 0.006810 -0.014620 0.000000 0.054738 0.000000
# 6 0.000000 0.000000 0.000000 0.023188 0.000000 0.051636
#
#
# Mechanical properties :
#
#
# Convention : Reuss Voigt Hill
#
# Bulk Modulus (GPa) = 51.40684 56.49928 53.95306
# Shear Modulus (GPa) = 20.71188 28.39183 24.55186
#
# Velocity S-wave (km/s) = 3.24223 3.79604 3.53001
# Velocity P-wave (km/s) = 6.33301 6.92017 6.63309
#
# Compressibility (1/GPa) = 0.01945266
#
# Stress axis : x y z
#
# Youngs Moduli (GPa) = 82.82232 104.42030 55.98242
#
# Poissons Ratio (x) = 0.09246 0.27400
# Poissons Ratio (y) = 0.07333 0.23796
# Poissons Ratio (z) = 0.40537 0.44384
#
# Static dielectric constant tensor:
#      x y z
#    x 3.442420 0.000000 0.124040 
#    y 0.000000 3.389090 0.000000 
#    z 0.124040 0.000000 3.428000 
# 
# 
# High freq. dielectric constant tensor:
#      x y z
#    x 1.769230 0.000000 0.013390 
#    y 0.000000 1.761730 0.000000 
#    z 0.013390 0.000000 1.751580 
# 
# From -- ./inp_files/138279.got.cif
#   From: 2010.06.25/outbox.cif.g09.slc.cpg/sg15_70_cif.got.tgz:138279.got - 2010.06.28 07:06:18.
