data_PCOD8142661
_publ_section_title
;
Structure prediction by ZEFSAII (Michael W. Deem and Ramdas Pophale) SiO2 
 PCOD8142661
Probable space group: C 2/C
;
_chemical_formula_sum "Si O2"
_cell_formula_units_Z 60
_cell_length_a 7.694024
_cell_length_b 24.096708
_cell_length_c 22.487618
_cell_angle_alpha 90.000000
_cell_angle_beta 44.339562
_cell_angle_gamma 90.000000
_cell_volume 2913.905905
_symmetry_space_group_name_H-M "C 2/C"
_symmetry_group_IT_number 15
_symmetry_cell_setting 'monoclinic'
loop_
_space_group_symop_operation_xyz
x,y,z
-x,y,1/2-z
-x,-y,-z
x,-y,1/2+z
1/2+x,1/2+y,z
1/2-x,1/2+y,1/2-z
1/2-x,1/2-y,-z
1/2+x,1/2-y,1/2+z
loop_
_atom_site_type_symbol
_atom_site_label
_atom_site_fract_x
_atom_site_fract_y
_atom_site_fract_z
Si Si1 0.641364 0.333264 0.499825
Si Si2 0.774105 0.388677 0.267664
Si Si3 0.042549 0.048691 0.073463
Si Si4 0.000000 0.819232 0.250000
Si Si5 0.656397 0.036287 0.067442
Si Si6 0.631446 0.639764 0.545849
Si Si7 0.366613 0.220857 0.572944
Si Si8 0.805977 0.995377 0.750418
O O1 0.586272 0.385496 0.555984
O O2 0.604595 0.348819 0.439740
O O3 0.435656 0.285116 0.555988
O O4 0.915193 0.312825 0.447747
O O5 0.734880 0.355131 0.216315
O O6 0.501857 0.387214 0.364791
O O7 0.844407 0.452510 0.238958
O O8 0.000000 0.361939 0.250000
O O9 0.834810 0.026766 0.079626
O O10 0.946323 0.039189 0.164308
O O11 0.291239 0.013162 0.994040
O O12 0.110528 0.780381 0.171957
O O13 0.383286 0.040131 0.163028
O O14 0.685232 0.095539 0.028661
O O15 0.799723 0.693019 0.524842
O O16 0.000000 0.019687 0.750000
#
# Coordination Sequence:
#
# PCOD8142661 Si02
#       8
#     8   8   8   4   8   8   8   8
#     4  10  22  40  65  86 115 167 204 253 313 363
#     4  11  21  36  60  89 127 154 198 253 306 373
#     4  10  22  41  61  90 121 162 208 249 310 377
#     4  10  22  38  56  94 118 158 200 260 308 360
#     4  10  22  38  62  89 120 163 203 251 311 375
#     4  10  21  39  63  91 117 159 204 256 310 365
#     4  10  22  40  62  87 122 154 212 257 305 368
#     4  12  25  37  57  92 132 164 202 250 309 382
#
# _framework density 20.590917999999999
#
# number of rings (size 3 to 8) (size 9 to 14) (size 15 to 20)
#    0.000    1.600    2.000    2.400    7.467    0.533 
#    4.800    0.000    0.000    0.800    0.000    0.000 
#    0.000    0.000    0.000    0.000    0.000    0.000 
#
# Total GULP energy -371754.179493 kJ/mol
# GULP energy per Si atom -12391.805983 kJ/mol
# Density = 2.054405 g / cm^3
# Si number density = 20.590918 Si / 1000 Ang^3
#
#
#
# Elastic Constant Matrix: (Units=GPa)
#
#
# Indices 1 2 3 4 5 6 
#
# 1 79.2767 11.8128 3.7466 0.0000 5.3304 0.0000
# 2 11.8128 98.3607 36.8503 0.0000 8.6918 0.0000
# 3 3.7466 36.8503 116.3940 0.0000 13.9213 0.0000
# 4 0.0000 0.0000 0.0000 17.0245 0.0000 -3.5406
# 5 5.3304 8.6918 13.9213 0.0000 19.7721 0.0000
# 6 0.0000 0.0000 0.0000 -3.5406 0.0000 23.1784
#
#
#
# Elastic Compliance Matrix: (Units=1/GPa)
#
#
# Indices 1 2 3 4 5 6 
#
# 1 0.013022 -0.001440 0.000416 0.000000 -0.003171 0.000000
# 2 -0.001440 0.011830 -0.003411 0.000000 -0.002411 0.000000
# 3 0.000416 -0.003411 0.010365 0.000000 -0.005910 0.000000
# 4 0.000000 0.000000 0.000000 0.060666 0.000000 0.009267
# 5 -0.003171 -0.002411 -0.005910 0.000000 0.056652 0.000000
# 6 0.000000 0.000000 0.000000 0.009267 0.000000 0.044559
#
#
# Mechanical properties :
#
#
# Convention : Reuss Voigt Hill
#
# Bulk Modulus (GPa) = 37.95299 44.31676 41.13488
# Shear Modulus (GPa) = 23.28323 28.10312 25.69318
#
# Velocity S-wave (km/s) = 3.36631 3.69837 3.53624
# Velocity P-wave (km/s) = 5.79494 6.30924 6.05755
#
# Compressibility (1/GPa) = 0.02634838
#
# Stress axis : x y z
#
# Youngs Moduli (GPa) = 76.79270 84.52772 96.47941
#
# Poissons Ratio (x) = 0.12168 -0.04012
# Poissons Ratio (y) = 0.11054 0.32907
# Poissons Ratio (z) = -0.03193 0.28831
#
# Static dielectric constant tensor:
#      x y z
#    x 3.818140 0.000000 0.159310 
#    y 0.000000 3.596960 0.000000 
#    z 0.159310 0.000000 3.647020 
# 
# 
# High freq. dielectric constant tensor:
#      x y z
#    x 1.815880 0.000000 0.006550 
#    y 0.000000 1.789680 0.000000 
#    z 0.006550 0.000000 1.801740 
# 
# From -- ./inp_files/266517.got.cif
#   From: 2010.06.25/outbox.cif.g09.slc.cpg/sg15_134_cif.got.tgz:266517.got - 2010.06.28 07:06:18.
