data_PCOD8142626
_publ_section_title
;
Structure prediction by ZEFSAII (Michael W. Deem and Ramdas Pophale) SiO2 
 PCOD8142626
Probable space group: C 2/C
;
_chemical_formula_sum "Si O2"
_cell_formula_units_Z 48
_cell_length_a 22.784417
_cell_length_b 9.076621
_cell_length_c 11.227666
_cell_angle_alpha 90.000000
_cell_angle_beta 113.490968
_cell_angle_gamma 90.000000
_cell_volume 2129.507404
_symmetry_space_group_name_H-M "C 2/C"
_symmetry_group_IT_number 15
_symmetry_cell_setting 'monoclinic'
loop_
_space_group_symop_operation_xyz
x,y,z
-x,y,1/2-z
-x,-y,-z
x,-y,1/2+z
1/2+x,1/2+y,z
1/2-x,1/2+y,1/2-z
1/2-x,1/2-y,-z
1/2+x,1/2-y,1/2+z
loop_
_atom_site_type_symbol
_atom_site_label
_atom_site_fract_x
_atom_site_fract_y
_atom_site_fract_z
Si Si1 0.125109 0.182001 0.301151
Si Si2 0.937844 0.107605 0.769960
Si Si3 0.379982 0.742236 0.925856
Si Si4 0.352827 0.939693 0.351907
Si Si5 0.677349 0.281630 0.479299
Si Si6 0.709232 0.500777 0.205032
O O1 0.127038 0.227190 0.439375
O O2 0.114219 0.330941 0.216741
O O3 0.065798 0.070093 0.235488
O O4 0.189198 0.093159 0.308476
O O5 0.940065 0.157485 0.911272
O O6 0.873221 0.182172 0.664556
O O7 0.000000 0.163274 0.750000
O O8 0.316571 0.667347 0.815497
O O9 0.392368 0.911252 0.899964
O O10 0.347102 0.864571 0.475286
O O11 0.284274 0.993189 0.249134
O O12 0.750000 0.250000 0.500000
O O13 0.675668 0.419975 0.566623
#
# Coordination Sequence:
#
# PCOD8142626 Si02
#       6
#     8   8   8   8   8   8
#     4  10  23  44  61  96 133 179 234 277 338 409
#     4  11  25  48  72  96 131 183 240 280 335 420
#     4  11  23  41  66  94 134 179 227 281 348 401
#     4  11  24  37  64 100 142 174 219 290 349 403
#     4  11  22  41  68 102 141 177 224 282 340 406
#     4  10  21  39  62  99 136 183 228 271 338 411
#
# _framework density 22.540424000000002
#
# number of rings (size 3 to 8) (size 9 to 14) (size 15 to 20)
#    0.000    1.333    1.667    5.000    4.667    2.000 
#    0.000    1.667    0.000    0.000    0.000    0.000 
#    0.000    0.000    0.000    0.000    0.000    0.000 
#
# Total GULP energy -297408.122002 kJ/mol
# GULP energy per Si atom -12392.005083 kJ/mol
# Density = 2.248912 g / cm^3
# Si number density = 22.540424 Si / 1000 Ang^3
#
#
#
# Elastic Constant Matrix: (Units=GPa)
#
#
# Indices 1 2 3 4 5 6 
#
# 1 115.6927 32.1186 45.9161 0.0000 -28.0864 0.0000
# 2 32.1186 166.8949 53.0927 0.0000 -17.2857 0.0000
# 3 45.9161 53.0927 98.2384 0.0000 -36.3425 0.0000
# 4 0.0000 0.0000 0.0000 24.7769 0.0000 -16.6293
# 5 -28.0864 -17.2857 -36.3425 0.0000 33.5957 0.0000
# 6 0.0000 0.0000 0.0000 -16.6293 0.0000 18.9733
#
#
#
# Elastic Compliance Matrix: (Units=1/GPa)
#
#
# Indices 1 2 3 4 5 6 
#
# 1 0.011418 -0.000712 -0.002594 0.000000 0.006373 0.000000
# 2 -0.000712 0.007295 -0.004070 0.000000 -0.001245 0.000000
# 3 -0.002594 -0.004070 0.020030 0.000000 0.017405 0.000000
# 4 0.000000 0.000000 0.000000 0.098020 0.000000 0.085910
# 5 0.006373 -0.001245 0.017405 0.000000 0.053281 0.000000
# 6 0.000000 0.000000 0.000000 0.085910 0.000000 0.128002
#
#
# Mechanical properties :
#
#
# Convention : Reuss Voigt Hill
#
# Bulk Modulus (GPa) = 41.68388 71.45342 56.56865
# Shear Modulus (GPa) = 14.67157 32.11576 23.39366
#
# Velocity S-wave (km/s) = 2.55404 3.77876 3.22507
# Velocity P-wave (km/s) = 5.21829 7.12795 6.24653
#
# Compressibility (1/GPa) = 0.02399009
#
# Stress axis : x y z
#
# Youngs Moduli (GPa) = 87.58102 137.08623 49.92401
#
# Poissons Ratio (x) = 0.09761 0.12952
# Poissons Ratio (y) = 0.06236 0.20320
# Poissons Ratio (z) = 0.22722 0.55796
#
# Static dielectric constant tensor:
#      x y z
#    x 3.843230 0.000000 -0.427790 
#    y 0.000000 4.383740 0.000000 
#    z -0.427790 0.000000 3.970160 
# 
# 
# High freq. dielectric constant tensor:
#      x y z
#    x 1.864310 0.000000 -0.043880 
#    y 0.000000 1.905230 0.000000 
#    z -0.043880 0.000000 1.878200 
# 
# From -- ./inp_files/116458.got.cif
#   From: 2010.06.25/outbox.cif.g09.slc.cpg/sg15_59_cif.got.tgz:116458.got - 2010.06.28 07:06:18.
