data_PCOD8142428
_publ_section_title
;
Structure prediction by ZEFSAII (Michael W. Deem and Ramdas Pophale) SiO2 
 PCOD8142428
Probable space group: C 2/C
;
_chemical_formula_sum "Si O2"
_cell_formula_units_Z 48
_cell_length_a 24.256921
_cell_length_b 8.368195
_cell_length_c 18.540639
_cell_angle_alpha 90.000000
_cell_angle_beta 42.858114
_cell_angle_gamma 90.000000
_cell_volume 2559.878293
_symmetry_space_group_name_H-M "C 2/C"
_symmetry_group_IT_number 15
_symmetry_cell_setting 'monoclinic'
loop_
_space_group_symop_operation_xyz
x,y,z
-x,y,1/2-z
-x,-y,-z
x,-y,1/2+z
1/2+x,1/2+y,z
1/2-x,1/2+y,1/2-z
1/2-x,1/2-y,-z
1/2+x,1/2-y,1/2+z
loop_
_atom_site_type_symbol
_atom_site_label
_atom_site_fract_x
_atom_site_fract_y
_atom_site_fract_z
Si Si1 0.284823 0.872488 0.632287
Si Si2 0.766552 0.517272 0.805462
Si Si3 0.819462 0.862766 0.897593
Si Si4 0.591872 0.963539 0.581263
Si Si5 0.409312 0.921916 0.267384
Si Si6 0.187618 0.835228 0.005871
O O1 0.284608 0.680915 0.640289
O O2 0.217148 0.934876 0.641080
O O3 0.267314 0.958475 0.723631
O O4 0.370859 0.927436 0.517543
O O5 0.858231 0.545405 0.744558
O O6 0.729104 0.380016 0.890795
O O7 0.901097 0.765667 0.796949
O O8 0.846831 0.004597 0.923826
O O9 0.750000 0.750000 0.000000
O O10 0.612178 0.775967 0.552584
O O11 0.629684 0.995101 0.624418
O O12 0.498013 0.009489 0.669481
O O13 0.250000 0.750000 0.000000
#
# Coordination Sequence:
#
# PCOD8142428 Si02
#       6
#     8   8   8   8   8   8
#     4  11  21  36  59  89 117 158 203 244 297 349
#     4  11  22  37  61  85 116 158 204 247 293 355
#     4  11  18  39  64  87 113 159 200 248 290 351
#     4  11  21  36  60  87 123 152 195 250 299 356
#     4  10  21  39  58  84 123 159 193 238 308 358
#     4  12  19  35  65  93 114 151 205 255 286 350
#
# _framework density 18.750892
#
# number of rings (size 3 to 8) (size 9 to 14) (size 15 to 20)
#    0.000    1.000    8.333    1.000    0.000    0.667 
#    0.000    6.667    0.000    5.000    0.000    0.000 
#    0.000    0.000    0.000    0.000    0.000    0.000 
#
# Total GULP energy -297397.849378 kJ/mol
# GULP energy per Si atom -12391.577057 kJ/mol
# Density = 1.870821 g / cm^3
# Si number density = 18.750892 Si / 1000 Ang^3
#
#
#
# Elastic Constant Matrix: (Units=GPa)
#
#
# Indices 1 2 3 4 5 6 
#
# 1 81.8556 56.2041 59.0392 0.0033 10.3302 -0.0026
# 2 56.2041 123.7388 72.7123 0.0065 -9.5831 -0.0058
# 3 59.0392 72.7123 128.8665 0.0025 13.7016 -0.0033
# 4 0.0033 0.0065 0.0025 36.6470 -0.0023 7.8613
# 5 10.3302 -9.5831 13.7016 -0.0023 37.3331 0.0024
# 6 -0.0026 -0.0058 -0.0033 7.8613 0.0024 29.9568
#
#
#
# Elastic Compliance Matrix: (Units=1/GPa)
#
#
# Indices 1 2 3 4 5 6 
#
# 1 0.021717 -0.007257 -0.005221 -0.000001 -0.005956 0.000001
# 2 -0.007257 0.015874 -0.006534 -0.000002 0.008481 0.000001
# 3 -0.005221 -0.006534 0.014426 0.000000 -0.005527 0.000000
# 4 -0.000001 -0.000002 0.000000 0.028915 0.000002 -0.007588
# 5 -0.005956 0.008481 -0.005527 0.000002 0.032639 -0.000003
# 6 0.000001 0.000001 0.000000 -0.007588 -0.000003 0.035373
#
#
# Mechanical properties :
#
#
# Convention : Reuss Voigt Hill
#
# Bulk Modulus (GPa) = 71.46511 78.93024 75.19767
# Shear Modulus (GPa) = 26.09134 30.55440 28.32287
#
# Velocity S-wave (km/s) = 3.73429 4.04107 3.89071
# Velocity P-wave (km/s) = 7.53584 7.99745 7.77007
#
# Compressibility (1/GPa) = 0.01399284
#
# Stress axis : x y z
#
# Youngs Moduli (GPa) = 46.04604 62.99547 69.31725
#
# Poissons Ratio (x) = 0.45718 0.36194
# Poissons Ratio (y) = 0.33417 0.45290
# Poissons Ratio (z) = 0.24043 0.41160
#
# Static dielectric constant tensor:
#      x y z
#    x 3.340520 0.000000 0.304360 
#    y 0.000000 3.684090 0.000000 
#    z 0.304360 0.000000 3.463330 
# 
# 
# High freq. dielectric constant tensor:
#      x y z
#    x 1.708620 0.000000 0.020460 
#    y 0.000000 1.738660 0.000000 
#    z 0.020460 0.000000 1.722760 
# 
# From -- ./inp_files/218132.got.cif
#   From: 2010.06.25/outbox.cif.g09.slc.cpg/sg15_110_cif.got.tgz:218132.got - 2010.06.28 07:06:18.
