data_PCOD8142959
_publ_section_title
;
Structure prediction by ZEFSAII (Michael W. Deem and Ramdas Pophale) SiO2 
 PCOD8142959
Probable space group: C 2/C
;
_chemical_formula_sum "Si O2"
_cell_formula_units_Z 32
_cell_length_a 13.382620
_cell_length_b 7.515784
_cell_length_c 13.740119
_cell_angle_alpha 90.000000
_cell_angle_beta 67.279953
_cell_angle_gamma 90.000000
_cell_volume 1274.754759
_symmetry_space_group_name_H-M "C 2/C"
_symmetry_group_IT_number 15
_symmetry_cell_setting 'monoclinic'
loop_
_space_group_symop_operation_xyz
x,y,z
-x,y,1/2-z
-x,-y,-z
x,-y,1/2+z
1/2+x,1/2+y,z
1/2-x,1/2+y,1/2-z
1/2-x,1/2-y,-z
1/2+x,1/2-y,1/2+z
loop_
_atom_site_type_symbol
_atom_site_label
_atom_site_fract_x
_atom_site_fract_y
_atom_site_fract_z
Si Si1 0.839195 0.077612 0.360572
Si Si2 0.649524 0.050488 0.574415
Si Si3 0.466379 0.707667 0.923397
Si Si4 0.341674 0.530157 0.137803
O O1 0.720490 0.045262 0.449561
O O2 0.895180 0.251049 0.389484
O O3 0.828694 0.108081 0.250033
O O4 0.916281 0.912391 0.355945
O O5 0.549208 0.914433 0.599890
O O6 0.723082 0.998862 0.639117
O O7 0.593090 0.658579 0.886631
O O8 0.405533 0.672345 0.048015
#
# Coordination Sequence:
#
# PCOD8142959 Si02
#       4
#     8   8   8   8
#     4  10  21  40  61  96 131 168 224 276 327 408
#     4  10  23  40  66  95 133 173 221 280 332 403
#     4  10  22  43  61  97 136 166 221 282 324 405
#     4  10  21  39  69  91 130 180 216 271 344 390
#
# _framework density 25.102867
#
# number of rings (size 3 to 8) (size 9 to 14) (size 15 to 20)
#    0.000    2.000    0.000    3.750    7.000    0.000 
#    0.000   27.500    0.000    3.000    0.000    0.000 
#    0.000    0.000    0.000    0.000    0.000    0.000 
#
# Total GULP energy -198410.362500 kJ/mol
# GULP energy per Si atom -12400.647656 kJ/mol
# Density = 2.504573 g / cm^3
# Si number density = 25.102867 Si / 1000 Ang^3
#
#
#
# Elastic Constant Matrix: (Units=GPa)
#
#
# Indices 1 2 3 4 5 6 
#
# 1 63.5363 26.9572 20.1726 0.0000 12.3275 0.0000
# 2 26.9572 145.8080 6.2077 0.0000 -4.0224 0.0000
# 3 20.1726 6.2077 132.0523 0.0000 33.7394 0.0000
# 4 0.0000 0.0000 0.0000 15.0989 0.0000 5.4568
# 5 12.3275 -4.0224 33.7394 0.0000 26.3347 0.0000
# 6 0.0000 0.0000 0.0000 5.4568 0.0000 49.3717
#
#
#
# Elastic Compliance Matrix: (Units=1/GPa)
#
#
# Indices 1 2 3 4 5 6 
#
# 1 0.019236 -0.003785 -0.000464 0.000000 -0.008988 0.000000
# 2 -0.003785 0.007702 -0.000798 0.000000 0.003971 0.000000
# 3 -0.000464 -0.000798 0.011383 0.000000 -0.014488 0.000000
# 4 0.000000 0.000000 0.000000 0.068986 0.000000 -0.007625
# 5 -0.008988 0.003971 -0.014488 0.000000 0.061349 0.000000
# 6 0.000000 0.000000 0.000000 -0.007625 0.000000 0.021097
#
#
# Mechanical properties :
#
#
# Convention : Reuss Voigt Hill
#
# Bulk Modulus (GPa) = 35.42833 49.78574 42.60704
# Shear Modulus (GPa) = 23.89428 37.36498 30.62963
#
# Velocity S-wave (km/s) = 3.08856 3.86226 3.49688
# Velocity P-wave (km/s) = 5.18294 6.30596 5.77183
#
# Compressibility (1/GPa) = 0.02822600
#
# Stress axis : x y z
#
# Youngs Moduli (GPa) = 51.98583 129.84365 87.85063
#
# Poissons Ratio (x) = 0.49140 0.04078
# Poissons Ratio (y) = 0.19674 0.07015
# Poissons Ratio (z) = 0.02413 0.10368
#
# Static dielectric constant tensor:
#      x y z
#    x 4.329580 0.000000 0.154350 
#    y 0.000000 4.486370 0.000000 
#    z 0.154350 0.000000 4.533450 
# 
# 
# High freq. dielectric constant tensor:
#      x y z
#    x 1.984780 0.000000 0.019400 
#    y 0.000000 1.990000 0.000000 
#    z 0.019400 0.000000 2.005650 
# 
# From -- ./inp_files/149799.got.cif
#   From: 2010.06.25/outbox.cif.g09.slc.cpg/sg15_75_cif.got.tgz:149799.got - 2010.06.28 07:06:18.
