data_PCOD8142933
_publ_section_title
;
Structure prediction by ZEFSAII (Michael W. Deem and Ramdas Pophale) SiO2 
 PCOD8142933
Probable space group: C 2/C
;
_chemical_formula_sum "Si O2"
_cell_formula_units_Z 52
_cell_length_a 8.793398
_cell_length_b 19.379526
_cell_length_c 22.658313
_cell_angle_alpha 90.000000
_cell_angle_beta 138.116955
_cell_angle_gamma 90.000000
_cell_volume 2577.815092
_symmetry_space_group_name_H-M "C 2/C"
_symmetry_group_IT_number 15
_symmetry_cell_setting 'monoclinic'
loop_
_space_group_symop_operation_xyz
x,y,z
-x,y,1/2-z
-x,-y,-z
x,-y,1/2+z
1/2+x,1/2+y,z
1/2-x,1/2+y,1/2-z
1/2-x,1/2-y,-z
1/2+x,1/2-y,1/2+z
loop_
_atom_site_type_symbol
_atom_site_label
_atom_site_fract_x
_atom_site_fract_y
_atom_site_fract_z
Si Si1 0.500000 0.485413 0.250000
Si Si2 0.037215 0.200153 0.928026
Si Si3 0.396724 0.617180 0.277950
Si Si4 0.787432 0.584438 0.476696
Si Si5 0.325733 0.799442 0.073706
Si Si6 0.765884 0.067665 0.566819
Si Si7 0.822181 0.254330 0.749692
O O1 0.331324 0.538354 0.238314
O O2 0.629180 0.439374 0.335988
O O3 0.110343 0.120765 0.940651
O O4 0.858819 0.207264 0.928696
O O5 0.913510 0.217552 0.832739
O O6 0.250000 0.250000 0.000000
O O7 0.500000 0.655996 0.250000
O O8 0.581665 0.620224 0.383087
O O9 0.187308 0.662707 0.241424
O O10 0.824556 0.621365 0.550330
O O11 0.731396 0.503752 0.468530
O O12 0.009594 0.594079 0.500423
O O13 0.577104 0.778603 0.166289
O O14 0.250000 0.750000 0.000000
O O15 0.000000 0.238955 0.750000
#
# Coordination Sequence:
#
# PCOD8142933 Si02
#       7
#     4   8   8   8   8   8   8
#     4   8  20  38  68  94 130 178 208 270 324 410
#     4  12  28  42  67 100 132 174 227 275 331 395
#     4   9  19  38  64  94 125 169 218 258 328 385
#     4  10  21  39  68  92 131 178 211 273 325 398
#     4  12  24  44  65  98 137 174 220 278 330 389
#     4  10  22  41  65  98 130 174 225 260 335 398
#     4  12  25  41  67  98 133 176 220 280 332 392
#
# _framework density 20.172121000000001
#
# number of rings (size 3 to 8) (size 9 to 14) (size 15 to 20)
#    0.462    0.923    1.538    4.154    5.385    0.615 
#    0.000    0.000    6.769    0.000    0.000    0.000 
#    0.000    0.000    0.000    0.000    0.000    0.000 
#
# Total GULP energy -322212.146649 kJ/mol
# GULP energy per Si atom -12392.774871 kJ/mol
# Density = 2.012621 g / cm^3
# Si number density = 20.172121 Si / 1000 Ang^3
#
#
#
# Elastic Constant Matrix: (Units=GPa)
#
#
# Indices 1 2 3 4 5 6 
#
# 1 155.2759 65.7966 53.8034 -0.0003 5.5739 -0.0002
# 2 65.7966 106.6437 42.3637 0.0001 1.7084 0.0000
# 3 53.8034 42.3637 79.7705 0.0001 2.3339 -0.0002
# 4 -0.0003 0.0001 0.0001 36.5935 -0.0002 -1.7599
# 5 5.5739 1.7084 2.3339 -0.0002 30.5782 -0.0002
# 6 -0.0002 0.0000 -0.0002 -1.7599 -0.0002 48.4201
#
#
#
# Elastic Compliance Matrix: (Units=1/GPa)
#
#
# Indices 1 2 3 4 5 6 
#
# 1 0.009799 -0.004328 -0.004275 0.000000 -0.001218 0.000000
# 2 -0.004328 0.013797 -0.004418 0.000000 0.000355 0.000000
# 3 -0.004275 -0.004418 0.017776 0.000000 -0.000331 0.000000
# 4 0.000000 0.000000 0.000000 0.027375 0.000000 0.000995
# 5 -0.001218 0.000355 -0.000331 0.000000 0.032930 0.000000
# 6 0.000000 0.000000 0.000000 0.000995 0.000000 0.020689
#
#
# Mechanical properties :
#
#
# Convention : Reuss Voigt Hill
#
# Bulk Modulus (GPa) = 65.23799 73.95751 69.59775
# Shear Modulus (GPa) = 32.56937 35.10011 33.83474
#
# Velocity S-wave (km/s) = 4.02253 4.17589 4.09993
# Velocity P-wave (km/s) = 7.34747 7.74555 7.54913
#
# Compressibility (1/GPa) = 0.01532849
#
# Stress axis : x y z
#
# Youngs Moduli (GPa) = 102.04888 72.48077 56.25695
#
# Poissons Ratio (x) = 0.31370 0.24051
# Poissons Ratio (y) = 0.44167 0.24856
# Poissons Ratio (z) = 0.43628 0.32024
#
# Static dielectric constant tensor:
#      x y z
#    x 3.495790 0.000000 -0.069720 
#    y 0.000000 3.901400 0.000000 
#    z -0.069720 0.000000 3.837530 
# 
# 
# High freq. dielectric constant tensor:
#      x y z
#    x 1.766240 0.000000 -0.009940 
#    y 0.000000 1.798570 0.000000 
#    z -0.009940 0.000000 1.799550 
# 
# From -- ./inp_files/290016.got.cif
#   From: 2010.06.25/outbox.cif.g09.slc.cpg/sg15_146_cif.got.tgz:290016.got - 2010.06.28 07:06:18.
