data_PCOD8142828
_publ_section_title
;
Structure prediction by ZEFSAII (Michael W. Deem and Ramdas Pophale) SiO2 
 PCOD8142828
Probable space group: C 2/C
;
_chemical_formula_sum "Si O2"
_cell_formula_units_Z 60
_cell_length_a 18.576767
_cell_length_b 9.356907
_cell_length_c 26.844426
_cell_angle_alpha 90.000000
_cell_angle_beta 138.545007
_cell_angle_gamma 90.000000
_cell_volume 3089.123268
_symmetry_space_group_name_H-M "C 2/C"
_symmetry_group_IT_number 15
_symmetry_cell_setting 'monoclinic'
loop_
_space_group_symop_operation_xyz
x,y,z
-x,y,1/2-z
-x,-y,-z
x,-y,1/2+z
1/2+x,1/2+y,z
1/2-x,1/2+y,1/2-z
1/2-x,1/2-y,-z
1/2+x,1/2-y,1/2+z
loop_
_atom_site_type_symbol
_atom_site_label
_atom_site_fract_x
_atom_site_fract_y
_atom_site_fract_z
Si Si1 0.354632 0.141890 0.100421
Si Si2 0.504849 0.364571 0.610399
Si Si3 0.500000 0.718221 0.750000
Si Si4 0.893327 0.155873 0.535717
Si Si5 0.409978 0.553528 0.241784
Si Si6 0.173074 0.542220 0.075228
Si Si7 0.161220 0.369043 0.462968
Si Si8 0.965059 0.270173 0.473081
O O1 0.411025 0.176478 0.181408
O O2 0.422179 0.232217 0.094213
O O3 0.356591 0.972366 0.092972
O O4 0.230867 0.188714 0.041664
O O5 0.416281 0.492808 0.564582
O O6 0.584392 0.387177 0.698748
O O7 0.452059 0.209660 0.589031
O O8 0.563106 0.341611 0.586676
O O9 0.563597 0.616350 0.743435
O O10 0.964079 0.182965 0.523700
O O11 0.500000 0.624574 0.250000
O O12 0.287246 0.582356 0.159956
O O13 0.123030 0.398379 0.072678
O O14 0.193866 0.527967 0.026492
O O15 0.088666 0.672690 0.036192
O O16 0.250000 0.250000 0.500000
#
# Coordination Sequence:
#
# PCOD8142828 Si02
#       8
#     8   8   4   8   8   8   8   8
#     4  11  22  37  66  92 125 163 212 269 323 370
#     4  11  22  39  60  93 124 165 209 259 319 381
#     4  10  22  38  58  96 124 162 196 260 328 380
#     4  11  20  39  64  91 120 168 215 263 305 377
#     4  10  21  39  66  90 126 159 206 264 327 373
#     4  10  21  41  62  90 124 173 207 259 325 371
#     4  11  21  38  64  93 121 161 219 268 315 371
#     4  10  22  38  65  86 125 169 219 254 301 391
#
# _framework density 19.422986999999999
#
# number of rings (size 3 to 8) (size 9 to 14) (size 15 to 20)
#    0.400    1.067    4.000    2.000    1.867    0.000 
#    6.000    0.000    0.000    0.000    0.000    0.000 
#    0.000    0.000    0.000    0.000    0.000    0.000 
#
# Total GULP energy -371784.958876 kJ/mol
# GULP energy per Si atom -12392.831963 kJ/mol
# Density = 1.937878 g / cm^3
# Si number density = 19.422987 Si / 1000 Ang^3
#
#
#
# Elastic Constant Matrix: (Units=GPa)
#
#
# Indices 1 2 3 4 5 6 
#
# 1 74.1805 23.4400 32.8509 0.0000 0.5195 0.0000
# 2 23.4400 96.0041 39.2135 0.0000 -6.4019 0.0000
# 3 32.8509 39.2135 134.0073 0.0000 4.0364 0.0000
# 4 0.0000 0.0000 0.0000 32.0136 0.0000 -7.1119
# 5 0.5195 -6.4019 4.0364 0.0000 24.9378 0.0000
# 6 0.0000 0.0000 0.0000 -7.1119 0.0000 36.1512
#
#
#
# Elastic Compliance Matrix: (Units=1/GPa)
#
#
# Indices 1 2 3 4 5 6 
#
# 1 0.015664 -0.002607 -0.003062 0.000000 -0.000500 0.000000
# 2 -0.002607 0.012598 -0.003162 0.000000 0.003800 0.000000
# 3 -0.003062 -0.003162 0.009205 0.000000 -0.002238 0.000000
# 4 0.000000 0.000000 0.000000 0.032664 0.000000 0.006426
# 5 -0.000500 0.003800 -0.002238 0.000000 0.041448 0.000000
# 6 0.000000 0.000000 0.000000 0.006426 0.000000 0.028926
#
#
# Mechanical properties :
#
#
# Convention : Reuss Voigt Hill
#
# Bulk Modulus (GPa) = 50.49099 55.02232 52.75665
# Shear Modulus (GPa) = 30.34565 32.53301 31.43933
#
# Velocity S-wave (km/s) = 3.95695 4.09709 4.02763
# Velocity P-wave (km/s) = 6.85044 7.12541 6.98928
#
# Compressibility (1/GPa) = 0.01980551
#
# Stress axis : x y z
#
# Youngs Moduli (GPa) = 63.84094 79.38034 108.63101
#
# Poissons Ratio (x) = 0.20695 0.33262
# Poissons Ratio (y) = 0.16644 0.34346
# Poissons Ratio (z) = 0.19548 0.25097
#
# Static dielectric constant tensor:
#      x y z
#    x 3.630090 0.000000 -0.153170 
#    y 0.000000 3.511720 0.000000 
#    z -0.153170 0.000000 3.377340 
# 
# 
# High freq. dielectric constant tensor:
#      x y z
#    x 1.749900 0.000000 -0.008620 
#    y 0.000000 1.754660 0.000000 
#    z -0.008620 0.000000 1.742550 
# 
# From -- ./inp_files/300523.got.cif
#   From: 2010.06.25/outbox.cif.g09.slc.cpg/sg15_151_cif.got.tgz:300523.got - 2010.06.28 07:06:18.
