data_PCOD8142217
_publ_section_title
;
Structure prediction by ZEFSAII (Michael W. Deem and Ramdas Pophale) SiO2 
 PCOD8142217
Probable space group: C 2/C
;
_chemical_formula_sum "Si O2"
_cell_formula_units_Z 56
_cell_length_a 9.124972
_cell_length_b 26.307466
_cell_length_c 11.284483
_cell_angle_alpha 90.000000
_cell_angle_beta 116.098984
_cell_angle_gamma 90.000000
_cell_volume 2432.683841
_symmetry_space_group_name_H-M "C 2/C"
_symmetry_group_IT_number 15
_symmetry_cell_setting 'monoclinic'
loop_
_space_group_symop_operation_xyz
x,y,z
-x,y,1/2-z
-x,-y,-z
x,-y,1/2+z
1/2+x,1/2+y,z
1/2-x,1/2+y,1/2-z
1/2-x,1/2-y,-z
1/2+x,1/2-y,1/2+z
loop_
_atom_site_type_symbol
_atom_site_label
_atom_site_fract_x
_atom_site_fract_y
_atom_site_fract_z
Si Si1 0.289340 0.452832 0.985250
Si Si2 0.619545 0.562104 0.512998
Si Si3 0.496139 0.251571 0.919960
Si Si4 0.358222 0.216863 0.290896
Si Si5 0.500000 0.835210 0.250000
Si Si6 0.819696 0.575244 0.804269
Si Si7 0.000000 0.506488 0.250000
Si Si8 0.655036 0.350715 0.866634
O O1 0.351530 0.509205 0.046402
O O2 0.138886 0.455683 0.842411
O O3 0.428769 0.424029 0.959451
O O4 0.244140 0.419853 0.084740
O O5 0.680469 0.553818 0.668453
O O6 0.718306 0.608212 0.485115
O O7 0.298674 0.255097 0.826864
O O8 0.571089 0.201971 0.878599
O O9 0.588180 0.298922 0.897775
O O10 0.549471 0.250462 0.076102
O O11 0.500000 0.203290 0.250000
O O12 0.299114 0.163334 0.326733
O O13 0.631443 0.869509 0.227853
O O14 0.961366 0.532166 0.846405
O O15 0.500000 0.378406 0.750000
#
# Coordination Sequence:
#
# PCOD8142217 Si02
#       8
#     8   8   8   8   4   8   4   8
#     4  10  21  41  64  96 133 174 223 283 335 401
#     4  10  22  39  68  95 129 176 226 277 339 402
#     4  11  23  44  71  97 135 182 227 279 347 408
#     4  11  23  43  69 100 137 170 226 284 340 407
#     4  11  22  42  70  96 130 188 218 280 349 398
#     4  10  21  38  64 100 129 169 230 275 331 411
#     4   9  20  38  64  90 136 176 216 270 347 402
#     4  10  22  42  67  96 135 176 224 274 338 415
#
# _framework density 23.019842000000001
#
# number of rings (size 3 to 8) (size 9 to 14) (size 15 to 20)
#    0.000    1.714    2.143    2.571    2.000    3.429 
#    7.714    2.857    3.143    0.000    0.000    0.000 
#    0.000    0.000    0.000    0.000    0.000    0.000 
#
# Total GULP energy -347027.964513 kJ/mol
# GULP energy per Si atom -12393.855875 kJ/mol
# Density = 2.296745 g / cm^3
# Si number density = 23.019842 Si / 1000 Ang^3
#
#
#
# Elastic Constant Matrix: (Units=GPa)
#
#
# Indices 1 2 3 4 5 6 
#
# 1 136.4215 38.9711 40.8183 0.0000 -14.1587 0.0000
# 2 38.9711 93.5542 23.1421 0.0000 -13.8274 0.0000
# 3 40.8183 23.1421 98.3343 0.0000 -0.0487 0.0000
# 4 0.0000 0.0000 0.0000 30.0937 0.0000 -5.8553
# 5 -14.1587 -13.8274 -0.0487 0.0000 38.1032 0.0000
# 6 0.0000 0.0000 0.0000 -5.8553 0.0000 19.6895
#
#
#
# Elastic Compliance Matrix: (Units=1/GPa)
#
#
# Indices 1 2 3 4 5 6 
#
# 1 0.009332 -0.002722 -0.003232 0.000000 0.002476 0.000000
# 2 -0.002722 0.012828 -0.001887 0.000000 0.003641 0.000000
# 3 -0.003232 -0.001887 0.011954 0.000000 -0.001870 0.000000
# 4 0.000000 0.000000 0.000000 0.035270 0.000000 0.010489
# 5 0.002476 0.003641 -0.001870 0.000000 0.028483 0.000000
# 6 0.000000 0.000000 0.000000 0.010489 0.000000 0.053908
#
#
# Mechanical properties :
#
#
# Convention : Reuss Voigt Hill
#
# Bulk Modulus (GPa) = 54.25401 59.35256 56.80329
# Shear Modulus (GPa) = 28.80169 32.60251 30.70210
#
# Velocity S-wave (km/s) = 3.54102 3.76743 3.65598
# Velocity P-wave (km/s) = 6.35122 6.69058 6.52311
#
# Compressibility (1/GPa) = 0.01843182
#
# Stress axis : x y z
#
# Youngs Moduli (GPa) = 107.16178 77.95532 83.65323
#
# Poissons Ratio (x) = 0.21219 0.27035
# Poissons Ratio (y) = 0.29168 0.15788
# Poissons Ratio (z) = 0.34632 0.14712
#
# Static dielectric constant tensor:
#      x y z
#    x 4.251500 0.000000 0.195040 
#    y 0.000000 3.911010 0.000000 
#    z 0.195040 0.000000 4.352300 
# 
# 
# High freq. dielectric constant tensor:
#      x y z
#    x 1.906370 0.000000 0.012510 
#    y 0.000000 1.892660 0.000000 
#    z 0.012510 0.000000 1.912670 
# 
# From -- ./inp_files/81346.got.cif
#   From: 2010.06.25/outbox.cif.g09.slc.cpg/sg15_41_cif.got.tgz:81346.got - 2010.06.28 07:06:18.
