data_PCOD8142859
_publ_section_title
;
Structure prediction by ZEFSAII (Michael W. Deem and Ramdas Pophale) SiO2 
 PCOD8142859
Probable space group: C 2/C
;
_chemical_formula_sum "Si O2"
_cell_formula_units_Z 56
_cell_length_a 15.537612
_cell_length_b 14.000505
_cell_length_c 23.153879
_cell_angle_alpha 90.000000
_cell_angle_beta 29.824478
_cell_angle_gamma 90.000000
_cell_volume 2505.008350
_symmetry_space_group_name_H-M "C 2/C"
_symmetry_group_IT_number 15
_symmetry_cell_setting 'monoclinic'
loop_
_space_group_symop_operation_xyz
x,y,z
-x,y,1/2-z
-x,-y,-z
x,-y,1/2+z
1/2+x,1/2+y,z
1/2-x,1/2+y,1/2-z
1/2-x,1/2-y,-z
1/2+x,1/2-y,1/2+z
loop_
_atom_site_type_symbol
_atom_site_label
_atom_site_fract_x
_atom_site_fract_y
_atom_site_fract_z
Si Si1 0.859682 0.135575 0.881691
Si Si2 0.697745 0.883713 0.789255
Si Si3 0.934204 0.776380 0.452716
Si Si4 0.178264 0.851772 0.660708
Si Si5 0.348894 0.856346 0.376547
Si Si6 0.496462 0.396694 0.526794
Si Si7 0.586646 0.032684 0.546062
O O1 0.945274 0.145213 0.895393
O O2 0.000000 0.115448 0.750000
O O3 0.759228 0.234534 0.924752
O O4 0.729558 0.048855 0.966715
O O5 0.547737 0.810101 0.863415
O O6 0.810550 0.843337 0.776910
O O7 0.819144 0.882709 0.663480
O O8 0.606502 0.988847 0.849307
O O9 0.009466 0.818362 0.468454
O O10 0.157153 0.756765 0.633519
O O11 0.000000 0.910069 0.750000
O O12 0.358222 0.905602 0.541755
O O13 0.500000 0.904169 0.250000
O O14 0.159160 0.894224 0.474189
O O15 0.401172 0.888895 0.410096
O O16 0.500000 0.500000 0.500000
#
# Coordination Sequence:
#
# PCOD8142859 Si02
#       7
#     8   8   8   8   8   8   8
#     4  10  21  39  66  95 130 177 226 281 351 412
#     4  11  24  44  66 100 132 180 226 286 346 417
#     4  10  22  42  64  95 133 175 226 284 347 412
#     4  11  23  43  68  95 137 179 232 282 352 413
#     4  11  24  44  65  97 134 183 228 282 352 412
#     4  12  24  42  67  99 137 176 233 286 348 416
#     4  11  23  40  65  97 135 174 230 285 343 411
#
# _framework density 22.355214
#
# number of rings (size 3 to 8) (size 9 to 14) (size 15 to 20)
#    0.000    1.143    1.429    4.714    0.000    2.286 
#    2.571    3.571    0.000    0.000    0.000    0.000 
#    0.000    0.000    0.000    0.000    0.000    0.000 
#
# Total GULP energy -346979.844061 kJ/mol
# GULP energy per Si atom -12392.137288 kJ/mol
# Density = 2.230433 g / cm^3
# Si number density = 22.355214 Si / 1000 Ang^3
#
#
#
# Elastic Constant Matrix: (Units=GPa)
#
#
# Indices 1 2 3 4 5 6 
#
# 1 91.1585 23.0814 25.5537 -0.0004 6.2720 0.0000
# 2 23.0814 81.8795 30.3173 -0.0016 10.9385 -0.0004
# 3 25.5537 30.3173 139.0355 -0.0043 7.6341 -0.0030
# 4 -0.0004 -0.0016 -0.0043 32.7364 -0.0001 2.1157
# 5 6.2720 10.9385 7.6341 -0.0001 38.8940 0.0006
# 6 0.0000 -0.0004 -0.0030 2.1157 0.0006 30.9406
#
#
#
# Elastic Compliance Matrix: (Units=1/GPa)
#
#
# Indices 1 2 3 4 5 6 
#
# 1 0.012167 -0.002721 -0.001594 0.000000 -0.000884 0.000000
# 2 -0.002721 0.014301 -0.002448 0.000000 -0.003103 0.000000
# 3 -0.001594 -0.002448 0.008054 0.000001 -0.000635 0.000001
# 4 0.000000 0.000000 0.000001 0.030683 0.000000 -0.002098
# 5 -0.000884 -0.003103 -0.000635 0.000000 0.026851 -0.000001
# 6 0.000000 0.000000 0.000001 -0.002098 -0.000001 0.032463
#
#
# Mechanical properties :
#
#
# Convention : Reuss Voigt Hill
#
# Bulk Modulus (GPa) = 47.63069 52.21981 49.92525
# Shear Modulus (GPa) = 34.47236 36.05562 35.26399
#
# Velocity S-wave (km/s) = 3.93113 4.02039 3.97601
# Velocity P-wave (km/s) = 6.47747 6.70531 6.59237
#
# Compressibility (1/GPa) = 0.02099487
#
# Stress axis : x y z
#
# Youngs Moduli (GPa) = 82.19186 69.92484 124.16086
#
# Poissons Ratio (x) = 0.19029 0.19794
# Poissons Ratio (y) = 0.22367 0.30393
# Poissons Ratio (z) = 0.13103 0.17117
#
# Static dielectric constant tensor:
#      x y z
#    x 3.721980 0.000000 0.062530 
#    y 0.000000 4.135500 0.000000 
#    z 0.062530 0.000000 4.245400 
# 
# 
# High freq. dielectric constant tensor:
#      x y z
#    x 1.878970 0.000000 -0.000110 
#    y 0.000000 1.880100 0.000000 
#    z -0.000110 0.000000 1.895790 
# 
# From -- ./inp_files/274464.got.cif
#   From: 2010.06.25/outbox.cif.g09.slc.cpg/sg15_138_cif.got.tgz:274464.got - 2010.06.28 07:06:18.
