data_PCOD8142961
_publ_section_title
;
Structure prediction by ZEFSAII (Michael W. Deem and Ramdas Pophale) SiO2 
 PCOD8142961
Probable space group: C 2/C
;
_chemical_formula_sum "Si O2"
_cell_formula_units_Z 64
_cell_length_a 9.650045
_cell_length_b 23.643259
_cell_length_c 19.072208
_cell_angle_alpha 90.000000
_cell_angle_beta 133.069172
_cell_angle_gamma 90.000000
_cell_volume 3178.890680
_symmetry_space_group_name_H-M "C 2/C"
_symmetry_group_IT_number 15
_symmetry_cell_setting 'monoclinic'
loop_
_space_group_symop_operation_xyz
x,y,z
-x,y,1/2-z
-x,-y,-z
x,-y,1/2+z
1/2+x,1/2+y,z
1/2-x,1/2+y,1/2-z
1/2-x,1/2-y,-z
1/2+x,1/2-y,1/2+z
loop_
_atom_site_type_symbol
_atom_site_label
_atom_site_fract_x
_atom_site_fract_y
_atom_site_fract_z
Si Si1 0.990463 0.470290 0.922557
Si Si2 0.045830 0.748002 0.965756
Si Si3 0.662513 0.257207 0.749012
Si Si4 0.914407 0.838162 0.289239
Si Si5 0.465770 0.836526 0.917057
Si Si6 0.134355 0.162349 0.997777
Si Si7 0.090409 0.039927 0.977177
Si Si8 0.148913 0.962365 0.244980
O O1 0.941920 0.403860 0.914198
O O2 0.839946 0.500673 0.818669
O O3 0.000000 0.500000 0.000000
O O4 0.197512 0.480074 0.963745
O O5 0.900660 0.761534 0.853539
O O6 0.250000 0.750000 0.000000
O O7 0.021491 0.688538 0.998768
O O8 0.005699 0.794458 0.011839
O O9 0.500000 0.249852 0.750000
O O10 0.779780 0.199621 0.791016
O O11 0.784754 0.311578 0.813325
O O12 0.808046 0.895516 0.226930
O O13 0.000000 0.806936 0.250000
O O14 0.090841 0.850122 0.400833
O O15 0.645405 0.818320 0.930159
O O16 0.101871 0.100877 0.019827
O O17 0.947593 0.033600 0.863245
O O18 0.000000 0.000000 0.000000
O O19 0.000000 0.985940 0.250000
#
# Coordination Sequence:
#
# PCOD8142961 Si02
#       8
#     8   8   8   8   8   8   8   8
#     4  11  24  43  69  98 128 177 226 267 326 397
#     4  12  24  42  65  93 132 170 211 267 326 385
#     4  12  25  42  61  97 133 166 215 268 332 383
#     4  10  21  39  69  93 124 166 218 264 320 391
#     4  11  25  43  65  96 134 169 219 269 321 400
#     4  10  22  43  65  93 130 168 213 265 323 391
#     4  10  23  43  66  97 132 169 217 276 331 385
#     4  10  21  42  67  97 127 168 225 274 319 391
#
# _framework density 20.132809000000002
#
# number of rings (size 3 to 8) (size 9 to 14) (size 15 to 20)
#    0.000    1.250    3.750    1.125    5.250    3.000 
#    4.500    2.500    0.000    0.000    0.000    0.000 
#    0.000    0.000    0.000    0.000    0.000    0.000 
#
# Total GULP energy -396528.739849 kJ/mol
# GULP energy per Si atom -12391.523120 kJ/mol
# Density = 2.008699 g / cm^3
# Si number density = 20.132809 Si / 1000 Ang^3
#
#
#
# Elastic Constant Matrix: (Units=GPa)
#
#
# Indices 1 2 3 4 5 6 
#
# 1 136.2343 78.5808 45.3263 0.0000 7.5931 0.0000
# 2 78.5808 118.1506 48.2825 0.0000 9.9462 0.0000
# 3 45.3263 48.2825 118.2945 0.0000 1.0500 0.0000
# 4 0.0000 0.0000 0.0000 32.0837 0.0000 -3.0206
# 5 7.5931 9.9462 1.0500 0.0000 36.4177 0.0000
# 6 0.0000 0.0000 0.0000 -3.0206 0.0000 34.9697
#
#
#
# Elastic Compliance Matrix: (Units=1/GPa)
#
#
# Indices 1 2 3 4 5 6 
#
# 1 0.012174 -0.007384 -0.001647 0.000000 -0.000474 0.000000
# 2 -0.007384 0.014900 -0.003231 0.000000 -0.002437 0.000000
# 3 -0.001647 -0.003231 0.010395 0.000000 0.000926 0.000000
# 4 0.000000 0.000000 0.000000 0.031424 0.000000 0.002714
# 5 -0.000474 -0.002437 0.000926 0.000000 0.028197 0.000000
# 6 0.000000 0.000000 0.000000 0.002714 0.000000 0.028831
#
#
# Mechanical properties :
#
#
# Convention : Reuss Voigt Hill
#
# Bulk Modulus (GPa) = 77.24179 79.67317 78.45748
# Shear Modulus (GPa) = 32.30869 34.06021 33.18445
#
# Velocity S-wave (km/s) = 4.01031 4.11758 4.06430
# Velocity P-wave (km/s) = 7.73905 7.89086 7.81532
#
# Compressibility (1/GPa) = 0.01294636
#
# Stress axis : x y z
#
# Youngs Moduli (GPa) = 82.14559 67.11429 96.20210
#
# Poissons Ratio (x) = 0.49555 0.15840
# Poissons Ratio (y) = 0.60654 0.31080
# Poissons Ratio (z) = 0.13526 0.21683
#
# Static dielectric constant tensor:
#      x y z
#    x 3.475880 0.000000 0.033800 
#    y 0.000000 3.674760 0.000000 
#    z 0.033800 0.000000 3.921550 
# 
# 
# High freq. dielectric constant tensor:
#      x y z
#    x 1.788820 0.000000 0.001120 
#    y 0.000000 1.785930 0.000000 
#    z 0.001120 0.000000 1.796900 
# 
# From -- ./inp_files/234444.got.cif
#   From: 2010.06.25/outbox.cif.g09.slc.cpg/sg15_118_cif.got.tgz:234444.got - 2010.06.28 07:06:18.
