data_PCOD8142991
_publ_section_title
;
Structure prediction by ZEFSAII (Michael W. Deem and Ramdas Pophale) SiO2 
 PCOD8142991
Probable space group: C 2/C
;
_chemical_formula_sum "Si O2"
_cell_formula_units_Z 40
_cell_length_a 12.569513
_cell_length_b 26.953700
_cell_length_c 5.238702
_cell_angle_alpha 90.000000
_cell_angle_beta 81.744274
_cell_angle_gamma 90.000000
_cell_volume 1756.452779
_symmetry_space_group_name_H-M "C 2/C"
_symmetry_group_IT_number 15
_symmetry_cell_setting 'monoclinic'
loop_
_space_group_symop_operation_xyz
x,y,z
-x,y,1/2-z
-x,-y,-z
x,-y,1/2+z
1/2+x,1/2+y,z
1/2-x,1/2+y,1/2-z
1/2-x,1/2-y,-z
1/2+x,1/2-y,1/2+z
loop_
_atom_site_type_symbol
_atom_site_label
_atom_site_fract_x
_atom_site_fract_y
_atom_site_fract_z
Si Si1 0.538657 0.874045 0.983173
Si Si2 0.714628 0.638130 0.188516
Si Si3 0.421979 0.769756 0.068646
Si Si4 0.372684 0.471611 0.793166
Si Si5 0.310699 0.697948 0.780627
O O1 0.500000 0.903171 0.250000
O O2 0.468129 0.823653 0.990665
O O3 0.500000 0.905787 0.750000
O O4 0.662898 0.862331 0.945276
O O5 0.672569 0.582929 0.219127
O O6 0.699684 0.662446 0.468752
O O7 0.652584 0.667875 0.984269
O O8 0.500000 0.743188 0.250000
O O9 0.302182 0.774108 0.233237
O O10 0.405156 0.738039 0.812182
O O11 0.500000 0.468620 0.750000
O O12 0.330251 0.503882 0.569081
#
# Coordination Sequence:
#
# PCOD8142991 Si02
#       5
#     8   8   8   8   8
#     4  11  20  37  59  87 123 178 215 255 314 376
#     4  12  22  42  66  97 126 168 226 266 324 396
#     4  10  21  40  56  87 131 180 230 257 318 356
#     4  10  23  45  73  98 125 159 203 273 349 404
#     4  11  24  36  62  92 127 178 226 271 301 381
#
# _framework density 22.773171000000001
#
# number of rings (size 3 to 8) (size 9 to 14) (size 15 to 20)
#    0.000    1.200    6.000    1.200    0.000    7.200 
#    0.000    2.000    0.000    3.600    0.000    0.000 
#    0.000    0.000    0.000    0.000    0.000    0.000 
#
# Total GULP energy -247919.562562 kJ/mol
# GULP energy per Si atom -12395.978128 kJ/mol
# Density = 2.272134 g / cm^3
# Si number density = 22.773171 Si / 1000 Ang^3
#
#
#
# Elastic Constant Matrix: (Units=GPa)
#
#
# Indices 1 2 3 4 5 6 
#
# 1 381.5941 69.2699 -45.0643 0.0000 13.4326 0.0000
# 2 69.2699 83.4472 9.7875 0.0000 17.3598 0.0000
# 3 -45.0643 9.7875 176.1148 0.0000 33.4144 0.0000
# 4 0.0000 0.0000 0.0000 8.4901 0.0000 15.7826
# 5 13.4326 17.3598 33.4144 0.0000 34.1656 0.0000
# 6 0.0000 0.0000 0.0000 15.7826 0.0000 13.5076
#
#
#
# Elastic Compliance Matrix: (Units=1/GPa)
#
#
# Indices 1 2 3 4 5 6 
#
# 1 0.003279 -0.002628 0.001199 0.000000 -0.001126 0.000000
# 2 -0.002628 0.015572 -0.000286 0.000000 -0.006599 0.000000
# 3 0.001199 -0.000286 0.007444 0.000000 -0.007606 0.000000
# 4 0.000000 0.000000 0.000000 -0.100496 0.000000 0.117422
# 5 -0.001126 -0.006599 -0.007606 0.000000 0.040504 0.000000
# 6 0.000000 0.000000 0.000000 0.117422 0.000000 -0.063166
#
#
# Mechanical properties :
#
#
# Convention : Reuss Voigt Hill
#
# Bulk Modulus (GPa) = 43.73696 78.79359 61.26528
# Shear Modulus (GPa) = -58.26644 51.71020 -3.27812
#
# Velocity S-wave (km/s) = -5.06370 4.77032 -1.20108
# Velocity P-wave (km/s) = 3.86536 8.06323 5.00373
#
# Compressibility (1/GPa) = 0.02286396
#
# Stress axis : x y z
#
# Youngs Moduli (GPa) = 304.98342 64.21930 134.33876
#
# Poissons Ratio (x) = 0.16878 -0.16103
# Poissons Ratio (y) = 0.80154 0.03839
# Poissons Ratio (z) = -0.36559 0.01835
#
# Static dielectric constant tensor:
#      x y z
#    x 4.746100 0.000000 -0.639530 
#    y 0.000000 3.768110 0.000000 
#    z -0.639530 0.000000 7.964590 
# 
# 
# High freq. dielectric constant tensor:
#      x y z
#    x 1.904770 0.000000 0.009180 
#    y 0.000000 1.848420 0.000000 
#    z 0.009180 0.000000 1.934670 
# 
# From -- ./inp_files/5013.got.cif
#   From: 2010.06.25/outbox.cif.g09.slc.cpg/sg15_3_cif.got.tgz:5013.got - 2010.06.28 07:06:18.
