data_PCOD8142812
_publ_section_title
;
Structure prediction by ZEFSAII (Michael W. Deem and Ramdas Pophale) SiO2 
 PCOD8142812
Probable space group: C 2/C
;
_chemical_formula_sum "Si O2"
_cell_formula_units_Z 56
_cell_length_a 12.240988
_cell_length_b 8.431926
_cell_length_c 27.432515
_cell_angle_alpha 90.000000
_cell_angle_beta 60.378318
_cell_angle_gamma 90.000000
_cell_volume 2461.401918
_symmetry_space_group_name_H-M "C 2/C"
_symmetry_group_IT_number 15
_symmetry_cell_setting 'monoclinic'
loop_
_space_group_symop_operation_xyz
x,y,z
-x,y,1/2-z
-x,-y,-z
x,-y,1/2+z
1/2+x,1/2+y,z
1/2-x,1/2+y,1/2-z
1/2-x,1/2-y,-z
1/2+x,1/2-y,1/2+z
loop_
_atom_site_type_symbol
_atom_site_label
_atom_site_fract_x
_atom_site_fract_y
_atom_site_fract_z
Si Si1 0.234591 0.488810 0.878292
Si Si2 0.005932 0.329833 0.396524
Si Si3 0.965176 0.010906 0.952025
Si Si4 0.331041 0.669116 0.650903
Si Si5 0.482164 0.329148 0.309963
Si Si6 0.794790 0.423055 0.506367
Si Si7 0.575546 0.968902 0.184644
O O1 0.230924 0.341721 0.841814
O O2 0.375311 0.554750 0.854900
O O3 0.178129 0.430915 0.942207
O O4 0.150793 0.626616 0.872895
O O5 0.921870 0.452562 0.447662
O O6 0.966246 0.347731 0.348740
O O7 0.989797 0.148973 0.415975
O O8 0.815658 0.049076 0.982465
O O9 0.048313 0.151197 0.911154
O O10 0.000000 0.000000 0.000000
O O11 0.383555 0.640812 0.693797
O O12 0.224020 0.541207 0.662732
O O13 0.500000 0.369374 0.250000
O O14 0.447575 0.147215 0.327507
O O15 0.750000 0.250000 0.500000
O O16 0.500000 0.923683 0.250000
#
# Coordination Sequence:
#
# PCOD8142812 Si02
#       7
#     8   8   8   8   8   8   8
#     4  12  24  45  70 105 142 183 237 293 352 425
#     4  11  23  43  69 104 142 185 236 295 350 425
#     4  11  22  42  68 101 142 183 230 288 355 422
#     4  12  24  45  72 101 143 185 232 287 356 418
#     4  11  27  47  70 105 139 184 241 293 351 423
#     4  10  21  39  65  97 138 177 230 279 347 419
#     4  11  26  49  72 103 142 189 239 293 356 418
#
# _framework density 22.751262000000001
#
# number of rings (size 3 to 8) (size 9 to 14) (size 15 to 20)
#    0.000    0.857    2.857    5.571    2.000    0.571 
#    0.000    2.143    0.000    0.000    0.000    0.000 
#    0.000    0.000    0.000    0.000    0.000    0.000 
#
# Total GULP energy -347251.351619 kJ/mol
# GULP energy per Si atom -12401.833986 kJ/mol
# Density = 2.269948 g / cm^3
# Si number density = 22.751262 Si / 1000 Ang^3
#
#
#
# Elastic Constant Matrix: (Units=GPa)
#
#
# Indices 1 2 3 4 5 6 
#
# 1 146.2110 25.7742 24.2786 0.0000 21.1825 0.0000
# 2 25.7742 71.7712 23.9295 0.0000 5.5494 0.0000
# 3 24.2786 23.9295 111.2061 0.0000 28.3636 0.0000
# 4 0.0000 0.0000 0.0000 32.3400 0.0000 5.7828
# 5 21.1825 5.5494 28.3636 0.0000 48.6669 0.0000
# 6 0.0000 0.0000 0.0000 5.7828 0.0000 30.5016
#
#
#
# Elastic Compliance Matrix: (Units=1/GPa)
#
#
# Indices 1 2 3 4 5 6 
#
# 1 0.007751 -0.002414 -0.000449 0.000000 -0.002836 0.000000
# 2 -0.002414 0.015764 -0.003142 0.000000 0.001084 0.000000
# 3 -0.000449 -0.003142 0.011306 0.000000 -0.006035 0.000000
# 4 0.000000 0.000000 0.000000 0.032007 0.000000 -0.006068
# 5 -0.002836 0.001084 -0.006035 0.000000 0.025176 0.000000
# 6 0.000000 0.000000 0.000000 -0.006068 0.000000 0.033936
#
#
# Mechanical properties :
#
#
# Convention : Reuss Voigt Hill
#
# Bulk Modulus (GPa) = 43.84025 53.01699 48.42862
# Shear Modulus (GPa) = 34.35206 39.31543 36.83375
#
# Velocity S-wave (km/s) = 3.88995 4.16150 4.02802
# Velocity P-wave (km/s) = 6.28386 6.81500 6.55481
#
# Compressibility (1/GPa) = 0.02281009
#
# Stress axis : x y z
#
# Youngs Moduli (GPa) = 129.02339 63.43664 88.45077
#
# Poissons Ratio (x) = 0.15315 0.03973
# Poissons Ratio (y) = 0.31150 0.27787
# Poissons Ratio (z) = 0.05795 0.19929
#
# Static dielectric constant tensor:
#      x y z
#    x 4.658830 0.000000 -0.199430 
#    y 0.000000 3.833490 0.000000 
#    z -0.199430 0.000000 4.204640 
# 
# 
# High freq. dielectric constant tensor:
#      x y z
#    x 1.920770 0.000000 0.008700 
#    y 0.000000 1.879970 0.000000 
#    z 0.008700 0.000000 1.895820 
# 
# From -- ./inp_files/291530.got.cif
#   From: 2010.06.25/outbox.cif.g09.slc.cpg/sg15_146_cif.got.tgz:291530.got - 2010.06.28 07:06:18.
