data_PCOD8142098
_publ_section_title
;
Structure prediction by ZEFSAII (Michael W. Deem and Ramdas Pophale) SiO2 
 PCOD8142098
Probable space group: C 2/C
;
_chemical_formula_sum "Si O2"
_cell_formula_units_Z 32
_cell_length_a 4.843454
_cell_length_b 9.428688
_cell_length_c 28.049864
_cell_angle_alpha 90.000000
_cell_angle_beta 61.110962
_cell_angle_gamma 90.000000
_cell_volume 1121.557686
_symmetry_space_group_name_H-M "C 2/C"
_symmetry_group_IT_number 15
_symmetry_cell_setting 'monoclinic'
loop_
_space_group_symop_operation_xyz
x,y,z
-x,y,1/2-z
-x,-y,-z
x,-y,1/2+z
1/2+x,1/2+y,z
1/2-x,1/2+y,1/2-z
1/2-x,1/2-y,-z
1/2+x,1/2-y,1/2+z
loop_
_atom_site_type_symbol
_atom_site_label
_atom_site_fract_x
_atom_site_fract_y
_atom_site_fract_z
Si Si1 0.226432 0.543943 0.810342
Si Si2 0.117403 0.865096 0.847711
Si Si3 0.681917 0.891511 0.566339
Si Si4 0.330464 0.684410 0.543128
O O1 0.500000 0.515512 0.750000
O O2 0.177151 0.712486 0.819257
O O3 0.319046 0.452513 0.850379
O O4 0.913924 0.469425 0.815717
O O5 0.094264 0.836376 0.908349
O O6 0.374160 0.788739 0.585772
O O7 0.831020 0.886889 0.499998
O O8 0.603703 0.058545 0.582029
O O9 0.250000 0.750000 0.500000
#
# Coordination Sequence:
#
# PCOD8142098 Si02
#       4
#     8   8   8   8
#     4  12  26  47  71 102 136 179 227 293 361 413
#     4  12  27  45  76 103 140 182 235 290 339 434
#     4  10  23  38  59  97 124 178 225 269 338 391
#     4  10  21  38  62  87 136 173 217 278 326 402
#
# _framework density 28.531749000000001
#
# number of rings (size 3 to 8) (size 9 to 14) (size 15 to 20)
#    0.000    1.000    0.000    6.000    7.000    0.000 
#    0.000    0.000    0.000    0.000    0.000    0.000 
#    0.000    0.000    0.000    0.000    0.000    0.000 
#
# Total GULP energy -198359.566459 kJ/mol
# GULP energy per Si atom -12397.472904 kJ/mol
# Density = 2.846681 g / cm^3
# Si number density = 28.531749 Si / 1000 Ang^3
#
#
#
# Elastic Constant Matrix: (Units=GPa)
#
#
# Indices 1 2 3 4 5 6 
#
# 1 120.8723 77.8149 -3.9916 -0.0003 29.0001 0.0011
# 2 77.8149 263.6104 44.7756 -0.0001 15.1645 0.0001
# 3 -3.9916 44.7756 95.2051 -0.0003 -4.4271 0.0007
# 4 -0.0003 -0.0001 -0.0003 49.4913 0.0005 -2.0633
# 5 29.0001 15.1645 -4.4271 0.0005 41.1721 -0.0008
# 6 0.0011 0.0001 0.0007 -2.0633 -0.0008 61.3386
#
#
#
# Elastic Compliance Matrix: (Units=1/GPa)
#
#
# Indices 1 2 3 4 5 6 
#
# 1 0.012340 -0.003543 0.001850 0.000000 -0.007188 0.000000
# 2 -0.003543 0.005267 -0.002613 0.000000 0.000275 0.000000
# 3 0.001850 -0.002613 0.011854 0.000000 0.000934 0.000000
# 4 0.000000 0.000000 0.000000 0.020234 0.000000 0.000681
# 5 -0.007188 0.000275 0.000934 0.000000 0.029350 0.000001
# 6 0.000000 0.000000 0.000000 0.000681 0.000001 0.016326
#
#
# Mechanical properties :
#
#
# Convention : Reuss Voigt Hill
#
# Bulk Modulus (GPa) = 47.96786 79.65394 63.81090
# Shear Modulus (GPa) = 45.07188 54.47298 49.77243
#
# Velocity S-wave (km/s) = 3.97887 4.37419 4.18120
# Velocity P-wave (km/s) = 6.16093 7.31366 6.76190
#
# Compressibility (1/GPa) = 0.02084729
#
# Stress axis : x y z
#
# Youngs Moduli (GPa) = 81.03806 189.84480 84.36265
#
# Poissons Ratio (x) = 0.67267 -0.15603
# Poissons Ratio (y) = 0.28714 0.22045
# Poissons Ratio (z) = -0.14988 0.49608
#
# Static dielectric constant tensor:
#      x y z
#    x 5.979580 -0.000030 -2.277260 
#    y -0.000030 6.567870 0.000130 
#    z -2.277260 0.000130 13.261760 
# 
# 
# High freq. dielectric constant tensor:
#      x y z
#    x 2.184300 0.000000 -0.036280 
#    y 0.000000 2.191970 0.000000 
#    z -0.036280 0.000000 2.189030 
# 
# From -- ./inp_files/304607.got.cif
#   From: 2010.06.25/outbox.cif.g09.slc.cpg/sg15_153_cif.got.tgz:304607.got - 2010.06.28 07:06:18.
