data_PCOD8142315
_publ_section_title
;
Structure prediction by ZEFSAII (Michael W. Deem and Ramdas Pophale) SiO2 
 PCOD8142315
Probable space group: C 2/C
;
_chemical_formula_sum "Si O2"
_cell_formula_units_Z 56
_cell_length_a 9.473520
_cell_length_b 17.377055
_cell_length_c 18.507962
_cell_angle_alpha 90.000000
_cell_angle_beta 67.241902
_cell_angle_gamma 90.000000
_cell_volume 2809.609625
_symmetry_space_group_name_H-M "C 2/C"
_symmetry_group_IT_number 15
_symmetry_cell_setting 'monoclinic'
loop_
_space_group_symop_operation_xyz
x,y,z
-x,y,1/2-z
-x,-y,-z
x,-y,1/2+z
1/2+x,1/2+y,z
1/2-x,1/2+y,1/2-z
1/2-x,1/2-y,-z
1/2+x,1/2-y,1/2+z
loop_
_atom_site_type_symbol
_atom_site_label
_atom_site_fract_x
_atom_site_fract_y
_atom_site_fract_z
Si Si1 0.000000 0.013861 0.750000
Si Si2 0.713001 0.420172 0.808067
Si Si3 0.231549 0.953013 0.093812
Si Si4 0.015745 0.382641 0.106908
Si Si5 0.813554 0.124601 0.455886
Si Si6 0.000000 0.484314 0.250000
Si Si7 0.474740 0.276795 0.673819
Si Si8 0.090998 0.077782 0.479478
O O1 0.130863 0.065137 0.685644
O O2 0.068525 0.962516 0.800717
O O3 0.867720 0.457870 0.746678
O O4 0.678236 0.330179 0.801091
O O5 0.721452 0.432408 0.892787
O O6 0.406304 0.932006 0.076189
O O7 0.215718 0.041817 0.074565
O O8 0.169956 0.900342 0.039724
O O9 0.934569 0.301989 0.140373
O O10 0.054213 0.431382 0.172030
O O11 0.167093 0.357557 0.033347
O O12 0.862032 0.184486 0.383550
O O13 0.962337 0.137408 0.478642
O O14 0.500000 0.251558 0.750000
O O15 0.000000 0.000000 0.500000
#
# Coordination Sequence:
#
# PCOD8142315 Si02
#       8
#     4   8   8   8   8   4   8   8
#     4  12  18  35  65  88 116 170 212 238 306 377
#     4  11  21  39  64  86 120 169 209 243 309 376
#     4  11  21  37  61  96 126 159 210 262 304 368
#     4  12  25  38  61 102 126 151 207 276 312 343
#     4  10  21  38  66  87 121 168 209 247 311 379
#     4  12  24  37  63  96 128 150 208 280 304 345
#     4  11  22  44  64  86 126 172 206 243 314 393
#     4   9  17  35  59  85 120 158 203 246 299 367
#
# _framework density 19.931594
#
# number of rings (size 3 to 8) (size 9 to 14) (size 15 to 20)
#    0.000    1.143    7.143    2.571    0.000    0.000 
#    0.000    3.571    0.000    0.000    0.000    0.000 
#    0.000    0.000    0.000    0.000    0.000    0.000 
#
# Total GULP energy -346880.279361 kJ/mol
# GULP energy per Si atom -12388.581406 kJ/mol
# Density = 1.988623 g / cm^3
# Si number density = 19.931594 Si / 1000 Ang^3
#
#
#
# Elastic Constant Matrix: (Units=GPa)
#
#
# Indices 1 2 3 4 5 6 
#
# 1 83.0367 27.7881 28.8113 0.0000 4.5012 0.0000
# 2 27.7881 80.2980 21.7853 0.0000 -3.4166 0.0000
# 3 28.8113 21.7853 104.9112 0.0000 7.7079 0.0000
# 4 0.0000 0.0000 0.0000 22.1485 0.0000 -0.3395
# 5 4.5012 -3.4166 7.7079 0.0000 34.8136 0.0000
# 6 0.0000 0.0000 0.0000 -0.3395 0.0000 19.1921
#
#
#
# Elastic Compliance Matrix: (Units=1/GPa)
#
#
# Indices 1 2 3 4 5 6 
#
# 1 0.014616 -0.004315 -0.002997 0.000000 -0.001650 0.000000
# 2 -0.004315 0.014600 -0.002026 0.000000 0.002439 0.000000
# 3 -0.002997 -0.002026 0.010940 0.000000 -0.002233 0.000000
# 4 0.000000 0.000000 0.000000 0.045162 0.000000 0.000799
# 5 -0.001650 0.002439 -0.002233 0.000000 0.029672 0.000000
# 6 0.000000 0.000000 0.000000 0.000799 0.000000 0.052119
#
#
# Mechanical properties :
#
#
# Convention : Reuss Voigt Hill
#
# Bulk Modulus (GPa) = 46.55420 47.22393 46.88906
# Shear Modulus (GPa) = 25.91414 27.88824 26.90119
#
# Velocity S-wave (km/s) = 3.60968 3.74464 3.67778
# Velocity P-wave (km/s) = 6.38598 6.51467 6.45064
#
# Compressibility (1/GPa) = 0.02148034
#
# Stress axis : x y z
#
# Youngs Moduli (GPa) = 68.41748 68.49112 91.41074
#
# Poissons Ratio (x) = 0.29556 0.27393
# Poissons Ratio (y) = 0.29524 0.18520
# Poissons Ratio (z) = 0.20502 0.13876
#
# Static dielectric constant tensor:
#      x y z
#    x 4.183450 0.000000 0.613750 
#    y 0.000000 3.361310 0.000000 
#    z 0.613750 0.000000 4.383170 
# 
# 
# High freq. dielectric constant tensor:
#      x y z
#    x 1.762870 0.000000 0.003700 
#    y 0.000000 1.745700 0.000000 
#    z 0.003700 0.000000 1.797250 
# 
# From -- ./inp_files/190956.got.cif
#   From: 2010.06.25/outbox.cif.g09.slc.cpg/sg15_96_cif.got.tgz:190956.got - 2010.06.28 07:06:18.
