data_PCOD8142409
_publ_section_title
;
Structure prediction by ZEFSAII (Michael W. Deem and Ramdas Pophale) SiO2 
 PCOD8142409
Probable space group: C 2/C
;
_chemical_formula_sum "Si O2"
_cell_formula_units_Z 64
_cell_length_a 14.660898
_cell_length_b 26.890537
_cell_length_c 8.933020
_cell_angle_alpha 90.000000
_cell_angle_beta 113.589470
_cell_angle_gamma 90.000000
_cell_volume 3227.458249
_symmetry_space_group_name_H-M "C 2/C"
_symmetry_group_IT_number 15
_symmetry_cell_setting 'monoclinic'
loop_
_space_group_symop_operation_xyz
x,y,z
-x,y,1/2-z
-x,-y,-z
x,-y,1/2+z
1/2+x,1/2+y,z
1/2-x,1/2+y,1/2-z
1/2-x,1/2-y,-z
1/2+x,1/2-y,1/2+z
loop_
_atom_site_type_symbol
_atom_site_label
_atom_site_fract_x
_atom_site_fract_y
_atom_site_fract_z
Si Si1 0.612502 0.443832 0.147709
Si Si2 0.881054 0.778407 0.992590
Si Si3 0.919267 0.314361 0.312574
Si Si4 0.280865 0.647904 0.931165
Si Si5 0.894865 0.228956 0.840045
Si Si6 0.271561 0.368480 0.767820
Si Si7 0.117807 0.954115 0.494780
Si Si8 0.442015 0.160994 0.365623
O O1 0.671810 0.395343 0.136919
O O2 0.645044 0.453473 0.338825
O O3 0.494707 0.435853 0.053804
O O4 0.641419 0.490512 0.065176
O O5 0.846221 0.770230 0.141532
O O6 0.995768 0.796091 0.079372
O O7 0.870981 0.729163 0.883318
O O8 0.810897 0.820756 0.881373
O O9 0.837001 0.346906 0.172453
O O10 0.000000 0.291324 0.250000
O O11 0.976861 0.354612 0.456442
O O12 0.326980 0.700527 0.913951
O O13 0.304794 0.636311 0.118338
O O14 0.900910 0.285768 0.896279
O O15 0.152216 0.375137 0.706862
O O16 0.313665 0.418317 0.864510
O O17 0.500000 0.167706 0.250000
#
# Coordination Sequence:
#
# PCOD8142409 Si02
#       8
#     8   8   8   8   8   8   8   8
#     4  10  22  42  67  93 122 153 186 238 303 356
#     4  10  22  37  57  81 120 157 202 247 294 351
#     4  11  23  41  57  80 122 163 202 251 295 338
#     4  12  25  36  60  89 120 157 201 245 296 355
#     4  10  21  39  55  83 117 160 200 246 297 350
#     4  12  25  36  59  92 118 155 203 245 294 356
#     4  10  22  42  67  93 123 151 189 239 298 361
#     4  11  23  41  59  82 117 164 207 248 292 344
#
# _framework density 19.829846
#
# number of rings (size 3 to 8) (size 9 to 14) (size 15 to 20)
#    0.000    1.250    3.750    3.000    7.000    6.500 
#    0.000    0.000    0.000    1.500    0.000    0.000 
#    0.000    0.000    0.000    0.000    0.000    0.000 
#
# Total GULP energy -396810.818544 kJ/mol
# GULP energy per Si atom -12400.338079 kJ/mol
# Density = 1.978471 g / cm^3
# Si number density = 19.829846 Si / 1000 Ang^3
#
#
#
# Elastic Constant Matrix: (Units=GPa)
#
#
# Indices 1 2 3 4 5 6 
#
# 1 59.7307 24.0734 16.8935 0.0000 -8.0000 0.0000
# 2 24.0734 51.4649 21.7225 0.0000 -7.6009 0.0000
# 3 16.8935 21.7225 109.2527 0.0000 -4.8936 0.0000
# 4 0.0000 0.0000 0.0000 32.9405 0.0000 3.4160
# 5 -8.0000 -7.6009 -4.8936 0.0000 31.4069 0.0000
# 6 0.0000 0.0000 0.0000 3.4160 0.0000 23.2959
#
#
#
# Elastic Compliance Matrix: (Units=1/GPa)
#
#
# Indices 1 2 3 4 5 6 
#
# 1 0.021098 -0.008845 -0.001368 0.000000 0.003020 0.000000
# 2 -0.008845 0.025572 -0.003565 0.000000 0.003380 0.000000
# 3 -0.001368 -0.003565 0.010090 0.000000 0.000361 0.000000
# 4 0.000000 0.000000 0.000000 0.030827 0.000000 -0.004520
# 5 0.003020 0.003380 0.000361 0.000000 0.033484 0.000000
# 6 0.000000 0.000000 0.000000 -0.004520 0.000000 0.043589
#
#
# Mechanical properties :
#
#
# Convention : Reuss Voigt Hill
#
# Bulk Modulus (GPa) = 34.24404 38.42524 36.33464
# Shear Modulus (GPa) = 24.75836 28.04590 26.40213
#
# Velocity S-wave (km/s) = 3.53730 3.76483 3.65284
# Velocity P-wave (km/s) = 5.83007 6.19017 6.01282
#
# Compressibility (1/GPa) = 0.02920216
#
# Stress axis : x y z
#
# Youngs Moduli (GPa) = 47.39713 39.10464 99.11067
#
# Poissons Ratio (x) = 0.34590 0.13562
# Poissons Ratio (y) = 0.41925 0.35336
# Poissons Ratio (z) = 0.06486 0.13942
#
# Static dielectric constant tensor:
#      x y z
#    x 3.679900 0.000000 0.131720 
#    y 0.000000 3.285390 0.000000 
#    z 0.131720 0.000000 3.982730 
# 
# 
# High freq. dielectric constant tensor:
#      x y z
#    x 1.774850 0.000000 0.000240 
#    y 0.000000 1.733440 0.000000 
#    z 0.000240 0.000000 1.802270 
# 
# From -- ./inp_files/43567.got.cif
#   From: 2010.06.25/outbox.cif.g09.slc.cpg/sg15_22_cif.got.tgz:43567.got - 2010.06.28 07:06:18.
