data_PCOD8142471
_publ_section_title
;
Structure prediction by ZEFSAII (Michael W. Deem and Ramdas Pophale) SiO2 
 PCOD8142471
Probable space group: C 2/C
;
_chemical_formula_sum "Si O2"
_cell_formula_units_Z 56
_cell_length_a 25.820334
_cell_length_b 19.890560
_cell_length_c 5.100464
_cell_angle_alpha 90.000000
_cell_angle_beta 68.394288
_cell_angle_gamma 90.000000
_cell_volume 2435.454200
_symmetry_space_group_name_H-M "C 2/C"
_symmetry_group_IT_number 15
_symmetry_cell_setting 'monoclinic'
loop_
_space_group_symop_operation_xyz
x,y,z
-x,y,1/2-z
-x,-y,-z
x,-y,1/2+z
1/2+x,1/2+y,z
1/2-x,1/2+y,1/2-z
1/2-x,1/2-y,-z
1/2+x,1/2-y,1/2+z
loop_
_atom_site_type_symbol
_atom_site_label
_atom_site_fract_x
_atom_site_fract_y
_atom_site_fract_z
Si Si1 0.736517 0.322179 0.648065
Si Si2 0.966076 0.825604 0.565405
Si Si3 0.083552 0.963566 0.710381
Si Si4 0.785143 0.038390 0.539125
Si Si5 0.352870 0.164766 0.056137
Si Si6 0.936855 0.456325 0.349943
Si Si7 0.366751 0.752615 0.027179
O O1 0.750000 0.250000 0.500000
O O2 0.729069 0.382326 0.451838
O O3 0.786845 0.345447 0.750259
O O4 0.677687 0.309461 0.909462
O O5 0.931276 0.885999 0.752249
O O6 0.925898 0.768921 0.529178
O O7 0.000000 0.794974 0.750000
O O8 0.000000 0.851324 0.250000
O O9 0.149277 0.971629 0.585548
O O10 0.057122 0.994149 0.497201
O O11 0.759266 0.005111 0.847806
O O12 0.376665 0.219048 0.216866
O O13 0.390809 0.099250 0.000083
O O14 0.348405 0.189400 0.763404
O O15 0.927953 0.516246 0.573742
O O16 0.000000 0.426867 0.250000
#
# Coordination Sequence:
#
# PCOD8142471 Si02
#       7
#     8   8   8   8   8   8   8
#     4  10  23  44  68  98 132 179 222 278 341 405
#     4  12  25  40  62  90 123 169 215 268 320 374
#     4  10  21  39  60  86 119 163 207 260 318 369
#     4  10  22  39  64  93 128 171 216 267 329 389
#     4  11  24  40  69  95 125 173 215 262 329 401
#     4  10  22  42  67  97 132 168 210 269 335 403
#     4  11  24  44  60  92 134 167 216 274 324 396
#
# _framework density 22.993658
#
# number of rings (size 3 to 8) (size 9 to 14) (size 15 to 20)
#    0.000    1.429    1.429    3.000    0.000    9.143 
#    0.000    0.000    0.000    0.000    0.000    0.000 
#    0.000    0.000    0.000    0.000    0.000    0.000 
#
# Total GULP energy -347065.293777 kJ/mol
# GULP energy per Si atom -12395.189063 kJ/mol
# Density = 2.294132 g / cm^3
# Si number density = 22.993658 Si / 1000 Ang^3
#
#
#
# Elastic Constant Matrix: (Units=GPa)
#
#
# Indices 1 2 3 4 5 6 
#
# 1 103.0083 37.0885 40.6687 0.0000 15.6072 0.0000
# 2 37.0885 95.5147 20.3651 0.0000 -0.5742 0.0000
# 3 40.6687 20.3651 86.9623 0.0000 21.3341 0.0000
# 4 0.0000 0.0000 0.0000 34.0897 0.0000 2.6479
# 5 15.6072 -0.5742 21.3341 0.0000 21.0969 0.0000
# 6 0.0000 0.0000 0.0000 2.6479 0.0000 32.1191
#
#
#
# Elastic Compliance Matrix: (Units=1/GPa)
#
#
# Indices 1 2 3 4 5 6 
#
# 1 0.013858 -0.004611 -0.003797 0.000000 -0.006537 0.000000
# 2 -0.004611 0.012797 -0.002344 0.000000 0.006130 0.000000
# 3 -0.003797 -0.002344 0.017489 0.000000 -0.014941 0.000000
# 4 0.000000 0.000000 0.000000 0.029523 0.000000 -0.002434
# 5 -0.006537 0.006130 -0.014941 0.000000 0.067512 0.000000
# 6 0.000000 0.000000 0.000000 -0.002434 0.000000 0.031335
#
#
# Mechanical properties :
#
#
# Convention : Reuss Voigt Hill
#
# Bulk Modulus (GPa) = 44.17084 53.52554 48.84819
# Shear Modulus (GPa) = 24.80588 29.95200 27.37894
#
# Velocity S-wave (km/s) = 3.28809 3.61310 3.45442
# Velocity P-wave (km/s) = 5.80234 6.38239 6.09926
#
# Compressibility (1/GPa) = 0.02263937
#
# Stress axis : x y z
#
# Youngs Moduli (GPa) = 72.16206 78.14569 57.17752
#
# Poissons Ratio (x) = 0.36030 0.21711
# Poissons Ratio (y) = 0.33271 0.13404
# Poissons Ratio (z) = 0.27401 0.18320
#
# Static dielectric constant tensor:
#      x y z
#    x 4.623660 0.000000 0.042390 
#    y 0.000000 3.828010 0.000000 
#    z 0.042390 0.000000 4.396040 
# 
# 
# High freq. dielectric constant tensor:
#      x y z
#    x 1.922070 0.000000 0.004590 
#    y 0.000000 1.895110 0.000000 
#    z 0.004590 0.000000 1.904870 
# 
# From -- ./inp_files/17169.got.cif
#   From: 2010.06.25/outbox.cif.g09.slc.cpg/sg15_9_cif.got.tgz:17169.got - 2010.06.28 07:06:18.
