data_PCOD8142802
_publ_section_title
;
Structure prediction by ZEFSAII (Michael W. Deem and Ramdas Pophale) SiO2 
 PCOD8142802
Probable space group: C 2/C
;
_chemical_formula_sum "Si O2"
_cell_formula_units_Z 48
_cell_length_a 10.962024
_cell_length_b 16.727095
_cell_length_c 23.217669
_cell_angle_alpha 90.000000
_cell_angle_beta 152.836355
_cell_angle_gamma 90.000000
_cell_volume 1943.580472
_symmetry_space_group_name_H-M "C 2/C"
_symmetry_group_IT_number 15
_symmetry_cell_setting 'monoclinic'
loop_
_space_group_symop_operation_xyz
x,y,z
-x,y,1/2-z
-x,-y,-z
x,-y,1/2+z
1/2+x,1/2+y,z
1/2-x,1/2+y,1/2-z
1/2-x,1/2-y,-z
1/2+x,1/2-y,1/2+z
loop_
_atom_site_type_symbol
_atom_site_label
_atom_site_fract_x
_atom_site_fract_y
_atom_site_fract_z
Si Si1 0.037050 0.242980 0.460085
Si Si2 0.433370 0.268371 0.318128
Si Si3 0.934115 0.943698 0.289371
Si Si4 0.793934 0.333802 0.861518
Si Si5 0.232474 0.628338 0.392888
Si Si6 0.119756 0.522240 0.445323
O O1 0.250000 0.250000 0.500000
O O2 0.083580 0.310233 0.526419
O O3 0.748225 0.262641 0.314361
O O4 0.008978 0.152343 0.475378
O O5 0.519435 0.360803 0.357110
O O6 0.279138 0.241755 0.311430
O O7 0.681206 0.207877 0.411658
O O8 0.000000 0.945125 0.250000
O O9 0.138367 0.004954 0.409490
O O10 0.613845 0.956403 0.164241
O O11 0.500000 0.366896 0.750000
O O12 0.955839 0.405285 0.902959
O O13 0.000000 0.609742 0.250000
O O14 0.257866 0.549735 0.443163
#
# Coordination Sequence:
#
# PCOD8142802 Si02
#       6
#     8   8   8   8   8   8
#     4  11  20  35  63 101 128 162 211 276 330 398
#     4  10  21  39  65  95 129 166 217 277 335 392
#     4  12  24  43  64  97 132 177 231 277 331 399
#     4  11  21  38  62  99 132 163 216 280 344 394
#     4   9  20  42  67  94 127 169 217 276 343 396
#     4  11  25  43  67  93 133 181 223 279 334 403
#
# _framework density 24.696688999999999
#
# number of rings (size 3 to 8) (size 9 to 14) (size 15 to 20)
#    0.000    1.333    1.667    5.500    0.000    4.000 
#    0.000    1.667    0.000    0.000    0.000    0.000 
#    0.000    0.000    0.000    0.000    0.000    0.000 
#
# Total GULP energy -297452.482707 kJ/mol
# GULP energy per Si atom -12393.853446 kJ/mol
# Density = 2.464048 g / cm^3
# Si number density = 24.696689 Si / 1000 Ang^3
#
#
#
# Elastic Constant Matrix: (Units=GPa)
#
#
# Indices 1 2 3 4 5 6 
#
# 1 124.9718 14.9120 16.6831 0.0032 -4.6149 0.0020
# 2 14.9120 46.3754 3.1322 0.0052 -9.1035 0.0021
# 3 16.6831 3.1322 95.6446 0.0145 6.3373 0.0024
# 4 0.0032 0.0052 0.0145 27.5365 0.0026 1.1376
# 5 -4.6149 -9.1035 6.3373 0.0026 33.9880 0.0025
# 6 0.0020 0.0021 0.0024 1.1376 0.0025 14.9566
#
#
#
# Elastic Compliance Matrix: (Units=1/GPa)
#
#
# Indices 1 2 3 4 5 6 
#
# 1 0.008522 -0.002492 -0.001455 0.000000 0.000761 -0.000001
# 2 -0.002492 0.023617 -0.000745 -0.000004 0.006126 -0.000004
# 3 -0.001455 -0.000745 0.010894 -0.000005 -0.002428 -0.000001
# 4 0.000000 -0.000004 -0.000005 0.036430 -0.000003 -0.002771
# 5 0.000761 0.006126 -0.002428 -0.000003 0.031619 -0.000006
# 6 -0.000001 -0.000004 -0.000001 -0.002771 -0.000006 0.067071
#
#
# Mechanical properties :
#
#
# Convention : Reuss Voigt Hill
#
# Bulk Modulus (GPa) = 29.71853 37.38293 33.55073
# Shear Modulus (GPa) = 25.15666 30.78050 27.96858
#
# Velocity S-wave (km/s) = 3.19505 3.53419 3.36889
# Velocity P-wave (km/s) = 5.06662 5.64124 5.36164
#
# Compressibility (1/GPa) = 0.03364904
#
# Stress axis : x y z
#
# Youngs Moduli (GPa) = 117.34923 42.34149 91.78954
#
# Poissons Ratio (x) = 0.10554 0.13357
# Poissons Ratio (y) = 0.29249 0.06835
# Poissons Ratio (z) = 0.17077 0.03153
#
# Static dielectric constant tensor:
#      x y z
#    x 3.745190 0.000070 1.037600 
#    y 0.000070 4.197330 -0.000060 
#    z 1.037600 -0.000060 3.674240 
# 
# 
# High freq. dielectric constant tensor:
#      x y z
#    x 1.989780 0.000000 -0.014310 
#    y 0.000000 1.949790 0.000000 
#    z -0.014310 0.000000 1.996010 
# 
# From -- ./inp_files/270655.got.cif
#   From: 2010.06.25/outbox.cif.g09.slc.cpg/sg15_136_cif.got.tgz:270655.got - 2010.06.28 07:06:18.
