data_PCOD8142275
_publ_section_title
;
Structure prediction by ZEFSAII (Michael W. Deem and Ramdas Pophale) SiO2 
 PCOD8142275
Probable space group: C 2/C
;
_chemical_formula_sum "Si O2"
_cell_formula_units_Z 56
_cell_length_a 9.345738
_cell_length_b 25.263510
_cell_length_c 12.024970
_cell_angle_alpha 90.000000
_cell_angle_beta 74.163807
_cell_angle_gamma 90.000000
_cell_volume 2731.410932
_symmetry_space_group_name_H-M "C 2/C"
_symmetry_group_IT_number 15
_symmetry_cell_setting 'monoclinic'
loop_
_space_group_symop_operation_xyz
x,y,z
-x,y,1/2-z
-x,-y,-z
x,-y,1/2+z
1/2+x,1/2+y,z
1/2-x,1/2+y,1/2-z
1/2-x,1/2-y,-z
1/2+x,1/2-y,1/2+z
loop_
_atom_site_type_symbol
_atom_site_label
_atom_site_fract_x
_atom_site_fract_y
_atom_site_fract_z
Si Si1 0.901553 0.422982 0.563272
Si Si2 0.914869 0.323516 0.994319
Si Si3 0.455542 0.719585 0.635930
Si Si4 0.632200 0.343423 0.928908
Si Si5 0.116037 0.502439 0.634659
Si Si6 0.356709 0.443402 0.714807
Si Si7 0.850301 0.257944 0.216598
O O1 0.946332 0.363066 0.524731
O O2 0.851725 0.452308 0.461655
O O3 0.762227 0.419836 0.674375
O O4 0.041573 0.451544 0.592071
O O5 0.955324 0.272984 0.910904
O O6 0.778354 0.355598 0.970033
O O7 0.861382 0.305292 0.126355
O O8 0.500000 0.701087 0.750000
O O9 0.496604 0.674686 0.537302
O O10 0.279346 0.729212 0.667682
O O11 0.582158 0.396085 0.875455
O O12 0.680376 0.297995 0.833552
O O13 0.274557 0.487910 0.657623
O O14 0.000000 0.525172 0.750000
O O15 0.500000 0.467504 0.750000
O O16 0.000000 0.252809 0.250000
#
# Coordination Sequence:
#
# PCOD8142275 Si02
#       7
#     8   8   8   8   8   8   8
#     4  10  21  38  65  89 116 156 206 255 303 358
#     4  11  21  35  62  87 113 167 214 247 298 368
#     4  11  20  36  60  84 126 173 203 246 300 353
#     4  11  21  37  59  89 122 163 215 248 296 368
#     4   9  20  40  64  91 116 151 199 258 309 367
#     4  11  23  38  63  93 123 158 200 255 312 375
#     4  11  23  36  54  87 126 165 205 253 298 352
#
# _framework density 20.502224999999999
#
# number of rings (size 3 to 8) (size 9 to 14) (size 15 to 20)
#    0.000    1.429    4.286    2.143    0.000    4.571 
#    0.000    0.000    0.000    2.571    0.000    0.000 
#    0.000    0.000    0.000    0.000    0.000    0.000 
#
# Total GULP energy -347271.553532 kJ/mol
# GULP energy per Si atom -12402.555483 kJ/mol
# Density = 2.045556 g / cm^3
# Si number density = 20.502225 Si / 1000 Ang^3
#
#
#
# Elastic Constant Matrix: (Units=GPa)
#
#
# Indices 1 2 3 4 5 6 
#
# 1 143.3481 14.0276 36.7760 0.0000 11.6687 0.0000
# 2 14.0276 47.1537 33.2991 0.0000 8.7485 0.0000
# 3 36.7760 33.2991 115.6402 0.0000 -3.9936 0.0000
# 4 0.0000 0.0000 0.0000 25.5840 0.0000 1.5424
# 5 11.6687 8.7485 -3.9936 0.0000 35.8999 0.0000
# 6 0.0000 0.0000 0.0000 1.5424 0.0000 23.2317
#
#
#
# Elastic Compliance Matrix: (Units=1/GPa)
#
#
# Indices 1 2 3 4 5 6 
#
# 1 0.007876 0.000032 -0.002613 0.000000 -0.002858 0.000000
# 2 0.000032 0.028715 -0.008554 0.000000 -0.007960 0.000000
# 3 -0.002613 -0.008554 0.012089 0.000000 0.004279 0.000000
# 4 0.000000 0.000000 0.000000 0.039244 0.000000 -0.002605
# 5 -0.002858 -0.007960 0.004279 0.000000 0.031200 0.000000
# 6 0.000000 0.000000 0.000000 -0.002605 0.000000 0.043218
#
#
# Mechanical properties :
#
#
# Convention : Reuss Voigt Hill
#
# Bulk Modulus (GPa) = 37.86180 52.70529 45.28355
# Shear Modulus (GPa) = 25.85132 31.74573 28.79853
#
# Velocity S-wave (km/s) = 3.55477 3.93925 3.75194
# Velocity P-wave (km/s) = 5.94607 6.81565 6.39566
#
# Compressibility (1/GPa) = 0.02641184
#
# Stress axis : x y z
#
# Youngs Moduli (GPa) = 126.97075 34.82514 82.71799
#
# Poissons Ratio (x) = -0.00113 0.21612
# Poissons Ratio (y) = -0.00412 0.70755
# Poissons Ratio (z) = 0.33174 0.29789
#
# Static dielectric constant tensor:
#      x y z
#    x 3.603210 0.000000 -0.251450 
#    y 0.000000 3.370320 0.000000 
#    z -0.251450 0.000000 3.219190 
# 
# 
# High freq. dielectric constant tensor:
#      x y z
#    x 1.803720 0.000000 0.000410 
#    y 0.000000 1.772870 0.000000 
#    z 0.000410 0.000000 1.811920 
# 
# From -- ./inp_files/81275.got.cif
#   From: 2010.06.25/outbox.cif.g09.slc.cpg/sg15_41_cif.got.tgz:81275.got - 2010.06.28 07:06:18.
