data_PCOD8142728
_publ_section_title
;
Structure prediction by ZEFSAII (Michael W. Deem and Ramdas Pophale) SiO2 
 PCOD8142728
Probable space group: C 2/C
;
_chemical_formula_sum "Si O2"
_cell_formula_units_Z 52
_cell_length_a 15.103390
_cell_length_b 11.611040
_cell_length_c 15.594954
_cell_angle_alpha 90.000000
_cell_angle_beta 68.400683
_cell_angle_gamma 90.000000
_cell_volume 2542.788652
_symmetry_space_group_name_H-M "C 2/C"
_symmetry_group_IT_number 15
_symmetry_cell_setting 'monoclinic'
loop_
_space_group_symop_operation_xyz
x,y,z
-x,y,1/2-z
-x,-y,-z
x,-y,1/2+z
1/2+x,1/2+y,z
1/2-x,1/2+y,1/2-z
1/2-x,1/2-y,-z
1/2+x,1/2-y,1/2+z
loop_
_atom_site_type_symbol
_atom_site_label
_atom_site_fract_x
_atom_site_fract_y
_atom_site_fract_z
Si Si1 0.377149 0.806168 0.383424
Si Si2 0.655537 0.628928 0.584055
Si Si3 0.243696 0.398021 0.932306
Si Si4 0.000000 0.778427 0.250000
Si Si5 0.353617 0.888038 0.706128
Si Si6 0.213901 0.188033 0.388900
Si Si7 0.404870 0.853918 0.184003
O O1 0.334080 0.681948 0.422873
O O2 0.327005 0.902621 0.460746
O O3 0.355157 0.831317 0.292512
O O4 0.489123 0.805274 0.359650
O O5 0.716790 0.524787 0.601919
O O6 0.552354 0.634507 0.665394
O O7 0.700645 0.752017 0.590456
O O8 0.650687 0.617671 0.481490
O O9 0.185804 0.346910 0.871920
O O10 0.929996 0.701042 0.216852
O O11 0.261747 0.897608 0.802257
O O12 0.405405 0.009151 0.671239
O O13 0.152576 0.288549 0.368224
#
# Coordination Sequence:
#
# PCOD8142728 Si02
#       7
#     8   8   8   4   8   8   8
#     4  10  24  38  62  91 130 151 212 253 305 364
#     4  10  22  41  62  89 127 160 205 250 308 360
#     4  11  22  42  62  90 124 170 194 256 314 362
#     4  10  24  40  60  96 126 156 208 260 288 368
#     4  11  22  40  65  90 125 162 205 251 312 352
#     4  10  21  39  64  92 122 161 205 254 301 369
#     4  11  21  40  63  93 118 164 205 257 299 365
#
# _framework density 20.449988000000001
#
# number of rings (size 3 to 8) (size 9 to 14) (size 15 to 20)
#    0.000    1.538    3.077    1.846    2.154    4.308 
#    0.000    0.769    0.000    0.000    0.000    0.000 
#    0.000    0.000    0.000    0.000    0.000    0.000 
#
# Total GULP energy -322359.573870 kJ/mol
# GULP energy per Si atom -12398.445149 kJ/mol
# Density = 2.040344 g / cm^3
# Si number density = 20.449988 Si / 1000 Ang^3
#
#
#
# Elastic Constant Matrix: (Units=GPa)
#
#
# Indices 1 2 3 4 5 6 
#
# 1 79.9858 30.4081 63.3728 0.0000 -4.1674 0.0000
# 2 30.4081 57.4222 27.0094 0.0000 -3.0233 0.0000
# 3 63.3728 27.0094 157.7918 0.0000 -13.7645 0.0000
# 4 0.0000 0.0000 0.0000 24.9424 0.0000 -2.6474
# 5 -4.1674 -3.0233 -13.7645 0.0000 29.3321 0.0000
# 6 0.0000 0.0000 0.0000 -2.6474 0.0000 32.2011
#
#
#
# Elastic Compliance Matrix: (Units=1/GPa)
#
#
# Indices 1 2 3 4 5 6 
#
# 1 0.021189 -0.007865 -0.007269 0.000000 -0.001211 0.000000
# 2 -0.007865 0.021865 -0.000505 0.000000 0.000899 0.000000
# 3 -0.007269 -0.000505 0.009644 0.000000 0.003441 0.000000
# 4 0.000000 0.000000 0.000000 0.040445 0.000000 0.003325
# 5 -0.001211 0.000899 0.003441 0.000000 0.035627 0.000000
# 6 0.000000 0.000000 0.000000 0.003325 0.000000 0.031328
#
#
# Mechanical properties :
#
#
# Convention : Reuss Voigt Hill
#
# Bulk Modulus (GPa) = 46.69048 59.64226 53.16637
# Shear Modulus (GPa) = 25.18679 28.92241 27.05460
#
# Velocity S-wave (km/s) = 3.51326 3.76480 3.64120
# Velocity P-wave (km/s) = 6.27204 6.93733 6.61306
#
# Compressibility (1/GPa) = 0.02141764
#
# Stress axis : x y z
#
# Youngs Moduli (GPa) = 47.19525 45.73533 103.69589
#
# Poissons Ratio (x) = 0.35971 0.75379
# Poissons Ratio (y) = 0.37119 0.05241
# Poissons Ratio (z) = 0.34307 0.02312
#
# Static dielectric constant tensor:
#      x y z
#    x 3.540090 0.000000 -0.082700 
#    y 0.000000 3.394710 0.000000 
#    z -0.082700 0.000000 4.135170 
# 
# 
# High freq. dielectric constant tensor:
#      x y z
#    x 1.789770 0.000000 -0.001590 
#    y 0.000000 1.781560 0.000000 
#    z -0.001590 0.000000 1.820500 
# 
# From -- ./inp_files/152567.got.cif
#   From: 2010.06.25/outbox.cif.g09.slc.cpg/sg15_77_cif.got.tgz:152567.got - 2010.06.28 07:06:18.
