data_PCOD8142514
_publ_section_title
;
Structure prediction by ZEFSAII (Michael W. Deem and Ramdas Pophale) SiO2 
 PCOD8142514
Probable space group: C 2/C
;
_chemical_formula_sum "Si O2"
_cell_formula_units_Z 64
_cell_length_a 28.675499
_cell_length_b 8.825097
_cell_length_c 12.999983
_cell_angle_alpha 90.000000
_cell_angle_beta 114.086902
_cell_angle_gamma 90.000000
_cell_volume 3003.374887
_symmetry_space_group_name_H-M "C 2/C"
_symmetry_group_IT_number 15
_symmetry_cell_setting 'monoclinic'
loop_
_space_group_symop_operation_xyz
x,y,z
-x,y,1/2-z
-x,-y,-z
x,-y,1/2+z
1/2+x,1/2+y,z
1/2-x,1/2+y,1/2-z
1/2-x,1/2-y,-z
1/2+x,1/2-y,1/2+z
loop_
_atom_site_type_symbol
_atom_site_label
_atom_site_fract_x
_atom_site_fract_y
_atom_site_fract_z
Si Si1 0.377513 0.814738 0.775098
Si Si2 0.200706 0.489006 0.666201
Si Si3 0.962956 0.624093 0.511611
Si Si4 0.966510 0.894259 0.900787
Si Si5 0.117044 0.014035 0.306485
Si Si6 0.379656 0.373299 0.984750
Si Si7 0.116626 0.553384 0.430363
Si Si8 0.803822 0.181916 0.254626
O O1 0.429484 0.808612 0.888059
O O2 0.364666 0.648671 0.720373
O O3 0.381220 0.947266 0.691539
O O4 0.330018 0.859454 0.802216
O O5 0.171247 0.523314 0.532890
O O6 0.206392 0.637433 0.744610
O O7 0.254333 0.416444 0.683302
O O8 0.926737 0.561244 0.569205
O O9 0.000000 0.500000 0.500000
O O10 0.000515 0.747074 0.595200
O O11 0.943307 0.958531 0.773213
O O12 0.914733 0.879727 0.917415
O O13 0.000000 0.000000 0.000000
O O14 0.118561 0.012441 0.432843
O O15 0.155049 0.145608 0.299180
O O16 0.399736 0.224029 0.059201
O O17 0.323019 0.368704 0.885519
#
# Coordination Sequence:
#
# PCOD8142514 Si02
#       8
#     8   8   8   8   8   8   8   8
#     4  10  21  39  61  86 118 156 201 246 300 352
#     4  10  21  39  63  88 119 156 196 246 299 364
#     4  11  21  38  62  83 122 160 202 247 296 352
#     4  11  21  38  58  89 119 158 200 246 303 349
#     4  10  21  39  61  86 119 156 198 250 295 357
#     4   9  20  39  61  83 118 157 200 242 296 358
#     4   9  20  39  61  86 113 159 203 243 288 359
#     4  10  21  39  63  87 118 156 196 244 304 359
#
# _framework density 21.309360999999999
#
# number of rings (size 3 to 8) (size 9 to 14) (size 15 to 20)
#    0.000    2.000    2.500    0.750    1.750    2.000 
#    2.250    6.250    0.000    0.000    0.000    0.000 
#    0.000    0.000    0.000    0.000    0.000    0.000 
#
# Total GULP energy -396578.007435 kJ/mol
# GULP energy per Si atom -12393.062732 kJ/mol
# Density = 2.126086 g / cm^3
# Si number density = 21.309361 Si / 1000 Ang^3
#
#
#
# Elastic Constant Matrix: (Units=GPa)
#
#
# Indices 1 2 3 4 5 6 
#
# 1 70.7638 18.4092 25.5245 0.0000 20.0558 0.0000
# 2 18.4092 74.4742 14.5667 0.0000 16.1843 0.0000
# 3 25.5245 14.5667 74.1245 0.0000 3.6914 0.0000
# 4 0.0000 0.0000 0.0000 31.2147 0.0000 8.5794
# 5 20.0558 16.1843 3.6914 0.0000 29.7968 0.0000
# 6 0.0000 0.0000 0.0000 8.5794 0.0000 30.3028
#
#
#
# Elastic Compliance Matrix: (Units=1/GPa)
#
#
# Indices 1 2 3 4 5 6 
#
# 1 0.020058 -0.001132 -0.006080 0.000000 -0.012132 0.000000
# 2 -0.001132 0.015802 -0.002340 0.000000 -0.007531 0.000000
# 3 -0.006080 -0.002340 0.015875 0.000000 0.003397 0.000000
# 4 0.000000 0.000000 0.000000 0.034740 0.000000 -0.009836
# 5 -0.012132 -0.007531 0.003397 0.000000 0.045396 0.000000
# 6 0.000000 0.000000 0.000000 -0.009836 0.000000 0.035785
#
#
# Mechanical properties :
#
#
# Convention : Reuss Voigt Hill
#
# Bulk Modulus (GPa) = 30.64750 37.37368 34.01059
# Shear Modulus (GPa) = 25.29893 28.98701 27.14297
#
# Velocity S-wave (km/s) = 3.44935 3.69222 3.57285
# Velocity P-wave (km/s) = 5.50249 5.97941 5.74590
#
# Compressibility (1/GPa) = 0.03262909
#
# Stress axis : x y z
#
# Youngs Moduli (GPa) = 49.85626 63.28458 62.99128
#
# Poissons Ratio (x) = 0.07166 0.38299
# Poissons Ratio (y) = 0.05645 0.14742
# Poissons Ratio (z) = 0.30313 0.14811
#
# Static dielectric constant tensor:
#      x y z
#    x 3.515010 0.000000 0.033790 
#    y 0.000000 3.780910 0.000000 
#    z 0.033790 0.000000 4.149480 
# 
# 
# High freq. dielectric constant tensor:
#      x y z
#    x 1.825270 0.000000 0.008700 
#    y 0.000000 1.835440 0.000000 
#    z 0.008700 0.000000 1.839990 
# 
# From -- ./inp_files/180836.got.cif
#   From: 2010.06.25/outbox.cif.g09.slc.cpg/sg15_91_cif.got.tgz:180836.got - 2010.06.28 07:06:18.
