data_PCOD8142466
_publ_section_title
;
Structure prediction by ZEFSAII (Michael W. Deem and Ramdas Pophale) SiO2 
 PCOD8142466
Probable space group: C 2/C
;
_chemical_formula_sum "Si O2"
_cell_formula_units_Z 52
_cell_length_a 17.171643
_cell_length_b 21.964789
_cell_length_c 15.532610
_cell_angle_alpha 90.000000
_cell_angle_beta 27.233505
_cell_angle_gamma 90.000000
_cell_volume 2680.935593
_symmetry_space_group_name_H-M "C 2/C"
_symmetry_group_IT_number 15
_symmetry_cell_setting 'monoclinic'
loop_
_space_group_symop_operation_xyz
x,y,z
-x,y,1/2-z
-x,-y,-z
x,-y,1/2+z
1/2+x,1/2+y,z
1/2-x,1/2+y,1/2-z
1/2-x,1/2-y,-z
1/2+x,1/2-y,1/2+z
loop_
_atom_site_type_symbol
_atom_site_label
_atom_site_fract_x
_atom_site_fract_y
_atom_site_fract_z
Si Si1 0.288585 0.926104 0.853978
Si Si2 0.475764 0.047037 0.677735
Si Si3 0.159479 0.082159 0.880445
Si Si4 0.666362 0.677968 0.736437
Si Si5 0.696683 0.539872 0.256322
Si Si6 0.468647 0.198872 0.185637
Si Si7 0.000000 0.101951 0.750000
O O1 0.211306 0.928958 0.835103
O O2 0.341540 0.857254 0.820587
O O3 0.441243 0.974430 0.712909
O O4 0.147778 0.941498 0.065917
O O5 0.500000 0.072249 0.750000
O O6 0.316515 0.082485 0.792468
O O7 0.648285 0.060524 0.456038
O O8 0.138140 0.148094 0.857954
O O9 0.197048 0.033215 0.767183
O O10 0.985462 0.062970 0.101732
O O11 0.612315 0.748629 0.793919
O O12 0.864479 0.672757 0.522101
O O13 0.558490 0.644104 0.770615
O O14 0.500000 0.226312 0.250000
#
# Coordination Sequence:
#
# PCOD8142466 Si02
#       7
#     8   8   8   8   8   8   4
#     4  11  22  37  58  85 124 161 196 236 287 350
#     4  11  24  39  60  89 115 154 203 249 302 355
#     4  10  22  39  58  83 117 160 194 250 292 345
#     4  12  23  37  53  83 124 161 204 233 283 343
#     4  10  21  39  60  81 119 154 197 246 299 348
#     4  12  22  34  53  81 125 164 197 238 271 346
#     4  12  22  34  56  84 120 168 202 224 272 352
#
# _framework density 19.396214000000001
#
# number of rings (size 3 to 8) (size 9 to 14) (size 15 to 20)
#    0.000    0.923    3.846    5.538    2.154    0.615 
#    0.000    0.000    0.000    0.000    0.000    4.308 
#    0.000    0.000    0.000    0.000    0.000    0.000 
#
# Total GULP energy -322448.323399 kJ/mol
# GULP energy per Si atom -12401.858592 kJ/mol
# Density = 1.935207 g / cm^3
# Si number density = 19.396214 Si / 1000 Ang^3
#
#
#
# Elastic Constant Matrix: (Units=GPa)
#
#
# Indices 1 2 3 4 5 6 
#
# 1 100.8274 39.7372 46.4079 0.0101 -5.7923 -0.0113
# 2 39.7372 83.4030 19.0851 0.0306 4.7517 -0.0253
# 3 46.4079 19.0851 133.8030 0.0026 -14.7399 -0.0039
# 4 0.0101 0.0306 0.0026 15.1676 -0.0343 8.1252
# 5 -5.7923 4.7517 -14.7399 -0.0343 25.0778 0.0344
# 6 -0.0113 -0.0253 -0.0039 8.1252 0.0344 16.1353
#
#
#
# Elastic Compliance Matrix: (Units=1/GPa)
#
#
# Indices 1 2 3 4 5 6 
#
# 1 0.014164 -0.005998 -0.003819 0.000015 0.002163 -0.000013
# 2 -0.005998 0.015250 -0.000605 -0.000072 -0.004631 0.000066
# 3 -0.003819 -0.000605 0.009409 0.000026 0.004763 -0.000025
# 4 0.000015 -0.000072 0.000026 0.090287 0.000218 -0.045466
# 5 0.002163 -0.004631 0.004763 0.000218 0.044053 -0.000208
# 6 -0.000013 0.000066 -0.000025 -0.045466 -0.000208 0.084871
#
#
# Mechanical properties :
#
#
# Convention : Reuss Voigt Hill
#
# Bulk Modulus (GPa) = 55.61794 58.72152 57.16973
# Shear Modulus (GPa) = 17.55188 25.46303 21.50745
#
# Velocity S-wave (km/s) = 3.01144 3.62717 3.33355
# Velocity P-wave (km/s) = 6.38972 6.91970 6.65999
#
# Compressibility (1/GPa) = 0.01797981
#
# Stress axis : x y z
#
# Youngs Moduli (GPa) = 70.60363 65.57425 106.27967
#
# Poissons Ratio (x) = 0.39329 0.40585
# Poissons Ratio (y) = 0.42346 0.06431
# Poissons Ratio (z) = 0.26961 0.03968
#
# Static dielectric constant tensor:
#      x y z
#    x 3.622200 -0.000060 -0.229890 
#    y -0.000060 3.328190 0.000340 
#    z -0.229890 0.000340 3.695420 
# 
# 
# High freq. dielectric constant tensor:
#      x y z
#    x 1.744230 -0.000010 -0.025150 
#    y -0.000010 1.723090 0.000010 
#    z -0.025150 0.000010 1.766960 
# 
# From -- ./inp_files/164002.got.cif
#   From: 2010.06.25/outbox.cif.g09.slc.cpg/sg15_83_cif.got.tgz:164002.got - 2010.06.28 07:06:18.
