data_PCOD8142092
_publ_section_title
;
Structure prediction by ZEFSAII (Michael W. Deem and Ramdas Pophale) SiO2 
 PCOD8142092
Probable space group: C 2/C
;
_chemical_formula_sum "Si O2"
_cell_formula_units_Z 64
_cell_length_a 24.265295
_cell_length_b 20.069259
_cell_length_c 8.781620
_cell_angle_alpha 90.000000
_cell_angle_beta 127.950034
_cell_angle_gamma 90.000000
_cell_volume 3372.246655
_symmetry_space_group_name_H-M "C 2/C"
_symmetry_group_IT_number 15
_symmetry_cell_setting 'monoclinic'
loop_
_space_group_symop_operation_xyz
x,y,z
-x,y,1/2-z
-x,-y,-z
x,-y,1/2+z
1/2+x,1/2+y,z
1/2-x,1/2+y,1/2-z
1/2-x,1/2-y,-z
1/2+x,1/2-y,1/2+z
loop_
_atom_site_type_symbol
_atom_site_label
_atom_site_fract_x
_atom_site_fract_y
_atom_site_fract_z
Si Si1 0.312271 0.076841 0.344946
Si Si2 0.310621 0.938998 0.200146
Si Si3 0.453350 0.861839 0.046993
Si Si4 0.054290 0.369569 0.946783
Si Si5 0.291240 0.677485 0.930005
Si Si6 0.711675 0.303771 0.718956
Si Si7 0.431684 0.717027 0.046713
Si Si8 0.073377 0.229819 0.822356
O O1 0.321238 0.062531 0.538281
O O2 0.386063 0.094586 0.389266
O O3 0.257392 0.136104 0.228553
O O4 0.286245 0.011515 0.213194
O O5 0.383662 0.917214 0.398612
O O6 0.250040 0.891066 0.157915
O O7 0.500000 0.901723 0.250000
O O8 0.424031 0.794824 0.081221
O O9 0.506007 0.841848 0.001305
O O10 0.080987 0.306484 0.892917
O O11 0.000000 0.412158 0.750000
O O12 0.251726 0.733918 0.763024
O O13 0.300737 0.693819 0.122729
O O14 0.368643 0.670691 0.995477
O O15 0.638726 0.308806 0.506114
O O16 0.500000 0.687857 0.250000
O O17 0.428903 0.718318 0.860542
O O18 0.000000 0.198201 0.750000
#
# Coordination Sequence:
#
# PCOD8142092 Si02
#       8
#     8   8   8   8   8   8   8   8
#     4  11  25  41  60  86 119 168 201 249 295 358
#     4  11  25  42  59  84 123 163 207 243 302 352
#     4  11  21  36  58  85 122 159 207 237 288 354
#     4  11  22  37  55  89 121 162 201 247 289 350
#     4  10  21  38  62  87 117 159 198 251 298 356
#     4  10  21  38  62  86 119 156 203 247 303 349
#     4  11  22  35  60  90 121 154 195 249 304 356
#     4  11  21  36  58  92 122 151 196 250 303 352
#
# _framework density 18.978446999999999
#
# number of rings (size 3 to 8) (size 9 to 14) (size 15 to 20)
#    0.000    1.250    6.250    0.750    3.500    2.500 
#    0.000    0.000    0.000    0.750    0.000    5.250 
#    0.000    0.000    0.000    0.000    0.000    0.000 
#
# Total GULP energy -396557.248141 kJ/mol
# GULP energy per Si atom -12392.414004 kJ/mol
# Density = 1.893525 g / cm^3
# Si number density = 18.978447 Si / 1000 Ang^3
#
#
#
# Elastic Constant Matrix: (Units=GPa)
#
#
# Indices 1 2 3 4 5 6 
#
# 1 104.0778 41.0027 35.5460 0.0000 19.7966 0.0000
# 2 41.0027 80.5121 36.6505 0.0000 13.1268 0.0000
# 3 35.5460 36.6505 119.7972 0.0000 23.5577 0.0000
# 4 0.0000 0.0000 0.0000 26.6487 0.0000 -1.0537
# 5 19.7966 13.1268 23.5577 0.0000 30.6257 0.0000
# 6 0.0000 0.0000 0.0000 -1.0537 0.0000 21.6675
#
#
#
# Elastic Compliance Matrix: (Units=1/GPa)
#
#
# Indices 1 2 3 4 5 6 
#
# 1 0.013102 -0.005247 -0.001248 0.000000 -0.005260 0.000000
# 2 -0.005247 0.016818 -0.003343 0.000000 -0.001245 0.000000
# 3 -0.001248 -0.003343 0.010958 0.000000 -0.006189 0.000000
# 4 0.000000 0.000000 0.000000 0.037598 0.000000 0.001828
# 5 -0.005260 -0.001245 -0.006189 0.000000 0.041347 0.000000
# 6 0.000000 0.000000 0.000000 0.001828 0.000000 0.046241
#
#
# Mechanical properties :
#
#
# Convention : Reuss Voigt Hill
#
# Bulk Modulus (GPa) = 47.16811 58.97614 53.07213
# Shear Modulus (GPa) = 25.93279 28.53425 27.23352
#
# Velocity S-wave (km/s) = 3.70054 3.88172 3.79221
# Velocity P-wave (km/s) = 6.57009 7.15773 6.87020
#
# Compressibility (1/GPa) = 0.02120076
#
# Stress axis : x y z
#
# Youngs Moduli (GPa) = 76.32411 59.46182 91.26008
#
# Poissons Ratio (x) = 0.31198 0.11389
# Poissons Ratio (y) = 0.40045 0.30513
# Poissons Ratio (z) = 0.09525 0.19881
#
# Static dielectric constant tensor:
#      x y z
#    x 3.501170 0.000000 0.062130 
#    y 0.000000 3.194530 0.000000 
#    z 0.062130 0.000000 3.726280 
# 
# 
# High freq. dielectric constant tensor:
#      x y z
#    x 1.742800 0.000000 -0.000100 
#    y 0.000000 1.695200 0.000000 
#    z -0.000100 0.000000 1.754100 
# 
# From -- ./inp_files/63434.got.cif
#   From: 2010.06.25/outbox.cif.g09.slc.cpg/sg15_32_cif.got.tgz:63434.got - 2010.06.28 07:06:18.
