data_PCOD8142090
_publ_section_title
;
Structure prediction by ZEFSAII (Michael W. Deem and Ramdas Pophale) SiO2 
 PCOD8142090
Probable space group: C 2/C
;
_chemical_formula_sum "Si O2"
_cell_formula_units_Z 48
_cell_length_a 14.082825
_cell_length_b 12.322753
_cell_length_c 13.883824
_cell_angle_alpha 90.000000
_cell_angle_beta 104.331542
_cell_angle_gamma 90.000000
_cell_volume 2334.406272
_symmetry_space_group_name_H-M "C 2/C"
_symmetry_group_IT_number 15
_symmetry_cell_setting 'monoclinic'
loop_
_space_group_symop_operation_xyz
x,y,z
-x,y,1/2-z
-x,-y,-z
x,-y,1/2+z
1/2+x,1/2+y,z
1/2-x,1/2+y,1/2-z
1/2-x,1/2-y,-z
1/2+x,1/2-y,1/2+z
loop_
_atom_site_type_symbol
_atom_site_label
_atom_site_fract_x
_atom_site_fract_y
_atom_site_fract_z
Si Si1 0.384063 0.538390 0.729098
Si Si2 0.743776 0.334793 0.799849
Si Si3 0.235058 0.603391 0.837534
Si Si4 0.698095 0.748063 0.884302
Si Si5 0.395494 0.988713 0.358602
Si Si6 0.388228 0.952738 0.573442
O O1 0.500000 0.532784 0.750000
O O2 0.341353 0.419603 0.693386
O O3 0.343494 0.569443 0.825779
O O4 0.345872 0.628999 0.644788
O O5 0.734963 0.230090 0.867558
O O6 0.734303 0.289320 0.687694
O O7 0.849733 0.390302 0.842864
O O8 0.156527 0.586780 0.732021
O O9 0.203439 0.529153 0.918937
O O10 0.612223 0.837829 0.871974
O O11 0.750000 0.750000 0.000000
O O12 0.511227 0.990554 0.369600
O O13 0.376767 0.933791 0.457116
#
# Coordination Sequence:
#
# PCOD8142090 Si02
#       6
#     8   8   8   8   8   8
#     4  10  22  38  60  90 120 164 204 245 308 370
#     4  10  21  40  60  84 128 156 202 255 308 363
#     4  10  21  38  62  85 121 165 193 255 310 354
#     4  11  22  38  65  86 123 163 208 252 306 365
#     4  10  22  38  60  99 116 154 213 257 307 362
#     4  11  21  37  65  91 121 156 209 257 305 371
#
# _framework density 20.561973999999999
#
# number of rings (size 3 to 8) (size 9 to 14) (size 15 to 20)
#    0.000    1.667    3.333    3.500    4.667    2.000 
#    0.000    0.833    0.000    0.000    0.000    0.000 
#    0.000    0.000    0.000    0.000    0.000    0.000 
#
# Total GULP energy -297438.921797 kJ/mol
# GULP energy per Si atom -12393.288408 kJ/mol
# Density = 2.051517 g / cm^3
# Si number density = 20.561974 Si / 1000 Ang^3
#
#
#
# Elastic Constant Matrix: (Units=GPa)
#
#
# Indices 1 2 3 4 5 6 
#
# 1 123.0586 30.9357 10.2684 0.0000 -11.9771 0.0000
# 2 30.9357 121.7568 -13.1701 0.0000 -12.9297 0.0000
# 3 10.2684 -13.1701 44.1432 0.0000 -9.5210 0.0000
# 4 0.0000 0.0000 0.0000 29.7894 0.0000 -2.2584
# 5 -11.9771 -12.9297 -9.5210 0.0000 21.4125 0.0000
# 6 0.0000 0.0000 0.0000 -2.2584 0.0000 16.4292
#
#
#
# Elastic Compliance Matrix: (Units=1/GPa)
#
#
# Indices 1 2 3 4 5 6 
#
# 1 0.009150 -0.002270 -0.002210 0.000000 0.002765 0.000000
# 2 -0.002270 0.010089 0.005064 0.000000 0.007074 0.000000
# 3 -0.002210 0.005064 0.027731 0.000000 0.014152 0.000000
# 4 0.000000 0.000000 0.000000 0.033922 0.000000 0.004663
# 5 0.002765 0.007074 0.014152 0.000000 0.058812 0.000000
# 6 0.000000 0.000000 0.000000 0.004663 0.000000 0.061508
#
#
# Mechanical properties :
#
#
# Convention : Reuss Voigt Hill
#
# Bulk Modulus (GPa) = 20.77364 38.33631 29.55498
# Shear Modulus (GPa) = 23.13840 30.92119 27.02980
#
# Velocity S-wave (km/s) = 3.35819 3.88210 3.62961
# Velocity P-wave (km/s) = 5.01612 6.22728 5.65422
#
# Compressibility (1/GPa) = 0.04813792
#
# Stress axis : x y z
#
# Youngs Moduli (GPa) = 109.28463 99.11936 36.06112
#
# Poissons Ratio (x) = 0.22503 0.07968
# Poissons Ratio (y) = 0.24811 -0.18261
# Poissons Ratio (z) = 0.24147 -0.50192
#
# Static dielectric constant tensor:
#      x y z
#    x 3.768870 0.000000 -0.215680 
#    y 0.000000 4.086060 0.000000 
#    z -0.215680 0.000000 3.596000 
# 
# 
# High freq. dielectric constant tensor:
#      x y z
#    x 1.791560 0.000000 -0.016150 
#    y 0.000000 1.818780 0.000000 
#    z -0.016150 0.000000 1.787490 
# 
# From -- ./inp_files/152083.got.cif
#   From: 2010.06.25/outbox.cif.g09.slc.cpg/sg15_77_cif.got.tgz:152083.got - 2010.06.28 07:06:18.
