data_PCOD8142294
_publ_section_title
;
Structure prediction by ZEFSAII (Michael W. Deem and Ramdas Pophale) SiO2 
 PCOD8142294
Probable space group: C 2/C
;
_chemical_formula_sum "Si O2"
_cell_formula_units_Z 48
_cell_length_a 9.097955
_cell_length_b 15.062418
_cell_length_c 25.877607
_cell_angle_alpha 90.000000
_cell_angle_beta 137.172776
_cell_angle_gamma 90.000000
_cell_volume 2410.667284
_symmetry_space_group_name_H-M "C 2/C"
_symmetry_group_IT_number 15
_symmetry_cell_setting 'monoclinic'
loop_
_space_group_symop_operation_xyz
x,y,z
-x,y,1/2-z
-x,-y,-z
x,-y,1/2+z
1/2+x,1/2+y,z
1/2-x,1/2+y,1/2-z
1/2-x,1/2-y,-z
1/2+x,1/2-y,1/2+z
loop_
_atom_site_type_symbol
_atom_site_label
_atom_site_fract_x
_atom_site_fract_y
_atom_site_fract_z
Si Si1 0.290544 0.251245 0.730047
Si Si2 0.676840 0.425638 0.042753
Si Si3 0.064140 0.179967 0.939086
Si Si4 0.755595 0.488541 0.954954
Si Si5 0.577536 0.075782 0.712362
Si Si6 0.923079 0.932286 0.787645
O O1 0.500000 0.272222 0.750000
O O2 0.334320 0.172693 0.782996
O O3 0.272149 0.344410 0.755877
O O4 0.082519 0.227101 0.641950
O O5 0.580840 0.337594 0.046247
O O6 0.889214 0.459971 0.127463
O O7 0.500000 0.500000 0.000000
O O8 0.743548 0.418912 0.999934
O O9 0.157605 0.085981 0.942689
O O10 0.250000 0.250000 0.000000
O O11 0.631273 0.435840 0.878023
O O12 0.000000 0.500000 0.000000
O O13 0.500000 0.095447 0.750000
O O14 0.772526 0.010301 0.767383
O O15 0.000000 0.951781 0.750000
#
# Coordination Sequence:
#
# PCOD8142294 Si02
#       6
#     8   8   8   8   8   8
#     4  10  21  40  66  90 122 171 221 253 321 388
#     4  10  21  38  65  93 125 166 213 263 325 388
#     4  11  23  41  68  95 130 171 223 267 328 404
#     4  11  24  42  63 100 133 169 215 272 340 396
#     4  11  19  41  67  89 121 166 216 265 310 394
#     4  11  24  40  65  90 130 169 212 264 334 388
#
# _framework density 19.911498999999999
#
# number of rings (size 3 to 8) (size 9 to 14) (size 15 to 20)
#    0.000    1.333    5.000    2.000    9.333    0.000 
#    0.000    5.833    0.000    0.000    0.000    0.000 
#    0.000    0.000    0.000    0.000    0.000    0.000 
#
# Total GULP energy -297378.865297 kJ/mol
# GULP energy per Si atom -12390.786054 kJ/mol
# Density = 1.986618 g / cm^3
# Si number density = 19.911499 Si / 1000 Ang^3
#
#
#
# Elastic Constant Matrix: (Units=GPa)
#
#
# Indices 1 2 3 4 5 6 
#
# 1 88.3252 29.5946 44.6616 -0.0001 -4.2865 0.0003
# 2 29.5946 113.3079 34.1862 0.0001 0.1305 -0.0002
# 3 44.6616 34.1862 166.3271 0.0008 -3.9883 -0.0031
# 4 -0.0001 0.0001 0.0008 -7.0155 0.0001 141.1733
# 5 -4.2865 0.1305 -3.9883 0.0001 35.3943 -0.0003
# 6 0.0003 -0.0002 -0.0031 141.1733 -0.0003 -620.3379
#
#
#
# Elastic Compliance Matrix: (Units=1/GPa)
#
#
# Indices 1 2 3 4 5 6 
#
# 1 0.013873 -0.002677 -0.003143 0.000000 0.001336 0.000000
# 2 -0.002677 0.009928 -0.001334 0.000000 -0.000511 0.000000
# 3 -0.003143 -0.001334 0.007141 0.000000 0.000429 0.000000
# 4 0.000000 0.000000 0.000000 0.039822 0.000000 0.009062
# 5 0.001336 -0.000511 0.000429 0.000000 0.028465 0.000000
# 6 0.000000 0.000000 0.000000 0.009062 0.000000 0.000450
#
#
# Mechanical properties :
#
#
# Convention : Reuss Voigt Hill
#
# Bulk Modulus (GPa) = 60.11822 64.98278 62.55050
# Shear Modulus (GPa) = 41.83056 -101.09063 -29.63004
#
# Velocity S-wave (km/s) = 4.58845 -7.13304 -3.86176
# Velocity P-wave (km/s) = 7.63741 5.92736 3.40562
#
# Compressibility (1/GPa) = 0.01663389
#
# Stress axis : x y z
#
# Youngs Moduli (GPa) = 72.08423 100.72827 140.04363
#
# Poissons Ratio (x) = 0.26962 0.44014
# Poissons Ratio (y) = 0.19295 0.18682
# Poissons Ratio (z) = 0.22655 0.13437
#
# Static dielectric constant tensor:
#      x y z
#    x 3.667190 0.000000 -0.022890 
#    y 0.000000 3.953380 0.000000 
#    z -0.022890 0.000000 3.648770 
# 
# 
# High freq. dielectric constant tensor:
#      x y z
#    x 1.758720 0.000000 0.011140 
#    y 0.000000 1.780340 0.000000 
#    z 0.011140 0.000000 1.795690 
# 
# From -- ./inp_files/289081.got.cif
#   From: 2010.06.25/outbox.cif.g09.slc.cpg/sg15_145_cif.got.tgz:289081.got - 2010.06.28 07:06:18.
