data_PCOD8142963
_publ_section_title
;
Structure prediction by ZEFSAII (Michael W. Deem and Ramdas Pophale) SiO2 
 PCOD8142963
Probable space group: C 2/C
;
_chemical_formula_sum "Si O2"
_cell_formula_units_Z 32
_cell_length_a 11.324484
_cell_length_b 19.380531
_cell_length_c 14.715367
_cell_angle_alpha 90.000000
_cell_angle_beta 153.964238
_cell_angle_gamma 90.000000
_cell_volume 1417.596044
_symmetry_space_group_name_H-M "C 2/C"
_symmetry_group_IT_number 15
_symmetry_cell_setting 'monoclinic'
loop_
_space_group_symop_operation_xyz
x,y,z
-x,y,1/2-z
-x,-y,-z
x,-y,1/2+z
1/2+x,1/2+y,z
1/2-x,1/2+y,1/2-z
1/2-x,1/2-y,-z
1/2+x,1/2-y,1/2+z
loop_
_atom_site_type_symbol
_atom_site_label
_atom_site_fract_x
_atom_site_fract_y
_atom_site_fract_z
Si Si1 0.575817 0.308904 0.660390
Si Si2 0.581845 0.838122 0.431798
Si Si3 0.715804 0.594728 0.100754
Si Si4 0.198774 0.468985 0.211024
O O1 0.624664 0.226195 0.698946
O O2 0.261740 0.324845 0.466064
O O3 0.646489 0.335879 0.608768
O O4 0.751134 0.345221 0.859107
O O5 0.440108 0.911571 0.321209
O O6 0.723281 0.533678 0.176632
O O7 0.000000 0.607175 0.250000
O O8 0.472976 0.570534 0.863896
O O9 0.000000 0.500000 0.000000
#
# Coordination Sequence:
#
# PCOD8142963 Si02
#       4
#     8   8   8   8
#     4  10  21  41  65  97 127 169 219 278 321 382
#     4  10  21  39  69  93 126 167 225 273 322 381
#     4  11  26  42  65  97 135 173 212 267 337 396
#     4  11  24  43  66  95 131 171 219 266 324 390
#
# _framework density 22.573426000000001
#
# number of rings (size 3 to 8) (size 9 to 14) (size 15 to 20)
#    0.000    1.500    2.500    1.500    7.000    3.000 
#    0.000    5.000    0.000    0.000    0.000    0.000 
#    0.000    0.000    0.000    0.000    0.000    0.000 
#
# Total GULP energy -198269.676667 kJ/mol
# GULP energy per Si atom -12391.854792 kJ/mol
# Density = 2.252205 g / cm^3
# Si number density = 22.573426 Si / 1000 Ang^3
#
#
#
# Elastic Constant Matrix: (Units=GPa)
#
#
# Indices 1 2 3 4 5 6 
#
# 1 112.1366 25.7227 38.4378 0.0299 24.1852 0.0036
# 2 25.7227 91.5497 4.7567 0.0539 12.3609 0.0032
# 3 38.4378 4.7567 84.6762 0.0991 16.6825 0.0183
# 4 0.0299 0.0539 0.0991 34.1936 0.0223 5.1407
# 5 24.1852 12.3609 16.6825 0.0223 28.9907 0.0031
# 6 0.0036 0.0032 0.0183 5.1407 0.0031 32.9909
#
#
#
# Elastic Compliance Matrix: (Units=1/GPa)
#
#
# Indices 1 2 3 4 5 6 
#
# 1 0.012359 -0.002320 -0.004109 0.000009 -0.006956 0.000000
# 2 -0.002320 0.012036 0.001135 -0.000018 -0.003850 0.000002
# 3 -0.004109 0.001135 0.014698 -0.000037 -0.005514 -0.000002
# 4 0.000009 -0.000018 -0.000037 0.029947 -0.000001 -0.004666
# 5 -0.006956 -0.003850 -0.005514 -0.000001 0.045111 0.000000
# 6 0.000000 0.000002 -0.000002 -0.004666 0.000000 0.031039
#
#
# Mechanical properties :
#
#
# Convention : Reuss Voigt Hill
#
# Bulk Modulus (GPa) = 35.08187 47.35520 41.21853
# Shear Modulus (GPa) = 30.25217 33.86472 32.05845
#
# Velocity S-wave (km/s) = 3.66480 3.87745 3.77262
# Velocity P-wave (km/s) = 5.78642 6.40859 6.10543
#
# Compressibility (1/GPa) = 0.02850475
#
# Stress axis : x y z
#
# Youngs Moduli (GPa) = 80.91477 83.08677 68.03845
#
# Poissons Ratio (x) = 0.19273 0.27959
# Poissons Ratio (y) = 0.18770 -0.07725
# Poissons Ratio (z) = 0.33250 -0.09434
#
# Static dielectric constant tensor:
#      x y z
#    x 3.204060 0.003190 2.682040 
#    y 0.003190 4.297420 -0.018900 
#    z 2.682040 -0.018900 -10.440270 
# 
# 
# High freq. dielectric constant tensor:
#      x y z
#    x 1.839420 0.000000 0.002930 
#    y 0.000000 1.904600 0.000000 
#    z 0.002930 0.000000 1.920220 
# 
# From -- ./inp_files/88251.got.cif
#   From: 2010.06.25/outbox.cif.g09.slc.cpg/sg15_45_cif.got.tgz:88251.got - 2010.06.28 07:06:18.
