data_PCOD8142010
_publ_section_title
;
Structure prediction by ZEFSAII (Michael W. Deem and Ramdas Pophale) SiO2 
 PCOD8142010
Probable space group: C 2/C
;
_chemical_formula_sum "Si O2"
_cell_formula_units_Z 32
_cell_length_a 11.533923
_cell_length_b 21.898624
_cell_length_c 5.171257
_cell_angle_alpha 90.000000
_cell_angle_beta 95.872829
_cell_angle_gamma 90.000000
_cell_volume 1299.285459
_symmetry_space_group_name_H-M "C 2/C"
_symmetry_group_IT_number 15
_symmetry_cell_setting 'monoclinic'
loop_
_space_group_symop_operation_xyz
x,y,z
-x,y,1/2-z
-x,-y,-z
x,-y,1/2+z
1/2+x,1/2+y,z
1/2-x,1/2+y,1/2-z
1/2-x,1/2-y,-z
1/2+x,1/2-y,1/2+z
loop_
_atom_site_type_symbol
_atom_site_label
_atom_site_fract_x
_atom_site_fract_y
_atom_site_fract_z
Si Si1 0.820818 0.339717 0.425151
Si Si2 0.500000 0.456718 0.750000
Si Si3 0.327857 0.347987 0.620628
Si Si4 0.370822 0.974012 0.489853
Si Si5 0.500000 0.749236 0.250000
O O1 0.734191 0.320624 0.636107
O O2 0.880648 0.402181 0.528653
O O3 0.922788 0.290382 0.423211
O O4 0.759192 0.353404 0.138223
O O5 0.500000 0.500000 0.500000
O O6 0.386513 0.412829 0.706924
O O7 0.420308 0.295870 0.557982
O O8 0.500000 0.000000 0.500000
O O9 0.302625 0.995519 0.216333
#
# Coordination Sequence:
#
# PCOD8142010 Si02
#       5
#     8   4   8   8   4
#     4  12  25  44  70  99 135 179 221 279 340 395
#     4  11  24  46  72 100 138 181 222 276 334 397
#     4  11  27  45  69 102 133 175 231 277 330 403
#     4  10  21  38  60  94 131 165 207 259 324 394
#     4  11  26  48  70  96 136 177 228 282 336 395
#
# _framework density 24.628924000000001
#
# number of rings (size 3 to 8) (size 9 to 14) (size 15 to 20)
#    0.000    1.000    0.000    6.000    0.000   14.000 
#    0.000    0.000    0.000    0.000    0.000    0.000 
#    0.000    0.000    0.000    0.000    0.000    0.000 
#
# Total GULP energy -198358.976439 kJ/mol
# GULP energy per Si atom -12397.436027 kJ/mol
# Density = 2.457287 g / cm^3
# Si number density = 24.628924 Si / 1000 Ang^3
#
#
#
# Elastic Constant Matrix: (Units=GPa)
#
#
# Indices 1 2 3 4 5 6 
#
# 1 104.8365 54.3104 41.1091 0.0000 -10.9545 0.0000
# 2 54.3104 163.9816 35.8215 0.0000 -11.8625 0.0000
# 3 41.1091 35.8215 186.1874 0.0000 -17.8174 0.0000
# 4 0.0000 0.0000 0.0000 30.1083 0.0000 -6.7384
# 5 -10.9545 -11.8625 -17.8174 0.0000 24.8152 0.0000
# 6 0.0000 0.0000 0.0000 -6.7384 0.0000 48.6200
#
#
#
# Elastic Compliance Matrix: (Units=1/GPa)
#
#
# Indices 1 2 3 4 5 6 
#
# 1 0.012323 -0.003508 -0.001810 0.000000 0.002463 0.000000
# 2 -0.003508 0.007491 -0.000507 0.000000 0.001669 0.000000
# 3 -0.001810 -0.000507 0.006194 0.000000 0.003406 0.000000
# 4 0.000000 0.000000 0.000000 0.034277 0.000000 0.004750
# 5 0.002463 0.001669 0.003406 0.000000 0.044628 0.000000
# 6 0.000000 0.000000 0.000000 0.004750 0.000000 0.021226
#
#
# Mechanical properties :
#
#
# Convention : Reuss Voigt Hill
#
# Bulk Modulus (GPa) = 69.64571 79.72085 74.68328
# Shear Modulus (GPa) = 35.06899 42.29302 38.68100
#
# Velocity S-wave (km/s) = 3.77755 4.14842 3.96732
# Velocity P-wave (km/s) = 6.88229 7.44210 7.16766
#
# Compressibility (1/GPa) = 0.01435839
#
# Stress axis : x y z
#
# Youngs Moduli (GPa) = 81.14848 133.48475 161.44329
#
# Poissons Ratio (x) = 0.46823 0.29225
# Poissons Ratio (y) = 0.28465 0.08188
# Poissons Ratio (z) = 0.14690 0.06770
#
# Static dielectric constant tensor:
#      x y z
#    x 4.426130 0.000000 -0.085980 
#    y 0.000000 4.645070 0.000000 
#    z -0.085980 0.000000 3.597340 
# 
# 
# High freq. dielectric constant tensor:
#      x y z
#    x 1.973820 0.000000 -0.001180 
#    y 0.000000 2.004420 0.000000 
#    z -0.001180 0.000000 1.985660 
# 
# From -- ./inp_files/3704.got.cif
#   From: 2010.06.25/outbox.cif.g09.slc.cpg/sg15_2_cif.got.tgz:3704.got - 2010.06.28 07:06:18.
