data_PCOD8142483
_publ_section_title
;
Structure prediction by ZEFSAII (Michael W. Deem and Ramdas Pophale) SiO2 
 PCOD8142483
Probable space group: C 2/C
;
_chemical_formula_sum "Si O2"
_cell_formula_units_Z 40
_cell_length_a 10.891725
_cell_length_b 19.296038
_cell_length_c 9.419259
_cell_angle_alpha 90.000000
_cell_angle_beta 94.403314
_cell_angle_gamma 90.000000
_cell_volume 1973.775505
_symmetry_space_group_name_H-M "C 2/C"
_symmetry_group_IT_number 15
_symmetry_cell_setting 'monoclinic'
loop_
_space_group_symop_operation_xyz
x,y,z
-x,y,1/2-z
-x,-y,-z
x,-y,1/2+z
1/2+x,1/2+y,z
1/2-x,1/2+y,1/2-z
1/2-x,1/2-y,-z
1/2+x,1/2-y,1/2+z
loop_
_atom_site_type_symbol
_atom_site_label
_atom_site_fract_x
_atom_site_fract_y
_atom_site_fract_z
Si Si1 0.500000 0.465322 0.250000
Si Si2 0.355716 0.198585 0.703127
Si Si3 0.377942 0.596259 0.305007
Si Si4 0.000000 0.266259 0.750000
Si Si5 0.842201 0.848268 0.100008
Si Si6 0.210833 0.333870 0.604251
O O1 0.415208 0.515960 0.342496
O O2 0.408821 0.418447 0.152079
O O3 0.500000 0.196211 0.750000
O O4 0.287077 0.165798 0.833532
O O5 0.311585 0.274877 0.653217
O O6 0.313512 0.152218 0.564117
O O7 0.500000 0.633316 0.250000
O O8 0.324240 0.641519 0.430614
O O9 0.269392 0.596553 0.176447
O O10 0.072540 0.218170 0.867225
O O11 0.081948 0.315866 0.662952
#
# Coordination Sequence:
#
# PCOD8142483 Si02
#       6
#     4   8   8   4   8   8
#     4   9  22  38  66  84 116 145 204 254 292 335
#     4  10  23  37  59  83 126 159 189 240 287 357
#     4  10  23  34  62  89 114 151 195 251 287 345
#     4   9  22  34  60  84 126 155 190 242 280 361
#     4  10  21  39  60  88 114 158 198 237 299 340
#     4  10  22  36  56  89 121 156 199 231 295 344
#
# _framework density 20.265729
#
# number of rings (size 3 to 8) (size 9 to 14) (size 15 to 20)
#    0.600    1.600    0.000    1.200   16.800    1.600 
#    0.000    0.000    2.200    2.400    0.000    0.000 
#    0.000    0.000    0.000    0.000    0.000    0.000 
#
# Total GULP energy -247789.999354 kJ/mol
# GULP energy per Si atom -12389.499968 kJ/mol
# Density = 2.021960 g / cm^3
# Si number density = 20.265729 Si / 1000 Ang^3
#
#
#
# Elastic Constant Matrix: (Units=GPa)
#
#
# Indices 1 2 3 4 5 6 
#
# 1 150.7638 37.8178 58.6189 0.0000 -1.2786 0.0000
# 2 37.8178 50.4250 11.5104 0.0000 -3.1007 0.0000
# 3 58.6189 11.5104 112.2617 0.0000 -2.9892 0.0000
# 4 0.0000 0.0000 0.0000 7.7588 0.0000 12.5296
# 5 -1.2786 -3.1007 -2.9892 0.0000 32.6877 0.0000
# 6 0.0000 0.0000 0.0000 12.5296 0.0000 6.3139
#
#
#
# Elastic Compliance Matrix: (Units=1/GPa)
#
#
# Indices 1 2 3 4 5 6 
#
# 1 0.010053 -0.006530 -0.004597 0.000000 -0.000647 0.000000
# 2 -0.006530 0.024647 0.000940 0.000000 0.002169 0.000000
# 3 -0.004597 0.000940 0.011237 0.000000 0.000937 0.000000
# 4 0.000000 0.000000 0.000000 -0.058460 0.000000 0.116011
# 5 -0.000647 0.002169 0.000937 0.000000 0.030859 0.000000
# 6 0.000000 0.000000 0.000000 0.116011 0.000000 -0.071838
#
#
# Mechanical properties :
#
#
# Convention : Reuss Voigt Hill
#
# Bulk Modulus (GPa) = 39.11774 58.81610 48.96692
# Shear Modulus (GPa) = -203.18135 23.05229 -90.06453
#
# Velocity S-wave (km/s) = -10.02378 3.37634 -6.67370
# Velocity P-wave (km/s) = 10.70626 6.65470 5.93039
#
# Compressibility (1/GPa) = 0.02556385
#
# Stress axis : x y z
#
# Youngs Moduli (GPa) = 99.47627 40.57227 88.99490
#
# Poissons Ratio (x) = 0.26493 0.40909
# Poissons Ratio (y) = 0.64956 -0.08367
# Poissons Ratio (z) = 0.45728 -0.03815
#
# Static dielectric constant tensor:
#      x y z
#    x 3.710730 0.000000 -0.017160 
#    y 0.000000 3.378220 0.000000 
#    z -0.017160 0.000000 3.805120 
# 
# 
# High freq. dielectric constant tensor:
#      x y z
#    x 1.790290 0.000000 0.000890 
#    y 0.000000 1.758730 0.000000 
#    z 0.000890 0.000000 1.799560 
# 
# From -- ./inp_files/30473.got.cif
#   From: 2010.06.25/outbox.cif.g09.slc.cpg/sg15_16_cif.got.tgz:30473.got - 2010.06.28 07:06:18.
