data_PCOD8142949
_publ_section_title
;
Structure prediction by ZEFSAII (Michael W. Deem and Ramdas Pophale) SiO2 
 PCOD8142949
Probable space group: C 2/C
;
_chemical_formula_sum "Si O2"
_cell_formula_units_Z 64
_cell_length_a 22.683034
_cell_length_b 5.195319
_cell_length_c 31.551398
_cell_angle_alpha 90.000000
_cell_angle_beta 123.431972
_cell_angle_gamma 90.000000
_cell_volume 3102.983145
_symmetry_space_group_name_H-M "C 2/C"
_symmetry_group_IT_number 15
_symmetry_cell_setting 'monoclinic'
loop_
_space_group_symop_operation_xyz
x,y,z
-x,y,1/2-z
-x,-y,-z
x,-y,1/2+z
1/2+x,1/2+y,z
1/2-x,1/2+y,1/2-z
1/2-x,1/2-y,-z
1/2+x,1/2-y,1/2+z
loop_
_atom_site_type_symbol
_atom_site_label
_atom_site_fract_x
_atom_site_fract_y
_atom_site_fract_z
Si Si1 0.138630 0.828113 0.292239
Si Si2 0.180272 0.968443 0.436918
Si Si3 0.723196 0.735491 0.283680
Si Si4 0.225513 0.119550 0.132934
Si Si5 0.454236 0.983709 0.802974
Si Si6 0.656122 0.901929 0.174440
Si Si7 0.765183 0.031461 0.953437
Si Si8 0.044730 0.012458 0.329359
O O1 0.210653 0.826266 0.350263
O O2 0.108287 0.569471 0.256034
O O3 0.158938 0.032688 0.263998
O O4 0.075290 0.937948 0.295642
O O5 0.236925 0.177730 0.443241
O O6 0.104589 0.042237 0.388584
O O7 0.176747 0.988011 0.486918
O O8 0.202308 0.677580 0.433521
O O9 0.715494 0.812989 0.231852
O O10 0.805696 0.661488 0.325647
O O11 0.718552 0.954855 0.317117
O O12 0.157922 0.213575 0.133884
O O13 0.197585 0.003727 0.077795
O O14 0.494725 0.716180 0.825523
O O15 0.420705 0.062084 0.835584
O O16 0.504689 0.215667 0.808433
#
# Coordination Sequence:
#
# PCOD8142949 Si02
#       8
#     8   8   8   8   8   8   8   8
#     4  11  24  38  57  91 124 159 211 249 304 364
#     4  10  21  42  65  92 128 148 205 250 331 371
#     4  11  20  36  62  82 125 161 202 268 305 342
#     4  11  22  36  66  89 124 155 201 273 303 358
#     4  12  27  40  59  84 130 180 208 235 290 377
#     4  11  22  37  54  88 119 169 211 245 299 358
#     4  10  21  39  68  98 117 154 190 276 322 367
#     4  12  26  42  62  87 128 173 202 250 297 376
#
# _framework density 20.625312999999998
#
# number of rings (size 3 to 8) (size 9 to 14) (size 15 to 20)
#    0.000    1.000    3.750    3.375    5.250    2.000 
#    0.000    0.000    0.000    1.500    0.000    0.000 
#    0.000    0.000    0.000    0.000    0.000    0.000 
#
# Total GULP energy -396418.121013 kJ/mol
# GULP energy per Si atom -12388.066282 kJ/mol
# Density = 2.057837 g / cm^3
# Si number density = 20.625313 Si / 1000 Ang^3
#
#
#
# Elastic Constant Matrix: (Units=GPa)
#
#
# Indices 1 2 3 4 5 6 
#
# 1 91.7291 11.1086 21.1334 0.0006 -10.4589 -0.0005
# 2 11.1086 72.9659 2.3954 0.0016 1.3074 -0.0025
# 3 21.1334 2.3954 82.2031 -0.0003 -19.0541 -0.0013
# 4 0.0006 0.0016 -0.0003 18.8745 0.0002 5.6417
# 5 -10.4589 1.3074 -19.0541 0.0002 29.2449 0.0012
# 6 -0.0005 -0.0025 -0.0013 5.6417 0.0012 17.8626
#
#
#
# Elastic Compliance Matrix: (Units=1/GPa)
#
#
# Indices 1 2 3 4 5 6 
#
# 1 0.011988 -0.001798 -0.002376 0.000000 0.002820 0.000000
# 2 -0.001798 0.014014 -0.000283 -0.000002 -0.001454 0.000003
# 3 -0.002376 -0.000283 0.014830 0.000000 0.008825 0.000000
# 4 0.000000 -0.000002 0.000000 0.058505 0.000000 -0.018478
# 5 0.002820 -0.001454 0.008825 0.000000 0.041017 -0.000002
# 6 0.000000 0.000003 0.000000 -0.018478 -0.000002 0.061819
#
#
# Mechanical properties :
#
#
# Convention : Reuss Voigt Hill
#
# Bulk Modulus (GPa) = 31.33021 35.13034 33.23027
# Shear Modulus (GPa) = 22.55033 27.34711 24.94872
#
# Velocity S-wave (km/s) = 3.31015 3.64524 3.48173
# Velocity P-wave (km/s) = 5.46192 5.89802 5.68415
#
# Compressibility (1/GPa) = 0.03191807
#
# Stress axis : x y z
#
# Youngs Moduli (GPa) = 83.41476 71.35692 67.43241
#
# Poissons Ratio (x) = 0.12828 0.16023
# Poissons Ratio (y) = 0.14995 0.01910
# Poissons Ratio (z) = 0.19820 0.02021
#
# Static dielectric constant tensor:
#      x y z
#    x 3.634910 0.000000 -0.199670 
#    y 0.000000 4.000160 0.000010 
#    z -0.199670 0.000010 3.654020 
# 
# 
# High freq. dielectric constant tensor:
#      x y z
#    x 1.792030 0.000000 -0.022580 
#    y 0.000000 1.827810 0.000000 
#    z -0.022580 0.000000 1.779220 
# 
# From -- ./inp_files/317008.got.cif
#   From: 2010.06.25/outbox.cif.g09.slc.cpg/sg15_159_cif.got.tgz:317008.got - 2010.06.28 07:06:18.
