data_PCOD8142445
_publ_section_title
;
Structure prediction by ZEFSAII (Michael W. Deem and Ramdas Pophale) SiO2 
 PCOD8142445
Probable space group: C 2/C
;
_chemical_formula_sum "Si O2"
_cell_formula_units_Z 56
_cell_length_a 21.834372
_cell_length_b 12.234613
_cell_length_c 12.081677
_cell_angle_alpha 90.000000
_cell_angle_beta 120.076594
_cell_angle_gamma 90.000000
_cell_volume 2792.885189
_symmetry_space_group_name_H-M "C 2/C"
_symmetry_group_IT_number 15
_symmetry_cell_setting 'monoclinic'
loop_
_space_group_symop_operation_xyz
x,y,z
-x,y,1/2-z
-x,-y,-z
x,-y,1/2+z
1/2+x,1/2+y,z
1/2-x,1/2+y,1/2-z
1/2-x,1/2-y,-z
1/2+x,1/2-y,1/2+z
loop_
_atom_site_type_symbol
_atom_site_label
_atom_site_fract_x
_atom_site_fract_y
_atom_site_fract_z
Si Si1 0.753667 0.185005 0.173384
Si Si2 0.168960 0.979028 0.602449
Si Si3 0.205593 0.597261 0.904896
Si Si4 0.127585 0.801243 0.177423
Si Si5 0.075299 0.160737 0.864062
Si Si6 0.007383 0.329282 0.954191
Si Si7 0.051772 0.454686 0.203133
O O1 0.810047 0.115823 0.293373
O O2 0.795205 0.284372 0.153655
O O3 0.693173 0.227173 0.200641
O O4 0.718954 0.108753 0.047919
O O5 0.110487 0.936171 0.464514
O O6 0.236523 0.018594 0.595535
O O7 0.133512 0.076858 0.637119
O O8 0.130628 0.539284 0.821507
O O9 0.126135 0.804295 0.309311
O O10 0.054915 0.751759 0.062766
O O11 0.000000 0.117407 0.750000
O O12 0.064346 0.267624 0.929781
O O13 0.971779 0.424361 0.850441
O O14 0.049657 0.374127 0.097060
O O15 0.000000 0.407201 0.250000
#
# Coordination Sequence:
#
# PCOD8142445 Si02
#       7
#     8   8   8   8   8   8   8
#     4  10  21  39  59  84 120 152 194 243 287 344
#     4  11  22  38  62  86 115 155 194 237 292 346
#     4  10  22  38  59  88 119 152 194 244 289 342
#     4  10  21  39  59  85 117 153 192 238 289 342
#     4  10  22  40  59  86 119 151 193 242 288 343
#     4  10  22  38  58  86 121 152 194 244 285 342
#     4  11  21  37  62  88 117 157 195 236 294 344
#
# _framework density 20.05095
#
# number of rings (size 3 to 8) (size 9 to 14) (size 15 to 20)
#    0.000    1.714    0.000    4.714    0.000    4.000 
#    0.000   12.143    0.000    0.000    0.000    0.000 
#    0.000    0.000    0.000    0.000    0.000    0.000 
#
# Total GULP energy -347351.064293 kJ/mol
# GULP energy per Si atom -12405.395153 kJ/mol
# Density = 2.000531 g / cm^3
# Si number density = 20.050950 Si / 1000 Ang^3
#
#
#
# Elastic Constant Matrix: (Units=GPa)
#
#
# Indices 1 2 3 4 5 6 
#
# 1 107.3886 34.8484 46.4811 0.0000 -12.4775 0.0000
# 2 34.8484 87.5986 44.9183 0.0000 -0.8389 0.0000
# 3 46.4811 44.9183 117.2591 0.0000 2.0529 0.0000
# 4 0.0000 0.0000 0.0000 24.4605 0.0000 3.9135
# 5 -12.4775 -0.8389 2.0529 0.0000 31.2738 0.0000
# 6 0.0000 0.0000 0.0000 3.9135 0.0000 25.3608
#
#
#
# Elastic Compliance Matrix: (Units=1/GPa)
#
#
# Indices 1 2 3 4 5 6 
#
# 1 0.012578 -0.002925 -0.003956 0.000000 0.005199 0.000000
# 2 -0.002925 0.014904 -0.004541 0.000000 -0.000469 0.000000
# 3 -0.003956 -0.004541 0.011879 0.000000 -0.002480 0.000000
# 4 0.000000 0.000000 0.000000 0.041917 0.000000 -0.006468
# 5 0.005199 -0.000469 -0.002480 0.000000 0.034200 0.000000
# 6 0.000000 0.000000 0.000000 -0.006468 0.000000 0.040429
#
#
# Mechanical properties :
#
#
# Convention : Reuss Voigt Hill
#
# Bulk Modulus (GPa) = 60.55037 62.74908 61.64973
# Shear Modulus (GPa) = 27.13587 28.61893 27.87740
#
# Velocity S-wave (km/s) = 3.68278 3.78207 3.73276
# Velocity P-wave (km/s) = 6.95324 7.10175 7.02789
#
# Compressibility (1/GPa) = 0.01651518
#
# Stress axis : x y z
#
# Youngs Moduli (GPa) = 79.50559 67.09779 84.17905
#
# Poissons Ratio (x) = 0.19627 0.33303
# Poissons Ratio (y) = 0.23257 0.38229
# Poissons Ratio (z) = 0.31454 0.30472
#
# Static dielectric constant tensor:
#      x y z
#    x 3.657270 0.000000 -0.160990 
#    y 0.000000 3.649770 0.000000 
#    z -0.160990 0.000000 3.664850 
# 
# 
# High freq. dielectric constant tensor:
#      x y z
#    x 1.790010 0.000000 -0.009430 
#    y 0.000000 1.785670 0.000000 
#    z -0.009430 0.000000 1.787480 
# 
# From -- ./inp_files/117665.got.cif
#   From: 2010.06.25/outbox.cif.g09.slc.cpg/sg15_59_cif.got.tgz:117665.got - 2010.06.28 07:06:18.
