data_PCOD8142506
_publ_section_title
;
Structure prediction by ZEFSAII (Michael W. Deem and Ramdas Pophale) SiO2 
 PCOD8142506
Probable space group: C 2/C
;
_chemical_formula_sum "Si O2"
_cell_formula_units_Z 60
_cell_length_a 18.112170
_cell_length_b 6.414051
_cell_length_c 27.261267
_cell_angle_alpha 90.000000
_cell_angle_beta 101.233444
_cell_angle_gamma 90.000000
_cell_volume 3106.331591
_symmetry_space_group_name_H-M "C 2/C"
_symmetry_group_IT_number 15
_symmetry_cell_setting 'monoclinic'
loop_
_space_group_symop_operation_xyz
x,y,z
-x,y,1/2-z
-x,-y,-z
x,-y,1/2+z
1/2+x,1/2+y,z
1/2-x,1/2+y,1/2-z
1/2-x,1/2-y,-z
1/2+x,1/2-y,1/2+z
loop_
_atom_site_type_symbol
_atom_site_label
_atom_site_fract_x
_atom_site_fract_y
_atom_site_fract_z
Si Si1 0.797172 0.869199 0.046667
Si Si2 0.119960 0.337438 0.107346
Si Si3 0.263728 0.900913 0.634899
Si Si4 0.302306 0.219219 0.424887
Si Si5 0.500000 0.466493 0.250000
Si Si6 0.587620 0.547251 0.013806
Si Si7 0.599961 0.087856 0.280655
Si Si8 0.028174 0.345037 0.188513
O O1 0.801876 0.739792 0.097474
O O2 0.754656 0.088841 0.048451
O O3 0.750000 0.750000 0.000000
O O4 0.881907 0.895616 0.036652
O O5 0.184589 0.198244 0.141006
O O6 0.149316 0.570901 0.104127
O O7 0.098603 0.240876 0.051993
O O8 0.048687 0.341571 0.134029
O O9 0.315017 0.908485 0.689713
O O10 0.250785 0.134420 0.614629
O O11 0.362724 0.349962 0.463648
O O12 0.573228 0.324344 0.268488
O O13 0.514679 0.608812 0.204288
O O14 0.500000 0.500000 0.000000
O O15 0.593807 0.953933 0.229706
O O16 0.547631 0.979587 0.315175
#
# Coordination Sequence:
#
# PCOD8142506 Si02
#       8
#     8   8   8   8   4   8   8   8
#     4  11  20  40  60  82 115 160 200 235 288 360
#     4  10  22  39  53  86 121 152 195 241 297 356
#     4  10  22  36  59  87 114 152 207 237 286 355
#     4  10  21  39  61  75 122 161 189 246 293 341
#     4   8  18  38  64  74 118 150 178 244 300 342
#     4  11  24  37  57  91 117 153 204 243 296 346
#     4   9  20  38  58  90 108 150 203 233 291 365
#     4   9  20  38  59  83 118 152 187 241 302 349
#
# _framework density 19.315387999999999
#
# number of rings (size 3 to 8) (size 9 to 14) (size 15 to 20)
#    0.000    2.400    4.000    0.400    0.000   12.267 
#    4.800    0.000    0.000    0.000    0.000    0.000 
#    0.000    0.000    0.000    0.000    0.000    0.000 
#
# Total GULP energy -371953.956721 kJ/mol
# GULP energy per Si atom -12398.465224 kJ/mol
# Density = 1.927143 g / cm^3
# Si number density = 19.315388 Si / 1000 Ang^3
#
#
#
# Elastic Constant Matrix: (Units=GPa)
#
#
# Indices 1 2 3 4 5 6 
#
# 1 75.9113 13.3294 9.6440 0.0000 -8.4108 0.0000
# 2 13.3294 112.0310 13.8609 0.0000 -4.2494 0.0000
# 3 9.6440 13.8609 37.5722 0.0000 -5.3237 0.0000
# 4 0.0000 0.0000 0.0000 14.3513 0.0000 -3.1221
# 5 -8.4108 -4.2494 -5.3237 0.0000 54.7059 0.0000
# 6 0.0000 0.0000 0.0000 -3.1221 0.0000 17.3605
#
#
#
# Elastic Compliance Matrix: (Units=1/GPa)
#
#
# Indices 1 2 3 4 5 6 
#
# 1 0.013952 -0.001237 -0.002874 0.000000 0.001769 0.000000
# 2 -0.001237 0.009471 -0.003143 0.000000 0.000240 0.000000
# 3 -0.002874 -0.003143 0.028813 0.000000 0.002118 0.000000
# 4 0.000000 0.000000 0.000000 0.072517 0.000000 0.013041
# 5 0.001769 0.000240 0.002118 0.000000 0.018776 0.000000
# 6 0.000000 0.000000 0.000000 0.013041 0.000000 0.059947
#
#
# Mechanical properties :
#
#
# Convention : Reuss Voigt Hill
#
# Bulk Modulus (GPa) = 26.50559 33.24256 29.87407
# Shear Modulus (GPa) = 21.68637 29.86223 25.77430
#
# Velocity S-wave (km/s) = 3.35438 3.93623 3.65690
# Velocity P-wave (km/s) = 5.36235 6.15681 5.77326
#
# Compressibility (1/GPa) = 0.03772789
#
# Stress axis : x y z
#
# Youngs Moduli (GPa) = 71.67606 105.58325 34.70713
#
# Poissons Ratio (x) = 0.13064 0.09975
# Poissons Ratio (y) = 0.08868 0.10907
# Poissons Ratio (z) = 0.20599 0.33180
#
# Static dielectric constant tensor:
#      x y z
#    x 3.520340 0.000000 -0.162180 
#    y 0.000000 3.776080 0.000000 
#    z -0.162180 0.000000 3.367360 
# 
# 
# High freq. dielectric constant tensor:
#      x y z
#    x 1.742610 0.000000 -0.007110 
#    y 0.000000 1.768230 0.000000 
#    z -0.007110 0.000000 1.733140 
# 
# From -- ./inp_files/314902.got.cif
#   From: 2010.06.25/outbox.cif.g09.slc.cpg/sg15_158_cif.got.tgz:314902.got - 2010.06.28 07:06:18.
