data_PCOD8142334
_publ_section_title
;
Structure prediction by ZEFSAII (Michael W. Deem and Ramdas Pophale) SiO2 
 PCOD8142334
Probable space group: C 2/C
;
_chemical_formula_sum "Si O2"
_cell_formula_units_Z 44
_cell_length_a 26.663080
_cell_length_b 11.097956
_cell_length_c 20.753415
_cell_angle_alpha 90.000000
_cell_angle_beta 18.136794
_cell_angle_gamma 90.000000
_cell_volume 1911.628692
_symmetry_space_group_name_H-M "C 2/C"
_symmetry_group_IT_number 15
_symmetry_cell_setting 'monoclinic'
loop_
_space_group_symop_operation_xyz
x,y,z
-x,y,1/2-z
-x,-y,-z
x,-y,1/2+z
1/2+x,1/2+y,z
1/2-x,1/2+y,1/2-z
1/2-x,1/2-y,-z
1/2+x,1/2-y,1/2+z
loop_
_atom_site_type_symbol
_atom_site_label
_atom_site_fract_x
_atom_site_fract_y
_atom_site_fract_z
Si Si1 0.500000 0.087892 0.750000
Si Si2 0.735066 0.442572 0.023855
Si Si3 0.959917 0.912951 0.913937
Si Si4 0.648221 0.340546 0.900194
Si Si5 0.229374 0.779273 0.659204
Si Si6 0.685537 0.759939 0.679477
O O1 0.627326 0.163142 0.555304
O O2 0.402759 0.012856 0.815238
O O3 0.725763 0.359403 0.972666
O O4 0.579224 0.530377 0.214353
O O5 0.745626 0.368718 0.078782
O O6 0.059208 0.806324 0.830896
O O7 0.793526 0.859606 0.086297
O O8 0.905538 0.020608 0.027306
O O9 0.720063 0.332787 0.741732
O O10 0.780472 0.293604 0.788623
O O11 0.506852 0.244890 0.087699
#
# Coordination Sequence:
#
# PCOD8142334 Si02
#       6
#     4   8   8   8   8   8
#     4  10  22  38  60  84 122 168 208 252 302 366
#     4   9  20  39  63  93 124 161 206 252 307 367
#     4  10  24  42  64  89 126 165 205 257 305 362
#     4  11  23  41  65  94 126 161 203 260 312 361
#     4  11  24  43  62  89 124 165 208 252 308 370
#     4  10  21  38  66  95 123 157 204 258 309 363
#
# _framework density 23.017022999999998
#
# number of rings (size 3 to 8) (size 9 to 14) (size 15 to 20)
#    0.000    1.818    0.000    2.727    0.000   16.000 
#    0.000    2.727    0.000    0.000    0.000    0.000 
#    0.000    0.000    0.000    0.000    0.000    0.000 
#
# Total GULP energy -272577.231017 kJ/mol
# GULP energy per Si atom -12389.874137 kJ/mol
# Density = 2.296464 g / cm^3
# Si number density = 23.017023 Si / 1000 Ang^3
#
#
#
# Elastic Constant Matrix: (Units=GPa)
#
#
# Indices 1 2 3 4 5 6 
#
# 1 72.2328 22.0711 5.6620 0.0002 3.7962 -0.0003
# 2 22.0711 88.2573 34.4802 0.0002 -14.0564 -0.0003
# 3 5.6620 34.4802 69.0328 0.0002 7.4746 -0.0004
# 4 0.0002 0.0002 0.0002 36.5103 -0.0004 -9.1338
# 5 3.7962 -14.0564 7.4746 -0.0004 30.5922 0.0004
# 6 -0.0003 -0.0003 -0.0004 -9.1338 0.0004 23.6395
#
#
#
# Elastic Compliance Matrix: (Units=1/GPa)
#
#
# Indices 1 2 3 4 5 6 
#
# 1 0.015618 -0.005467 0.001984 0.000000 -0.004935 0.000000
# 2 -0.005467 0.018467 -0.010033 0.000000 0.011615 0.000000
# 3 0.001984 -0.010033 0.020400 0.000000 -0.009840 0.000000
# 4 0.000000 0.000000 0.000000 0.030320 0.000000 0.011715
# 5 -0.004935 0.011615 -0.009840 0.000000 0.041041 -0.000001
# 6 0.000000 0.000000 0.000000 0.011715 -0.000001 0.046829
#
#
# Mechanical properties :
#
#
# Convention : Reuss Voigt Hill
#
# Bulk Modulus (GPa) = 36.42547 39.32774 37.87660
# Shear Modulus (GPa) = 23.93956 29.30237 26.62096
#
# Velocity S-wave (km/s) = 3.22853 3.57189 3.40454
# Velocity P-wave (km/s) = 5.45506 5.84248 5.65209
#
# Compressibility (1/GPa) = 0.02745332
#
# Stress axis : x y z
#
# Youngs Moduli (GPa) = 64.02722 54.14996 49.01967
#
# Poissons Ratio (x) = 0.29602 -0.09725
# Poissons Ratio (y) = 0.35002 0.49182
# Poissons Ratio (z) = -0.12702 0.54330
#
# Static dielectric constant tensor:
#      x y z
#    x 4.287030 0.000000 -0.504560 
#    y 0.000000 4.365080 0.000000 
#    z -0.504560 0.000000 4.858800 
# 
# 
# High freq. dielectric constant tensor:
#      x y z
#    x 1.901270 0.000000 0.002210 
#    y 0.000000 1.906560 0.000000 
#    z 0.002210 0.000000 1.919060 
# 
# From -- ./inp_files/54479.got.cif
#   From: 2010.06.25/outbox.cif.g09.slc.cpg/sg15_28_cif.got.tgz:54479.got - 2010.06.28 07:06:18.
