data_PCOD8142988
_publ_section_title
;
Structure prediction by ZEFSAII (Michael W. Deem and Ramdas Pophale) SiO2 
 PCOD8142988
Probable space group: C 2/C
;
_chemical_formula_sum "Si O2"
_cell_formula_units_Z 40
_cell_length_a 12.136158
_cell_length_b 9.111774
_cell_length_c 13.441598
_cell_angle_alpha 90.000000
_cell_angle_beta 92.038114
_cell_angle_gamma 90.000000
_cell_volume 1485.457525
_symmetry_space_group_name_H-M "C 2/C"
_symmetry_group_IT_number 15
_symmetry_cell_setting 'monoclinic'
loop_
_space_group_symop_operation_xyz
x,y,z
-x,y,1/2-z
-x,-y,-z
x,-y,1/2+z
1/2+x,1/2+y,z
1/2-x,1/2+y,1/2-z
1/2-x,1/2-y,-z
1/2+x,1/2-y,1/2+z
loop_
_atom_site_type_symbol
_atom_site_label
_atom_site_fract_x
_atom_site_fract_y
_atom_site_fract_z
Si Si1 0.669080 0.603944 0.237918
Si Si2 0.850123 0.512241 0.098981
Si Si3 0.165113 0.089337 0.468061
Si Si4 0.050413 0.783125 0.462955
Si Si5 0.500000 0.154045 0.750000
Si Si6 0.500000 0.639156 0.750000
O O1 0.780576 0.601560 0.179491
O O2 0.698911 0.606172 0.355134
O O3 0.597267 0.746473 0.205157
O O4 0.597580 0.461420 0.208627
O O5 0.773277 0.388290 0.041324
O O6 0.890992 0.626340 0.013781
O O7 0.953442 0.438639 0.156768
O O8 0.067756 0.205608 0.487056
O O9 0.124256 0.923599 0.493435
O O10 0.037850 0.764279 0.343172
#
# Coordination Sequence:
#
# PCOD8142988 Si02
#       6
#     8   8   8   8   4   4
#     4  10  24  45  73  99 148 193 241 299 361 430
#     4  12  25  45  75 104 146 198 238 298 370 431
#     4  10  23  44  75 109 143 192 242 301 364 426
#     4  10  21  39  74 109 138 188 247 292 356 436
#     4  11  29  44  66 110 143 187 248 300 352 435
#     4   9  17  40  66  96 137 189 234 290 352 427
#
# _framework density 26.927731999999999
#
# number of rings (size 3 to 8) (size 9 to 14) (size 15 to 20)
#    0.000    1.600    2.000    1.200    8.400    4.000 
#    0.000    2.000    0.000    0.000    0.000    0.000 
#    0.000    0.000    0.000    0.000    0.000    0.000 
#
# Total GULP energy -248094.831894 kJ/mol
# GULP energy per Si atom -12404.741595 kJ/mol
# Density = 2.686644 g / cm^3
# Si number density = 26.927732 Si / 1000 Ang^3
#
#
#
# Elastic Constant Matrix: (Units=GPa)
#
#
# Indices 1 2 3 4 5 6 
#
# 1 153.4251 46.7161 60.8747 0.0000 12.8352 0.0000
# 2 46.7161 59.6082 22.5583 0.0000 -21.8173 0.0000
# 3 60.8747 22.5583 87.5951 0.0000 -14.8793 0.0000
# 4 0.0000 0.0000 0.0000 238.6949 0.0000 20.2625
# 5 12.8352 -21.8173 -14.8793 0.0000 34.2911 0.0000
# 6 0.0000 0.0000 0.0000 20.2625 0.0000 42.3365
#
#
#
# Elastic Compliance Matrix: (Units=1/GPa)
#
#
# Indices 1 2 3 4 5 6 
#
# 1 0.020204 -0.020457 -0.013244 0.000000 -0.026325 0.000000
# 2 -0.020457 0.043642 0.009711 0.000000 0.039638 0.000000
# 3 -0.013244 0.009711 0.021603 0.000000 0.020510 0.000000
# 4 0.000000 0.000000 0.000000 0.004367 0.000000 -0.002090
# 5 -0.026325 0.039638 0.020510 0.000000 0.073134 0.000000
# 6 0.000000 0.000000 0.000000 -0.002090 0.000000 0.024621
#
#
# Mechanical properties :
#
#
# Convention : Reuss Voigt Hill
#
# Bulk Modulus (GPa) = 26.68953 62.32518 44.50736
# Shear Modulus (GPa) = 20.15789 74.42978 47.29384
#
# Velocity S-wave (km/s) = 2.73901 5.26313 4.19540
# Velocity P-wave (km/s) = 4.46497 7.75433 6.32715
#
# Compressibility (1/GPa) = 0.03746788
#
# Stress axis : x y z
#
# Youngs Moduli (GPa) = 49.49483 22.91372 46.28914
#
# Poissons Ratio (x) = 0.46876 0.61307
# Poissons Ratio (y) = 1.01254 -0.44951
# Poissons Ratio (z) = 0.65552 -0.22251
#
# Static dielectric constant tensor:
#      x y z
#    x 4.890490 0.000000 0.111040 
#    y 0.000000 4.766510 0.000000 
#    z 0.111040 0.000000 4.606470 
# 
# 
# High freq. dielectric constant tensor:
#      x y z
#    x 2.086480 0.000000 0.005290 
#    y 0.000000 2.083690 0.000000 
#    z 0.005290 0.000000 2.083510 
# 
# From -- ./inp_files/195263.got.cif
#   From: 2010.06.25/outbox.cif.g09.slc.cpg/sg15_98_cif.got.tgz:195263.got - 2010.06.28 07:06:18.
