data_PCOD8142924
_publ_section_title
;
Structure prediction by ZEFSAII (Michael W. Deem and Ramdas Pophale) SiO2 
 PCOD8142924
Probable space group: C 2/C
;
_chemical_formula_sum "Si O2"
_cell_formula_units_Z 48
_cell_length_a 8.432688
_cell_length_b 17.673019
_cell_length_c 14.930416
_cell_angle_alpha 90.000000
_cell_angle_beta 92.380594
_cell_angle_gamma 90.000000
_cell_volume 2223.175296
_symmetry_space_group_name_H-M "C 2/C"
_symmetry_group_IT_number 15
_symmetry_cell_setting 'monoclinic'
loop_
_space_group_symop_operation_xyz
x,y,z
-x,y,1/2-z
-x,-y,-z
x,-y,1/2+z
1/2+x,1/2+y,z
1/2-x,1/2+y,1/2-z
1/2-x,1/2-y,-z
1/2+x,1/2-y,1/2+z
loop_
_atom_site_type_symbol
_atom_site_label
_atom_site_fract_x
_atom_site_fract_y
_atom_site_fract_z
Si Si1 0.500000 0.889567 0.250000
Si Si2 0.150563 0.036066 0.080331
Si Si3 0.342296 0.312772 0.298925
Si Si4 0.000000 0.936840 0.750000
Si Si5 0.397732 0.621929 0.992763
Si Si6 0.726707 0.147766 0.161738
Si Si7 0.992038 0.516731 0.104938
O O1 0.667499 0.842103 0.260768
O O2 0.518052 0.939359 0.160819
O O3 0.322333 0.053743 0.123282
O O4 0.034022 0.013487 0.161634
O O5 0.167016 0.964444 0.014500
O O6 0.082821 0.109851 0.026034
O O7 0.500000 0.342780 0.250000
O O8 0.371733 0.335045 0.401379
O O9 0.348143 0.222186 0.296643
O O10 0.147624 0.881550 0.764188
O O11 0.307374 0.667731 0.068057
O O12 0.605339 0.080631 0.143553
O O13 0.000000 0.500000 0.000000
#
# Coordination Sequence:
#
# PCOD8142924 Si02
#       7
#     4   8   8   4   8   8   8
#     4  12  27  48  72 105 146 184 242 296 349 418
#     4  10  21  39  68 102 127 172 232 283 346 407
#     4  12  28  44  70 100 141 189 235 286 357 421
#     4  10  23  38  70  93 136 176 222 288 347 410
#     4  10  22  43  67  96 137 178 226 288 351 415
#     4  11  24  45  67  98 142 181 227 288 360 418
#     4  12  24  43  72 105 136 179 236 299 349 421
#
# _framework density 21.59074
#
# number of rings (size 3 to 8) (size 9 to 14) (size 15 to 20)
#    0.000    1.000    3.333    2.000    7.000    0.000 
#    0.000    0.833    0.000    0.000    0.000    0.000 
#    0.000    0.000    0.000    0.000    0.000    0.000 
#
# Total GULP energy -297359.974781 kJ/mol
# GULP energy per Si atom -12389.998949 kJ/mol
# Density = 2.154160 g / cm^3
# Si number density = 21.590740 Si / 1000 Ang^3
#
#
#
# Elastic Constant Matrix: (Units=GPa)
#
#
# Indices 1 2 3 4 5 6 
#
# 1 152.2131 55.4608 37.9857 0.0000 22.4698 0.0000
# 2 55.4608 86.5398 25.9206 0.0000 5.6085 0.0000
# 3 37.9857 25.9206 101.5735 0.0000 11.3959 0.0000
# 4 0.0000 0.0000 0.0000 22.8263 0.0000 1.2952
# 5 22.4698 5.6085 11.3959 0.0000 31.6796 0.0000
# 6 0.0000 0.0000 0.0000 1.2952 0.0000 31.9059
#
#
#
# Elastic Compliance Matrix: (Units=1/GPa)
#
#
# Indices 1 2 3 4 5 6 
#
# 1 0.009743 -0.005398 -0.001665 0.000000 -0.005356 0.000000
# 2 -0.005398 0.015540 -0.002155 0.000000 0.001853 0.000000
# 3 -0.001665 -0.002155 0.011298 0.000000 -0.002502 0.000000
# 4 0.000000 0.000000 0.000000 0.043910 0.000000 -0.001782
# 5 -0.005356 0.001853 -0.002502 0.000000 0.035937 0.000000
# 6 0.000000 0.000000 0.000000 -0.001782 0.000000 0.031414
#
#
# Mechanical properties :
#
#
# Convention : Reuss Voigt Hill
#
# Bulk Modulus (GPa) = 55.11064 64.34007 59.72535
# Shear Modulus (GPa) = 29.01461 32.01300 30.51380
#
# Velocity S-wave (km/s) = 3.66983 3.85479 3.76344
# Velocity P-wave (km/s) = 6.59829 7.04819 6.82695
#
# Compressibility (1/GPa) = 0.01814532
#
# Stress axis : x y z
#
# Youngs Moduli (GPa) = 102.64083 64.34949 88.50829
#
# Poissons Ratio (x) = 0.34736 0.14738
# Poissons Ratio (y) = 0.55405 0.19072
# Poissons Ratio (z) = 0.17091 0.13866
#
# Static dielectric constant tensor:
#      x y z
#    x 4.741920 0.000000 0.016450 
#    y 0.000000 3.679310 0.000000 
#    z 0.016450 0.000000 4.183420 
# 
# 
# High freq. dielectric constant tensor:
#      x y z
#    x 1.865720 0.000000 0.010060 
#    y 0.000000 1.819870 0.000000 
#    z 0.010060 0.000000 1.867860 
# 
# From -- ./inp_files/134917.got.cif
#   From: 2010.06.25/outbox.cif.g09.slc.cpg/sg15_68_cif.got.tgz:134917.got - 2010.06.28 07:06:18.
