data_PCOD8142442
_publ_section_title
;
Structure prediction by ZEFSAII (Michael W. Deem and Ramdas Pophale) SiO2 
 PCOD8142442
Probable space group: C 2/C
;
_chemical_formula_sum "Si O2"
_cell_formula_units_Z 40
_cell_length_a 30.129815
_cell_length_b 5.105814
_cell_length_c 12.447513
_cell_angle_alpha 90.000000
_cell_angle_beta 69.441703
_cell_angle_gamma 90.000000
_cell_volume 1792.941829
_symmetry_space_group_name_H-M "C 2/C"
_symmetry_group_IT_number 15
_symmetry_cell_setting 'monoclinic'
loop_
_space_group_symop_operation_xyz
x,y,z
-x,y,1/2-z
-x,-y,-z
x,-y,1/2+z
1/2+x,1/2+y,z
1/2-x,1/2+y,1/2-z
1/2-x,1/2-y,-z
1/2+x,1/2-y,1/2+z
loop_
_atom_site_type_symbol
_atom_site_label
_atom_site_fract_x
_atom_site_fract_y
_atom_site_fract_z
Si Si1 0.589958 0.370256 0.332238
Si Si2 0.933401 0.340283 0.265220
Si Si3 0.689344 0.310198 0.346045
Si Si4 0.978632 0.719508 0.941418
Si Si5 0.731846 0.192133 0.898651
O O1 0.604572 0.624091 0.246504
O O2 0.635322 0.270485 0.358387
O O3 0.547395 0.428835 0.457026
O O4 0.574604 0.131325 0.269484
O O5 0.937609 0.369263 0.390430
O O6 0.979228 0.191489 0.173025
O O7 0.693669 0.589598 0.398990
O O8 0.722116 0.293060 0.214231
O O9 0.704980 0.085151 0.416387
O O10 0.000000 0.500000 0.000000
O O11 0.750000 0.250000 0.000000
#
# Coordination Sequence:
#
# PCOD8142442 Si02
#       5
#     8   8   8   8   8
#     4  11  22  37  57  84 113 143 186 232 271 325
#     4  10  22  37  57  82 112 150 186 224 277 328
#     4  10  22  37  57  85 111 142 186 227 272 333
#     4   9  21  39  58  81 114 150 186 229 276 324
#     4  10  21  39  59  80 112 147 179 225 281 330
#
# _framework density 22.309702000000001
#
# number of rings (size 3 to 8) (size 9 to 14) (size 15 to 20)
#    0.000    2.000    0.000    2.400    0.000   12.800 
#    0.000    0.000    0.000    0.000    0.000    0.000 
#    0.000    0.000    0.000    0.000    0.000    0.000 
#
# Total GULP energy -247763.956726 kJ/mol
# GULP energy per Si atom -12388.197836 kJ/mol
# Density = 2.225892 g / cm^3
# Si number density = 22.309702 Si / 1000 Ang^3
#
#
#
# Elastic Constant Matrix: (Units=GPa)
#
#
# Indices 1 2 3 4 5 6 
#
# 1 61.9251 -4.3870 23.6017 0.0000 15.4945 0.0000
# 2 -4.3870 87.4577 28.1605 0.0000 1.3388 0.0000
# 3 23.6017 28.1605 91.7313 0.0000 39.2624 0.0000
# 4 0.0000 0.0000 0.0000 18.8712 0.0000 1.5251
# 5 15.4945 1.3388 39.2624 0.0000 27.7645 0.0000
# 6 0.0000 0.0000 0.0000 1.5251 0.0000 18.4578
#
#
#
# Elastic Compliance Matrix: (Units=1/GPa)
#
#
# Indices 1 2 3 4 5 6 
#
# 1 0.019009 0.001769 -0.002171 0.000000 -0.007624 0.000000
# 2 0.001769 0.014798 -0.010817 0.000000 0.013596 0.000000
# 3 -0.002171 -0.010817 0.035565 0.000000 -0.048561 0.000000
# 4 0.000000 0.000000 0.000000 0.053347 0.000000 -0.004408
# 5 -0.007624 0.013596 -0.048561 0.000000 0.108287 0.000000
# 6 0.000000 0.000000 0.000000 -0.004408 0.000000 0.054542
#
#
# Mechanical properties :
#
#
# Convention : Reuss Voigt Hill
#
# Bulk Modulus (GPa) = 21.30644 37.31826 29.31235
# Shear Modulus (GPa) = 15.44973 25.93464 20.69219
#
# Velocity S-wave (km/s) = 2.63442 3.41322 3.04879
# Velocity P-wave (km/s) = 4.33873 5.68305 5.05577
#
# Compressibility (1/GPa) = 0.04693417
#
# Stress axis : x y z
#
# Youngs Moduli (GPa) = 52.60712 67.57780 28.11722
#
# Poissons Ratio (x) = -0.11956 0.06104
# Poissons Ratio (y) = -0.09307 0.30415
# Poissons Ratio (z) = 0.11420 0.73100
#
# Static dielectric constant tensor:
#      x y z
#    x 3.980800 0.000000 -0.011290 
#    y 0.000000 3.953250 0.000000 
#    z -0.011290 0.000000 4.000130 
# 
# 
# High freq. dielectric constant tensor:
#      x y z
#    x 1.878540 0.000000 0.022980 
#    y 0.000000 1.874810 0.000000 
#    z 0.022980 0.000000 1.881220 
# 
# From -- ./inp_files/120719.got.cif
#   From: 2010.06.25/outbox.cif.g09.slc.cpg/sg15_61_cif.got.tgz:120719.got - 2010.06.28 07:06:18.
