data_PCOD8142548
_publ_section_title
;
Structure prediction by ZEFSAII (Michael W. Deem and Ramdas Pophale) SiO2 
 PCOD8142548
Probable space group: C 2/C
;
_chemical_formula_sum "Si O2"
_cell_formula_units_Z 48
_cell_length_a 14.783955
_cell_length_b 10.601202
_cell_length_c 31.425917
_cell_angle_alpha 90.000000
_cell_angle_beta 29.264793
_cell_angle_gamma 90.000000
_cell_volume 2407.721240
_symmetry_space_group_name_H-M "C 2/C"
_symmetry_group_IT_number 15
_symmetry_cell_setting 'monoclinic'
loop_
_space_group_symop_operation_xyz
x,y,z
-x,y,1/2-z
-x,-y,-z
x,-y,1/2+z
1/2+x,1/2+y,z
1/2-x,1/2+y,1/2-z
1/2-x,1/2-y,-z
1/2+x,1/2-y,1/2+z
loop_
_atom_site_type_symbol
_atom_site_label
_atom_site_fract_x
_atom_site_fract_y
_atom_site_fract_z
Si Si1 0.757122 0.554822 0.984493
Si Si2 0.376446 0.594147 0.262154
Si Si3 0.242293 0.295831 0.550983
Si Si4 0.040938 0.230064 0.357711
Si Si5 0.978198 0.576234 0.466137
Si Si6 0.424782 0.693027 0.735081
O O1 0.723676 0.446540 0.962534
O O2 0.904332 0.653283 0.905310
O O3 0.828851 0.497334 0.999274
O O4 0.561795 0.620320 0.074160
O O5 0.500000 0.648878 0.250000
O O6 0.388892 0.685969 0.217000
O O7 0.165602 0.587668 0.363170
O O8 0.452068 0.456612 0.218022
O O9 0.250000 0.250000 0.500000
O O10 0.400745 0.215758 0.510632
O O11 0.040177 0.267284 0.652359
O O12 0.210591 0.271651 0.317774
O O13 0.000000 0.500000 0.500000
O O14 0.500000 0.736575 0.750000
#
# Coordination Sequence:
#
# PCOD8142548 Si02
#       6
#     8   8   8   8   8   8
#     4  10  22  40  60  90 123 173 209 254 338 387
#     4  11  22  39  64  98 119 164 219 263 316 383
#     4  10  21  39  61  92 121 162 213 261 319 380
#     4  11  22  39  66  86 133 166 212 268 327 396
#     4  11  20  38  66  94 125 159 219 273 315 384
#     4  11  23  41  65  93 122 165 218 266 322 382
#
# _framework density 19.935862
#
# number of rings (size 3 to 8) (size 9 to 14) (size 15 to 20)
#    0.000    1.333    1.667    7.000    0.000    0.000 
#    0.000    1.667    0.000    0.000    0.000    0.000 
#    0.000    0.000    0.000    0.000    0.000    0.000 
#
# Total GULP energy -297650.206985 kJ/mol
# GULP energy per Si atom -12402.091958 kJ/mol
# Density = 1.989049 g / cm^3
# Si number density = 19.935862 Si / 1000 Ang^3
#
#
#
# Elastic Constant Matrix: (Units=GPa)
#
#
# Indices 1 2 3 4 5 6 
#
# 1 98.1872 34.9629 28.5432 0.0000 0.5193 0.0003
# 2 34.9629 124.5197 45.4852 0.0001 5.7297 0.0002
# 3 28.5432 45.4852 118.9777 -0.0086 7.6840 0.0023
# 4 0.0000 0.0001 -0.0086 30.9206 0.0011 1.5371
# 5 0.5193 5.7297 7.6840 0.0011 22.5985 -0.0001
# 6 0.0003 0.0002 0.0023 1.5371 -0.0001 34.2506
#
#
#
# Elastic Compliance Matrix: (Units=1/GPa)
#
#
# Indices 1 2 3 4 5 6 
#
# 1 0.011659 -0.002644 -0.001853 -0.000001 0.001033 0.000000
# 2 -0.002644 0.009965 -0.003084 -0.000001 -0.001417 0.000000
# 3 -0.001853 -0.003084 0.010199 0.000003 -0.002643 -0.000001
# 4 -0.000001 -0.000001 0.000003 0.032413 -0.000002 -0.001455
# 5 0.001033 -0.001417 -0.002643 -0.000002 0.045485 0.000000
# 6 0.000000 0.000000 -0.000001 -0.001455 0.000000 0.029262
#
#
# Mechanical properties :
#
#
# Convention : Reuss Voigt Hill
#
# Bulk Modulus (GPa) = 60.01847 62.18523 61.10185
# Shear Modulus (GPa) = 31.30879 33.06683 32.18781
#
# Velocity S-wave (km/s) = 3.96722 4.07708 4.02253
# Velocity P-wave (km/s) = 7.15236 7.30916 7.23119
#
# Compressibility (1/GPa) = 0.01666154
#
# Stress axis : x y z
#
# Youngs Moduli (GPa) = 85.76739 100.35115 98.04831
#
# Poissons Ratio (x) = 0.26537 0.18167
# Poissons Ratio (y) = 0.22681 0.30235
# Poissons Ratio (z) = 0.15891 0.30945
#
# Static dielectric constant tensor:
#      x y z
#    x 3.622940 0.000000 -0.089410 
#    y 0.000000 4.296500 0.000030 
#    z -0.089410 0.000030 3.238850 
# 
# 
# High freq. dielectric constant tensor:
#      x y z
#    x 1.762590 0.000000 -0.004910 
#    y 0.000000 1.779170 0.000000 
#    z -0.004910 0.000000 1.796340 
# 
# From -- ./inp_files/313519.got.cif
#   From: 2010.06.25/outbox.cif.g09.slc.cpg/sg15_157_cif.got.tgz:313519.got - 2010.06.28 07:06:18.
