data_PCOD8142892
_publ_section_title
;
Structure prediction by ZEFSAII (Michael W. Deem and Ramdas Pophale) SiO2 
 PCOD8142892
Probable space group: C 2/C
;
_chemical_formula_sum "Si O2"
_cell_formula_units_Z 44
_cell_length_a 5.215081
_cell_length_b 12.993183
_cell_length_c 33.334739
_cell_angle_alpha 90.000000
_cell_angle_beta 75.832691
_cell_angle_gamma 90.000000
_cell_volume 2190.078242
_symmetry_space_group_name_H-M "C 2/C"
_symmetry_group_IT_number 15
_symmetry_cell_setting 'monoclinic'
loop_
_space_group_symop_operation_xyz
x,y,z
-x,y,1/2-z
-x,-y,-z
x,-y,1/2+z
1/2+x,1/2+y,z
1/2-x,1/2+y,1/2-z
1/2-x,1/2-y,-z
1/2+x,1/2-y,1/2+z
loop_
_atom_site_type_symbol
_atom_site_label
_atom_site_fract_x
_atom_site_fract_y
_atom_site_fract_z
Si Si1 0.434749 0.496854 0.853915
Si Si2 0.944728 0.178541 0.205532
Si Si3 0.736293 0.867383 0.512940
Si Si4 0.000000 0.555565 0.250000
Si Si5 0.015327 0.414807 0.317370
Si Si6 0.818895 0.045211 0.448892
O O1 0.384247 0.390253 0.831695
O O2 0.708626 0.554005 0.833128
O O3 0.431132 0.475721 0.900896
O O4 0.186628 0.568744 0.851075
O O5 0.652348 0.130944 0.213464
O O6 0.000000 0.158391 0.250000
O O7 0.970397 0.295163 0.192623
O O8 0.750000 0.750000 0.500000
O O9 0.453711 0.891793 0.543670
O O10 0.966846 0.887086 0.535960
O O11 0.775286 0.935867 0.471860
O O12 0.848883 0.477945 0.224819
#
# Coordination Sequence:
#
# PCOD8142892 Si02
#       6
#     8   8   8   4   8   8
#     4  11  25  41  59  91 124 156 201 256 301 355
#     4  11  23  38  61  82 116 158 202 249 305 353
#     4  10  21  39  67  91 121 162 198 240 302 370
#     4  10  22  38  58  80 114 148 206 246 298 350
#     4  11  24  38  60  84 114 159 200 246 298 355
#     4  10  22  40  61  92 126 155 199 248 298 363
#
# _framework density 20.090606999999999
#
# number of rings (size 3 to 8) (size 9 to 14) (size 15 to 20)
#    0.000    1.455    2.727    1.636    2.545    2.909 
#    0.000    0.000    0.000    0.000    0.000    0.000 
#    0.000    0.000    0.000    0.000    0.000    0.000 
#
# Total GULP energy -272674.088296 kJ/mol
# GULP energy per Si atom -12394.276741 kJ/mol
# Density = 2.004488 g / cm^3
# Si number density = 20.090607 Si / 1000 Ang^3
#
#
#
# Elastic Constant Matrix: (Units=GPa)
#
#
# Indices 1 2 3 4 5 6 
#
# 1 101.0745 51.6729 13.8692 0.0000 0.4747 0.0000
# 2 51.6729 154.9323 56.6396 0.0000 -2.2471 0.0000
# 3 13.8692 56.6396 112.2810 0.0000 0.0396 0.0000
# 4 0.0000 0.0000 0.0000 15.7535 0.0000 2.7255
# 5 0.4747 -2.2471 0.0396 0.0000 22.2790 0.0000
# 6 0.0000 0.0000 0.0000 2.7255 0.0000 20.7806
#
#
#
# Elastic Compliance Matrix: (Units=1/GPa)
#
#
# Indices 1 2 3 4 5 6 
#
# 1 0.011977 -0.004247 0.000663 0.000000 -0.000685 0.000000
# 2 -0.004247 0.009434 -0.004235 0.000000 0.001050 0.000000
# 3 0.000663 -0.004235 0.010961 0.000000 -0.000461 0.000000
# 4 0.000000 0.000000 0.000000 0.064952 0.000000 -0.008519
# 5 -0.000685 0.001050 -0.000461 0.000000 0.045007 0.000000
# 6 0.000000 0.000000 0.000000 -0.008519 0.000000 0.049239
#
#
# Mechanical properties :
#
#
# Convention : Reuss Voigt Hill
#
# Bulk Modulus (GPa) = 59.75572 68.07234 63.91403
# Shear Modulus (GPa) = 23.49786 28.16968 25.83377
#
# Velocity S-wave (km/s) = 3.42364 3.74857 3.58978
# Velocity P-wave (km/s) = 6.74063 7.25892 7.00457
#
# Compressibility (1/GPa) = 0.01673480
#
# Stress axis : x y z
#
# Youngs Moduli (GPa) = 83.49259 105.99672 91.23491
#
# Poissons Ratio (x) = 0.45016 -0.06050
# Poissons Ratio (y) = 0.35459 0.38636
# Poissons Ratio (z) = -0.05537 0.44888
#
# Static dielectric constant tensor:
#      x y z
#    x 3.924960 0.000000 0.073130 
#    y 0.000000 3.600460 0.000000 
#    z 0.073130 0.000000 3.656520 
# 
# 
# High freq. dielectric constant tensor:
#      x y z
#    x 1.790210 0.000000 0.006480 
#    y 0.000000 1.791850 0.000000 
#    z 0.006480 0.000000 1.781760 
# 
# From -- ./inp_files/304925.got.cif
#   From: 2010.06.25/outbox.cif.g09.slc.cpg/sg15_153_cif.got.tgz:304925.got - 2010.06.28 07:06:18.
