data_PCOD8142276
_publ_section_title
;
Structure prediction by ZEFSAII (Michael W. Deem and Ramdas Pophale) SiO2 
 PCOD8142276
Probable space group: C 2/C
;
_chemical_formula_sum "Si O2"
_cell_formula_units_Z 40
_cell_length_a 16.560175
_cell_length_b 8.067512
_cell_length_c 30.701337
_cell_angle_alpha 90.000000
_cell_angle_beta 30.353224
_cell_angle_gamma 90.000000
_cell_volume 2072.699938
_symmetry_space_group_name_H-M "C 2/C"
_symmetry_group_IT_number 15
_symmetry_cell_setting 'monoclinic'
loop_
_space_group_symop_operation_xyz
x,y,z
-x,y,1/2-z
-x,-y,-z
x,-y,1/2+z
1/2+x,1/2+y,z
1/2-x,1/2+y,1/2-z
1/2-x,1/2-y,-z
1/2+x,1/2-y,1/2+z
loop_
_atom_site_type_symbol
_atom_site_label
_atom_site_fract_x
_atom_site_fract_y
_atom_site_fract_z
Si Si1 0.293733 0.271494 0.369902
Si Si2 0.962679 0.157381 0.546015
Si Si3 0.110079 0.342727 0.763213
Si Si4 0.670275 0.361733 0.682615
Si Si5 0.756161 0.169380 0.719390
O O1 0.122507 0.269630 0.472816
O O2 0.301476 0.147370 0.324823
O O3 0.426738 0.215497 0.343027
O O4 0.330815 0.450318 0.332525
O O5 0.816750 0.261327 0.591684
O O6 0.914041 0.110158 0.618385
O O7 0.000000 0.000000 0.500000
O O8 0.199827 0.208561 0.751667
O O9 0.122766 0.523754 0.779558
O O10 0.500000 0.279597 0.750000
O O11 0.689233 0.336422 0.726365
#
# Coordination Sequence:
#
# PCOD8142276 Si02
#       5
#     8   8   8   8   8
#     4  11  21  40  66  88 123 162 210 248 314 362
#     4  10  22  38  63  91 124 163 202 258 309 364
#     4  11  22  38  64  89 123 164 205 256 302 371
#     4  10  21  38  65  89 116 164 203 246 302 374
#     4  10  24  38  62  89 126 159 210 250 308 360
#
# _framework density 19.298499
#
# number of rings (size 3 to 8) (size 9 to 14) (size 15 to 20)
#    1.200    0.400    4.000    1.800    5.600    0.800 
#    0.000    0.000    0.000    3.600    0.000    0.000 
#    0.000    0.000    0.000    0.000    0.000    0.000 
#
# Total GULP energy -247777.126395 kJ/mol
# GULP energy per Si atom -12388.856320 kJ/mol
# Density = 1.925457 g / cm^3
# Si number density = 19.298499 Si / 1000 Ang^3
#
#
#
# Elastic Constant Matrix: (Units=GPa)
#
#
# Indices 1 2 3 4 5 6 
#
# 1 138.3962 49.0254 39.1217 0.0324 -17.7916 0.0878
# 2 49.0254 99.0214 14.2340 0.2147 -14.3085 0.0719
# 3 39.1217 14.2340 75.7267 0.0182 -34.1551 0.0160
# 4 0.0324 0.2147 0.0182 29.7322 -0.0147 -1.6366
# 5 -17.7916 -14.3085 -34.1551 -0.0147 36.3901 0.0044
# 6 0.0878 0.0719 0.0160 -1.6366 0.0044 27.7283
#
#
#
# Elastic Compliance Matrix: (Units=1/GPa)
#
#
# Indices 1 2 3 4 5 6 
#
# 1 0.010036 -0.004473 -0.005071 0.000023 -0.001611 -0.000016
# 2 -0.004473 0.012703 0.002063 -0.000087 0.004744 -0.000026
# 3 -0.005071 0.002063 0.025465 -0.000014 0.022233 -0.000008
# 4 0.000023 -0.000087 -0.000014 0.033744 -0.000023 0.001992
# 5 -0.001611 0.004744 0.022233 -0.000023 0.049425 -0.000029
# 6 -0.000016 -0.000026 -0.000008 0.001992 -0.000029 0.036182
#
#
# Mechanical properties :
#
#
# Convention : Reuss Voigt Hill
#
# Bulk Modulus (GPa) = 30.08261 57.54518 43.81389
# Shear Modulus (GPa) = 25.82674 32.82101 29.32388
#
# Velocity S-wave (km/s) = 3.66222 4.12843 3.90229
# Velocity P-wave (km/s) = 5.78829 7.25317 6.56174
#
# Compressibility (1/GPa) = 0.03324180
#
# Stress axis : x y z
#
# Youngs Moduli (GPa) = 99.63664 78.72426 39.26933
#
# Poissons Ratio (x) = 0.35213 0.19914
# Poissons Ratio (y) = 0.44567 -0.08101
# Poissons Ratio (z) = 0.50526 -0.16239
#
# Static dielectric constant tensor:
#      x y z
#    x 3.460470 0.000100 -0.247670 
#    y 0.000100 3.374260 -0.000140 
#    z -0.247670 -0.000140 3.665440 
# 
# 
# High freq. dielectric constant tensor:
#      x y z
#    x 1.742610 -0.000010 -0.015520 
#    y -0.000010 1.754430 -0.000010 
#    z -0.015520 -0.000010 1.732920 
# 
# From -- ./inp_files/294683.got.cif
#   From: 2010.06.25/outbox.cif.g09.slc.cpg/sg15_148_cif.got.tgz:294683.got - 2010.06.28 07:06:18.
