data_PCOD8142529
_publ_section_title
;
Structure prediction by ZEFSAII (Michael W. Deem and Ramdas Pophale) SiO2 
 PCOD8142529
Probable space group: C 2/C
;
_chemical_formula_sum "Si O2"
_cell_formula_units_Z 40
_cell_length_a 12.639533
_cell_length_b 11.521932
_cell_length_c 19.605315
_cell_angle_alpha 90.000000
_cell_angle_beta 141.497233
_cell_angle_gamma 90.000000
_cell_volume 1777.485610
_symmetry_space_group_name_H-M "C 2/C"
_symmetry_group_IT_number 15
_symmetry_cell_setting 'monoclinic'
loop_
_space_group_symop_operation_xyz
x,y,z
-x,y,1/2-z
-x,-y,-z
x,-y,1/2+z
1/2+x,1/2+y,z
1/2-x,1/2+y,1/2-z
1/2-x,1/2-y,-z
1/2+x,1/2-y,1/2+z
loop_
_atom_site_type_symbol
_atom_site_label
_atom_site_fract_x
_atom_site_fract_y
_atom_site_fract_z
Si Si1 0.192225 0.554210 0.352965
Si Si2 0.656119 0.083779 0.086152
Si Si3 0.062295 0.767356 0.585668
Si Si4 0.273277 0.438828 0.260008
Si Si5 0.118362 0.966813 0.926493
O O1 0.317382 0.661424 0.403900
O O2 0.225423 0.452261 0.314960
O O3 0.227931 0.501189 0.445405
O O4 0.000000 0.598479 0.250000
O O5 0.806347 0.050414 0.110142
O O6 0.725885 0.061309 0.197601
O O7 0.586658 0.212941 0.037074
O O8 0.500000 0.000000 0.000000
O O9 0.175405 0.670943 0.680746
O O10 0.970500 0.847591 0.594656
O O11 0.478139 0.429337 0.355465
#
# Coordination Sequence:
#
# PCOD8142529 Si02
#       5
#     8   8   8   8   8
#     4  11  24  41  60  87 123 160 199 249 301 355
#     4  10  21  39  61  88 121 156 197 246 294 352
#     4  10  22  40  63  91 120 157 203 244 299 358
#     4  10  22  41  62  91 123 155 199 249 298 357
#     4  11  23  41  63  89 122 160 200 248 299 356
#
# _framework density 22.503698
#
# number of rings (size 3 to 8) (size 9 to 14) (size 15 to 20)
#    0.000    1.600    0.000    6.000    0.000    9.600 
#    0.000   10.000    0.000    0.000    0.000    0.000 
#    0.000    0.000    0.000    0.000    0.000    0.000 
#
# Total GULP energy -247961.114209 kJ/mol
# GULP energy per Si atom -12398.055710 kJ/mol
# Density = 2.245248 g / cm^3
# Si number density = 22.503698 Si / 1000 Ang^3
#
#
#
# Elastic Constant Matrix: (Units=GPa)
#
#
# Indices 1 2 3 4 5 6 
#
# 1 80.7851 13.5355 8.6367 0.0000 25.9247 0.0000
# 2 13.5355 67.0899 9.4679 0.0000 -3.5361 0.0000
# 3 8.6367 9.4679 95.5794 0.0002 2.4897 0.0001
# 4 0.0000 0.0000 0.0002 34.1130 0.0000 0.7904
# 5 25.9247 -3.5361 2.4897 0.0000 37.6154 0.0000
# 6 0.0000 0.0000 0.0001 0.7904 0.0000 15.8217
#
#
#
# Elastic Compliance Matrix: (Units=1/GPa)
#
#
# Indices 1 2 3 4 5 6 
#
# 1 0.016986 -0.003943 -0.000831 0.000000 -0.012023 0.000000
# 2 -0.003943 0.016120 -0.001353 0.000000 0.004323 0.000000
# 3 -0.000831 -0.001353 0.010678 0.000000 -0.000261 0.000000
# 4 0.000000 0.000000 0.000000 0.029348 0.000000 -0.001466
# 5 -0.012023 0.004323 -0.000261 0.000000 0.035295 0.000000
# 6 0.000000 0.000000 0.000000 -0.001466 0.000000 0.063277
#
#
# Mechanical properties :
#
#
# Convention : Reuss Voigt Hill
#
# Bulk Modulus (GPa) = 31.71649 34.08162 32.89906
# Shear Modulus (GPa) = 25.71093 31.63097 28.67095
#
# Velocity S-wave (km/s) = 3.38379 3.75319 3.57326
# Velocity P-wave (km/s) = 5.42136 5.82749 5.62809
#
# Compressibility (1/GPa) = 0.03152934
#
# Stress axis : x y z
#
# Youngs Moduli (GPa) = 58.87100 62.03564 93.64660
#
# Poissons Ratio (x) = 0.24463 0.07783
# Poissons Ratio (y) = 0.23215 0.12671
# Poissons Ratio (z) = 0.04893 0.08394
#
# Static dielectric constant tensor:
#      x y z
#    x 4.121590 0.000000 0.029220 
#    y 0.000000 4.048400 0.000000 
#    z 0.029220 0.000000 5.206800 
# 
# 
# High freq. dielectric constant tensor:
#      x y z
#    x 1.886130 0.000000 0.005960 
#    y 0.000000 1.869290 0.000000 
#    z 0.005960 0.000000 1.912930 
# 
# From -- ./inp_files/237352.got.cif
#   From: 2010.06.25/outbox.cif.g09.slc.cpg/sg15_119_cif.got.tgz:237352.got - 2010.06.28 07:06:18.
