data_PCOD8142353
_publ_section_title
;
Structure prediction by ZEFSAII (Michael W. Deem and Ramdas Pophale) SiO2 
 PCOD8142353
Probable space group: C 2/C
;
_chemical_formula_sum "Si O2"
_cell_formula_units_Z 48
_cell_length_a 24.439459
_cell_length_b 7.277386
_cell_length_c 18.627902
_cell_angle_alpha 90.000000
_cell_angle_beta 39.503759
_cell_angle_gamma 90.000000
_cell_volume 2107.540994
_symmetry_space_group_name_H-M "C 2/C"
_symmetry_group_IT_number 15
_symmetry_cell_setting 'monoclinic'
loop_
_space_group_symop_operation_xyz
x,y,z
-x,y,1/2-z
-x,-y,-z
x,-y,1/2+z
1/2+x,1/2+y,z
1/2-x,1/2+y,1/2-z
1/2-x,1/2-y,-z
1/2+x,1/2-y,1/2+z
loop_
_atom_site_type_symbol
_atom_site_label
_atom_site_fract_x
_atom_site_fract_y
_atom_site_fract_z
Si Si1 0.062390 0.261718 0.097234
Si Si2 0.659970 0.321216 0.865458
Si Si3 0.662840 0.719312 0.131143
Si Si4 0.426974 0.522694 0.677867
Si Si5 0.734434 0.647736 0.856706
Si Si6 0.510764 0.096295 0.065573
O O1 0.078624 0.260557 0.167918
O O2 0.007920 0.442524 0.130976
O O3 0.157514 0.272460 0.966207
O O4 0.013743 0.080685 0.117233
O O5 0.600632 0.440772 0.871379
O O6 0.702351 0.441949 0.884410
O O7 0.739833 0.220447 0.747389
O O8 0.605344 0.179900 0.966859
O O9 0.646103 0.519399 0.186777
O O10 0.677732 0.854305 0.184127
O O11 0.750000 0.750000 0.000000
O O12 0.442369 0.741163 0.652767
O O13 0.500000 0.000000 0.000000
#
# Coordination Sequence:
#
# PCOD8142353 Si02
#       6
#     8   8   8   8   8   8
#     4  11  21  42  67  96 135 175 230 282 341 411
#     4  11  21  40  63  99 131 173 221 282 352 413
#     4   9  22  43  68  90 132 187 227 280 342 413
#     4  11  22  41  70  96 132 178 226 288 348 408
#     4  10  21  38  67  92 135 177 216 281 346 410
#     4  12  23  38  69 106 134 172 228 292 354 420
#
# _framework density 22.775358000000001
#
# number of rings (size 3 to 8) (size 9 to 14) (size 15 to 20)
#    0.000    1.333    3.333    3.000    0.000    0.000 
#    0.000    4.167    3.667    0.000    0.000    0.000 
#    0.000    0.000    0.000    0.000    0.000    0.000 
#
# Total GULP energy -297313.470400 kJ/mol
# GULP energy per Si atom -12388.061267 kJ/mol
# Density = 2.272352 g / cm^3
# Si number density = 22.775358 Si / 1000 Ang^3
#
#
#
# Elastic Constant Matrix: (Units=GPa)
#
#
# Indices 1 2 3 4 5 6 
#
# 1 107.1036 49.2520 12.1926 0.0077 4.8942 -0.0098
# 2 49.2520 132.3911 28.2767 -0.0013 8.3696 -0.0175
# 3 12.1926 28.2767 69.0178 -0.0009 -5.4048 -0.0102
# 4 0.0077 -0.0013 -0.0009 39.8374 -0.0077 -5.9455
# 5 4.8942 8.3696 -5.4048 -0.0077 36.7968 0.0091
# 6 -0.0098 -0.0175 -0.0102 -5.9455 0.0091 36.8873
#
#
#
# Elastic Compliance Matrix: (Units=1/GPa)
#
#
# Indices 1 2 3 4 5 6 
#
# 1 0.011283 -0.004079 -0.000371 -0.000002 -0.000628 0.000001
# 2 -0.004079 0.009969 -0.003539 0.000001 -0.002245 0.000003
# 3 -0.000371 -0.003539 0.016259 0.000001 0.003243 0.000002
# 4 -0.000002 0.000001 0.000001 0.025721 0.000005 0.004146
# 5 -0.000628 -0.002245 0.003243 0.000005 0.028247 -0.000007
# 6 0.000001 0.000003 0.000002 0.004146 -0.000007 0.027778
#
#
# Mechanical properties :
#
#
# Convention : Reuss Voigt Hill
#
# Bulk Modulus (GPa) = 46.44327 54.21722 50.33025
# Shear Modulus (GPa) = 35.10946 37.29038 36.19992
#
# Velocity S-wave (km/s) = 3.93052 4.05076 3.99110
# Velocity P-wave (km/s) = 6.40584 6.76277 6.58673
#
# Compressibility (1/GPa) = 0.02153164
#
# Stress axis : x y z
#
# Youngs Moduli (GPa) = 88.62680 100.31535 61.50572
#
# Poissons Ratio (x) = 0.40914 0.02285
# Poissons Ratio (y) = 0.36147 0.21769
# Poissons Ratio (z) = 0.03292 0.35506
#
# Static dielectric constant tensor:
#      x y z
#    x 4.898340 0.000300 -0.245170 
#    y 0.000300 4.032380 -0.000750 
#    z -0.245170 -0.000750 5.315680 
# 
# 
# High freq. dielectric constant tensor:
#      x y z
#    x 1.910390 0.000000 -0.007790 
#    y 0.000000 1.871040 0.000000 
#    z -0.007790 0.000000 1.914540 
# 
# From -- ./inp_files/254252.got.cif
#   From: 2010.06.25/outbox.cif.g09.slc.cpg/sg15_128_cif.got.tgz:254252.got - 2010.06.28 07:06:18.
