data_PCOD8142680
_publ_section_title
;
Structure prediction by ZEFSAII (Michael W. Deem and Ramdas Pophale) SiO2 
 PCOD8142680
Probable space group: C 2/C
;
_chemical_formula_sum "Si O2"
_cell_formula_units_Z 48
_cell_length_a 24.489530
_cell_length_b 19.996388
_cell_length_c 7.973697
_cell_angle_alpha 90.000000
_cell_angle_beta 35.304116
_cell_angle_gamma 90.000000
_cell_volume 2256.610693
_symmetry_space_group_name_H-M "C 2/C"
_symmetry_group_IT_number 15
_symmetry_cell_setting 'monoclinic'
loop_
_space_group_symop_operation_xyz
x,y,z
-x,y,1/2-z
-x,-y,-z
x,-y,1/2+z
1/2+x,1/2+y,z
1/2-x,1/2+y,1/2-z
1/2-x,1/2-y,-z
1/2+x,1/2-y,1/2+z
loop_
_atom_site_type_symbol
_atom_site_label
_atom_site_fract_x
_atom_site_fract_y
_atom_site_fract_z
Si Si1 0.130634 0.405853 0.552522
Si Si2 0.651582 0.214032 0.767359
Si Si3 0.500000 0.685279 0.750000
Si Si4 0.500000 0.465070 0.750000
Si Si5 0.686098 0.964363 0.760996
Si Si6 0.392976 0.425100 0.317572
Si Si7 0.548903 0.121744 0.791463
O O1 0.156091 0.331013 0.425887
O O2 0.186700 0.431099 0.576051
O O3 0.166349 0.455276 0.311883
O O4 0.019862 0.401533 0.883441
O O5 0.750000 0.250000 0.500000
O O6 0.629909 0.169841 0.658742
O O7 0.567612 0.267952 0.972271
O O8 0.572833 0.641355 0.675474
O O9 0.569510 0.418765 0.466623
O O10 0.564932 0.508983 0.705904
O O11 0.781535 0.937582 0.607152
O O12 0.598510 0.943962 0.096281
O O13 0.500000 0.156437 0.750000
#
# Coordination Sequence:
#
# PCOD8142680 Si02
#       7
#     8   8   4   4   8   8   8
#     4  11  23  41  66  97 138 166 217 278 337 395
#     4  12  25  45  66  90 133 185 227 265 326 398
#     4  11  24  44  62  88 132 179 216 272 320 401
#     4   9  20  38  60  88 128 167 210 280 330 383
#     4  11  22  38  69 103 129 165 219 279 342 398
#     4  10  21  39  63  93 129 167 219 270 337 389
#     4  10  22  43  65  97 130 170 216 276 335 392
#
# _framework density 21.270837
#
# number of rings (size 3 to 8) (size 9 to 14) (size 15 to 20)
#    0.000    1.333    1.667    3.500    0.000    8.000 
#    4.500    2.500    0.000    0.000    0.000    0.000 
#    0.000    0.000    0.000    0.000    0.000    0.000 
#
# Total GULP energy -297413.857723 kJ/mol
# GULP energy per Si atom -12392.244072 kJ/mol
# Density = 2.122242 g / cm^3
# Si number density = 21.270837 Si / 1000 Ang^3
#
#
#
# Elastic Constant Matrix: (Units=GPa)
#
#
# Indices 1 2 3 4 5 6 
#
# 1 88.6416 33.4589 42.4378 0.0000 -4.3117 0.0000
# 2 33.4589 102.5035 41.9678 0.0000 -4.2381 0.0000
# 3 42.4378 41.9678 114.3144 0.0000 -8.1917 0.0000
# 4 0.0000 0.0000 0.0000 19.7054 0.0000 5.9050
# 5 -4.3117 -4.2381 -8.1917 0.0000 42.2972 0.0000
# 6 0.0000 0.0000 0.0000 5.9050 0.0000 -5.3596
#
#
#
# Elastic Compliance Matrix: (Units=1/GPa)
#
#
# Indices 1 2 3 4 5 6 
#
# 1 0.014453 -0.002962 -0.004253 0.000000 0.000353 0.000000
# 2 -0.002962 0.012093 -0.003321 0.000000 0.000267 0.000000
# 3 -0.004253 -0.003321 0.011653 0.000000 0.001490 0.000000
# 4 0.000000 0.000000 0.000000 0.038151 0.000000 0.042034
# 5 0.000353 0.000267 0.001490 0.000000 0.023994 0.000000
# 6 0.000000 0.000000 0.000000 0.042034 0.000000 -0.140271
#
#
# Mechanical properties :
#
#
# Convention : Reuss Voigt Hill
#
# Bulk Modulus (GPa) = 58.38646 60.13206 59.25926
# Shear Modulus (GPa) = -380.32178 23.83494 -178.24342
#
# Velocity S-wave (km/s) = -13.38610 3.35109 -9.16401
# Velocity P-wave (km/s) = 14.53989 6.58059 9.16799
#
# Compressibility (1/GPa) = 0.01712726
#
# Stress axis : x y z
#
# Youngs Moduli (GPa) = 69.19214 82.69017 85.81741
#
# Poissons Ratio (x) = 0.24491 0.36495
# Poissons Ratio (y) = 0.20493 0.28501
# Poissons Ratio (z) = 0.29425 0.27463
#
# Static dielectric constant tensor:
#      x y z
#    x 4.642050 0.000000 -0.452290 
#    y 0.000000 3.777860 0.000000 
#    z -0.452290 0.000000 4.364620 
# 
# 
# High freq. dielectric constant tensor:
#      x y z
#    x 1.841150 0.000000 -0.001890 
#    y 0.000000 1.822780 0.000000 
#    z -0.001890 0.000000 1.843080 
# 
# From -- ./inp_files/40706.got.cif
#   From: 2010.06.25/outbox.cif.g09.slc.cpg/sg15_21_cif.got.tgz:40706.got - 2010.06.28 07:06:18.
