data_PCOD8142047
_publ_section_title
;
Structure prediction by ZEFSAII (Michael W. Deem and Ramdas Pophale) SiO2 
 PCOD8142047
Probable space group: C 2/C
;
_chemical_formula_sum "Si O2"
_cell_formula_units_Z 48
_cell_length_a 13.424334
_cell_length_b 12.161737
_cell_length_c 24.886174
_cell_angle_alpha 90.000000
_cell_angle_beta 34.496743
_cell_angle_gamma 90.000000
_cell_volume 2301.116432
_symmetry_space_group_name_H-M "C 2/C"
_symmetry_group_IT_number 15
_symmetry_cell_setting 'monoclinic'
loop_
_space_group_symop_operation_xyz
x,y,z
-x,y,1/2-z
-x,-y,-z
x,-y,1/2+z
1/2+x,1/2+y,z
1/2-x,1/2+y,1/2-z
1/2-x,1/2-y,-z
1/2+x,1/2-y,1/2+z
loop_
_atom_site_type_symbol
_atom_site_label
_atom_site_fract_x
_atom_site_fract_y
_atom_site_fract_z
Si Si1 0.919043 0.019237 0.637779
Si Si2 0.123109 0.183390 0.095940
Si Si3 0.323178 0.816399 0.192721
Si Si4 0.365193 0.718728 0.999274
Si Si5 0.812893 0.640874 0.318196
Si Si6 0.551549 0.876148 0.987530
O O1 0.783079 0.077100 0.739900
O O2 0.035815 0.107160 0.556106
O O3 0.811128 0.961751 0.638463
O O4 0.050132 0.932428 0.606427
O O5 0.952456 0.263273 0.181349
O O6 0.250000 0.250000 0.000000
O O7 0.239590 0.148835 0.096035
O O8 0.183900 0.723325 0.234834
O O9 0.444595 0.840925 0.087663
O O10 0.242524 0.708089 0.105079
O O11 0.505238 0.812345 0.953065
O O12 0.250000 0.750000 0.000000
O O13 0.000000 0.590585 0.250000
O O14 0.500000 0.000000 0.000000
#
# Coordination Sequence:
#
# PCOD8142047 Si02
#       6
#     8   8   8   8   8   8
#     4  11  22  38  63  90 118 158 204 257 314 378
#     4   9  20  40  61  84 121 160 198 255 318 374
#     4   9  21  39  58  86 120 154 197 252 314 370
#     4  11  23  39  60  86 120 162 206 247 302 374
#     4  10  22  38  58  86 119 154 196 249 303 364
#     4  10  21  38  61  88 119 160 206 254 311 376
#
# _framework density 20.859439999999999
#
# number of rings (size 3 to 8) (size 9 to 14) (size 15 to 20)
#    0.000    2.000    0.000    3.500    0.000    9.333 
#    0.000    1.667    0.000    0.000    0.000    0.000 
#    0.000    0.000    0.000    0.000    0.000    0.000 
#
# Total GULP energy -297368.221599 kJ/mol
# GULP energy per Si atom -12390.342567 kJ/mol
# Density = 2.081196 g / cm^3
# Si number density = 20.859440 Si / 1000 Ang^3
#
#
#
# Elastic Constant Matrix: (Units=GPa)
#
#
# Indices 1 2 3 4 5 6 
#
# 1 197.3547 77.9413 42.9858 -0.0001 -38.6156 0.0001
# 2 77.9413 145.8702 26.9337 -0.0001 -22.5000 0.0001
# 3 42.9858 26.9337 47.5252 -0.0006 -18.5855 0.0002
# 4 -0.0001 -0.0001 -0.0006 47.8021 0.0001 -9.3410
# 5 -38.6156 -22.5000 -18.5855 0.0001 33.8167 -0.0001
# 6 0.0001 0.0001 0.0002 -9.3410 -0.0001 32.1374
#
#
#
# Elastic Compliance Matrix: (Units=1/GPa)
#
#
# Indices 1 2 3 4 5 6 
#
# 1 0.007982 -0.002789 -0.003567 0.000000 0.005299 0.000000
# 2 -0.002789 0.008961 -0.001872 0.000000 0.001748 0.000000
# 3 -0.003567 -0.001872 0.029613 0.000000 0.010957 0.000000
# 4 0.000000 0.000000 0.000000 0.022179 0.000000 0.006447
# 5 0.005299 0.001748 0.010957 0.000000 0.042807 0.000000
# 6 0.000000 0.000000 0.000000 0.006447 0.000000 0.032990
#
#
# Mechanical properties :
#
#
# Convention : Reuss Voigt Hill
#
# Bulk Modulus (GPa) = 33.22180 76.27462 54.74821
# Shear Modulus (GPa) = 29.23583 38.94386 34.08984
#
# Velocity S-wave (km/s) = 3.74781 4.32553 4.04699
# Velocity P-wave (km/s) = 5.88975 7.84808 6.93835
#
# Compressibility (1/GPa) = 0.03010072
#
# Stress axis : x y z
#
# Youngs Moduli (GPa) = 125.27780 111.59423 33.76844
#
# Poissons Ratio (x) = 0.31125 0.12045
# Poissons Ratio (y) = 0.34942 0.06321
# Poissons Ratio (z) = 0.44686 0.20890
#
# Static dielectric constant tensor:
#      x y z
#    x 4.602910 0.000000 -0.373970 
#    y 0.000000 4.112770 0.000000 
#    z -0.373970 0.000000 3.600520 
# 
# 
# High freq. dielectric constant tensor:
#      x y z
#    x 1.830030 0.000000 -0.024160 
#    y 0.000000 1.827780 0.000000 
#    z -0.024160 0.000000 1.798390 
# 
# From -- ./inp_files/296036.got.cif
#   From: 2010.06.25/outbox.cif.g09.slc.cpg/sg15_149_cif.got.tgz:296036.got - 2010.06.28 07:06:18.
