data_PCOD8142695
_publ_section_title
;
Structure prediction by ZEFSAII (Michael W. Deem and Ramdas Pophale) SiO2 
 PCOD8142695
Probable space group: C 2/C
;
_chemical_formula_sum "Si O2"
_cell_formula_units_Z 40
_cell_length_a 8.482354
_cell_length_b 28.346886
_cell_length_c 9.163436
_cell_angle_alpha 90.000000
_cell_angle_beta 56.399389
_cell_angle_gamma 90.000000
_cell_volume 1835.189694
_symmetry_space_group_name_H-M "C 2/C"
_symmetry_group_IT_number 15
_symmetry_cell_setting 'monoclinic'
loop_
_space_group_symop_operation_xyz
x,y,z
-x,y,1/2-z
-x,-y,-z
x,-y,1/2+z
1/2+x,1/2+y,z
1/2-x,1/2+y,1/2-z
1/2-x,1/2-y,-z
1/2+x,1/2-y,1/2+z
loop_
_atom_site_type_symbol
_atom_site_label
_atom_site_fract_x
_atom_site_fract_y
_atom_site_fract_z
Si Si1 0.670037 0.966486 0.363734
Si Si2 0.957388 0.135343 0.106079
Si Si3 0.311089 0.302627 0.438577
Si Si4 0.773941 0.452520 0.858222
Si Si5 0.158980 0.635263 0.771413
O O1 0.802641 0.954743 0.435663
O O2 0.589299 0.917362 0.345399
O O3 0.500000 0.000000 0.500000
O O4 0.778089 0.996608 0.185346
O O5 0.838793 0.087038 0.173094
O O6 0.000000 0.151541 0.250000
O O7 0.830546 0.174234 0.088573
O O8 0.145898 0.129988 0.915001
O O9 0.500000 0.301802 0.250000
O O10 0.250000 0.250000 0.500000
O O11 0.165541 0.332900 0.414324
O O12 0.000000 0.441679 0.750000
O O13 0.000000 0.658801 0.750000
#
# Coordination Sequence:
#
# PCOD8142695 Si02
#       5
#     8   8   8   8   8
#     4  10  21  39  63  95 135 174 232 262 332 392
#     4  11  26  42  65 102 135 172 229 269 336 404
#     4  10  24  48  71  98 129 172 223 282 343 401
#     4  10  22  39  63  92 135 180 222 273 324 390
#     4  11  24  44  68  95 139 177 217 284 332 395
#
# _framework density 21.796112000000001
#
# number of rings (size 3 to 8) (size 9 to 14) (size 15 to 20)
#    0.000    1.600    2.000    1.800    8.400    4.000 
#    0.000    4.000    0.000    0.000    0.000    0.000 
#    0.000    0.000    0.000    0.000    0.000    0.000 
#
# Total GULP energy -247919.297478 kJ/mol
# GULP energy per Si atom -12395.964874 kJ/mol
# Density = 2.174650 g / cm^3
# Si number density = 21.796112 Si / 1000 Ang^3
#
#
#
# Elastic Constant Matrix: (Units=GPa)
#
#
# Indices 1 2 3 4 5 6 
#
# 1 130.9695 67.4380 45.7922 0.0000 43.0346 0.0000
# 2 67.4380 162.8675 36.3074 0.0000 26.1051 0.0000
# 3 45.7922 36.3074 81.9325 0.0000 40.2302 0.0000
# 4 0.0000 0.0000 0.0000 36.2479 0.0000 3.6317
# 5 43.0346 26.1051 40.2302 0.0000 47.2122 0.0000
# 6 0.0000 0.0000 0.0000 3.6317 0.0000 23.9445
#
#
#
# Elastic Compliance Matrix: (Units=1/GPa)
#
#
# Indices 1 2 3 4 5 6 
#
# 1 0.012759 -0.003621 -0.001374 0.000000 -0.008457 0.000000
# 2 -0.003621 0.007959 -0.001656 0.000000 0.000311 0.000000
# 3 -0.001374 -0.001656 0.021737 0.000000 -0.016355 0.000000
# 4 0.000000 0.000000 0.000000 0.028013 0.000000 -0.004249
# 5 -0.008457 0.000311 -0.016355 0.000000 0.042654 0.000000
# 6 0.000000 0.000000 0.000000 -0.004249 0.000000 0.042408
#
#
# Mechanical properties :
#
#
# Convention : Reuss Voigt Hill
#
# Bulk Modulus (GPa) = 34.30072 74.98275 54.64173
# Shear Modulus (GPa) = 28.00337 36.56305 32.28321
#
# Velocity S-wave (km/s) = 3.58828 4.10018 3.85274
# Velocity P-wave (km/s) = 5.73925 7.54267 6.70189
#
# Compressibility (1/GPa) = 0.02915391
#
# Stress axis : x y z
#
# Youngs Moduli (GPa) = 78.37389 125.64935 46.00417
#
# Poissons Ratio (x) = 0.45503 0.06320
# Poissons Ratio (y) = 0.28382 0.07616
# Poissons Ratio (z) = 0.10766 0.20801
#
# Static dielectric constant tensor:
#      x y z
#    x 4.159710 0.000000 0.575900 
#    y 0.000000 3.753980 0.000000 
#    z 0.575900 0.000000 4.449780 
# 
# 
# High freq. dielectric constant tensor:
#      x y z
#    x 1.857380 0.000000 0.022880 
#    y 0.000000 1.848020 0.000000 
#    z 0.022880 0.000000 1.862600 
# 
# From -- ./inp_files/25376.got.cif
#   From: 2010.06.25/outbox.cif.g09.slc.cpg/sg15_13_cif.got.tgz:25376.got - 2010.06.28 07:06:18.
