data_PCOD8142682
_publ_section_title
;
Structure prediction by ZEFSAII (Michael W. Deem and Ramdas Pophale) SiO2 
 PCOD8142682
Probable space group: C 2/C
;
_chemical_formula_sum "Si O2"
_cell_formula_units_Z 44
_cell_length_a 16.307270
_cell_length_b 7.619549
_cell_length_c 20.382554
_cell_angle_alpha 90.000000
_cell_angle_beta 126.026827
_cell_angle_gamma 90.000000
_cell_volume 2048.231131
_symmetry_space_group_name_H-M "C 2/C"
_symmetry_group_IT_number 15
_symmetry_cell_setting 'monoclinic'
loop_
_space_group_symop_operation_xyz
x,y,z
-x,y,1/2-z
-x,-y,-z
x,-y,1/2+z
1/2+x,1/2+y,z
1/2-x,1/2+y,1/2-z
1/2-x,1/2-y,-z
1/2+x,1/2-y,1/2+z
loop_
_atom_site_type_symbol
_atom_site_label
_atom_site_fract_x
_atom_site_fract_y
_atom_site_fract_z
Si Si1 0.336375 0.043330 0.993476
Si Si2 0.500000 0.639920 0.250000
Si Si3 0.162126 0.046177 0.014176
Si Si4 0.983553 0.749473 0.602274
Si Si5 0.300648 0.622242 0.329897
Si Si6 0.296116 0.541285 0.690416
O O1 0.436006 0.924947 0.048710
O O2 0.368054 0.247730 0.005108
O O3 0.281744 0.974725 0.901708
O O4 0.262365 0.006470 0.019721
O O5 0.525254 0.764700 0.323095
O O6 0.591273 0.511135 0.275154
O O7 0.181427 0.993190 0.099568
O O8 0.069701 0.930065 0.945028
O O9 0.099963 0.757913 0.635216
O O10 0.265371 0.523375 0.248378
O O11 0.208630 0.748130 0.308838
#
# Coordination Sequence:
#
# PCOD8142682 Si02
#       6
#     8   4   8   8   8   8
#     4  10  22  40  67  92 126 164 216 247 314 371
#     4  10  22  40  64  90 124 166 216 242 322 366
#     4  10  21  39  63  94 120 164 207 256 304 374
#     4  11  22  41  66  92 125 168 203 266 304 373
#     4  10  24  40  61  94 128 158 212 255 323 357
#     4  10  22  42  59  91 126 164 205 263 302 381
#
# _framework density 21.481949
#
# number of rings (size 3 to 8) (size 9 to 14) (size 15 to 20)
#    0.000    1.818    1.818    1.091    2.545    4.364 
#    6.545    0.909    0.000    0.000    0.000    0.000 
#    0.000    0.000    0.000    0.000    0.000    0.000 
#
# Total GULP energy -272795.560323 kJ/mol
# GULP energy per Si atom -12399.798197 kJ/mol
# Density = 2.143305 g / cm^3
# Si number density = 21.481949 Si / 1000 Ang^3
#
#
#
# Elastic Constant Matrix: (Units=GPa)
#
#
# Indices 1 2 3 4 5 6 
#
# 1 35.6015 6.2726 30.0819 0.0000 -18.0017 0.0000
# 2 6.2726 72.2366 37.7873 0.0000 9.4895 0.0000
# 3 30.0819 37.7873 165.2721 0.0000 -31.2609 0.0000
# 4 0.0000 0.0000 0.0000 22.1923 0.0000 -3.5034
# 5 -18.0017 9.4895 -31.2609 0.0000 42.9760 0.0000
# 6 0.0000 0.0000 0.0000 -3.5034 0.0000 23.4037
#
#
#
# Elastic Compliance Matrix: (Units=1/GPa)
#
#
# Indices 1 2 3 4 5 6 
#
# 1 0.039055 -0.003424 -0.003581 0.000000 0.014511 0.000000
# 2 -0.003424 0.018116 -0.005272 0.000000 -0.009270 0.000000
# 3 -0.003581 -0.005272 0.009096 0.000000 0.006280 0.000000
# 4 0.000000 0.000000 0.000000 0.046151 0.000000 0.006909
# 5 0.014511 -0.009270 0.006280 0.000000 0.035962 0.000000
# 6 0.000000 0.000000 0.000000 0.006909 0.000000 0.043762
#
#
# Mechanical properties :
#
#
# Convention : Reuss Voigt Hill
#
# Bulk Modulus (GPa) = 23.97378 46.82157 35.39767
# Shear Modulus (GPa) = 21.68238 30.97895 26.33066
#
# Velocity S-wave (km/s) = 3.18044 3.80161 3.50481
# Velocity P-wave (km/s) = 4.96701 6.41192 5.73515
#
# Compressibility (1/GPa) = 0.04171224
#
# Stress axis : x y z
#
# Youngs Moduli (GPa) = 25.60490 55.19875 109.94141
#
# Poissons Ratio (x) = 0.18902 0.39370
# Poissons Ratio (y) = 0.08768 0.57962
# Poissons Ratio (z) = 0.09169 0.29101
#
# Static dielectric constant tensor:
#      x y z
#    x 3.863360 0.000000 -0.321110 
#    y 0.000000 3.579110 0.000000 
#    z -0.321110 0.000000 4.331840 
# 
# 
# High freq. dielectric constant tensor:
#      x y z
#    x 1.844820 0.000000 -0.018950 
#    y 0.000000 1.823310 0.000000 
#    z -0.018950 0.000000 1.862710 
# 
# From -- ./inp_files/246727.got.cif
#   From: 2010.06.25/outbox.cif.g09.slc.cpg/sg15_124_cif.got.tgz:246727.got - 2010.06.28 07:06:18.
