data_PCOD8142344
_publ_section_title
;
Structure prediction by ZEFSAII (Michael W. Deem and Ramdas Pophale) SiO2 
 PCOD8142344
Probable space group: C 2/C
;
_chemical_formula_sum "Si O2"
_cell_formula_units_Z 44
_cell_length_a 7.577353
_cell_length_b 12.004932
_cell_length_c 27.096109
_cell_angle_alpha 90.000000
_cell_angle_beta 124.622683
_cell_angle_gamma 90.000000
_cell_volume 2028.323796
_symmetry_space_group_name_H-M "C 2/C"
_symmetry_group_IT_number 15
_symmetry_cell_setting 'monoclinic'
loop_
_space_group_symop_operation_xyz
x,y,z
-x,y,1/2-z
-x,-y,-z
x,-y,1/2+z
1/2+x,1/2+y,z
1/2-x,1/2+y,1/2-z
1/2-x,1/2-y,-z
1/2+x,1/2-y,1/2+z
loop_
_atom_site_type_symbol
_atom_site_label
_atom_site_fract_x
_atom_site_fract_y
_atom_site_fract_z
Si Si1 0.144158 0.889352 0.151981
Si Si2 0.549632 0.614366 0.981412
Si Si3 0.500000 0.966298 0.750000
Si Si4 0.782933 0.488801 0.895553
Si Si5 0.245652 0.649718 0.204640
Si Si6 0.012671 0.349895 0.004858
O O1 0.112058 0.868041 0.089309
O O2 0.151122 0.771664 0.180584
O O3 0.956093 0.963855 0.145292
O O4 0.364523 0.955107 0.192547
O O5 0.501042 0.717038 0.011249
O O6 0.500000 0.500000 0.000000
O O7 0.793288 0.618493 0.001703
O O8 0.347190 0.889489 0.758260
O O9 0.835053 0.433461 0.851369
O O10 0.802412 0.398314 0.943525
O O11 0.946960 0.590620 0.935698
O O12 0.500000 0.653312 0.250000
#
# Coordination Sequence:
#
# PCOD8142344 Si02
#       6
#     8   8   4   8   8   8
#     4  11  24  44  66 101 139 176 237 287 345 411
#     4  10  21  38  67 101 137 178 227 287 340 417
#     4  12  28  42  70 100 128 188 240 276 352 412
#     4  10  21  43  70  95 140 184 217 286 350 401
#     4  12  25  47  71  97 142 182 230 298 341 404
#     4   9  20  40  64  99 138 179 224 274 353 413
#
# _framework density 21.692788
#
# number of rings (size 3 to 8) (size 9 to 14) (size 15 to 20)
#    0.000    1.455    4.545    0.000    2.545    1.455 
#    0.000   13.636    0.000    0.000    0.000    0.000 
#    0.000    0.000    0.000    0.000    0.000    0.000 
#
# Total GULP energy -272780.218682 kJ/mol
# GULP energy per Si atom -12399.100849 kJ/mol
# Density = 2.164341 g / cm^3
# Si number density = 21.692788 Si / 1000 Ang^3
#
#
#
# Elastic Constant Matrix: (Units=GPa)
#
#
# Indices 1 2 3 4 5 6 
#
# 1 71.8051 47.2459 34.6427 0.0000 3.4779 0.0000
# 2 47.2459 182.9867 45.2942 0.0000 3.1284 0.0000
# 3 34.6427 45.2942 106.0166 0.0000 12.8021 0.0000
# 4 0.0000 0.0000 0.0000 38.5870 0.0000 -3.5328
# 5 3.4779 3.1284 12.8021 0.0000 24.5852 0.0000
# 6 0.0000 0.0000 0.0000 -3.5328 0.0000 24.4397
#
#
#
# Elastic Compliance Matrix: (Units=1/GPa)
#
#
# Indices 1 2 3 4 5 6 
#
# 1 0.018502 -0.003666 -0.004503 0.000000 0.000194 0.000000
# 2 -0.003666 0.006846 -0.001798 0.000000 0.000583 0.000000
# 3 -0.004503 -0.001798 0.012344 0.000000 -0.005562 0.000000
# 4 0.000000 0.000000 0.000000 0.026263 0.000000 0.003796
# 5 0.000194 0.000583 -0.005562 0.000000 0.043469 0.000000
# 6 0.000000 0.000000 0.000000 0.003796 0.000000 0.041466
#
#
# Mechanical properties :
#
#
# Convention : Reuss Voigt Hill
#
# Bulk Modulus (GPa) = 56.31003 68.35267 62.33135
# Shear Modulus (GPa) = 28.61361 33.09742 30.85552
#
# Velocity S-wave (km/s) = 3.63580 3.91030 3.77554
# Velocity P-wave (km/s) = 6.60603 7.20868 6.91393
#
# Compressibility (1/GPa) = 0.01775883
#
# Stress axis : x y z
#
# Youngs Moduli (GPa) = 54.04932 146.06376 81.01389
#
# Poissons Ratio (x) = 0.53542 0.36481
# Poissons Ratio (y) = 0.19813 0.14563
# Poissons Ratio (z) = 0.24338 0.26257
#
# Static dielectric constant tensor:
#      x y z
#    x 3.619080 0.000000 0.063370 
#    y 0.000000 4.230750 0.000000 
#    z 0.063370 0.000000 4.330970 
# 
# 
# High freq. dielectric constant tensor:
#      x y z
#    x 1.823960 0.000000 0.015570 
#    y 0.000000 1.870790 0.000000 
#    z 0.015570 0.000000 1.862450 
# 
# From -- ./inp_files/263315.got.cif
#   From: 2010.06.25/outbox.cif.g09.slc.cpg/sg15_132_cif.got.tgz:263315.got - 2010.06.28 07:06:18.
