data_PCOD8142225
_publ_section_title
;
Structure prediction by ZEFSAII (Michael W. Deem and Ramdas Pophale) SiO2 
 PCOD8142225
Probable space group: C 2/C
;
_chemical_formula_sum "Si O2"
_cell_formula_units_Z 56
_cell_length_a 8.607025
_cell_length_b 18.099305
_cell_length_c 25.679852
_cell_angle_alpha 90.000000
_cell_angle_beta 41.656974
_cell_angle_gamma 90.000000
_cell_volume 2658.968661
_symmetry_space_group_name_H-M "C 2/C"
_symmetry_group_IT_number 15
_symmetry_cell_setting 'monoclinic'
loop_
_space_group_symop_operation_xyz
x,y,z
-x,y,1/2-z
-x,-y,-z
x,-y,1/2+z
1/2+x,1/2+y,z
1/2-x,1/2+y,1/2-z
1/2-x,1/2-y,-z
1/2+x,1/2-y,1/2+z
loop_
_atom_site_type_symbol
_atom_site_label
_atom_site_fract_x
_atom_site_fract_y
_atom_site_fract_z
Si Si1 0.274142 0.429551 0.403751
Si Si2 0.500000 0.194360 0.250000
Si Si3 0.124005 0.235310 0.613200
Si Si4 0.333488 0.229562 0.830774
Si Si5 0.375453 0.695815 0.510120
Si Si6 0.415862 0.370588 0.699400
Si Si7 0.768762 0.072067 0.463092
Si Si8 0.500000 0.493281 0.750000
O O1 0.384957 0.352568 0.392828
O O2 0.327232 0.484941 0.439298
O O3 0.365293 0.456156 0.324783
O O4 0.003334 0.415965 0.462255
O O5 0.425770 0.247962 0.314654
O O6 0.291374 0.138868 0.289496
O O7 0.369700 0.273792 0.536476
O O8 0.909877 0.262974 0.631057
O O9 0.500000 0.178661 0.750000
O O10 0.526568 0.294016 0.788110
O O11 0.283948 0.189850 0.898212
O O12 0.250000 0.750000 0.500000
O O13 0.395155 0.613067 0.480346
O O14 0.654915 0.390345 0.609779
O O15 0.334565 0.435809 0.759312
#
# Coordination Sequence:
#
# PCOD8142225 Si02
#       8
#     8   4   8   8   8   8   8   4
#     4  10  22  38  63  94 129 179 214 263 331 406
#     4  12  21  36  72 100 129 164 222 276 328 387
#     4  12  23  38  64  99 133 170 220 276 332 392
#     4  12  24  39  62 100 134 161 217 283 331 375
#     4  12  22  40  68  96 125 170 224 275 330 391
#     4  11  20  40  65  98 122 168 214 273 323 390
#     4  10  21  40  66  89 126 167 224 259 319 406
#     4  10  21  38  64  86 133 172 218 256 334 401
#
# _framework density 21.060797000000001
#
# number of rings (size 3 to 8) (size 9 to 14) (size 15 to 20)
#    0.000    0.857    6.429    0.857    0.000    1.143 
#    0.000    0.714   12.571    0.000    0.000    0.000 
#    0.000    0.000    0.000    0.000    0.000    0.000 
#
# Total GULP energy -346910.952779 kJ/mol
# GULP energy per Si atom -12389.676885 kJ/mol
# Density = 2.101286 g / cm^3
# Si number density = 21.060797 Si / 1000 Ang^3
#
#
#
# Elastic Constant Matrix: (Units=GPa)
#
#
# Indices 1 2 3 4 5 6 
#
# 1 111.3346 35.3668 36.7180 0.0115 -7.0267 0.0015
# 2 35.3668 99.2978 31.2182 0.0324 0.0795 -0.0045
# 3 36.7180 31.2182 129.5584 0.0553 11.0423 0.0217
# 4 0.0115 0.0324 0.0553 18.2481 -0.0098 -0.4638
# 5 -7.0267 0.0795 11.0423 -0.0098 37.9309 -0.0109
# 6 0.0015 -0.0045 0.0217 -0.4638 -0.0109 21.0669
#
#
#
# Elastic Compliance Matrix: (Units=1/GPa)
#
#
# Indices 1 2 3 4 5 6 
#
# 1 0.011005 -0.003101 -0.002611 0.000008 0.002805 0.000003
# 2 -0.003101 0.011791 -0.001960 -0.000013 -0.000029 0.000004
# 3 -0.002611 -0.001960 0.009200 -0.000025 -0.003158 -0.000012
# 4 0.000008 -0.000013 -0.000025 0.054831 0.000023 0.001207
# 5 0.002805 -0.000029 -0.003158 0.000023 0.027803 0.000018
# 6 0.000003 0.000004 -0.000012 0.001207 0.000018 0.047494
#
#
# Mechanical properties :
#
#
# Convention : Reuss Voigt Hill
#
# Bulk Modulus (GPa) = 60.05016 60.75520 60.40268
# Shear Modulus (GPa) = 27.31956 31.24172 29.28064
#
# Velocity S-wave (km/s) = 3.60554 3.85568 3.73271
# Velocity P-wave (km/s) = 6.77554 6.98082 6.87894
#
# Compressibility (1/GPa) = 0.01665274
#
# Stress axis : x y z
#
# Youngs Moduli (GPa) = 90.86662 84.80726 108.69724
#
# Poissons Ratio (x) = 0.26300 0.28379
# Poissons Ratio (y) = 0.28179 0.21304
# Poissons Ratio (z) = 0.23724 0.16621
#
# Static dielectric constant tensor:
#      x y z
#    x 3.807900 0.000000 0.094480 
#    y 0.000000 3.852410 0.000030 
#    z 0.094480 0.000030 4.071280 
# 
# 
# High freq. dielectric constant tensor:
#      x y z
#    x 1.812190 0.000000 0.009700 
#    y 0.000000 1.804870 0.000000 
#    z 0.009700 0.000000 1.851190 
# 
# From -- ./inp_files/289728.got.cif
#   From: 2010.06.25/outbox.cif.g09.slc.cpg/sg15_145_cif.got.tgz:289728.got - 2010.06.28 07:06:18.
