data_PCOD8142463
_publ_section_title
;
Structure prediction by ZEFSAII (Michael W. Deem and Ramdas Pophale) SiO2 
 PCOD8142463
Probable space group: C 2/C
;
_chemical_formula_sum "Si O2"
_cell_formula_units_Z 52
_cell_length_a 19.971794
_cell_length_b 13.610761
_cell_length_c 9.148308
_cell_angle_alpha 90.000000
_cell_angle_beta 74.457554
_cell_angle_gamma 90.000000
_cell_volume 2395.859943
_symmetry_space_group_name_H-M "C 2/C"
_symmetry_group_IT_number 15
_symmetry_cell_setting 'monoclinic'
loop_
_space_group_symop_operation_xyz
x,y,z
-x,y,1/2-z
-x,-y,-z
x,-y,1/2+z
1/2+x,1/2+y,z
1/2-x,1/2+y,1/2-z
1/2-x,1/2-y,-z
1/2+x,1/2-y,1/2+z
loop_
_atom_site_type_symbol
_atom_site_label
_atom_site_fract_x
_atom_site_fract_y
_atom_site_fract_z
Si Si1 0.840809 0.505598 0.663411
Si Si2 0.629658 0.495393 0.529603
Si Si3 0.901664 0.866565 0.205390
Si Si4 0.244808 0.697440 0.846979
Si Si5 0.000000 0.707769 0.250000
Si Si6 0.433253 0.018463 0.364125
Si Si7 0.209699 0.889949 0.736693
O O1 0.804998 0.603408 0.621522
O O2 0.914627 0.482591 0.537790
O O3 0.862766 0.509346 0.818931
O O4 0.790163 0.414999 0.667822
O O5 0.581580 0.431609 0.448533
O O6 0.584197 0.571536 0.653089
O O7 0.667393 0.421123 0.618710
O O8 0.684260 0.555676 0.399265
O O9 0.820652 0.836050 0.247925
O O10 0.953552 0.774625 0.169513
O O11 0.207986 0.772621 0.756049
O O12 0.250000 0.750000 0.000000
O O13 0.946624 0.636681 0.367995
O O14 0.500000 0.965110 0.250000
#
# Coordination Sequence:
#
# PCOD8142463 Si02
#       7
#     8   8   8   8   4   8   8
#     4  12  21  42  67  92 129 168 212 267 323 374
#     4  10  21  39  59  92 127 162 204 279 323 374
#     4  11  22  41  63  91 128 166 221 260 322 387
#     4  12  22  36  66  97 124 173 210 268 328 374
#     4  10  24  44  66  90 126 180 220 246 316 404
#     4  10  25  42  63  91 125 174 210 256 311 386
#     4  11  21  37  60  95 131 158 210 265 335 380
#
# _framework density 21.704105999999999
#
# number of rings (size 3 to 8) (size 9 to 14) (size 15 to 20)
#    0.462    0.615    4.615    4.154    0.000    1.231 
#    2.769    0.000    0.000    1.846    0.000    0.000 
#    0.000    0.000    0.000    0.000    0.000    0.000 
#
# Total GULP energy -322241.040047 kJ/mol
# GULP energy per Si atom -12393.886156 kJ/mol
# Density = 2.165471 g / cm^3
# Si number density = 21.704106 Si / 1000 Ang^3
#
#
#
# Elastic Constant Matrix: (Units=GPa)
#
#
# Indices 1 2 3 4 5 6 
#
# 1 53.3734 9.6255 12.5730 0.0000 2.2699 0.0000
# 2 9.6255 48.9451 20.1764 0.0000 4.8749 0.0000
# 3 12.5730 20.1764 97.9915 0.0000 9.1833 0.0000
# 4 0.0000 0.0000 0.0000 26.6927 0.0000 10.3588
# 5 2.2699 4.8749 9.1833 0.0000 20.8455 0.0000
# 6 0.0000 0.0000 0.0000 10.3588 0.0000 43.6130
#
#
#
# Elastic Compliance Matrix: (Units=1/GPa)
#
#
# Indices 1 2 3 4 5 6 
#
# 1 0.019749 -0.003061 -0.001845 0.000000 -0.000622 0.000000
# 2 -0.003061 0.023025 -0.004042 0.000000 -0.003271 0.000000
# 3 -0.001845 -0.004042 0.011647 0.000000 -0.003985 0.000000
# 4 0.000000 0.000000 0.000000 0.041267 0.000000 -0.009802
# 5 -0.000622 -0.003271 -0.003985 0.000000 0.050560 0.000000
# 6 0.000000 0.000000 0.000000 -0.009802 0.000000 0.025257
#
#
# Mechanical properties :
#
#
# Convention : Reuss Voigt Hill
#
# Bulk Modulus (GPa) = 27.37845 31.67332 29.52588
# Shear Modulus (GPa) = 24.80443 28.75925 26.78184
#
# Velocity S-wave (km/s) = 3.38427 3.64409 3.51658
# Velocity P-wave (km/s) = 5.28326 5.68601 5.48833
#
# Compressibility (1/GPa) = 0.03652508
#
# Stress axis : x y z
#
# Youngs Moduli (GPa) = 50.63513 43.43129 85.85650
#
# Poissons Ratio (x) = 0.13295 0.15844
# Poissons Ratio (y) = 0.15501 0.34699
# Poissons Ratio (z) = 0.09344 0.17553
#
# Static dielectric constant tensor:
#      x y z
#    x 3.735850 0.000000 0.017070 
#    y 0.000000 4.028600 0.000000 
#    z 0.017070 0.000000 3.951670 
# 
# 
# High freq. dielectric constant tensor:
#      x y z
#    x 1.846080 0.000000 0.004960 
#    y 0.000000 1.846440 0.000000 
#    z 0.004960 0.000000 1.851810 
# 
# From -- ./inp_files/55309.got.cif
#   From: 2010.06.25/outbox.cif.g09.slc.cpg/sg15_28_cif.got.tgz:55309.got - 2010.06.28 07:06:18.
