data_PCOD8142906
_publ_section_title
;
Structure prediction by ZEFSAII (Michael W. Deem and Ramdas Pophale) SiO2 
 PCOD8142906
Probable space group: C 2/C
;
_chemical_formula_sum "Si O2"
_cell_formula_units_Z 56
_cell_length_a 14.558947
_cell_length_b 19.284964
_cell_length_c 13.522384
_cell_angle_alpha 90.000000
_cell_angle_beta 135.205281
_cell_angle_gamma 90.000000
_cell_volume 2675.010389
_symmetry_space_group_name_H-M "C 2/C"
_symmetry_group_IT_number 15
_symmetry_cell_setting 'monoclinic'
loop_
_space_group_symop_operation_xyz
x,y,z
-x,y,1/2-z
-x,-y,-z
x,-y,1/2+z
1/2+x,1/2+y,z
1/2-x,1/2+y,1/2-z
1/2-x,1/2-y,-z
1/2+x,1/2-y,1/2+z
loop_
_atom_site_type_symbol
_atom_site_label
_atom_site_fract_x
_atom_site_fract_y
_atom_site_fract_z
Si Si1 0.675791 0.108983 0.757602
Si Si2 0.710308 0.813302 0.732032
Si Si3 0.147228 0.745864 0.835512
Si Si4 0.829481 0.859030 0.022700
Si Si5 0.381359 0.672368 0.776747
Si Si6 0.424922 0.933475 0.982448
Si Si7 0.350358 0.008053 0.115812
O O1 0.666120 0.165030 0.834512
O O2 0.789154 0.120657 0.766155
O O3 0.536485 0.119378 0.599326
O O4 0.695181 0.033949 0.822084
O O5 0.817051 0.792929 0.731731
O O6 0.607941 0.748800 0.663388
O O7 0.653999 0.889199 0.660069
O O8 0.772042 0.816529 0.887595
O O9 0.000000 0.767100 0.750000
O O10 0.250000 0.750000 0.000000
O O11 0.822191 0.817711 0.121021
O O12 0.982678 0.868874 0.117968
O O13 0.750467 0.930072 0.975730
O O14 0.338555 0.958931 0.009583
O O15 0.500000 0.000000 0.000000
O O16 0.500000 0.033492 0.250000
#
# Coordination Sequence:
#
# PCOD8142906 Si02
#       7
#     8   8   8   8   8   8   8
#     4  10  21  39  67  93 129 170 220 275 327 385
#     4  11  24  40  70  94 131 172 221 274 338 400
#     4  11  23  39  66  99 138 172 220 278 339 401
#     4  11  24  44  60  95 134 173 224 265 330 407
#     4  10  25  42  63  92 136 173 217 273 336 392
#     4  11  22  41  68  99 126 168 224 278 331 393
#     4  10  21  41  68  97 129 172 226 275 327 392
#
# _framework density 20.934498000000001
#
# number of rings (size 3 to 8) (size 9 to 14) (size 15 to 20)
#    0.000    1.429    0.000    6.000    8.000    0.571 
#    7.714    1.429    3.143    0.000    0.000    0.000 
#    0.000    0.000    0.000    0.000    0.000    0.000 
#
# Total GULP energy -346935.126749 kJ/mol
# GULP energy per Si atom -12390.540241 kJ/mol
# Density = 2.088685 g / cm^3
# Si number density = 20.934498 Si / 1000 Ang^3
#
#
#
# Elastic Constant Matrix: (Units=GPa)
#
#
# Indices 1 2 3 4 5 6 
#
# 1 149.3486 64.9720 56.5221 0.0000 11.4070 0.0000
# 2 64.9720 92.5798 51.1960 0.0000 5.7419 0.0000
# 3 56.5221 51.1960 122.8456 0.0000 2.7861 0.0000
# 4 0.0000 0.0000 0.0000 39.5166 0.0000 -4.1488
# 5 11.4070 5.7419 2.7861 0.0000 28.6232 0.0000
# 6 0.0000 0.0000 0.0000 -4.1488 0.0000 25.6922
#
#
#
# Elastic Compliance Matrix: (Units=1/GPa)
#
#
# Indices 1 2 3 4 5 6 
#
# 1 0.010278 -0.005800 -0.002250 0.000000 -0.002713 0.000000
# 2 -0.005800 0.017456 -0.004589 0.000000 -0.000743 0.000000
# 3 -0.002250 -0.004589 0.011071 0.000000 0.000740 0.000000
# 4 0.000000 0.000000 0.000000 0.025742 0.000000 0.004157
# 5 -0.002713 -0.000743 0.000740 0.000000 0.036095 0.000000
# 6 0.000000 0.000000 0.000000 0.004157 0.000000 0.039594
#
#
# Mechanical properties :
#
#
# Convention : Reuss Voigt Hill
#
# Bulk Modulus (GPa) = 73.93155 78.90602 76.41878
# Shear Modulus (GPa) = 29.40755 31.57201 30.48978
#
# Velocity S-wave (km/s) = 3.75205 3.88768 3.82047
# Velocity P-wave (km/s) = 7.35954 7.61090 7.48628
#
# Compressibility (1/GPa) = 0.01352603
#
# Stress axis : x y z
#
# Youngs Moduli (GPa) = 97.29576 57.28658 90.32333
#
# Poissons Ratio (x) = 0.33229 0.20323
# Poissons Ratio (y) = 0.56436 0.41451
# Poissons Ratio (z) = 0.21892 0.26290
#
# Static dielectric constant tensor:
#      x y z
#    x 4.063010 0.000000 -0.238570 
#    y 0.000000 3.655040 0.000000 
#    z -0.238570 0.000000 3.846180 
# 
# 
# High freq. dielectric constant tensor:
#      x y z
#    x 1.834540 0.000000 -0.019260 
#    y 0.000000 1.817490 0.000000 
#    z -0.019260 0.000000 1.819890 
# 
# From -- ./inp_files/156227.got.cif
#   From: 2010.06.25/outbox.cif.g09.slc.cpg/sg15_79_cif.got.tgz:156227.got - 2010.06.28 07:06:18.
