data_PCOD8142009
_publ_section_title
;
Structure prediction by ZEFSAII (Michael W. Deem and Ramdas Pophale) SiO2 
 PCOD8142009
Probable space group: C 2/C
;
_chemical_formula_sum "Si O2"
_cell_formula_units_Z 36
_cell_length_a 28.393645
_cell_length_b 6.089155
_cell_length_c 21.138995
_cell_angle_alpha 90.000000
_cell_angle_beta 28.287172
_cell_angle_gamma 90.000000
_cell_volume 1731.972671
_symmetry_space_group_name_H-M "C 2/C"
_symmetry_group_IT_number 15
_symmetry_cell_setting 'monoclinic'
loop_
_space_group_symop_operation_xyz
x,y,z
-x,y,1/2-z
-x,-y,-z
x,-y,1/2+z
1/2+x,1/2+y,z
1/2-x,1/2+y,1/2-z
1/2-x,1/2-y,-z
1/2+x,1/2-y,1/2+z
loop_
_atom_site_type_symbol
_atom_site_label
_atom_site_fract_x
_atom_site_fract_y
_atom_site_fract_z
Si Si1 0.533137 0.762438 0.826441
Si Si2 0.000000 0.432323 0.250000
Si Si3 0.105730 0.114439 0.040063
Si Si4 0.217874 0.683817 0.191056
Si Si5 0.358054 0.991060 0.593793
O O1 0.495303 0.524516 0.849183
O O2 0.639687 0.730869 0.732345
O O3 0.545848 0.919829 0.751072
O O4 0.456293 0.862598 0.968300
O O5 0.089710 0.283427 0.116738
O O6 0.126742 0.246848 0.950942
O O7 0.197475 0.953191 0.946196
O O8 0.164490 0.526328 0.305254
O O9 0.265262 0.895611 0.168424
#
# Coordination Sequence:
#
# PCOD8142009 Si02
#       5
#     8   4   8   8   8
#     4  10  23  39  64  89 122 167 204 248 305 358
#     4  10  22  44  62  88 124 164 210 250 294 360
#     4  10  22  41  62  89 129 158 204 257 295 365
#     4  11  21  39  63  94 125 160 199 250 311 364
#     4  10  21  38  60  94 129 157 199 250 303 371
#
# _framework density 20.785549
#
# number of rings (size 3 to 8) (size 9 to 14) (size 15 to 20)
#    0.000    1.778    2.222    1.333    0.000    5.333 
#    0.000   15.556    0.000    0.000    0.000    0.000 
#    0.000    0.000    0.000    0.000    0.000    0.000 
#
# Total GULP energy -223278.607743 kJ/mol
# GULP energy per Si atom -12404.367097 kJ/mol
# Density = 2.073824 g / cm^3
# Si number density = 20.785549 Si / 1000 Ang^3
#
#
#
# Elastic Constant Matrix: (Units=GPa)
#
#
# Indices 1 2 3 4 5 6 
#
# 1 107.4898 32.6169 46.9235 0.1182 -11.1732 -0.0910
# 2 32.6169 92.8220 18.8811 0.4639 1.6822 -0.1741
# 3 46.9235 18.8811 68.1010 0.7826 3.1214 -0.3229
# 4 0.1182 0.4639 0.7826 27.8106 -0.1003 6.3414
# 5 -11.1732 1.6822 3.1214 -0.1003 38.9847 0.0238
# 6 -0.0910 -0.1741 -0.3229 6.3414 0.0238 22.1336
#
#
#
# Elastic Compliance Matrix: (Units=1/GPa)
#
#
# Indices 1 2 3 4 5 6 
#
# 1 0.015138 -0.003439 -0.009723 0.000333 0.005267 -0.000208
# 2 -0.003439 0.012201 -0.000944 -0.000196 -0.001437 0.000126
# 3 -0.009723 -0.000944 0.021862 -0.000682 -0.004499 0.000472
# 4 0.000333 -0.000196 -0.000682 0.038497 0.000264 -0.011040
# 5 0.005267 -0.001437 -0.004499 0.000264 0.027584 -0.000161
# 6 -0.000208 0.000126 0.000472 -0.011040 -0.000161 0.048350
#
#
# Mechanical properties :
#
#
# Convention : Reuss Voigt Hill
#
# Bulk Modulus (GPa) = 47.64756 51.69507 49.67131
# Shear Modulus (GPa) = 25.14558 29.11853 27.13206
#
# Velocity S-wave (km/s) = 3.48194 3.74692 3.61686
# Velocity P-wave (km/s) = 6.25607 6.60635 6.43359
#
# Compressibility (1/GPa) = 0.02098743
#
# Stress axis : x y z
#
# Youngs Moduli (GPa) = 66.05739 81.95948 45.74173
#
# Poissons Ratio (x) = 0.28187 0.44477
# Poissons Ratio (y) = 0.22718 0.04320
# Poissons Ratio (z) = 0.64231 0.07740
#
# Static dielectric constant tensor:
#      x y z
#    x 3.405720 -0.000140 0.156290 
#    y -0.000140 3.849360 0.000290 
#    z 0.156290 0.000290 3.906040 
# 
# 
# High freq. dielectric constant tensor:
#      x y z
#    x 1.785880 -0.000020 0.010720 
#    y -0.000020 1.824080 0.000030 
#    z 0.010720 0.000030 1.823550 
# 
# From -- ./inp_files/115608.got.cif
#   From: 2010.06.25/outbox.cif.g09.slc.cpg/sg15_58_cif.got.tgz:115608.got - 2010.06.28 07:06:18.
