data_PCOD8142618
_publ_section_title
;
Structure prediction by ZEFSAII (Michael W. Deem and Ramdas Pophale) SiO2 
 PCOD8142618
Probable space group: C 2/C
;
_chemical_formula_sum "Si O2"
_cell_formula_units_Z 64
_cell_length_a 12.985007
_cell_length_b 16.974249
_cell_length_c 31.758615
_cell_angle_alpha 90.000000
_cell_angle_beta 154.019227
_cell_angle_gamma 90.000000
_cell_volume 3066.460240
_symmetry_space_group_name_H-M "C 2/C"
_symmetry_group_IT_number 15
_symmetry_cell_setting 'monoclinic'
loop_
_space_group_symop_operation_xyz
x,y,z
-x,y,1/2-z
-x,-y,-z
x,-y,1/2+z
1/2+x,1/2+y,z
1/2-x,1/2+y,1/2-z
1/2-x,1/2-y,-z
1/2+x,1/2-y,1/2+z
loop_
_atom_site_type_symbol
_atom_site_label
_atom_site_fract_x
_atom_site_fract_y
_atom_site_fract_z
Si Si1 0.158607 0.923021 0.559781
Si Si2 0.289190 0.599901 0.735541
Si Si3 0.854943 0.729029 0.239965
Si Si4 0.023642 0.099572 0.099121
Si Si5 0.901197 0.478966 0.257629
Si Si6 0.958353 0.463798 0.050351
Si Si7 0.259337 0.272248 0.954578
Si Si8 0.667448 0.105000 0.545934
O O1 0.080908 0.875769 0.572400
O O2 0.428171 0.952441 0.661361
O O3 0.118575 0.858506 0.507499
O O4 0.000000 0.000000 0.500000
O O5 0.243888 0.684274 0.697741
O O6 0.142461 0.591121 0.725216
O O7 0.564252 0.586155 0.843103
O O8 0.186169 0.536846 0.664318
O O9 0.634516 0.671061 0.166357
O O10 0.000000 0.711339 0.250000
O O11 0.010040 0.720986 0.339235
O O12 0.149272 0.017804 0.156942
O O13 0.748096 0.086347 0.003594
O O14 0.000000 0.443558 0.250000
O O15 0.997881 0.422096 0.020527
O O16 0.891314 0.555197 0.017923
O O17 0.389292 0.197242 0.981486
O O18 0.250000 0.250000 0.000000
#
# Coordination Sequence:
#
# PCOD8142618 Si02
#       8
#     8   8   8   8   8   8   8   8
#     4  11  23  39  65  98 132 171 225 279 335 407
#     4  11  22  39  68  93 129 173 223 274 334 404
#     4  11  21  43  68  94 130 178 227 275 337 405
#     4  11  21  40  67  93 130 171 230 278 333 400
#     4  10  21  39  62  95 131 167 216 276 330 399
#     4  11  23  40  67  97 126 176 224 278 329 406
#     4  11  24  40  69  97 134 180 223 278 343 416
#     4  10  24  44  62  95 136 169 227 273 339 404
#
# _framework density 20.870968999999999
#
# number of rings (size 3 to 8) (size 9 to 14) (size 15 to 20)
#    0.000    1.250    3.750    3.000    3.500    1.500 
#    2.250    0.000    0.000    0.000    0.000    0.000 
#    0.000    0.000    0.000    0.000    0.000    0.000 
#
# Total GULP energy -396599.581644 kJ/mol
# GULP energy per Si atom -12393.736926 kJ/mol
# Density = 2.082347 g / cm^3
# Si number density = 20.870969 Si / 1000 Ang^3
#
#
#
# Elastic Constant Matrix: (Units=GPa)
#
#
# Indices 1 2 3 4 5 6 
#
# 1 90.0488 34.6748 23.2073 0.0006 -1.1726 0.0001
# 2 34.6748 117.4829 36.6434 0.0006 -0.3118 0.0002
# 3 23.2073 36.6434 78.8107 0.0030 -7.6232 0.0010
# 4 0.0006 0.0006 0.0030 30.8068 0.0012 -0.4561
# 5 -1.1726 -0.3118 -7.6232 0.0012 33.8941 0.0002
# 6 0.0001 0.0002 0.0010 -0.4561 0.0002 34.0071
#
#
#
# Elastic Compliance Matrix: (Units=1/GPa)
#
#
# Indices 1 2 3 4 5 6 
#
# 1 0.012898 -0.003063 -0.002385 0.000000 -0.000118 0.000000
# 2 -0.003063 0.010714 -0.004171 0.000000 -0.000946 0.000000
# 3 -0.002385 -0.004171 0.015659 -0.000002 0.003401 0.000000
# 4 0.000000 0.000000 -0.000002 0.032467 -0.000001 0.000435
# 5 -0.000118 -0.000946 0.003401 -0.000001 0.030256 0.000000
# 6 0.000000 0.000000 0.000000 0.000435 0.000000 0.029411
#
#
# Mechanical properties :
#
#
# Convention : Reuss Voigt Hill
#
# Bulk Modulus (GPa) = 49.91881 52.82149 51.37015
# Shear Modulus (GPa) = 31.78189 32.52940 32.15564
#
# Velocity S-wave (km/s) = 3.90651 3.95219 3.92942
# Velocity P-wave (km/s) = 6.65714 6.79632 6.72709
#
# Compressibility (1/GPa) = 0.02003253
#
# Stress axis : x y z
#
# Youngs Moduli (GPa) = 77.53284 93.33187 63.85935
#
# Poissons Ratio (x) = 0.28588 0.15232
# Poissons Ratio (y) = 0.23749 0.26637
# Poissons Ratio (z) = 0.18493 0.38931
#
# Static dielectric constant tensor:
#      x y z
#    x 3.860030 0.000000 -0.221520 
#    y 0.000000 3.967490 0.000000 
#    z -0.221520 0.000000 3.878130 
# 
# 
# High freq. dielectric constant tensor:
#      x y z
#    x 1.812070 0.000000 -0.011400 
#    y 0.000000 1.816430 0.000000 
#    z -0.011400 0.000000 1.812580 
# 
# From -- ./inp_files/311649.got.cif
#   From: 2010.06.25/outbox.cif.g09.slc.cpg/sg15_156_cif.got.tgz:311649.got - 2010.06.28 07:06:18.
