data_PCOD8142825
_publ_section_title
;
Structure prediction by ZEFSAII (Michael W. Deem and Ramdas Pophale) SiO2 
 PCOD8142825
Probable space group: C 2/C
;
_chemical_formula_sum "Si O2"
_cell_formula_units_Z 52
_cell_length_a 14.108514
_cell_length_b 12.088105
_cell_length_c 14.923825
_cell_angle_alpha 90.000000
_cell_angle_beta 65.854301
_cell_angle_gamma 90.000000
_cell_volume 2322.503742
_symmetry_space_group_name_H-M "C 2/C"
_symmetry_group_IT_number 15
_symmetry_cell_setting 'monoclinic'
loop_
_space_group_symop_operation_xyz
x,y,z
-x,y,1/2-z
-x,-y,-z
x,-y,1/2+z
1/2+x,1/2+y,z
1/2-x,1/2+y,1/2-z
1/2-x,1/2-y,-z
1/2+x,1/2-y,1/2+z
loop_
_atom_site_type_symbol
_atom_site_label
_atom_site_fract_x
_atom_site_fract_y
_atom_site_fract_z
Si Si1 0.500000 0.485224 0.750000
Si Si2 0.985848 0.684753 0.002019
Si Si3 0.783139 0.475504 0.308584
Si Si4 0.760184 0.741996 0.101462
Si Si5 0.561887 0.584984 0.413809
Si Si6 0.776053 0.995783 0.857731
Si Si7 0.103213 0.515458 0.067303
O O1 0.489273 0.413700 0.664435
O O2 0.390389 0.555360 0.804833
O O3 0.880262 0.733443 0.082800
O O4 0.039725 0.622538 0.063485
O O5 0.959177 0.597598 0.932242
O O6 0.058358 0.787167 0.945624
O O7 0.783789 0.348127 0.334104
O O8 0.679624 0.544109 0.368426
O O9 0.802768 0.475406 0.193870
O O10 0.875479 0.526119 0.334154
O O11 0.697162 0.635108 0.160039
O O12 0.750000 0.750000 0.000000
O O13 0.500000 0.500000 0.500000
O O14 0.715520 0.019057 0.973044
#
# Coordination Sequence:
#
# PCOD8142825 Si02
#       7
#     4   8   8   8   8   8   8
#     4  10  22  36  56  96 122 154 214 258 300 370
#     4  10  21  39  66  90 121 169 211 250 315 378
#     4  11  22  37  65  91 125 165 208 261 318 370
#     4  11  19  40  68  87 120 173 210 258 307 371
#     4  11  21  37  62  92 120 162 210 253 308 369
#     4  10  22  37  62  94 124 158 216 256 314 367
#     4  10  22  43  62  90 129 165 203 262 316 369
#
# _framework density 22.389631000000001
#
# number of rings (size 3 to 8) (size 9 to 14) (size 15 to 20)
#    0.000    1.538    4.615    1.846    0.000    3.077 
#    0.000    9.231    0.000    0.000    0.000    0.000 
#    0.000    0.000    0.000    0.000    0.000    0.000 
#
# Total GULP energy -322181.580794 kJ/mol
# GULP energy per Si atom -12391.599261 kJ/mol
# Density = 2.233867 g / cm^3
# Si number density = 22.389631 Si / 1000 Ang^3
#
#
#
# Elastic Constant Matrix: (Units=GPa)
#
#
# Indices 1 2 3 4 5 6 
#
# 1 105.4039 15.6410 12.7438 0.0000 24.4871 0.0000
# 2 15.6410 84.4123 16.7012 0.0000 16.4569 0.0000
# 3 12.7438 16.7012 51.9530 0.0000 27.4483 0.0000
# 4 0.0000 0.0000 0.0000 23.1599 0.0000 2.7781
# 5 24.4871 16.4569 27.4483 0.0000 52.0998 0.0000
# 6 0.0000 0.0000 0.0000 2.7781 0.0000 27.0696
#
#
#
# Elastic Compliance Matrix: (Units=1/GPa)
#
#
# Indices 1 2 3 4 5 6 
#
# 1 0.010743 -0.001101 0.000281 0.000000 -0.004850 0.000000
# 2 -0.001101 0.013017 -0.002793 0.000000 -0.002123 0.000000
# 3 0.000281 -0.002793 0.027272 0.000000 -0.013618 0.000000
# 4 0.000000 0.000000 0.000000 0.043716 0.000000 -0.004486
# 5 -0.004850 -0.002123 -0.013618 0.000000 0.029318 0.000000
# 6 0.000000 0.000000 0.000000 -0.004486 0.000000 0.037402
#
#
# Mechanical properties :
#
#
# Convention : Reuss Voigt Hill
#
# Bulk Modulus (GPa) = 22.82779 36.88236 29.85508
# Shear Modulus (GPa) = 27.27819 33.57808 30.42813
#
# Velocity S-wave (km/s) = 3.49426 3.87682 3.69050
# Velocity P-wave (km/s) = 5.14759 6.04552 5.61453
#
# Compressibility (1/GPa) = 0.04380625
#
# Stress axis : x y z
#
# Youngs Moduli (GPa) = 93.08074 76.82234 36.66809
#
# Poissons Ratio (x) = 0.08456 -0.01029
# Poissons Ratio (y) = 0.10246 0.10241
# Poissons Ratio (z) = -0.02613 0.21456
#
# Static dielectric constant tensor:
#      x y z
#    x 4.433360 0.000000 -0.165900 
#    y 0.000000 3.922680 0.000000 
#    z -0.165900 0.000000 4.200650 
# 
# 
# High freq. dielectric constant tensor:
#      x y z
#    x 1.897150 0.000000 0.006690 
#    y 0.000000 1.859610 0.000000 
#    z 0.006690 0.000000 1.871840 
# 
# From -- ./inp_files/152541.got.cif
#   From: 2010.06.25/outbox.cif.g09.slc.cpg/sg15_77_cif.got.tgz:152541.got - 2010.06.28 07:06:18.
