data_PCOD8142729
_publ_section_title
;
Structure prediction by ZEFSAII (Michael W. Deem and Ramdas Pophale) SiO2 
 PCOD8142729
Probable space group: C 2/C
;
_chemical_formula_sum "Si O2"
_cell_formula_units_Z 56
_cell_length_a 17.304912
_cell_length_b 23.460956
_cell_length_c 14.495459
_cell_angle_alpha 90.000000
_cell_angle_beta 151.078299
_cell_angle_gamma 90.000000
_cell_volume 2846.071966
_symmetry_space_group_name_H-M "C 2/C"
_symmetry_group_IT_number 15
_symmetry_cell_setting 'monoclinic'
loop_
_space_group_symop_operation_xyz
x,y,z
-x,y,1/2-z
-x,-y,-z
x,-y,1/2+z
1/2+x,1/2+y,z
1/2-x,1/2+y,1/2-z
1/2-x,1/2-y,-z
1/2+x,1/2-y,1/2+z
loop_
_atom_site_type_symbol
_atom_site_label
_atom_site_fract_x
_atom_site_fract_y
_atom_site_fract_z
Si Si1 0.698960 0.917535 0.360147
Si Si2 0.743647 0.484514 0.248655
Si Si3 0.164083 0.485891 0.952376
Si Si4 0.552039 0.591825 0.005908
Si Si5 0.000000 0.126028 0.250000
Si Si6 0.516249 0.800500 0.161705
Si Si7 0.658927 0.687045 0.253163
Si Si8 0.500000 0.571037 0.750000
O O1 0.651593 0.957099 0.223725
O O2 0.892312 0.911826 0.568831
O O3 0.624399 0.855952 0.270796
O O4 0.643034 0.949025 0.394963
O O5 0.844928 0.487331 0.447264
O O6 0.699537 0.548566 0.172277
O O7 0.597422 0.441581 0.109651
O O8 0.000000 0.452220 0.750000
O O9 0.335195 0.464641 0.091815
O O10 0.579309 0.650778 0.087873
O O11 0.525926 0.607766 0.870155
O O12 0.119097 0.163281 0.312709
O O13 0.500000 0.778850 0.250000
O O14 0.597723 0.751902 0.184311
O O15 0.348224 0.814444 0.939058
#
# Coordination Sequence:
#
# PCOD8142729 Si02
#       8
#     8   8   8   8   4   8   8   4
#     4  12  23  38  60  90 129 164 206 264 312 376
#     4  10  22  37  61  94 126 168 212 250 322 382
#     4  11  24  38  58  90 131 170 207 255 311 381
#     4  10  21  39  64  92 122 168 211 260 318 382
#     4  12  21  36  60  84 122 164 198 259 314 374
#     4  12  25  40  60  93 128 167 210 256 320 383
#     4  12  24  41  63  88 127 164 214 259 316 380
#     4  10  21  44  64  88 126 168 214 261 318 372
#
# _framework density 19.676241000000001
#
# number of rings (size 3 to 8) (size 9 to 14) (size 15 to 20)
#    0.000    0.857    5.000    3.000    4.000    1.714 
#    0.000    0.000    0.000    0.857    1.857    0.000 
#    0.000    0.000    0.000    0.000    0.000    0.000 
#
# Total GULP energy -347066.631690 kJ/mol
# GULP energy per Si atom -12395.236846 kJ/mol
# Density = 1.963146 g / cm^3
# Si number density = 19.676241 Si / 1000 Ang^3
#
#
#
# Elastic Constant Matrix: (Units=GPa)
#
#
# Indices 1 2 3 4 5 6 
#
# 1 64.0750 55.0899 64.3307 0.0000 -18.3385 0.0000
# 2 55.0899 114.9025 48.4239 0.0000 -18.9044 0.0000
# 3 64.3307 48.4239 130.9600 0.0000 -6.7394 0.0000
# 4 0.0000 0.0000 0.0000 21.2511 0.0000 -7.3200
# 5 -18.3385 -18.9044 -6.7394 0.0000 43.1047 0.0000
# 6 0.0000 0.0000 0.0000 -7.3200 0.0000 23.6174
#
#
#
# Elastic Compliance Matrix: (Units=1/GPa)
#
#
# Indices 1 2 3 4 5 6 
#
# 1 0.049991 -0.014074 -0.018727 0.000000 0.012168 0.000000
# 2 -0.014074 0.014988 0.001413 0.000000 0.000806 0.000000
# 3 -0.018727 0.001413 0.016063 0.000000 -0.004836 0.000000
# 4 0.000000 0.000000 0.000000 0.052681 0.000000 0.016328
# 5 0.012168 0.000806 -0.004836 0.000000 0.027974 0.000000
# 6 0.000000 0.000000 0.000000 0.016328 0.000000 0.047402
#
#
# Mechanical properties :
#
#
# Convention : Reuss Voigt Hill
#
# Bulk Modulus (GPa) = 54.74268 71.73626 63.23947
# Shear Modulus (GPa) = 17.98796 27.06752 22.52774
#
# Velocity S-wave (km/s) = 3.02685 3.71299 3.38734
# Velocity P-wave (km/s) = 6.33229 7.41075 6.89264
#
# Compressibility (1/GPa) = 0.01826728
#
# Stress axis : x y z
#
# Youngs Moduli (GPa) = 20.00352 66.71964 62.25299
#
# Poissons Ratio (x) = 0.93903 1.16578
# Poissons Ratio (y) = 0.28154 -0.08797
# Poissons Ratio (z) = 0.37460 -0.09428
#
# Static dielectric constant tensor:
#      x y z
#    x 3.612650 0.000000 0.024670 
#    y 0.000000 3.333830 0.000000 
#    z 0.024670 0.000000 3.852220 
# 
# 
# High freq. dielectric constant tensor:
#      x y z
#    x 1.762550 0.000000 0.007970 
#    y 0.000000 1.735870 0.000000 
#    z 0.007970 0.000000 1.782890 
# 
# From -- ./inp_files/51497.got.cif
#   From: 2010.06.25/outbox.cif.g09.slc.cpg/sg15_26_cif.got.tgz:51497.got - 2010.06.28 07:06:18.
