data_PCOD8142175
_publ_section_title
;
Structure prediction by ZEFSAII (Michael W. Deem and Ramdas Pophale) SiO2 
 PCOD8142175
Probable space group: C 2/C
;
_chemical_formula_sum "Si O2"
_cell_formula_units_Z 40
_cell_length_a 8.543569
_cell_length_b 25.395707
_cell_length_c 9.750880
_cell_angle_alpha 90.000000
_cell_angle_beta 80.534940
_cell_angle_gamma 90.000000
_cell_volume 2086.845898
_symmetry_space_group_name_H-M "C 2/C"
_symmetry_group_IT_number 15
_symmetry_cell_setting 'monoclinic'
loop_
_space_group_symop_operation_xyz
x,y,z
-x,y,1/2-z
-x,-y,-z
x,-y,1/2+z
1/2+x,1/2+y,z
1/2-x,1/2+y,1/2-z
1/2-x,1/2-y,-z
1/2+x,1/2-y,1/2+z
loop_
_atom_site_type_symbol
_atom_site_label
_atom_site_fract_x
_atom_site_fract_y
_atom_site_fract_z
Si Si1 0.183506 0.590391 0.878453
Si Si2 0.885248 0.990262 0.895895
Si Si3 0.314032 0.096768 0.939653
Si Si4 0.815389 0.202031 0.903960
Si Si5 0.184679 0.794059 0.409191
O O1 0.266924 0.539256 0.924749
O O2 0.228374 0.586260 0.712224
O O3 0.245655 0.643811 0.942843
O O4 0.998735 0.587030 0.938329
O O5 0.000000 0.984264 0.750000
O O6 0.782215 0.938001 0.937144
O O7 0.000000 0.000000 0.000000
O O8 0.265745 0.156588 0.971601
O O9 0.763738 0.215706 0.755357
O O10 0.997228 0.198860 0.922066
O O11 0.750000 0.250000 0.000000
O O12 0.250000 0.750000 0.500000
#
# Coordination Sequence:
#
# PCOD8142175 Si02
#       5
#     8   8   8   8   8
#     4  10  21  39  65  87 123 162 200 251 303 364
#     4  12  23  40  63  90 123 159 206 251 302 363
#     4  10  21  40  62  90 122 162 202 245 310 361
#     4  10  21  38  63  90 118 160 203 246 300 361
#     4  10  21  39  62  88 124 157 200 249 302 361
#
# _framework density 19.167681000000002
#
# number of rings (size 3 to 8) (size 9 to 14) (size 15 to 20)
#    0.000    1.600    2.000    3.000    2.800    2.400 
#    7.200    0.000    0.000    0.000    0.000    0.000 
#    0.000    0.000    0.000    0.000    0.000    0.000 
#
# Total GULP energy -247781.235825 kJ/mol
# GULP energy per Si atom -12389.061791 kJ/mol
# Density = 1.912405 g / cm^3
# Si number density = 19.167681 Si / 1000 Ang^3
#
#
#
# Elastic Constant Matrix: (Units=GPa)
#
#
# Indices 1 2 3 4 5 6 
#
# 1 102.5192 77.6009 51.8362 0.0000 4.5711 0.0000
# 2 77.6009 175.7167 76.7869 0.0000 -5.4401 0.0000
# 3 51.8362 76.7869 91.6690 0.0000 -6.9652 0.0000
# 4 0.0000 0.0000 0.0000 38.7668 0.0000 0.9109
# 5 4.5711 -5.4401 -6.9652 0.0000 33.5134 0.0000
# 6 0.0000 0.0000 0.0000 0.9109 0.0000 46.2801
#
#
#
# Elastic Compliance Matrix: (Units=1/GPa)
#
#
# Indices 1 2 3 4 5 6 
#
# 1 0.016505 -0.005050 -0.005423 0.000000 -0.004198 0.000000
# 2 -0.005050 0.010522 -0.005869 0.000000 0.001177 0.000000
# 3 -0.005423 -0.005869 0.019178 0.000000 0.003773 0.000000
# 4 0.000000 0.000000 0.000000 0.025807 0.000000 -0.000508
# 5 -0.004198 0.001177 0.003773 0.000000 0.031387 0.000000
# 6 0.000000 0.000000 0.000000 -0.000508 0.000000 0.021618
#
#
# Mechanical properties :
#
#
# Convention : Reuss Voigt Hill
#
# Bulk Modulus (GPa) = 73.94690 86.92808 80.43749
# Shear Modulus (GPa) = 30.82477 34.62412 32.72444
#
# Velocity S-wave (km/s) = 4.01454 4.25476 4.13640
# Velocity P-wave (km/s) = 7.75574 8.34189 8.05415
#
# Compressibility (1/GPa) = 0.01352322
#
# Stress axis : x y z
#
# Youngs Moduli (GPa) = 60.58618 95.03706 52.14292
#
# Poissons Ratio (x) = 0.47990 0.28275
# Poissons Ratio (y) = 0.30593 0.30603
# Poissons Ratio (z) = 0.32853 0.55779
#
# Static dielectric constant tensor:
#      x y z
#    x 3.667640 0.000000 0.073100 
#    y 0.000000 3.644220 0.000000 
#    z 0.073100 0.000000 3.193970 
# 
# 
# High freq. dielectric constant tensor:
#      x y z
#    x 1.768020 0.000000 0.002520 
#    y 0.000000 1.760380 0.000000 
#    z 0.002520 0.000000 1.730440 
# 
# From -- ./inp_files/23389.got.cif
#   From: 2010.06.25/outbox.cif.g09.slc.cpg/sg15_12_cif.got.tgz:23389.got - 2010.06.28 07:06:18.
