data_PCOD8142494
_publ_section_title
;
Structure prediction by ZEFSAII (Michael W. Deem and Ramdas Pophale) SiO2 
 PCOD8142494
Probable space group: C 2/C
;
_chemical_formula_sum "Si O2"
_cell_formula_units_Z 60
_cell_length_a 29.911751
_cell_length_b 13.593886
_cell_length_c 19.485864
_cell_angle_alpha 90.000000
_cell_angle_beta 157.562148
_cell_angle_gamma 90.000000
_cell_volume 3024.166986
_symmetry_space_group_name_H-M "C 2/C"
_symmetry_group_IT_number 15
_symmetry_cell_setting 'monoclinic'
loop_
_space_group_symop_operation_xyz
x,y,z
-x,y,1/2-z
-x,-y,-z
x,-y,1/2+z
1/2+x,1/2+y,z
1/2-x,1/2+y,1/2-z
1/2-x,1/2-y,-z
1/2+x,1/2-y,1/2+z
loop_
_atom_site_type_symbol
_atom_site_label
_atom_site_fract_x
_atom_site_fract_y
_atom_site_fract_z
Si Si1 0.307416 0.505243 0.034567
Si Si2 0.496630 0.696154 0.889952
Si Si3 0.000000 0.108159 0.750000
Si Si4 0.420783 0.910048 0.810759
Si Si5 0.805869 0.293334 0.146785
Si Si6 0.113535 0.022707 0.705879
Si Si7 0.952172 0.606595 0.512014
Si Si8 0.269415 0.367225 0.709754
O O1 0.388495 0.463856 0.088989
O O2 0.379563 0.526658 0.207799
O O3 0.204733 0.424953 0.904186
O O4 0.251777 0.601291 0.921377
O O5 0.481263 0.676954 0.788334
O O6 0.487749 0.811892 0.884897
O O7 0.394248 0.640606 0.789998
O O8 0.622797 0.651892 0.086923
O O9 0.500856 0.000091 0.899139
O O10 0.398984 0.905859 0.861142
O O11 0.772222 0.220325 0.159345
O O12 0.946443 0.309471 0.341602
O O13 0.750000 0.250000 0.000000
O O14 0.220087 0.975100 0.813043
O O15 0.000000 0.000000 0.500000
O O16 0.851851 0.638923 0.422185
#
# Coordination Sequence:
#
# PCOD8142494 Si02
#       8
#     8   8   4   8   8   8   8   8
#     4  10  21  39  60  90 126 165 204 262 318 370
#     4  10  21  42  63  90 124 168 210 259 314 378
#     4  10  22  38  60  90 124 160 216 256 302 382
#     4  10  21  43  62  87 129 165 202 263 323 368
#     4  11  22  40  64  91 130 163 206 264 318 376
#     4   9  20  38  61  87 128 159 202 268 307 360
#     4  10  23  41  64  91 128 166 207 264 317 382
#     4  11  21  42  63  96 122 165 217 254 318 380
#
# _framework density 19.840174000000001
#
# number of rings (size 3 to 8) (size 9 to 14) (size 15 to 20)
#    0.000    1.867    2.667    0.800    0.000    3.733 
#    7.200    0.000    0.000    0.000    0.000    0.000 
#    0.000    0.000    0.000    0.000    0.000    0.000 
#
# Total GULP energy -371697.696725 kJ/mol
# GULP energy per Si atom -12389.923224 kJ/mol
# Density = 1.979502 g / cm^3
# Si number density = 19.840174 Si / 1000 Ang^3
#
#
#
# Elastic Constant Matrix: (Units=GPa)
#
#
# Indices 1 2 3 4 5 6 
#
# 1 109.0953 56.4052 49.2264 0.0000 21.5801 0.0000
# 2 56.4052 100.7601 43.1094 0.0000 17.9109 0.0000
# 3 49.2264 43.1094 96.8565 0.0000 5.5565 0.0000
# 4 0.0000 0.0000 0.0000 25.0890 0.0000 1.7879
# 5 21.5801 17.9109 5.5565 0.0000 35.1643 0.0000
# 6 0.0000 0.0000 0.0000 1.7879 0.0000 24.5327
#
#
#
# Elastic Compliance Matrix: (Units=1/GPa)
#
#
# Indices 1 2 3 4 5 6 
#
# 1 0.015431 -0.005407 -0.005097 0.000000 -0.005910 0.000000
# 2 -0.005407 0.015275 -0.003830 0.000000 -0.003857 0.000000
# 3 -0.005097 -0.003830 0.014459 0.000000 0.002794 0.000000
# 4 0.000000 0.000000 0.000000 0.040066 0.000000 -0.002920
# 5 -0.005910 -0.003857 0.002794 0.000000 0.033588 0.000000
# 6 0.000000 0.000000 0.000000 -0.002920 0.000000 0.040975
#
#
# Mechanical properties :
#
#
# Convention : Reuss Voigt Hill
#
# Bulk Modulus (GPa) = 60.61099 67.13266 63.87183
# Shear Modulus (GPa) = 25.77837 27.48859 26.63348
#
# Velocity S-wave (km/s) = 3.60849 3.72627 3.66785
# Velocity P-wave (km/s) = 6.92658 7.24042 7.08524
#
# Compressibility (1/GPa) = 0.01649866
#
# Stress axis : x y z
#
# Youngs Moduli (GPa) = 64.80561 65.46471 69.15974
#
# Poissons Ratio (x) = 0.35395 0.35251
# Poissons Ratio (y) = 0.35039 0.26486
# Poissons Ratio (z) = 0.33031 0.25071
#
# Static dielectric constant tensor:
#      x y z
#    x 3.484540 0.000000 -0.058800 
#    y 0.000000 3.657400 0.000000 
#    z -0.058800 0.000000 3.677740 
# 
# 
# High freq. dielectric constant tensor:
#      x y z
#    x 1.757700 0.000000 -0.013230 
#    y 0.000000 1.776780 0.000000 
#    z -0.013230 0.000000 1.784400 
# 
# From -- ./inp_files/222585.got.cif
#   From: 2010.06.25/outbox.cif.g09.slc.cpg/sg15_112_cif.got.tgz:222585.got - 2010.06.28 07:06:18.
