data_PCOD8142650
_publ_section_title
;
Structure prediction by ZEFSAII (Michael W. Deem and Ramdas Pophale) SiO2 
 PCOD8142650
Probable space group: C 2/C
;
_chemical_formula_sum "Si O2"
_cell_formula_units_Z 36
_cell_length_a 7.716226
_cell_length_b 20.332904
_cell_length_c 12.485269
_cell_angle_alpha 90.000000
_cell_angle_beta 125.881234
_cell_angle_gamma 90.000000
_cell_volume 1587.130105
_symmetry_space_group_name_H-M "C 2/C"
_symmetry_group_IT_number 15
_symmetry_cell_setting 'monoclinic'
loop_
_space_group_symop_operation_xyz
x,y,z
-x,y,1/2-z
-x,-y,-z
x,-y,1/2+z
1/2+x,1/2+y,z
1/2-x,1/2+y,1/2-z
1/2-x,1/2-y,-z
1/2+x,1/2-y,1/2+z
loop_
_atom_site_type_symbol
_atom_site_label
_atom_site_fract_x
_atom_site_fract_y
_atom_site_fract_z
Si Si1 0.662771 0.696413 0.611319
Si Si2 0.446672 0.199581 0.905445
Si Si3 0.575686 0.550456 0.615447
Si Si4 0.000000 0.480526 0.750000
Si Si5 0.131648 0.437168 0.015759
O O1 0.470743 0.745654 0.507548
O O2 0.726163 0.708789 0.759116
O O3 0.584106 0.622426 0.566623
O O4 0.863342 0.708741 0.608752
O O5 0.458350 0.127707 0.961703
O O6 0.500000 0.500000 0.500000
O O7 0.384837 0.552801 0.635802
O O8 0.815414 0.527949 0.739075
O O9 0.102627 0.432870 0.876056
O O10 0.000000 0.500000 0.000000
#
# Coordination Sequence:
#
# PCOD8142650 Si02
#       5
#     8   8   8   4   8
#     4  10  21  40  62  90 124 163 207 255 310 370
#     4  10  22  40  63  89 124 164 206 255 311 371
#     4  10  21  39  63  89 123 162 204 255 307 369
#     4  10  22  40  62  90 124 158 210 264 310 368
#     4  11  23  39  62  92 124 164 208 256 313 372
#
# _framework density 22.682448999999998
#
# number of rings (size 3 to 8) (size 9 to 14) (size 15 to 20)
#    0.000    1.778    0.000    5.333    0.000    8.000 
#    0.000    4.444    0.000    0.000    0.000    0.000 
#    0.000    0.000    0.000    0.000    0.000    0.000 
#
# Total GULP energy -223070.832689 kJ/mol
# GULP energy per Si atom -12392.824038 kJ/mol
# Density = 2.263082 g / cm^3
# Si number density = 22.682449 Si / 1000 Ang^3
#
#
#
# Elastic Constant Matrix: (Units=GPa)
#
#
# Indices 1 2 3 4 5 6 
#
# 1 56.8052 2.2062 24.9597 0.0000 18.5504 0.0000
# 2 2.2062 171.1126 95.9467 0.0000 0.6401 0.0000
# 3 24.9597 95.9467 151.2867 0.0000 5.9481 0.0000
# 4 0.0000 0.0000 0.0000 35.4794 0.0000 0.2036
# 5 18.5504 0.6401 5.9481 0.0000 23.2139 0.0000
# 6 0.0000 0.0000 0.0000 0.2036 0.0000 32.8410
#
#
#
# Elastic Compliance Matrix: (Units=1/GPa)
#
#
# Indices 1 2 3 4 5 6 
#
# 1 0.026242 0.002683 -0.005256 0.000000 -0.019697 0.000000
# 2 0.002683 0.009379 -0.006360 0.000000 -0.000773 0.000000
# 3 -0.005256 -0.006360 0.011454 0.000000 0.001441 0.000000
# 4 0.000000 0.000000 0.000000 0.028186 0.000000 -0.000175
# 5 -0.019697 -0.000773 0.001441 0.000000 0.058470 0.000000
# 6 0.000000 0.000000 0.000000 -0.000175 0.000000 0.030451
#
#
# Mechanical properties :
#
#
# Convention : Reuss Voigt Hill
#
# Bulk Modulus (GPa) = 34.23858 69.49220 51.86539
# Shear Modulus (GPa) = 26.07084 35.37966 30.72525
#
# Velocity S-wave (km/s) = 3.39393 3.95369 3.68446
# Velocity P-wave (km/s) = 5.52140 7.17954 6.40436
#
# Compressibility (1/GPa) = 0.02920682
#
# Stress axis : x y z
#
# Youngs Moduli (GPa) = 38.10723 106.62401 87.30390
#
# Poissons Ratio (x) = -0.28604 0.45891
# Poissons Ratio (y) = -0.10223 0.55528
# Poissons Ratio (z) = 0.20031 0.67816
#
# Static dielectric constant tensor:
#      x y z
#    x 4.364350 0.000000 0.074670 
#    y 0.000000 4.024990 0.000000 
#    z 0.074670 0.000000 4.782610 
# 
# 
# High freq. dielectric constant tensor:
#      x y z
#    x 1.896960 0.000000 0.004440 
#    y 0.000000 1.885700 0.000000 
#    z 0.004440 0.000000 1.912270 
# 
# From -- ./inp_files/76342.got.cif
#   From: 2010.06.25/outbox.cif.g09.slc.cpg/sg15_39_cif.got.tgz:76342.got - 2010.06.28 07:06:18.
