data_PCOD8142579
_publ_section_title
;
Structure prediction by ZEFSAII (Michael W. Deem and Ramdas Pophale) SiO2 
 PCOD8142579
Probable space group: C 2/C
;
_chemical_formula_sum "Si O2"
_cell_formula_units_Z 36
_cell_length_a 12.297399
_cell_length_b 27.098916
_cell_length_c 4.987958
_cell_angle_alpha 90.000000
_cell_angle_beta 101.394291
_cell_angle_gamma 90.000000
_cell_volume 1629.457083
_symmetry_space_group_name_H-M "C 2/C"
_symmetry_group_IT_number 15
_symmetry_cell_setting 'monoclinic'
loop_
_space_group_symop_operation_xyz
x,y,z
-x,y,1/2-z
-x,-y,-z
x,-y,1/2+z
1/2+x,1/2+y,z
1/2-x,1/2+y,1/2-z
1/2-x,1/2-y,-z
1/2+x,1/2-y,1/2+z
loop_
_atom_site_type_symbol
_atom_site_label
_atom_site_fract_x
_atom_site_fract_y
_atom_site_fract_z
Si Si1 0.128740 0.531519 0.803161
Si Si2 0.425249 0.234347 0.974446
Si Si3 0.700658 0.391842 0.923960
Si Si4 0.209464 0.172852 0.916971
Si Si5 0.500000 0.464580 0.750000
O O1 0.161134 0.512034 0.525385
O O2 0.000000 0.545103 0.750000
O O3 0.192621 0.581396 0.899676
O O4 0.500000 0.238884 0.750000
O O5 0.381480 0.288213 0.032144
O O6 0.500000 0.212687 0.250000
O O7 0.322503 0.198255 0.870600
O O8 0.737141 0.363351 0.675283
O O9 0.607568 0.430727 0.800097
O O10 0.657096 0.355143 0.135145
O O11 0.500000 0.500000 0.500000
#
# Coordination Sequence:
#
# PCOD8142579 Si02
#       5
#     8   8   8   8   4
#     4  10  21  39  62  89 125 169 211 263 334 392
#     4  11  24  45  70  92 138 178 212 281 338 407
#     4  12  24  41  67  96 135 170 225 284 314 411
#     4  11  26  42  65 105 126 173 232 264 340 395
#     4  12  26  44  66  98 138 184 224 276 342 388
#
# _framework density 22.093250000000001
#
# number of rings (size 3 to 8) (size 9 to 14) (size 15 to 20)
#    0.000    0.889    0.000    6.667    4.667    6.222 
#    0.000    0.000    0.000    0.000    0.000    0.000 
#    0.000    0.000    0.000    0.000    0.000    0.000 
#
# Total GULP energy -223335.998723 kJ/mol
# GULP energy per Si atom -12407.555485 kJ/mol
# Density = 2.204296 g / cm^3
# Si number density = 22.093250 Si / 1000 Ang^3
#
#
#
# Elastic Constant Matrix: (Units=GPa)
#
#
# Indices 1 2 3 4 5 6 
#
# 1 114.7588 56.1597 54.9761 0.0000 -13.2247 0.0000
# 2 56.1597 120.4718 53.7610 0.0000 -4.7737 0.0000
# 3 54.9761 53.7610 146.7203 0.0000 -9.9690 0.0000
# 4 0.0000 0.0000 0.0000 -27.3578 0.0000 -10.4576
# 5 -13.2247 -4.7737 -9.9690 0.0000 38.9056 0.0000
# 6 0.0000 0.0000 0.0000 -10.4576 0.0000 13.2418
#
#
#
# Elastic Compliance Matrix: (Units=1/GPa)
#
#
# Indices 1 2 3 4 5 6 
#
# 1 0.012638 -0.004483 -0.002888 0.000000 0.003006 0.000000
# 2 -0.004483 0.011517 -0.002593 0.000000 -0.000775 0.000000
# 3 -0.002888 -0.002593 0.008915 0.000000 0.000984 0.000000
# 4 0.000000 0.000000 0.000000 -0.028077 0.000000 -0.022173
# 5 0.003006 -0.000775 0.000984 0.000000 0.026882 0.000000
# 6 0.000000 0.000000 0.000000 -0.022173 0.000000 0.058007
#
#
# Mechanical properties :
#
#
# Convention : Reuss Voigt Hill
#
# Bulk Modulus (GPa) = 76.09909 79.08272 77.59091
# Shear Modulus (GPa) = 43.78592 19.42819 31.60705
#
# Velocity S-wave (km/s) = 4.45665 2.96864 3.78646
# Velocity P-wave (km/s) = 7.81035 6.90095 7.36969
#
# Compressibility (1/GPa) = 0.01314076
#
# Stress axis : x y z
#
# Youngs Moduli (GPa) = 79.12607 86.82812 112.17124
#
# Poissons Ratio (x) = 0.38928 0.32400
# Poissons Ratio (y) = 0.35475 0.29084
# Poissons Ratio (z) = 0.22855 0.22513
#
# Static dielectric constant tensor:
#      x y z
#    x 3.964810 0.000000 0.099140 
#    y 0.000000 3.892470 0.000000 
#    z 0.099140 0.000000 4.288400 
# 
# 
# High freq. dielectric constant tensor:
#      x y z
#    x 1.874750 0.000000 0.001170 
#    y 0.000000 1.876580 0.000000 
#    z 0.001170 0.000000 1.891400 
# 
# From -- ./inp_files/4417.got.cif
#   From: 2010.06.25/outbox.cif.g09.slc.cpg/sg15_3_cif.got.tgz:4417.got - 2010.06.28 07:06:18.
