data_PCOD8142954
_publ_section_title
;
Structure prediction by ZEFSAII (Michael W. Deem and Ramdas Pophale) SiO2 
 PCOD8142954
Probable space group: C 2/C
;
_chemical_formula_sum "Si O2"
_cell_formula_units_Z 64
_cell_length_a 11.474679
_cell_length_b 14.177284
_cell_length_c 27.507283
_cell_angle_alpha 90.000000
_cell_angle_beta 42.709279
_cell_angle_gamma 90.000000
_cell_volume 3035.214904
_symmetry_space_group_name_H-M "C 2/C"
_symmetry_group_IT_number 15
_symmetry_cell_setting 'monoclinic'
loop_
_space_group_symop_operation_xyz
x,y,z
-x,y,1/2-z
-x,-y,-z
x,-y,1/2+z
1/2+x,1/2+y,z
1/2-x,1/2+y,1/2-z
1/2-x,1/2-y,-z
1/2+x,1/2-y,1/2+z
loop_
_atom_site_type_symbol
_atom_site_label
_atom_site_fract_x
_atom_site_fract_y
_atom_site_fract_z
Si Si1 0.344262 0.146106 0.682353
Si Si2 0.198687 0.661722 0.192017
Si Si3 0.224067 0.922165 0.933238
Si Si4 0.111888 0.101702 0.912999
Si Si5 0.736334 0.564078 0.091890
Si Si6 0.539013 0.003108 0.564145
Si Si7 0.900985 0.749988 0.828130
Si Si8 0.621695 0.502450 0.808503
O O1 0.227239 0.228971 0.696136
O O2 0.466158 0.103599 0.603623
O O3 0.461423 0.182039 0.689799
O O4 0.232071 0.059451 0.736086
O O5 0.265216 0.643097 0.117327
O O6 0.290761 0.598655 0.205443
O O7 0.000000 0.635382 0.250000
O O8 0.186311 0.030218 0.930344
O O9 0.396634 0.932600 0.912854
O O10 0.078314 0.871523 0.010420
O O11 0.230656 0.191677 0.867971
O O12 0.097834 0.055240 0.865626
O O13 0.888058 0.553840 0.083984
O O14 0.665554 0.670840 0.114215
O O15 0.567099 0.504522 0.157536
O O16 0.801840 0.531571 0.019054
O O17 0.000000 0.791026 0.750000
#
# Coordination Sequence:
#
# PCOD8142954 Si02
#       8
#     8   8   8   8   8   8   8   8
#     4  12  26  42  69 100 136 176 231 277 333 401
#     4  11  26  42  67 103 134 175 229 280 337 397
#     4  10  21  42  70  98 131 174 221 282 338 391
#     4  10  21  39  69 101 131 170 226 276 334 396
#     4  11  27  46  67  97 139 179 226 271 348 409
#     4  11  25  46  69  97 135 182 219 279 346 406
#     4  12  25  42  66 103 134 182 229 276 330 409
#     4  11  23  45  69  96 140 178 220 282 333 404
#
# _framework density 21.085820999999999
#
# number of rings (size 3 to 8) (size 9 to 14) (size 15 to 20)
#    0.000    1.000    5.000    0.750    7.000    1.500 
#    0.000    0.625    0.000    0.000    0.000    0.000 
#    0.000    0.000    0.000    0.000    0.000    0.000 
#
# Total GULP energy -396751.343238 kJ/mol
# GULP energy per Si atom -12398.479476 kJ/mol
# Density = 2.103783 g / cm^3
# Si number density = 21.085821 Si / 1000 Ang^3
#
#
#
# Elastic Constant Matrix: (Units=GPa)
#
#
# Indices 1 2 3 4 5 6 
#
# 1 76.6399 30.3936 25.0887 0.0003 -10.6351 -0.0001
# 2 30.3936 88.0821 46.2206 0.0002 -5.6969 0.0000
# 3 25.0887 46.2206 87.0540 0.0013 -14.2647 0.0002
# 4 0.0003 0.0002 0.0013 63.2822 -0.0004 -0.3654
# 5 -10.6351 -5.6969 -14.2647 -0.0004 33.4451 0.0001
# 6 -0.0001 0.0000 0.0002 -0.3654 0.0001 20.3261
#
#
#
# Elastic Compliance Matrix: (Units=1/GPa)
#
#
# Indices 1 2 3 4 5 6 
#
# 1 0.015815 -0.004355 -0.001659 0.000000 0.003580 0.000000
# 2 -0.004355 0.016965 -0.008070 0.000000 -0.001937 0.000000
# 3 -0.001659 -0.008070 0.017136 0.000000 0.005406 0.000000
# 4 0.000000 0.000000 0.000000 0.015804 0.000000 0.000284
# 5 0.003580 -0.001937 0.005406 0.000000 0.033014 0.000000
# 6 0.000000 0.000000 0.000000 0.000284 0.000000 0.049203
#
#
# Mechanical properties :
#
#
# Convention : Reuss Voigt Hill
#
# Bulk Modulus (GPa) = 45.98089 50.57577 48.27833
# Shear Modulus (GPa) = 27.26970 33.41553 30.34262
#
# Velocity S-wave (km/s) = 3.60011 3.98520 3.79754
# Velocity P-wave (km/s) = 6.25579 6.72410 6.49417
#
# Compressibility (1/GPa) = 0.02174816
#
# Stress axis : x y z
#
# Youngs Moduli (GPa) = 63.23126 58.94464 58.35764
#
# Poissons Ratio (x) = 0.25671 0.09682
# Poissons Ratio (y) = 0.27537 0.47093
# Poissons Ratio (z) = 0.10490 0.47567
#
# Static dielectric constant tensor:
#      x y z
#    x 3.967040 0.000000 -0.160400 
#    y 0.000000 3.786140 0.000000 
#    z -0.160400 0.000000 4.160020 
# 
# 
# High freq. dielectric constant tensor:
#      x y z
#    x 1.835430 0.000000 -0.006510 
#    y 0.000000 1.810320 0.000000 
#    z -0.006510 0.000000 1.841560 
# 
# From -- ./inp_files/311190.got.cif
#   From: 2010.06.25/outbox.cif.g09.slc.cpg/sg15_156_cif.got.tgz:311190.got - 2010.06.28 07:06:18.
