data_PCOD8142202
_publ_section_title
;
Structure prediction by ZEFSAII (Michael W. Deem and Ramdas Pophale) SiO2 
 PCOD8142202
Probable space group: C 2/C
;
_chemical_formula_sum "Si O2"
_cell_formula_units_Z 56
_cell_length_a 22.508430
_cell_length_b 16.546473
_cell_length_c 16.152247
_cell_angle_alpha 90.000000
_cell_angle_beta 25.901327
_cell_angle_gamma 90.000000
_cell_volume 2627.778212
_symmetry_space_group_name_H-M "C 2/C"
_symmetry_group_IT_number 15
_symmetry_cell_setting 'monoclinic'
loop_
_space_group_symop_operation_xyz
x,y,z
-x,y,1/2-z
-x,-y,-z
x,-y,1/2+z
1/2+x,1/2+y,z
1/2-x,1/2+y,1/2-z
1/2-x,1/2-y,-z
1/2+x,1/2-y,1/2+z
loop_
_atom_site_type_symbol
_atom_site_label
_atom_site_fract_x
_atom_site_fract_y
_atom_site_fract_z
Si Si1 0.224390 0.433282 0.751146
Si Si2 0.001444 0.619238 0.652634
Si Si3 0.159004 0.772674 0.906583
Si Si4 0.581618 0.949019 0.763931
Si Si5 0.528488 0.736032 0.011767
Si Si6 0.099017 0.066981 0.908908
Si Si7 0.677986 0.874819 0.483297
O O1 0.345333 0.369713 0.576484
O O2 0.111436 0.426097 0.820923
O O3 0.291732 0.522522 0.668607
O O4 0.148519 0.410520 0.932144
O O5 0.953435 0.702019 0.668110
O O6 0.000000 0.641731 0.750000
O O7 0.894458 0.545400 0.775549
O O8 0.311632 0.754913 0.684317
O O9 0.135695 0.719189 0.019179
O O10 0.042404 0.747726 0.987852
O O11 0.674931 0.896235 0.584373
O O12 0.424966 0.931916 0.938654
O O13 0.515526 0.641069 0.056356
O O14 0.171923 0.108439 0.738579
O O15 0.000000 0.000000 0.000000
#
# Coordination Sequence:
#
# PCOD8142202 Si02
#       7
#     8   8   8   8   8   8   8
#     4  11  22  37  66  94 123 168 209 253 325 385
#     4  11  21  40  63  94 126 158 213 274 312 365
#     4  10  21  40  61  93 127 161 205 258 316 381
#     4  11  21  38  65  99 120 159 216 266 313 372
#     4  10  23  37  63  94 124 165 209 254 321 373
#     4  11  21  40  64  85 130 175 206 251 318 391
#     4  10  21  38  63  93 129 160 208 267 317 368
#
# _framework density 21.310777999999999
#
# number of rings (size 3 to 8) (size 9 to 14) (size 15 to 20)
#    0.000    1.429    4.286    2.143    4.000    0.571 
#    0.000    6.429    0.000    0.000    0.000    0.000 
#    0.000    0.000    0.000    0.000    0.000    0.000 
#
# Total GULP energy -346883.074101 kJ/mol
# GULP energy per Si atom -12388.681218 kJ/mol
# Density = 2.126227 g / cm^3
# Si number density = 21.310778 Si / 1000 Ang^3
#
#
#
# Elastic Constant Matrix: (Units=GPa)
#
#
# Indices 1 2 3 4 5 6 
#
# 1 85.5735 25.7807 33.7767 -0.0003 7.8873 0.0003
# 2 25.7807 158.5008 31.0345 -0.0001 25.8655 0.0002
# 3 33.7767 31.0345 50.5736 -0.0004 9.9741 0.0005
# 4 -0.0003 -0.0001 -0.0004 29.9906 0.0002 -2.0031
# 5 7.8873 25.8655 9.9741 0.0002 29.2006 -0.0002
# 6 0.0003 0.0002 0.0005 -2.0031 -0.0002 33.9892
#
#
#
# Elastic Compliance Matrix: (Units=1/GPa)
#
#
# Indices 1 2 3 4 5 6 
#
# 1 0.015918 -0.000530 -0.010241 0.000000 -0.000332 0.000000
# 2 -0.000530 0.008009 -0.003420 0.000000 -0.005783 0.000000
# 3 -0.010241 -0.003420 0.029560 0.000000 -0.004301 0.000000
# 4 0.000000 0.000000 0.000000 0.033476 0.000000 0.001973
# 5 -0.000332 -0.005783 -0.004301 0.000000 0.040927 0.000000
# 6 0.000000 0.000000 0.000000 0.001973 0.000000 0.029537
#
#
# Mechanical properties :
#
#
# Convention : Reuss Voigt Hill
#
# Bulk Modulus (GPa) = 39.83242 52.87017 46.35130
# Shear Modulus (GPa) = 25.74984 32.23983 28.99483
#
# Velocity S-wave (km/s) = 3.47983 3.89375 3.69259
# Velocity P-wave (km/s) = 5.90571 6.71401 6.32279
#
# Compressibility (1/GPa) = 0.02510518
#
# Stress axis : x y z
#
# Youngs Moduli (GPa) = 62.82121 124.86546 33.82989
#
# Poissons Ratio (x) = 0.06615 0.34644
# Poissons Ratio (y) = 0.03328 0.11571
# Poissons Ratio (z) = 0.64333 0.42707
#
# Static dielectric constant tensor:
#      x y z
#    x 3.690460 0.000000 -0.077920 
#    y 0.000000 4.891410 0.000000 
#    z -0.077920 0.000000 3.651210 
# 
# 
# High freq. dielectric constant tensor:
#      x y z
#    x 1.815730 0.000000 -0.012040 
#    y 0.000000 1.867840 0.000000 
#    z -0.012040 0.000000 1.796750 
# 
# From -- ./inp_files/169134.got.cif
#   From: 2010.06.25/outbox.cif.g09.slc.cpg/sg15_85_cif.got.tgz:169134.got - 2010.06.28 07:06:18.
