data_PCOD8142987
_publ_section_title
;
Structure prediction by ZEFSAII (Michael W. Deem and Ramdas Pophale) SiO2 
 PCOD8142987
Probable space group: C 2/C
;
_chemical_formula_sum "Si O2"
_cell_formula_units_Z 52
_cell_length_a 8.869408
_cell_length_b 22.177866
_cell_length_c 17.289322
_cell_angle_alpha 90.000000
_cell_angle_beta 133.038082
_cell_angle_gamma 90.000000
_cell_volume 2485.709997
_symmetry_space_group_name_H-M "C 2/C"
_symmetry_group_IT_number 15
_symmetry_cell_setting 'monoclinic'
loop_
_space_group_symop_operation_xyz
x,y,z
-x,y,1/2-z
-x,-y,-z
x,-y,1/2+z
1/2+x,1/2+y,z
1/2-x,1/2+y,1/2-z
1/2-x,1/2-y,-z
1/2+x,1/2-y,1/2+z
loop_
_atom_site_type_symbol
_atom_site_label
_atom_site_fract_x
_atom_site_fract_y
_atom_site_fract_z
Si Si1 0.602280 0.715541 0.393273
Si Si2 0.341682 0.412375 0.627516
Si Si3 0.024124 0.131336 0.849725
Si Si4 0.572799 0.508206 0.612711
Si Si5 0.500000 0.052745 0.250000
Si Si6 0.808635 0.257230 0.806231
Si Si7 0.954895 0.375401 0.582049
O O1 0.750000 0.750000 0.500000
O O2 0.635566 0.644427 0.422173
O O3 0.360738 0.732961 0.321916
O O4 0.675520 0.736735 0.335729
O O5 0.500000 0.397070 0.750000
O O6 0.401604 0.474040 0.605447
O O7 0.115636 0.413898 0.586429
O O8 0.000000 0.120131 0.750000
O O9 0.916008 0.077554 0.858605
O O10 0.916325 0.193286 0.835567
O O11 0.260256 0.132888 0.958568
O O12 0.500000 0.500000 0.500000
O O13 0.804159 0.485527 0.709844
O O14 0.589274 0.089942 0.353724
O O15 0.976719 0.309724 0.865337
#
# Coordination Sequence:
#
# PCOD8142987 Si02
#       7
#     8   8   8   8   4   8   8
#     4  10  21  39  73 101 132 176 222 279 344 407
#     4  11  21  45  73  96 133 182 232 272 335 421
#     4  12  29  44  64 102 147 180 222 288 356 402
#     4  12  27  47  68 102 137 181 232 286 337 407
#     4  12  24  44  78  98 130 180 240 282 332 410
#     4  10  23  43  64 104 136 172 225 276 347 407
#     4  11  24  46  74 100 132 186 232 279 341 419
#
# _framework density 20.919575999999999
#
# number of rings (size 3 to 8) (size 9 to 14) (size 15 to 20)
#    0.000    0.923    6.154    0.923    7.538    4.308 
#    0.000    0.000    0.000    0.000    0.000    0.000 
#    0.000    0.000    0.000    0.000    0.000    0.000 
#
# Total GULP energy -322299.282250 kJ/mol
# GULP energy per Si atom -12396.126240 kJ/mol
# Density = 2.087196 g / cm^3
# Si number density = 20.919576 Si / 1000 Ang^3
#
#
#
# Elastic Constant Matrix: (Units=GPa)
#
#
# Indices 1 2 3 4 5 6 
#
# 1 86.7095 57.7922 29.4313 0.0000 17.2048 0.0000
# 2 57.7922 120.3567 35.9619 0.0000 4.0660 0.0000
# 3 29.4313 35.9619 139.2170 0.0000 20.3547 0.0000
# 4 0.0000 0.0000 0.0000 27.1591 0.0000 5.2779
# 5 17.2048 4.0660 20.3547 0.0000 32.1351 0.0000
# 6 0.0000 0.0000 0.0000 5.2779 0.0000 35.2171
#
#
#
# Elastic Compliance Matrix: (Units=1/GPa)
#
#
# Indices 1 2 3 4 5 6 
#
# 1 0.019376 -0.008852 -0.000503 0.000000 -0.008935 0.000000
# 2 -0.008852 0.013051 -0.002151 0.000000 0.004450 0.000000
# 3 -0.000503 -0.002151 0.008558 0.000000 -0.004879 0.000000
# 4 0.000000 0.000000 0.000000 0.037925 0.000000 -0.005684
# 5 -0.008935 0.004450 -0.004879 0.000000 0.038430 0.000000
# 6 0.000000 0.000000 0.000000 -0.005684 0.000000 0.029247
#
#
# Mechanical properties :
#
#
# Convention : Reuss Voigt Hill
#
# Bulk Modulus (GPa) = 55.63457 65.85045 60.74251
# Shear Modulus (GPa) = 28.47537 33.77545 31.12541
#
# Velocity S-wave (km/s) = 3.69342 4.02249 3.86146
# Velocity P-wave (km/s) = 6.69632 7.28836 6.99860
#
# Compressibility (1/GPa) = 0.01797444
#
# Stress axis : x y z
#
# Youngs Moduli (GPa) = 51.60982 76.62093 116.84428
#
# Poissons Ratio (x) = 0.67822 0.05881
# Poissons Ratio (y) = 0.45683 0.25129
# Poissons Ratio (z) = 0.02598 0.16479
#
# Static dielectric constant tensor:
#      x y z
#    x 3.729510 0.000000 0.137040 
#    y 0.000000 3.911580 0.000000 
#    z 0.137040 0.000000 3.837730 
# 
# 
# High freq. dielectric constant tensor:
#      x y z
#    x 1.817200 0.000000 0.009540 
#    y 0.000000 1.825810 0.000000 
#    z 0.009540 0.000000 1.832580 
# 
# From -- ./inp_files/192622.got.cif
#   From: 2010.06.25/outbox.cif.g09.slc.cpg/sg15_97_cif.got.tgz:192622.got - 2010.06.28 07:06:18.
