data_PCOD8142956
_publ_section_title
;
Structure prediction by ZEFSAII (Michael W. Deem and Ramdas Pophale) SiO2 
 PCOD8142956
Probable space group: C 2/C
;
_chemical_formula_sum "Si O2"
_cell_formula_units_Z 44
_cell_length_a 14.147474
_cell_length_b 18.561833
_cell_length_c 7.965041
_cell_angle_alpha 90.000000
_cell_angle_beta 107.199329
_cell_angle_gamma 90.000000
_cell_volume 1998.109553
_symmetry_space_group_name_H-M "C 2/C"
_symmetry_group_IT_number 15
_symmetry_cell_setting 'monoclinic'
loop_
_space_group_symop_operation_xyz
x,y,z
-x,y,1/2-z
-x,-y,-z
x,-y,1/2+z
1/2+x,1/2+y,z
1/2-x,1/2+y,1/2-z
1/2-x,1/2-y,-z
1/2+x,1/2-y,1/2+z
loop_
_atom_site_type_symbol
_atom_site_label
_atom_site_fract_x
_atom_site_fract_y
_atom_site_fract_z
Si Si1 0.599986 0.440995 0.214402
Si Si2 0.013048 0.679925 0.448082
Si Si3 0.000000 0.216827 0.250000
Si Si4 0.640663 0.593913 0.365766
Si Si5 0.193041 0.586252 0.535554
Si Si6 0.843995 0.566731 0.364459
O O1 0.500000 0.413419 0.250000
O O2 0.612966 0.527113 0.231086
O O3 0.695766 0.400722 0.341500
O O4 0.589651 0.420505 0.016214
O O5 0.982686 0.737568 0.571726
O O6 0.126289 0.656170 0.540255
O O7 0.000000 0.710063 0.250000
O O8 0.945784 0.609127 0.437739
O O9 0.903372 0.167721 0.230938
O O10 0.759874 0.599388 0.444991
O O11 0.201399 0.574050 0.343041
O O12 0.139031 0.517306 0.589966
#
# Coordination Sequence:
#
# PCOD8142956 Si02
#       6
#     8   8   4   8   8   8
#     4  11  22  39  68  99 131 161 220 283 329 378
#     4  10  25  47  63  96 136 180 222 264 328 400
#     4  12  28  42  68  90 144 182 220 256 334 406
#     4  11  24  41  66 102 126 173 220 272 335 389
#     4  10  21  39  69 102 127 167 218 283 332 375
#     4  10  21  40  69  98 130 166 223 278 330 377
#
# _framework density 22.020814999999999
#
# number of rings (size 3 to 8) (size 9 to 14) (size 15 to 20)
#    0.000    1.455    0.909    5.455    7.636    1.455 
#    0.000    1.818    0.000    0.000    0.000    0.000 
#    0.000    0.000    0.000    0.000    0.000    0.000 
#
# Total GULP energy -272831.565501 kJ/mol
# GULP energy per Si atom -12401.434795 kJ/mol
# Density = 2.197069 g / cm^3
# Si number density = 22.020815 Si / 1000 Ang^3
#
#
#
# Elastic Constant Matrix: (Units=GPa)
#
#
# Indices 1 2 3 4 5 6 
#
# 1 98.2082 12.2197 26.0862 0.0000 8.2045 0.0000
# 2 12.2197 53.7261 33.3590 0.0000 8.6208 0.0000
# 3 26.0862 33.3590 72.8892 0.0000 0.3469 0.0000
# 4 0.0000 0.0000 0.0000 26.6553 0.0000 -5.7868
# 5 8.2045 8.6208 0.3469 0.0000 41.0216 0.0000
# 6 0.0000 0.0000 0.0000 -5.7868 0.0000 13.8230
#
#
#
# Elastic Compliance Matrix: (Units=1/GPa)
#
#
# Indices 1 2 3 4 5 6 
#
# 1 0.011464 0.000433 -0.004290 0.000000 -0.002348 0.000000
# 2 0.000433 0.027255 -0.012601 0.000000 -0.005708 0.000000
# 3 -0.004290 -0.012601 0.021006 0.000000 0.003329 0.000000
# 4 0.000000 0.000000 0.000000 0.041266 0.000000 0.017276
# 5 -0.002348 -0.005708 0.003329 0.000000 0.026018 0.000000
# 6 0.000000 0.000000 0.000000 0.017276 0.000000 0.079576
#
#
# Mechanical properties :
#
#
# Convention : Reuss Voigt Hill
#
# Bulk Modulus (GPa) = 37.30192 40.90594 39.10393
# Shear Modulus (GPa) = 20.12577 26.51055 23.31816
#
# Velocity S-wave (km/s) = 3.02643 3.47347 3.25763
# Velocity P-wave (km/s) = 5.40264 5.89093 5.65206
#
# Compressibility (1/GPa) = 0.02680827
#
# Stress axis : x y z
#
# Youngs Moduli (GPa) = 87.22818 36.69113 47.60524
#
# Poissons Ratio (x) = -0.01588 0.20422
# Poissons Ratio (y) = -0.03775 0.59989
# Poissons Ratio (z) = 0.37419 0.46235
#
# Static dielectric constant tensor:
#      x y z
#    x 4.216630 0.000000 -0.092490 
#    y 0.000000 3.756970 0.000000 
#    z -0.092490 0.000000 3.987650 
# 
# 
# High freq. dielectric constant tensor:
#      x y z
#    x 1.883230 0.000000 -0.002770 
#    y 0.000000 1.834990 0.000000 
#    z -0.002770 0.000000 1.873120 
# 
# From -- ./inp_files/39342.got.cif
#   From: 2010.06.25/outbox.cif.g09.slc.cpg/sg15_20_cif.got.tgz:39342.got - 2010.06.28 07:06:18.
