data_PCOD8142386
_publ_section_title
;
Structure prediction by ZEFSAII (Michael W. Deem and Ramdas Pophale) SiO2 
 PCOD8142386
Probable space group: C 2/C
;
_chemical_formula_sum "Si O2"
_cell_formula_units_Z 44
_cell_length_a 8.234820
_cell_length_b 31.593094
_cell_length_c 9.358727
_cell_angle_alpha 90.000000
_cell_angle_beta 54.499553
_cell_angle_gamma 90.000000
_cell_volume 1982.196320
_symmetry_space_group_name_H-M "C 2/C"
_symmetry_group_IT_number 15
_symmetry_cell_setting 'monoclinic'
loop_
_space_group_symop_operation_xyz
x,y,z
-x,y,1/2-z
-x,-y,-z
x,-y,1/2+z
1/2+x,1/2+y,z
1/2-x,1/2+y,1/2-z
1/2-x,1/2-y,-z
1/2+x,1/2-y,1/2+z
loop_
_atom_site_type_symbol
_atom_site_label
_atom_site_fract_x
_atom_site_fract_y
_atom_site_fract_z
Si Si1 0.918924 0.537998 0.949360
Si Si2 0.043609 0.119813 0.497443
Si Si3 0.678093 0.707993 0.368717
Si Si4 0.680306 0.884396 0.377340
Si Si5 0.540748 0.795286 0.502677
Si Si6 0.000000 0.934278 0.750000
O O1 0.000000 0.529563 0.750000
O O2 0.997608 0.583319 0.963708
O O3 0.678164 0.537536 0.090893
O O4 0.000000 0.500000 0.000000
O O5 0.022820 0.169667 0.471352
O O6 0.226603 0.112534 0.512282
O O7 0.090638 0.094044 0.330612
O O8 0.839211 0.103714 0.673574
O O9 0.562453 0.752113 0.400527
O O10 0.821046 0.710937 0.431110
O O11 0.810561 0.698398 0.161993
O O12 0.605576 0.836862 0.382182
#
# Coordination Sequence:
#
# PCOD8142386 Si02
#       6
#     8   8   8   8   8   4
#     4  12  29  50  73 103 134 171 218 280 340 410
#     4  10  21  38  68  99 135 181 222 273 329 400
#     4   9  16  28  50  91 127 172 226 269 322 371
#     4  10  21  42  67  97 133 176 228 274 335 399
#     4   9  16  28  54  86 128 172 223 279 313 382
#     4  12  26  46  74 100 142 174 216 274 340 400
#
# _framework density 22.197599
#
# number of rings (size 3 to 8) (size 9 to 14) (size 15 to 20)
#    0.000    1.818    1.818    2.182    2.545    8.000 
#    0.000    0.000    2.000    3.273    0.000    0.000 
#    0.000    0.000    0.000    0.000    0.000    0.000 
#
# Total GULP energy -272781.298576 kJ/mol
# GULP energy per Si atom -12399.149935 kJ/mol
# Density = 2.214708 g / cm^3
# Si number density = 22.197599 Si / 1000 Ang^3
#
#
#
# Elastic Constant Matrix: (Units=GPa)
#
#
# Indices 1 2 3 4 5 6 
#
# 1 59.1582 37.3967 46.3614 0.0000 -12.7209 0.0000
# 2 37.3967 116.4229 42.4018 0.0000 -2.9667 0.0000
# 3 46.3614 42.4018 133.9772 0.0000 -8.0226 0.0000
# 4 0.0000 0.0000 0.0000 20.5944 0.0000 -5.2807
# 5 -12.7209 -2.9667 -8.0226 0.0000 35.8035 0.0000
# 6 0.0000 0.0000 0.0000 -5.2807 0.0000 24.6295
#
#
#
# Elastic Compliance Matrix: (Units=1/GPa)
#
#
# Indices 1 2 3 4 5 6 
#
# 1 0.028285 -0.006207 -0.007351 0.000000 0.007888 0.000000
# 2 -0.006207 0.011071 -0.001453 0.000000 -0.001614 0.000000
# 3 -0.007351 -0.001453 0.010444 0.000000 -0.000392 0.000000
# 4 0.000000 0.000000 0.000000 0.051382 0.000000 0.011016
# 5 0.007888 -0.001614 -0.000392 0.000000 0.030511 0.000000
# 6 0.000000 0.000000 0.000000 0.011016 0.000000 0.042964
#
#
# Mechanical properties :
#
#
# Convention : Reuss Voigt Hill
#
# Bulk Modulus (GPa) = 50.55983 62.43091 56.49537
# Shear Modulus (GPa) = 23.66639 28.43202 26.04921
#
# Velocity S-wave (km/s) = 3.26877 3.58279 3.42938
# Velocity P-wave (km/s) = 6.08876 6.73063 6.41773
#
# Compressibility (1/GPa) = 0.01977855
#
# Stress axis : x y z
#
# Youngs Moduli (GPa) = 35.35496 90.32511 95.75023
#
# Poissons Ratio (x) = 0.56067 0.70384
# Poissons Ratio (y) = 0.21946 0.13908
# Poissons Ratio (z) = 0.25989 0.13120
#
# Static dielectric constant tensor:
#      x y z
#    x 3.714650 0.000000 -0.127500 
#    y 0.000000 4.009230 0.000000 
#    z -0.127500 0.000000 4.130390 
# 
# 
# High freq. dielectric constant tensor:
#      x y z
#    x 1.848410 0.000000 -0.012930 
#    y 0.000000 1.873280 0.000000 
#    z -0.012930 0.000000 1.880820 
# 
# From -- ./inp_files/26008.got.cif
#   From: 2010.06.25/outbox.cif.g09.slc.cpg/sg15_14_cif.got.tgz:26008.got - 2010.06.28 07:06:18.
