data_PCOD8142422
_publ_section_title
;
Structure prediction by ZEFSAII (Michael W. Deem and Ramdas Pophale) SiO2 
 PCOD8142422
Probable space group: C 2/C
;
_chemical_formula_sum "Si O2"
_cell_formula_units_Z 36
_cell_length_a 13.265793
_cell_length_b 30.207916
_cell_length_c 12.474755
_cell_angle_alpha 90.000000
_cell_angle_beta 22.423231
_cell_angle_gamma 90.000000
_cell_volume 1906.857199
_symmetry_space_group_name_H-M "C 2/C"
_symmetry_group_IT_number 15
_symmetry_cell_setting 'monoclinic'
loop_
_space_group_symop_operation_xyz
x,y,z
-x,y,1/2-z
-x,-y,-z
x,-y,1/2+z
1/2+x,1/2+y,z
1/2-x,1/2+y,1/2-z
1/2-x,1/2-y,-z
1/2+x,1/2-y,1/2+z
loop_
_atom_site_type_symbol
_atom_site_label
_atom_site_fract_x
_atom_site_fract_y
_atom_site_fract_z
Si Si1 0.000000 0.987578 0.750000
Si Si2 0.046065 0.387445 0.982229
Si Si3 0.000000 0.219148 0.750000
Si Si4 0.000000 0.430031 0.250000
Si Si5 0.057452 0.855006 0.364165
Si Si6 0.193903 0.437476 0.458753
O O1 0.243934 0.958590 0.465581
O O2 0.879308 0.018783 0.774316
O O3 0.083246 0.399381 0.069387
O O4 0.810957 0.351690 0.194703
O O5 0.979450 0.432598 0.979924
O O6 0.310497 0.365091 0.681360
O O7 0.011069 0.190019 0.846252
O O8 0.250000 0.250000 0.500000
O O9 0.113801 0.894571 0.223345
O O10 0.000000 0.438834 0.750000
#
# Coordination Sequence:
#
# PCOD8142422 Si02
#       6
#     4   8   4   4   8   8
#     4  12  23  36  56  80 122 146 204 274 312 320
#     4  10  23  39  62  76 116 162 214 232 292 344
#     4  12  23  36  65 108 132 138 168 238 301 354
#     4  12  26  40  53  88 110 152 222 274 273 312
#     4  10  22  40  61  84 119 163 186 221 285 398
#     4  10  21  39  58  81 111 172 190 234 312 379
#
# _framework density 18.879231999999998
#
# number of rings (size 3 to 8) (size 9 to 14) (size 15 to 20)
#    1.333    0.000    1.111    6.000    1.556    1.778 
#    0.000    0.000    0.000    0.000    0.000   15.556 
#    0.000    0.000    0.000    0.000    0.000    0.000 
#
# Total GULP energy -223032.299844 kJ/mol
# GULP energy per Si atom -12390.683325 kJ/mol
# Density = 1.883626 g / cm^3
# Si number density = 18.879232 Si / 1000 Ang^3
#
#
#
# Elastic Constant Matrix: (Units=GPa)
#
#
# Indices 1 2 3 4 5 6 
#
# 1 111.3783 45.3039 55.8167 0.0165 15.6706 -0.0033
# 2 45.3039 98.2779 64.6521 0.0139 9.0108 -0.0029
# 3 55.8167 64.6521 178.0319 0.0881 -3.2322 -0.0250
# 4 0.0165 0.0139 0.0881 18.3787 -0.0208 -4.5521
# 5 15.6706 9.0108 -3.2322 -0.0208 23.1975 0.0062
# 6 -0.0033 -0.0029 -0.0250 -4.5521 0.0062 4.4743
#
#
#
# Elastic Compliance Matrix: (Units=1/GPa)
#
#
# Indices 1 2 3 4 5 6 
#
# 1 0.012920 -0.003251 -0.003013 -0.000004 -0.007885 -0.000003
# 2 -0.003251 0.015039 -0.004520 0.000007 -0.004276 -0.000005
# 3 -0.003013 -0.004520 0.008293 -0.000026 0.004947 0.000008
# 4 -0.000004 0.000007 -0.000026 0.072741 0.000042 0.074007
# 5 -0.007885 -0.004276 0.004947 0.000042 0.050785 -0.000008
# 6 -0.000003 -0.000005 0.000008 0.074007 -0.000008 0.298794
#
#
# Mechanical properties :
#
#
# Convention : Reuss Voigt Hill
#
# Bulk Modulus (GPa) = 68.09956 79.91484 74.00720
# Shear Modulus (GPa) = 10.30853 24.00446 17.15649
#
# Velocity S-wave (km/s) = 2.33925 3.56964 3.01782
# Velocity P-wave (km/s) = 6.59133 7.70787 7.17136
#
# Compressibility (1/GPa) = 0.01468438
#
# Stress axis : x y z
#
# Youngs Moduli (GPa) = 77.39813 66.49321 120.58365
#
# Poissons Ratio (x) = 0.21614 0.36338
# Poissons Ratio (y) = 0.25159 0.54503
# Poissons Ratio (z) = 0.23324 0.30055
#
# Static dielectric constant tensor:
#      x y z
#    x 3.269020 -0.000280 -0.232210 
#    y -0.000280 3.432640 -0.000290 
#    z -0.232210 -0.000290 3.629700 
# 
# 
# High freq. dielectric constant tensor:
#      x y z
#    x 1.714410 0.000000 -0.015080 
#    y 0.000000 1.694690 0.000000 
#    z -0.015080 0.000000 1.759840 
# 
# From -- ./inp_files/157438.got.cif
#   From: 2010.06.25/outbox.cif.g09.slc.cpg/sg15_79_cif.got.tgz:157438.got - 2010.06.28 07:06:18.
