data_PCOD8142470
_publ_section_title
;
Structure prediction by ZEFSAII (Michael W. Deem and Ramdas Pophale) SiO2 
 PCOD8142470
Probable space group: C 2/C
;
_chemical_formula_sum "Si O2"
_cell_formula_units_Z 64
_cell_length_a 14.385800
_cell_length_b 7.854815
_cell_length_c 28.401406
_cell_angle_alpha 90.000000
_cell_angle_beta 104.268819
_cell_angle_gamma 90.000000
_cell_volume 3110.289560
_symmetry_space_group_name_H-M "C 2/C"
_symmetry_group_IT_number 15
_symmetry_cell_setting 'monoclinic'
loop_
_space_group_symop_operation_xyz
x,y,z
-x,y,1/2-z
-x,-y,-z
x,-y,1/2+z
1/2+x,1/2+y,z
1/2-x,1/2+y,1/2-z
1/2-x,1/2-y,-z
1/2+x,1/2-y,1/2+z
loop_
_atom_site_type_symbol
_atom_site_label
_atom_site_fract_x
_atom_site_fract_y
_atom_site_fract_z
Si Si1 0.464883 0.177177 0.640614
Si Si2 0.892183 0.745644 0.373046
Si Si3 0.575073 0.426587 0.359871
Si Si4 0.811254 0.250307 0.709972
Si Si5 0.692217 0.783083 0.946194
Si Si6 0.234651 0.506030 0.371032
Si Si7 0.513511 0.982295 0.946750
Si Si8 0.358110 0.010585 0.792579
O O1 0.432499 0.370554 0.643405
O O2 0.376344 0.052369 0.641240
O O3 0.502057 0.143509 0.591138
O O4 0.547258 0.128850 0.689186
O O5 0.805905 0.851856 0.382659
O O6 0.843329 0.592648 0.338699
O O7 0.968313 0.849728 0.350961
O O8 0.943238 0.671057 0.425062
O O9 0.619189 0.354022 0.316720
O O10 0.639253 0.376469 0.413821
O O11 0.746576 0.384426 0.673279
O O12 0.737466 0.124528 0.727991
O O13 0.871765 0.367124 0.753819
O O14 0.762734 0.869153 0.917312
O O15 0.621488 0.930421 0.952534
O O16 0.750000 0.750000 0.000000
O O17 0.500000 0.000000 0.000000
#
# Coordination Sequence:
#
# PCOD8142470 Si02
#       8
#     8   8   8   8   8   8   8   8
#     4  10  22  40  61  88 121 159 200 247 301 358
#     4  10  21  39  60  86 118 154 196 245 295 350
#     4  10  22  40  61  88 121 159 200 247 301 358
#     4  11  23  40  61  88 117 149 193 244 297 360
#     4   9  20  36  56  85 121 158 200 246 295 350
#     4  10  21  39  60  86 118 154 196 245 295 350
#     4   9  20  36  56  85 121 158 200 246 295 350
#     4  11  23  40  61  88 117 149 193 244 297 360
#
# _framework density 20.576862999999999
#
# number of rings (size 3 to 8) (size 9 to 14) (size 15 to 20)
#    0.000    2.000    0.000    4.500    0.000    9.000 
#    0.000    6.250    0.000    0.000    0.000    0.000 
#    0.000    0.000    0.000    0.000    0.000    0.000 
#
# Total GULP energy -396498.073668 kJ/mol
# GULP energy per Si atom -12390.564802 kJ/mol
# Density = 2.053003 g / cm^3
# Si number density = 20.576863 Si / 1000 Ang^3
#
#
#
# Elastic Constant Matrix: (Units=GPa)
#
#
# Indices 1 2 3 4 5 6 
#
# 1 81.1090 31.1155 35.0713 0.0000 3.2301 0.0000
# 2 31.1155 116.0781 46.3104 0.0000 -0.5907 0.0000
# 3 35.0713 46.3104 119.6796 0.0000 -1.4140 0.0000
# 4 0.0000 0.0000 0.0000 24.2767 0.0000 -2.3926
# 5 3.2301 -0.5907 -1.4140 0.0000 22.7738 0.0000
# 6 0.0000 0.0000 0.0000 -2.3926 0.0000 35.5994
#
#
#
# Elastic Compliance Matrix: (Units=1/GPa)
#
#
# Indices 1 2 3 4 5 6 
#
# 1 0.014901 -0.002664 -0.003364 0.000000 -0.002391 0.000000
# 2 -0.002664 0.010664 -0.003340 0.000000 0.000447 0.000000
# 3 -0.003364 -0.003340 0.010646 0.000000 0.001052 0.000000
# 4 0.000000 0.000000 0.000000 0.041466 0.000000 0.002787
# 5 -0.002391 0.000447 0.001052 0.000000 0.044326 0.000000
# 6 0.000000 0.000000 0.000000 0.002787 0.000000 0.028278
#
#
# Mechanical properties :
#
#
# Convention : Reuss Voigt Hill
#
# Bulk Modulus (GPa) = 57.22780 60.20677 58.71728
# Shear Modulus (GPa) = 28.59694 30.15462 29.37578
#
# Velocity S-wave (km/s) = 3.73200 3.83229 3.78247
# Velocity P-wave (km/s) = 6.81487 6.99320 6.90461
#
# Compressibility (1/GPa) = 0.01747403
#
# Stress axis : x y z
#
# Youngs Moduli (GPa) = 67.10960 93.77277 93.92831
#
# Poissons Ratio (x) = 0.24985 0.31596
# Poissons Ratio (y) = 0.17881 0.31376
# Poissons Ratio (z) = 0.22575 0.31324
#
# Static dielectric constant tensor:
#      x y z
#    x 3.654870 0.000000 0.047290 
#    y 0.000000 3.641840 0.000000 
#    z 0.047290 0.000000 3.241950 
# 
# 
# High freq. dielectric constant tensor:
#      x y z
#    x 1.802940 0.000000 0.001390 
#    y 0.000000 1.808260 0.000000 
#    z 0.001390 0.000000 1.804790 
# 
# From -- ./inp_files/295210.got.cif
#   From: 2010.06.25/outbox.cif.g09.slc.cpg/sg15_148_cif.got.tgz:295210.got - 2010.06.28 07:06:18.
