data_PCOD8142362
_publ_section_title
;
Structure prediction by ZEFSAII (Michael W. Deem and Ramdas Pophale) SiO2 
 PCOD8142362
Probable space group: C 2/C
;
_chemical_formula_sum "Si O2"
_cell_formula_units_Z 52
_cell_length_a 9.468944
_cell_length_b 15.056988
_cell_length_c 17.783480
_cell_angle_alpha 90.000000
_cell_angle_beta 109.401640
_cell_angle_gamma 90.000000
_cell_volume 2391.477230
_symmetry_space_group_name_H-M "C 2/C"
_symmetry_group_IT_number 15
_symmetry_cell_setting 'monoclinic'
loop_
_space_group_symop_operation_xyz
x,y,z
-x,y,1/2-z
-x,-y,-z
x,-y,1/2+z
1/2+x,1/2+y,z
1/2-x,1/2+y,1/2-z
1/2-x,1/2-y,-z
1/2+x,1/2-y,1/2+z
loop_
_atom_site_type_symbol
_atom_site_label
_atom_site_fract_x
_atom_site_fract_y
_atom_site_fract_z
Si Si1 0.289554 0.597525 0.096262
Si Si2 0.000000 0.517103 0.750000
Si Si3 0.000000 0.770384 0.250000
Si Si4 0.370940 0.383906 0.450712
Si Si5 0.725512 0.832510 0.276378
Si Si6 0.692186 0.562989 0.997556
Si Si7 0.977627 0.625689 0.121538
Si Si8 0.500000 0.318889 0.750000
O O1 0.133495 0.627966 0.104619
O O2 0.430271 0.617184 0.174863
O O3 0.318744 0.651694 0.023523
O O4 0.286272 0.491692 0.077007
O O5 0.137090 0.577327 0.747284
O O6 0.960253 0.459858 0.670787
O O7 0.860773 0.834434 0.241460
O O8 0.033331 0.712701 0.329684
O O9 0.280473 0.328341 0.372674
O O10 0.336149 0.490495 0.440270
O O11 0.549319 0.371160 0.468181
O O12 0.629433 0.744840 0.240112
O O13 0.839646 0.622016 0.038886
#
# Coordination Sequence:
#
# PCOD8142362 Si02
#       8
#     8   4   4   8   8   8   8   4
#     4  10  21  38  67  95 124 170 214 269 325 389
#     4  10  22  38  68  87 133 172 222 266 320 382
#     4  11  26  39  65  93 144 168 218 267 338 379
#     4   9  21  39  64  92 126 164 218 267 317 386
#     4  11  23  44  59  96 130 180 212 268 322 404
#     4   9  20  38  66  93 127 157 219 269 327 370
#     4  11  21  41  65 100 126 172 217 279 316 389
#     4  11  24  39  63  92 131 172 218 257 340 387
#
# _framework density 21.743883
#
# number of rings (size 3 to 8) (size 9 to 14) (size 15 to 20)
#    0.923    0.923    3.077    0.462    2.154    3.077 
#    0.000    2.308    0.000    0.000    0.000    0.000 
#    0.000    0.000    0.000    0.000    0.000    0.000 
#
# Total GULP energy -322301.576852 kJ/mol
# GULP energy per Si atom -12396.214494 kJ/mol
# Density = 2.169439 g / cm^3
# Si number density = 21.743883 Si / 1000 Ang^3
#
#
#
# Elastic Constant Matrix: (Units=GPa)
#
#
# Indices 1 2 3 4 5 6 
#
# 1 152.4713 29.8073 43.6884 0.0000 3.6960 0.0000
# 2 29.8073 46.8264 8.4002 0.0000 1.5490 0.0000
# 3 43.6884 8.4002 58.8794 0.0000 8.5021 0.0000
# 4 0.0000 0.0000 0.0000 15.7886 0.0000 -2.7730
# 5 3.6960 1.5490 8.5021 0.0000 42.6185 0.0000
# 6 0.0000 0.0000 0.0000 -2.7730 0.0000 17.6083
#
#
#
# Elastic Compliance Matrix: (Units=1/GPa)
#
#
# Indices 1 2 3 4 5 6 
#
# 1 0.009286 -0.004802 -0.006295 0.000000 0.000625 0.000000
# 2 -0.004802 0.024401 0.000154 0.000000 -0.000501 0.000000
# 3 -0.006295 0.000154 0.022194 0.000000 -0.003887 0.000000
# 4 0.000000 0.000000 0.000000 0.065138 0.000000 0.010258
# 5 0.000625 -0.000501 -0.003887 0.000000 0.024203 0.000000
# 6 0.000000 0.000000 0.000000 0.010258 0.000000 0.058407
#
#
# Mechanical properties :
#
#
# Convention : Reuss Voigt Hill
#
# Bulk Modulus (GPa) = 29.41602 46.88544 38.15073
# Shear Modulus (GPa) = 21.11048 26.95515 24.03281
#
# Velocity S-wave (km/s) = 3.11926 3.52471 3.32816
# Velocity P-wave (km/s) = 5.15081 6.17852 5.68792
#
# Compressibility (1/GPa) = 0.03399508
#
# Stress axis : x y z
#
# Youngs Moduli (GPa) = 107.68704 40.98137 45.05649
#
# Poissons Ratio (x) = 0.19681 0.28365
# Poissons Ratio (y) = 0.51716 -0.00696
# Poissons Ratio (z) = 0.67794 -0.00633
#
# Static dielectric constant tensor:
#      x y z
#    x 4.004020 0.000000 0.099410 
#    y 0.000000 3.601330 0.000000 
#    z 0.099410 0.000000 3.765180 
# 
# 
# High freq. dielectric constant tensor:
#      x y z
#    x 1.865950 0.000000 0.006610 
#    y 0.000000 1.834280 0.000000 
#    z 0.006610 0.000000 1.841300 
# 
# From -- ./inp_files/190536.got.cif
#   From: 2010.06.25/outbox.cif.g09.slc.cpg/sg15_96_cif.got.tgz:190536.got - 2010.06.28 07:06:18.
