data_PCOD8142840
_publ_section_title
;
Structure prediction by ZEFSAII (Michael W. Deem and Ramdas Pophale) SiO2 
 PCOD8142840
Probable space group: C 2/C
;
_chemical_formula_sum "Si O2"
_cell_formula_units_Z 48
_cell_length_a 19.716519
_cell_length_b 7.084909
_cell_length_c 18.758629
_cell_angle_alpha 90.000000
_cell_angle_beta 118.332079
_cell_angle_gamma 90.000000
_cell_volume 2306.496443
_symmetry_space_group_name_H-M "C 2/C"
_symmetry_group_IT_number 15
_symmetry_cell_setting 'monoclinic'
loop_
_space_group_symop_operation_xyz
x,y,z
-x,y,1/2-z
-x,-y,-z
x,-y,1/2+z
1/2+x,1/2+y,z
1/2-x,1/2+y,1/2-z
1/2-x,1/2-y,-z
1/2+x,1/2-y,1/2+z
loop_
_atom_site_type_symbol
_atom_site_label
_atom_site_fract_x
_atom_site_fract_y
_atom_site_fract_z
Si Si1 0.151227 0.360700 0.904386
Si Si2 0.914964 0.448648 0.386813
Si Si3 0.317236 0.609943 0.314377
Si Si4 0.675120 0.473098 0.519420
Si Si5 0.586045 0.139849 0.969959
Si Si6 0.852952 0.266315 0.758820
O O1 0.233748 0.465528 0.949913
O O2 0.092416 0.520853 0.900391
O O3 0.130347 0.285350 0.816210
O O4 0.138924 0.186927 0.951818
O O5 0.856624 0.309192 0.317251
O O6 0.880840 0.522054 0.445679
O O7 0.920693 0.631573 0.337680
O O8 0.994838 0.334790 0.438015
O O9 0.342124 0.561322 0.406809
O O10 0.226353 0.631679 0.258459
O O11 0.349633 0.454441 0.276111
O O12 0.634208 0.670320 0.481026
#
# Coordination Sequence:
#
# PCOD8142840 Si02
#       6
#     8   8   8   8   8   8
#     4  10  23  40  62  96 128 160 213 268 314 366
#     4  11  24  39  64  94 124 171 211 255 315 386
#     4  11  21  40  65  92 122 160 218 257 314 374
#     4  10  21  39  66  93 119 170 212 260 311 377
#     4  11  23  41  63  91 131 166 211 257 314 386
#     4  11  23  39  65  93 125 162 207 273 312 367
#
# _framework density 20.810784000000002
#
# number of rings (size 3 to 8) (size 9 to 14) (size 15 to 20)
#    0.000    1.333    5.000    0.500    0.000    4.000 
#    0.000    0.000    0.000    0.000    0.000    0.000 
#    0.000    0.000    0.000    0.000    0.000    0.000 
#
# Total GULP energy -297546.320856 kJ/mol
# GULP energy per Si atom -12397.763369 kJ/mol
# Density = 2.076342 g / cm^3
# Si number density = 20.810784 Si / 1000 Ang^3
#
#
#
# Elastic Constant Matrix: (Units=GPa)
#
#
# Indices 1 2 3 4 5 6 
#
# 1 63.4890 47.7615 22.2966 0.0000 -14.5271 0.0000
# 2 47.7615 132.0369 40.4922 0.0000 -8.0888 0.0000
# 3 22.2966 40.4922 81.8771 0.0000 -10.4820 0.0000
# 4 0.0000 0.0000 0.0000 35.4646 0.0000 -8.7149
# 5 -14.5271 -8.0888 -10.4820 0.0000 20.6227 0.0000
# 6 0.0000 0.0000 0.0000 -8.7149 0.0000 30.5931
#
#
#
# Elastic Compliance Matrix: (Units=1/GPa)
#
#
# Indices 1 2 3 4 5 6 
#
# 1 0.025390 -0.007959 -0.001164 0.000000 0.014172 0.000000
# 2 -0.007959 0.011458 -0.003895 0.000000 -0.003092 0.000000
# 3 -0.001164 -0.003895 0.015141 0.000000 0.005349 0.000000
# 4 0.000000 0.000000 0.000000 0.030320 0.000000 0.008637
# 5 0.014172 -0.003092 0.005349 0.000000 0.059979 0.000000
# 6 0.000000 0.000000 0.000000 0.008637 0.000000 0.035147
#
#
# Mechanical properties :
#
#
# Convention : Reuss Voigt Hill
#
# Bulk Modulus (GPa) = 38.53056 55.38927 46.95992
# Shear Modulus (GPa) = 23.57148 28.45958 26.01553
#
# Velocity S-wave (km/s) = 3.36915 3.70204 3.53951
# Velocity P-wave (km/s) = 5.80429 6.70424 6.27043
#
# Compressibility (1/GPa) = 0.02595342
#
# Stress axis : x y z
#
# Youngs Moduli (GPa) = 39.38625 87.27772 66.04496
#
# Poissons Ratio (x) = 0.69465 0.07685
# Poissons Ratio (y) = 0.31348 0.25723
# Poissons Ratio (z) = 0.04583 0.33993
#
# Static dielectric constant tensor:
#      x y z
#    x 3.534940 0.000000 -0.098410 
#    y 0.000000 3.791000 0.000000 
#    z -0.098410 0.000000 3.677430 
# 
# 
# High freq. dielectric constant tensor:
#      x y z
#    x 1.799460 0.000000 -0.007860 
#    y 0.000000 1.821870 0.000000 
#    z -0.007860 0.000000 1.812670 
# 
# From -- ./inp_files/254472.got.cif
#   From: 2010.06.25/outbox.cif.g09.slc.cpg/sg15_128_cif.got.tgz:254472.got - 2010.06.28 07:06:18.
