data_PCOD8142495
_publ_section_title
;
Structure prediction by ZEFSAII (Michael W. Deem and Ramdas Pophale) SiO2 
 PCOD8142495
Probable space group: C 2/C
;
_chemical_formula_sum "Si O2"
_cell_formula_units_Z 48
_cell_length_a 15.157522
_cell_length_b 11.672250
_cell_length_c 21.038717
_cell_angle_alpha 90.000000
_cell_angle_beta 39.183850
_cell_angle_gamma 90.000000
_cell_volume 2351.738966
_symmetry_space_group_name_H-M "C 2/C"
_symmetry_group_IT_number 15
_symmetry_cell_setting 'monoclinic'
loop_
_space_group_symop_operation_xyz
x,y,z
-x,y,1/2-z
-x,-y,-z
x,-y,1/2+z
1/2+x,1/2+y,z
1/2-x,1/2+y,1/2-z
1/2-x,1/2-y,-z
1/2+x,1/2-y,1/2+z
loop_
_atom_site_type_symbol
_atom_site_label
_atom_site_fract_x
_atom_site_fract_y
_atom_site_fract_z
Si Si1 0.005380 0.363317 0.821568
Si Si2 0.243715 0.413095 0.452025
Si Si3 0.485614 0.371993 0.126063
Si Si4 0.603685 0.731362 0.440480
Si Si5 0.737730 0.431133 0.764460
Si Si6 0.619653 0.907171 0.944052
O O1 0.071037 0.251008 0.819213
O O2 0.115881 0.462484 0.780476
O O3 0.000000 0.349409 0.750000
O O4 0.849821 0.381590 0.934416
O O5 0.405212 0.411198 0.380644
O O6 0.210814 0.324519 0.412262
O O7 0.212775 0.544588 0.449835
O O8 0.356660 0.457143 0.190492
O O9 0.565415 0.363717 0.014402
O O10 0.664314 0.669313 0.345222
O O11 0.459521 0.789196 0.496679
O O12 0.777705 0.386801 0.672468
O O13 0.500000 0.000000 0.000000
#
# Coordination Sequence:
#
# PCOD8142495 Si02
#       6
#     8   8   8   8   8   8
#     4  11  22  38  63  94 121 160 205 253 313 359
#     4  10  21  41  63  91 126 159 201 265 301 354
#     4  11  23  38  62  95 125 153 209 264 297 362
#     4  10  21  40  61  91 127 160 207 254 306 360
#     4  12  23  36  64  93 123 168 202 248 316 365
#     4  10  21  39  60  90 127 164 200 250 308 365
#
# _framework density 20.410429000000001
#
# number of rings (size 3 to 8) (size 9 to 14) (size 15 to 20)
#    0.000    1.333    5.000    4.500    7.000    0.000 
#    0.000    0.833    0.000    2.000    0.000    0.000 
#    0.000    0.000    0.000    0.000    0.000    0.000 
#
# Total GULP energy -297437.386505 kJ/mol
# GULP energy per Si atom -12393.224438 kJ/mol
# Density = 2.036397 g / cm^3
# Si number density = 20.410429 Si / 1000 Ang^3
#
#
#
# Elastic Constant Matrix: (Units=GPa)
#
#
# Indices 1 2 3 4 5 6 
#
# 1 83.5782 46.8800 37.7141 0.0000 -10.1247 0.0000
# 2 46.8800 50.4385 31.7354 0.0000 -1.1393 0.0000
# 3 37.7141 31.7354 100.0786 -0.0001 16.0702 0.0001
# 4 0.0000 0.0000 -0.0001 26.9499 0.0000 -7.2557
# 5 -10.1247 -1.1393 16.0702 0.0000 42.4839 0.0000
# 6 0.0000 0.0000 0.0001 -7.2557 0.0000 33.9536
#
#
#
# Elastic Compliance Matrix: (Units=1/GPa)
#
#
# Indices 1 2 3 4 5 6 
#
# 1 0.027644 -0.022727 -0.004440 0.000000 0.007658 0.000000
# 2 -0.022727 0.044065 -0.005034 0.000000 -0.002330 0.000000
# 3 -0.004440 -0.005034 0.014324 0.000000 -0.006611 0.000000
# 4 0.000000 0.000000 0.000000 0.039371 0.000000 0.008413
# 5 0.007658 -0.002330 -0.006611 0.000000 0.027802 0.000000
# 6 0.000000 0.000000 0.000000 0.008413 0.000000 0.031250
#
#
# Mechanical properties :
#
#
# Convention : Reuss Voigt Hill
#
# Bulk Modulus (GPa) = 46.23480 51.86158 49.04819
# Shear Modulus (GPa) = 19.52606 28.52853 24.02729
#
# Velocity S-wave (km/s) = 3.09636 3.74270 3.43477
# Velocity P-wave (km/s) = 5.95693 6.64391 6.30978
#
# Compressibility (1/GPa) = 0.02162873
#
# Stress axis : x y z
#
# Youngs Moduli (GPa) = 36.17409 22.69395 69.81500
#
# Poissons Ratio (x) = 0.51576 0.31001
# Poissons Ratio (y) = 0.82213 0.35148
# Poissons Ratio (z) = 0.16063 0.11425
#
# Static dielectric constant tensor:
#      x y z
#    x 3.898140 0.000000 -0.086900 
#    y 0.000000 3.741950 0.000000 
#    z -0.086900 0.000000 3.877660 
# 
# 
# High freq. dielectric constant tensor:
#      x y z
#    x 1.785220 0.000000 -0.001400 
#    y 0.000000 1.763460 0.000000 
#    z -0.001400 0.000000 1.820940 
# 
# From -- ./inp_files/243911.got.cif
#   From: 2010.06.25/outbox.cif.g09.slc.cpg/sg15_122_cif.got.tgz:243911.got - 2010.06.28 07:06:18.
