data_PCOD8142023
_publ_section_title
;
Structure prediction by ZEFSAII (Michael W. Deem and Ramdas Pophale) SiO2 
 PCOD8142023
Probable space group: C 2/C
;
_chemical_formula_sum "Si O2"
_cell_formula_units_Z 64
_cell_length_a 27.447540
_cell_length_b 8.457244
_cell_length_c 13.930999
_cell_angle_alpha 90.000000
_cell_angle_beta 91.698093
_cell_angle_gamma 90.000000
_cell_volume 3232.390224
_symmetry_space_group_name_H-M "C 2/C"
_symmetry_group_IT_number 15
_symmetry_cell_setting 'monoclinic'
loop_
_space_group_symop_operation_xyz
x,y,z
-x,y,1/2-z
-x,-y,-z
x,-y,1/2+z
1/2+x,1/2+y,z
1/2-x,1/2+y,1/2-z
1/2-x,1/2-y,-z
1/2+x,1/2-y,1/2+z
loop_
_atom_site_type_symbol
_atom_site_label
_atom_site_fract_x
_atom_site_fract_y
_atom_site_fract_z
Si Si1 0.825358 0.537529 0.547172
Si Si2 0.983304 0.938823 0.856841
Si Si3 0.422184 0.019360 0.970714
Si Si4 0.756788 0.514710 0.366763
Si Si5 0.501400 0.757540 0.539491
Si Si6 0.879348 0.194836 0.367222
Si Si7 0.304757 0.303048 0.029192
Si Si8 0.300762 0.231272 0.729838
O O1 0.881031 0.578606 0.525103
O O2 0.789639 0.577046 0.456215
O O3 0.827510 0.352923 0.578515
O O4 0.806693 0.639791 0.632412
O O5 0.924764 0.925261 0.865139
O O6 0.000000 0.895992 0.750000
O O7 0.999331 0.118045 0.882152
O O8 0.008807 0.816762 0.932873
O O9 0.397643 0.124268 0.884841
O O10 0.457039 0.883754 0.930723
O O11 0.450785 0.144687 0.040503
O O12 0.703608 0.450417 0.399832
O O13 0.744073 0.648789 0.288776
O O14 0.787504 0.378064 0.318449
O O15 0.840305 0.139495 0.445844
O O16 0.851415 0.185629 0.263509
O O17 0.250000 0.250000 0.000000
#
# Coordination Sequence:
#
# PCOD8142023 Si02
#       8
#     8   8   8   8   8   8   8   8
#     4  10  21  38  61  86 121 155 206 253 293 365
#     4  10  22  41  60  89 127 151 196 252 305 369
#     4   9  18  41  64  86 115 157 202 251 300 359
#     4  11  23  40  60  87 123 165 201 250 302 360
#     4   9  20  40  65  85 117 160 195 247 315 358
#     4  10  21  40  62  88 123 161 202 251 305 364
#     4   9  17  39  60  77 119 159 191 247 301 343
#     4  12  23  38  60  92 121 162 210 246 308 361
#
# _framework density 19.799589999999998
#
# number of rings (size 3 to 8) (size 9 to 14) (size 15 to 20)
#    0.000    2.000    3.750    1.125    3.500    1.000 
#   11.250    1.250    0.000    0.000    0.000    0.000 
#    0.000    0.000    0.000    0.000    0.000    0.000 
#
# Total GULP energy -396595.274145 kJ/mol
# GULP energy per Si atom -12393.602317 kJ/mol
# Density = 1.975453 g / cm^3
# Si number density = 19.799590 Si / 1000 Ang^3
#
#
#
# Elastic Constant Matrix: (Units=GPa)
#
#
# Indices 1 2 3 4 5 6 
#
# 1 99.7057 22.6781 22.8144 0.0000 11.2603 0.0000
# 2 22.6781 54.6547 18.2063 0.0000 9.9719 0.0000
# 3 22.8144 18.2063 75.7051 0.0000 17.3796 0.0000
# 4 0.0000 0.0000 0.0000 26.2406 0.0000 0.0545
# 5 11.2603 9.9719 17.3796 0.0000 16.7423 0.0000
# 6 0.0000 0.0000 0.0000 0.0545 0.0000 30.1040
#
#
#
# Elastic Compliance Matrix: (Units=1/GPa)
#
#
# Indices 1 2 3 4 5 6 
#
# 1 0.011682 -0.003544 -0.001771 0.000000 -0.003907 0.000000
# 2 -0.003544 0.022064 -0.002322 0.000000 -0.008348 0.000000
# 3 -0.001771 -0.002322 0.018000 0.000000 -0.016111 0.000000
# 4 0.000000 0.000000 0.000000 0.038109 0.000000 -0.000069
# 5 -0.003907 -0.008348 -0.016111 0.000000 0.084053 0.000000
# 6 0.000000 0.000000 0.000000 -0.000069 0.000000 0.033218
#
#
# Mechanical properties :
#
#
# Convention : Reuss Voigt Hill
#
# Bulk Modulus (GPa) = 27.41870 39.71811 33.56841
# Shear Modulus (GPa) = 21.31673 25.70850 23.51261
#
# Velocity S-wave (km/s) = 3.28476 3.60729 3.44979
# Velocity P-wave (km/s) = 5.31642 6.11994 5.73228
#
# Compressibility (1/GPa) = 0.03647145
#
# Stress axis : x y z
#
# Youngs Moduli (GPa) = 85.59988 45.32309 55.55618
#
# Poissons Ratio (x) = 0.16065 0.09840
# Poissons Ratio (y) = 0.30340 0.12898
# Poissons Ratio (z) = 0.15161 0.10522
#
# Static dielectric constant tensor:
#      x y z
#    x 3.829400 0.000000 -0.012320 
#    y 0.000000 3.726420 0.000000 
#    z -0.012320 0.000000 3.557160 
# 
# 
# High freq. dielectric constant tensor:
#      x y z
#    x 1.779750 0.000000 0.006340 
#    y 0.000000 1.765360 0.000000 
#    z 0.006340 0.000000 1.752100 
# 
# From -- ./inp_files/176604.got.cif
#   From: 2010.06.25/outbox.cif.g09.slc.cpg/sg15_89_cif.got.tgz:176604.got - 2010.06.28 07:06:18.
